data_PCOD9059730
_publ_section_title
;
Structure prediction by ZEFSAII (Michael W. Deem and Ramdas Pophale) SiO2 
 PCOD9059730
Probable space group: P -1
;
_chemical_formula_sum "Si O2"
_cell_formula_units_Z 16
_cell_length_a 11.203390
_cell_length_b 13.937926
_cell_length_c 8.934143
_cell_angle_alpha 117.854278
_cell_angle_beta 58.254987
_cell_angle_gamma 71.204628
_cell_volume 687.236851
_symmetry_space_group_name_H-M "P -1"
_symmetry_group_IT_number 2
_symmetry_cell_setting 'triclinic'
loop_
_space_group_symop_operation_xyz
x,y,z
-x,-y,-z
loop_
_atom_site_type_symbol
_atom_site_label
_atom_site_fract_x
_atom_site_fract_y
_atom_site_fract_z
Si Si1 0.839423 0.737307 0.706991
Si Si2 0.742071 0.006836 0.428148
Si Si3 0.398535 0.311163 0.348925
Si Si4 0.693399 0.511043 0.859771
Si Si5 0.335489 0.305791 0.735425
Si Si6 0.024010 0.325300 0.098478
Si Si7 0.224961 0.011815 0.268597
Si Si8 0.230721 0.778111 0.341297
O O1 0.699004 0.726728 0.718254
O O2 0.839365 0.751610 0.894476
O O3 0.783598 0.879530 0.756282
O O4 0.088845 0.561155 0.387225
O O5 0.687531 0.012939 0.642163
O O6 0.529951 0.126696 0.554371
O O7 0.816348 0.089009 0.432079
O O8 0.921175 0.819614 0.120439
O O9 0.378315 0.292356 0.522966
O O10 0.228907 0.508389 0.585699
O O11 0.646548 0.158078 0.025687
O O12 0.731297 0.360632 0.708620
O O13 0.666868 0.575519 0.092011
O O14 0.468640 0.665845 0.040451
O O15 0.120219 0.365099 0.960082
O O16 0.978908 0.121994 0.543292
#
# Coordination Sequence:
#
# PCOD9059730 Si02
#       8
#     2   2   2   2   2   2   2   2
#     4  11  23  42  67  96 139 169 217 267 333 389
#     4  11  24  43  67  95 133 177 221 265 323 390
#     4  12  25  40  66 103 135 170 214 269 333 392
#     4   9  20  40  70  98 122 177 220 274 316 385
#     4  11  23  42  67  96 139 169 217 267 333 389
#     4  12  25  40  66 103 135 170 214 269 333 392
#     4  11  24  43  67  95 133 177 221 265 323 390
#     4   9  21  42  68  91 129 175 228 260 323 381
#
# _framework density 23.281637
#
# number of rings (size 3 to 8) (size 9 to 14) (size 15 to 20)
#    0.000    1.250    1.250    4.125    7.000    0.000 
#    0.000   11.875    0.000    0.000    0.000    0.000 
#    0.000    0.000    0.000    0.000    0.000    0.000 
#
# Total GULP energy -89346.764699 kJ/mol
# GULP energy per Si atom -5584.172794 kJ/mol
# Density = 2.322865 g / cm^3
# Si number density = 23.281637 Si / 1000 Ang^3
#
#
#
# Elastic Constant Matrix: (Units=GPa)
#
#
# Indices 1 2 3 4 5 6 
#
# 1 59.8196 28.0082 47.1472 9.7448 2.9187 -1.9240
# 2 28.0082 114.1009 39.1328 14.4440 25.4894 -18.6452
# 3 47.1472 39.1328 138.9772 26.7041 18.4306 -12.9990
# 4 9.7448 14.4440 26.7041 33.9505 -2.8830 17.1305
# 5 2.9187 25.4894 18.4306 -2.8830 50.5476 8.2143
# 6 -1.9240 -18.6452 -12.9990 17.1305 8.2143 44.0101
#
#
#
# Elastic Compliance Matrix: (Units=1/GPa)
#
#
# Indices 1 2 3 4 5 6 
#
# 1 0.026733 -0.008108 -0.011292 0.011368 0.009219 -0.011747
# 2 -0.008108 0.018243 0.005636 -0.021361 -0.015288 0.020207
# 3 -0.011292 0.005636 0.017307 -0.023144 -0.012811 0.018406
# 4 0.011368 -0.021361 -0.023144 0.083362 0.032055 -0.053819
# 5 0.009219 -0.015288 -0.012811 0.032055 0.038249 -0.029474
# 6 -0.011747 0.020207 0.018406 -0.053819 -0.029474 0.062655
#
#
# Mechanical properties :
#
#
# Convention : Reuss Voigt Hill
#
# Bulk Modulus (GPa) = 28.77264 60.16379 44.46822
# Shear Modulus (GPa) = 17.50321 38.94227 28.22274
#
# Velocity S-wave (km/s) = 2.74488 4.09425 3.48549
# Velocity P-wave (km/s) = 4.73615 6.94611 5.94473
#
# Compressibility (1/GPa) = 0.03475524
#
# Stress axis : x y z
#
# Youngs Moduli (GPa) = 37.40669 54.81618 57.78048
#
# Poissons Ratio (x) = 0.44443 0.65244
# Poissons Ratio (y) = 0.30328 -0.32562
# Poissons Ratio (z) = 0.42239 -0.30892
#
# Static dielectric constant tensor:
#      x y z
#    x 1.866440 0.006760 -0.048580 
#    y 0.006760 1.913540 0.013070 
#    z -0.048580 0.013070 1.914030 
# 
# From -- ./inp_files/274027.got.cif
#   From: 2010.05.17/outbox.cif.g08.bks.cpg/sg2_138_cif.got.tgz:274027.got - 2010.06.03 11:33:40.
