data_PCOD9059392
_publ_section_title
;
Structure prediction by ZEFSAII (Michael W. Deem and Ramdas Pophale) SiO2 
 PCOD9059392
Probable space group: P -1
;
_chemical_formula_sum "Si O2"
_cell_formula_units_Z 14
_cell_length_a 9.319042
_cell_length_b 27.060073
_cell_length_c 4.951587
_cell_angle_alpha 87.399674
_cell_angle_beta 87.278046
_cell_angle_gamma 27.104851
_cell_volume 568.260381
_symmetry_space_group_name_H-M "P -1"
_symmetry_group_IT_number 2
_symmetry_cell_setting 'triclinic'
loop_
_space_group_symop_operation_xyz
x,y,z
-x,-y,-z
loop_
_atom_site_type_symbol
_atom_site_label
_atom_site_fract_x
_atom_site_fract_y
_atom_site_fract_z
Si Si1 0.818347 0.884586 0.339256
Si Si2 0.286484 0.948372 0.442060
Si Si3 0.150492 0.855732 0.943864
Si Si4 0.732998 0.746019 0.097898
Si Si5 0.785856 0.826710 0.819623
Si Si6 0.994979 0.437435 0.699825
Si Si7 0.351594 0.368029 0.187327
O O1 0.945881 0.804565 0.556738
O O2 0.500000 0.000000 0.500000
O O3 0.230250 0.131234 0.933741
O O4 0.032735 0.864244 0.223271
O O5 0.566135 0.830611 0.317578
O O6 0.436336 0.921676 0.711254
O O7 0.000000 0.000000 0.500000
O O8 0.132954 0.035078 0.231652
O O9 0.322950 0.759893 0.784592
O O10 0.428378 0.810814 0.979869
O O11 0.961006 0.633137 0.212946
O O12 0.903825 0.735723 0.908321
O O13 0.108391 0.413951 0.393947
O O14 0.677489 0.565228 0.758480
O O15 0.240566 0.391273 0.886044
#
# Coordination Sequence:
#
# PCOD9059392 Si02
#       7
#     2   2   2   2   2   2   2
#     4  12  29  47  63  92 134 187 223 268 323 399
#     4  12  24  38  65 100 133 169 220 278 322 395
#     4  11  25  42  70  95 136 175 225 275 328 386
#     4  11  23  41  67  98 129 173 218 276 330 391
#     4  12  27  45  64  91 136 177 223 265 335 389
#     4   9  19  35  67  94 130 161 215 274 335 382
#     4   9  19  39  59  99 128 164 213 278 330 382
#
# _framework density 24.636593999999999
#
# number of rings (size 3 to 8) (size 9 to 14) (size 15 to 20)
#    0.000    1.143    2.857    2.571    6.000    2.286 
#    0.000    0.000    0.000    1.714    0.000    0.000 
#    0.000    0.000    0.000    0.571    0.000    0.143 
#
# Total GULP energy -78231.713291 kJ/mol
# GULP energy per Si atom -5587.979521 kJ/mol
# Density = 2.458052 g / cm^3
# Si number density = 24.636594 Si / 1000 Ang^3
#
#
#
# Elastic Constant Matrix: (Units=GPa)
#
#
# Indices 1 2 3 4 5 6 
#
# 1 90.1622 -1.3341 33.2054 -4.5045 5.2471 16.9896
# 2 -1.3341 177.5695 52.3700 -20.8159 -7.4092 46.1057
# 3 33.2054 52.3700 150.7137 -19.1770 -5.4898 20.9517
# 4 -4.5045 -20.8159 -19.1770 41.2783 14.5672 -9.8625
# 5 5.2471 -7.4092 -5.4898 14.5672 52.5456 -6.8963
# 6 16.9896 46.1057 20.9517 -9.8625 -6.8963 20.9992
#
#
#
# Elastic Compliance Matrix: (Units=1/GPa)
#
#
# Indices 1 2 3 4 5 6 
#
# 1 0.020207 0.011076 -0.003099 -0.001197 -0.005699 -0.040009
# 2 0.011076 0.019430 -0.002319 -0.000478 -0.005201 -0.051241
# 3 -0.003099 -0.002319 0.008376 0.002403 0.000251 0.000453
# 4 -0.001197 -0.000478 0.002403 0.030035 -0.006502 0.011590
# 5 -0.005699 -0.005201 0.000251 -0.006502 0.023373 0.020403
# 6 -0.040009 -0.051241 0.000453 0.011590 0.020403 0.204186
#
#
# Mechanical properties :
#
#
# Convention : Reuss Voigt Hill
#
# Bulk Modulus (GPa) = 16.85503 65.21424 41.03463
# Shear Modulus (GPa) = 15.92018 45.24489 30.58253
#
# Velocity S-wave (km/s) = 2.54481 4.29008 3.52710
# Velocity P-wave (km/s) = 3.93586 7.14616 5.76882
#
# Compressibility (1/GPa) = 0.05932946
#
# Stress axis : x y z
#
# Youngs Moduli (GPa) = 49.48773 51.46615 119.39520
#
# Poissons Ratio (x) = -0.57003 0.36997
# Poissons Ratio (y) = -0.54811 0.27685
# Poissons Ratio (z) = 0.15335 0.11934
#
# Static dielectric constant tensor:
#      x y z
#    x 2.018910 0.025800 -0.008780 
#    y 0.025800 2.033700 -0.021270 
#    z -0.008780 -0.021270 2.013410 
# 
# From -- ./inp_files/84768.got.cif
#   From: 2010.05.17/outbox.cif.g08.bks.cpg/sg2_43_cif.got.tgz:84768.got - 2010.06.03 11:33:40.
