data_PCOD9059953
_publ_section_title
;
Structure prediction by ZEFSAII (Michael W. Deem and Ramdas Pophale) SiO2 
 PCOD9059953
Probable space group: P -1
;
_chemical_formula_sum "Si O2"
_cell_formula_units_Z 12
_cell_length_a 15.349985
_cell_length_b 12.353003
_cell_length_c 9.341791
_cell_angle_alpha 149.658010
_cell_angle_beta 131.616489
_cell_angle_gamma 35.699970
_cell_volume 518.104602
_symmetry_space_group_name_H-M "P -1"
_symmetry_group_IT_number 2
_symmetry_cell_setting 'triclinic'
loop_
_space_group_symop_operation_xyz
x,y,z
-x,-y,-z
loop_
_atom_site_type_symbol
_atom_site_label
_atom_site_fract_x
_atom_site_fract_y
_atom_site_fract_z
Si Si1 0.790379 0.929576 0.472136
Si Si2 0.623988 0.722269 0.125171
Si Si3 0.667347 0.198279 0.126394
Si Si4 0.283332 0.600367 0.861597
Si Si5 0.920163 0.545602 0.615063
Si Si6 0.822283 0.190970 0.552482
O O1 0.948574 0.627543 0.323959
O O2 0.784067 0.024052 0.413022
O O3 0.651881 0.938482 0.373845
O O4 0.788275 0.132755 0.811221
O O5 0.476116 0.780361 0.970039
O O6 0.762898 0.449474 0.883225
O O7 0.631785 0.653574 0.223417
O O8 0.633862 0.369580 0.140473
O O9 0.724038 0.292522 0.417953
O O10 0.803995 0.872624 0.884097
O O11 0.163778 0.583523 0.636947
O O12 0.000000 0.500000 0.500000
O O13 0.000000 0.000000 0.500000
#
# Coordination Sequence:
#
# PCOD9059953 Si02
#       6
#     2   2   2   2   2   2
#     4  11  24  44  69  96 135 171 223 272 322 389
#     4  11  25  45  66  99 134 173 220 268 330 391
#     4  12  26  42  68 100 135 174 216 270 331 390
#     4  11  23  42  71  96 135 171 222 270 325 383
#     4  12  23  40  68 100 129 169 222 270 322 383
#     4  11  26  45  70  95 130 176 222 272 325 389
#
# _framework density 23.161348
#
# number of rings (size 3 to 8) (size 9 to 14) (size 15 to 20)
#    0.000    0.667    3.333    3.500    2.333   10.000 
#    0.000    0.000    0.000    0.000    0.000    0.000 
#    0.000    0.000    0.000    0.000    0.000    0.000 
#
# Total GULP energy -67182.312900 kJ/mol
# GULP energy per Si atom -5598.526075 kJ/mol
# Density = 2.310863 g / cm^3
# Si number density = 23.161348 Si / 1000 Ang^3
#
#
#
# Elastic Constant Matrix: (Units=GPa)
#
#
# Indices 1 2 3 4 5 6 
#
# 1 108.7567 21.9798 36.9565 -4.4585 18.7367 11.8298
# 2 21.9798 62.6913 9.3722 -8.5502 -5.0985 9.4053
# 3 36.9565 9.3722 63.6786 -2.1375 13.4636 2.9052
# 4 -4.4585 -8.5502 -2.1375 41.1391 -5.1244 3.2258
# 5 18.7367 -5.0985 13.4636 -5.1244 39.2601 -9.1361
# 6 11.8298 9.4053 2.9052 3.2258 -9.1361 35.9622
#
#
#
# Elastic Compliance Matrix: (Units=1/GPa)
#
#
# Indices 1 2 3 4 5 6 
#
# 1 0.013409 -0.003643 -0.005786 0.000009 -0.005934 -0.004499
# 2 -0.003643 0.018800 -0.001339 0.004230 0.004531 -0.002839
# 3 -0.005786 -0.001339 0.020222 -0.000378 -0.004512 -0.000492
# 4 0.000009 0.004230 -0.000378 0.025796 0.003456 -0.002515
# 5 -0.005934 0.004531 -0.004512 0.003456 0.033034 0.009214
# 6 -0.004499 -0.002839 -0.000492 -0.002515 0.009214 0.032635
#
#
# Mechanical properties :
#
#
# Convention : Reuss Voigt Hill
#
# Bulk Modulus (GPa) = 32.36675 41.30482 36.83579
# Shear Modulus (GPa) = 28.45255 34.39350 31.42302
#
# Velocity S-wave (km/s) = 3.50873 3.85769 3.68734
# Velocity P-wave (km/s) = 5.51541 6.14122 5.83671
#
# Compressibility (1/GPa) = 0.03089590
#
# Stress axis : x y z
#
# Youngs Moduli (GPa) = 74.57559 53.19204 49.44998
#
# Poissons Ratio (x) = 0.19376 0.28611
# Poissons Ratio (y) = 0.27166 0.06623
# Poissons Ratio (z) = 0.43148 0.07124
#
# Static dielectric constant tensor:
#      x y z
#    x 1.856300 0.014510 0.021600 
#    y 0.014510 1.890410 0.042550 
#    z 0.021600 0.042550 1.869800 
# 
# From -- ./inp_files/25073.got.cif
#   From: 2010.05.17/outbox.cif.g08.bks.cpg/sg2_13_cif.got.tgz:25073.got - 2010.06.03 11:33:40.
