data_PCOD9059448
_publ_section_title
;
Structure prediction by ZEFSAII (Michael W. Deem and Ramdas Pophale) SiO2 
 PCOD9059448
Probable space group: P -1
;
_chemical_formula_sum "Si O2"
_cell_formula_units_Z 15
_cell_length_a 7.951120
_cell_length_b 11.675278
_cell_length_c 9.770758
_cell_angle_alpha 93.646738
_cell_angle_beta 133.139203
_cell_angle_gamma 68.825526
_cell_volume 594.336293
_symmetry_space_group_name_H-M "P -1"
_symmetry_group_IT_number 2
_symmetry_cell_setting 'triclinic'
loop_
_space_group_symop_operation_xyz
x,y,z
-x,-y,-z
loop_
_atom_site_type_symbol
_atom_site_label
_atom_site_fract_x
_atom_site_fract_y
_atom_site_fract_z
Si Si1 0.018815 0.993441 0.174953
Si Si2 0.476631 0.400282 0.827076
Si Si3 0.005013 0.737635 0.783348
Si Si4 0.503794 0.260927 0.569271
Si Si5 0.126400 0.349939 0.018386
Si Si6 0.380731 0.657506 0.642083
Si Si7 0.500000 0.000000 0.000000
Si Si8 0.853831 0.726841 0.267280
O O1 0.295564 0.882917 0.363533
O O2 0.995957 0.127279 0.228740
O O3 0.794190 0.964348 0.109534
O O4 0.000000 0.000000 0.000000
O O5 0.588070 0.292936 0.762878
O O6 0.420396 0.524629 0.717753
O O7 0.236368 0.381093 0.746847
O O8 0.702185 0.370427 0.061289
O O9 0.787276 0.720433 0.575098
O O10 0.912261 0.727811 0.884990
O O11 0.513854 0.346373 0.453807
O O12 0.433046 0.298935 0.167016
O O13 0.025125 0.323988 0.818759
O O14 0.000000 0.500000 0.000000
O O15 0.077420 0.738665 0.478929
O O16 0.391584 0.138821 0.869623
#
# Coordination Sequence:
#
# PCOD9059448 Si02
#       8
#     2   2   2   2   2   2   1   2
#     4  12  22  45  71  99 140 183 238 291 348 419
#     4  12  24  42  66 104 137 183 226 288 353 411
#     4  11  23  41  69 100 135 180 235 284 344 419
#     4  11  24  41  72  97 135 185 234 282 348 418
#     4  11  25  44  70 101 134 183 232 281 349 418
#     4  11  25  42  69  98 136 183 232 279 346 422
#     4  12  24  44  74 100 136 190 230 286 356 404
#     4  12  26  45  67  99 144 178 230 296 347 411
#
# _framework density 25.238237000000002
#
# number of rings (size 3 to 8) (size 9 to 14) (size 15 to 20)
#    0.000    0.533    5.333    2.800    3.733    1.600 
#    0.000    0.667    0.000    0.000    0.000    0.000 
#    0.000    0.000    0.000    0.000    0.000    0.000 
#
# Total GULP energy -83778.294645 kJ/mol
# GULP energy per Si atom -5585.219643 kJ/mol
# Density = 2.518079 g / cm^3
# Si number density = 25.238237 Si / 1000 Ang^3
#
#
#
# Elastic Constant Matrix: (Units=GPa)
#
#
# Indices 1 2 3 4 5 6 
#
# 1 114.8214 14.7846 17.8696 10.0232 9.3992 31.0640
# 2 14.7846 68.8517 33.5296 -19.8138 -3.6523 11.9241
# 3 17.8696 33.5296 134.6274 2.2055 35.1025 -0.7864
# 4 10.0232 -19.8138 2.2055 40.9872 9.0251 11.1565
# 5 9.3992 -3.6523 35.1025 9.0251 33.8712 -1.7674
# 6 31.0640 11.9241 -0.7864 11.1565 -1.7674 41.1702
#
#
#
# Elastic Compliance Matrix: (Units=1/GPa)
#
#
# Indices 1 2 3 4 5 6 
#
# 1 0.011482 -0.001009 -0.000497 -0.000279 -0.003146 -0.008440
# 2 -0.001009 0.024861 -0.008246 0.013833 0.007297 -0.010032
# 3 -0.000497 -0.008246 0.013142 -0.002426 -0.013563 0.003090
# 4 -0.000279 0.013833 -0.002426 0.036499 -0.006373 -0.014007
# 5 -0.003146 0.007297 -0.013563 -0.006373 0.047133 0.003751
# 6 -0.008440 -0.010032 0.003090 -0.014007 0.003751 0.037579
#
#
# Mechanical properties :
#
#
# Convention : Reuss Voigt Hill
#
# Bulk Modulus (GPa) = 33.35410 50.07422 41.71416
# Shear Modulus (GPa) = 24.97585 40.01349 32.49467
#
# Velocity S-wave (km/s) = 3.14921 3.98607 3.59209
# Velocity P-wave (km/s) = 5.14468 6.40848 5.81104
#
# Compressibility (1/GPa) = 0.02998132
#
# Stress axis : x y z
#
# Youngs Moduli (GPa) = 87.09522 40.22327 76.09357
#
# Poissons Ratio (x) = 0.04057 0.03785
# Poissons Ratio (y) = 0.08784 0.62745
# Poissons Ratio (z) = 0.04332 0.33167
#
# Static dielectric constant tensor:
#      x y z
#    x 1.988010 -0.006770 0.018050 
#    y -0.006770 1.974190 0.015620 
#    z 0.018050 0.015620 1.978100 
# 
# From -- ./inp_files/390118.got.cif
#   From: 2010.05.17/outbox.cif.g08.bks.cpg/sg2_196_cif.got.tgz:390118.got - 2010.06.03 11:33:40.
