data_PCOD9059361
_publ_section_title
;
Structure prediction by ZEFSAII (Michael W. Deem and Ramdas Pophale) SiO2 
 PCOD9059361
Probable space group: P -1
;
_chemical_formula_sum "Si O2"
_cell_formula_units_Z 14
_cell_length_a 17.026792
_cell_length_b 10.907739
_cell_length_c 9.039179
_cell_angle_alpha 47.956094
_cell_angle_beta 31.662047
_cell_angle_gamma 38.573291
_cell_volume 549.401793
_symmetry_space_group_name_H-M "P -1"
_symmetry_group_IT_number 2
_symmetry_cell_setting 'triclinic'
loop_
_space_group_symop_operation_xyz
x,y,z
-x,-y,-z
loop_
_atom_site_type_symbol
_atom_site_label
_atom_site_fract_x
_atom_site_fract_y
_atom_site_fract_z
Si Si1 0.026869 0.025944 0.265825
Si Si2 0.263417 0.373950 0.539811
Si Si3 0.592966 0.311159 0.168698
Si Si4 0.092278 0.532067 0.001599
Si Si5 0.288799 0.013168 0.287736
Si Si6 0.449058 0.999341 0.336143
Si Si7 0.605239 0.565391 0.177604
O O1 0.979472 0.241010 0.115898
O O2 0.892534 0.979735 0.436931
O O3 0.000000 0.000000 0.500000
O O4 0.233389 0.863471 0.045030
O O5 0.406042 0.434766 0.280423
O O6 0.186812 0.405253 0.804831
O O7 0.381185 0.160858 0.444393
O O8 0.073978 0.483983 0.672176
O O9 0.645720 0.445605 0.058957
O O10 0.554751 0.185261 0.449714
O O11 0.224309 0.478946 0.969258
O O12 0.454850 0.788113 0.207638
O O13 0.309484 0.093048 0.346768
O O14 0.357199 0.072852 0.986215
O O15 0.500000 0.500000 0.500000
#
# Coordination Sequence:
#
# PCOD9059361 Si02
#       7
#     2   2   2   2   2   2   2
#     4  12  26  43  68 104 134 174 226 286 329 402
#     4  11  23  41  67 100 131 180 218 277 330 405
#     4  12  24  42  76  96 135 182 227 268 344 399
#     4  11  24  42  69  98 135 174 228 271 335 394
#     4  11  25  44  69 100 140 174 225 282 334 389
#     4  11  23  41  69 100 135 175 222 277 338 396
#     4  12  22  46  70  98 132 185 227 273 328 408
#
# _framework density 25.482261000000001
#
# number of rings (size 3 to 8) (size 9 to 14) (size 15 to 20)
#    0.000    0.571    5.714    1.286    4.000    2.286 
#    2.571    3.571    0.000    0.000    0.000    0.000 
#    0.000    0.000    0.000    0.000    0.000    0.000 
#
# Total GULP energy -78319.832215 kJ/mol
# GULP energy per Si atom -5594.273730 kJ/mol
# Density = 2.542426 g / cm^3
# Si number density = 25.482261 Si / 1000 Ang^3
#
#
#
# Elastic Constant Matrix: (Units=GPa)
#
#
# Indices 1 2 3 4 5 6 
#
# 1 149.2869 33.6166 51.9496 17.8017 -36.3812 10.3186
# 2 33.6166 83.7749 25.0974 9.1037 10.6073 1.1739
# 3 51.9496 25.0974 143.6937 12.4422 -26.5116 -11.2143
# 4 17.8017 9.1037 12.4422 35.3844 0.7070 3.4348
# 5 -36.3812 10.6073 -26.5116 0.7070 53.0095 12.1628
# 6 10.3186 1.1739 -11.2143 3.4348 12.1628 45.3758
#
#
#
# Elastic Compliance Matrix: (Units=1/GPa)
#
#
# Indices 1 2 3 4 5 6 
#
# 1 0.011343 -0.004741 -0.001676 -0.003590 0.009099 -0.005038
# 2 -0.004741 0.015586 -0.002225 -0.000910 -0.008010 0.002341
# 3 -0.001676 -0.002225 0.008886 -0.001959 0.003331 0.001890
# 4 -0.003590 -0.000910 -0.001959 0.031164 -0.003428 -0.001084
# 5 0.009099 -0.008010 0.003331 -0.003428 0.030477 -0.008949
# 6 -0.005038 0.002341 0.001890 -0.001084 -0.008949 0.026071
#
#
# Mechanical properties :
#
#
# Convention : Reuss Voigt Hill
#
# Bulk Modulus (GPa) = 53.96417 66.45362 60.20890
# Shear Modulus (GPa) = 34.01643 44.49340 39.25491
#
# Velocity S-wave (km/s) = 3.65760 4.18311 3.92915
# Velocity P-wave (km/s) = 6.24984 7.03323 6.65307
#
# Compressibility (1/GPa) = 0.01853081
#
# Stress axis : x y z
#
# Youngs Moduli (GPa) = 88.15783 64.16059 112.54221
#
# Poissons Ratio (x) = 0.30418 0.18867
# Poissons Ratio (y) = 0.41795 0.25037
# Poissons Ratio (z) = 0.14779 0.14273
#
# Static dielectric constant tensor:
#      x y z
#    x 2.105930 -0.015670 0.043430 
#    y -0.015670 2.065360 -0.080920 
#    z 0.043430 -0.080920 2.104330 
# 
# From -- ./inp_files/332801.got.cif
#   From: 2010.05.17/outbox.cif.g08.bks.cpg/sg2_167_cif.got.tgz:332801.got - 2010.06.03 11:33:40.
