data_PCOD9059514
_publ_section_title
;
Structure prediction by ZEFSAII (Michael W. Deem and Ramdas Pophale) SiO2 
 PCOD9059514
Probable space group: P -1
;
_chemical_formula_sum "Si O2"
_cell_formula_units_Z 14
_cell_length_a 10.977512
_cell_length_b 6.625684
_cell_length_c 14.037220
_cell_angle_alpha 116.527229
_cell_angle_beta 42.461738
_cell_angle_gamma 112.469136
_cell_volume 614.343616
_symmetry_space_group_name_H-M "P -1"
_symmetry_group_IT_number 2
_symmetry_cell_setting 'triclinic'
loop_
_space_group_symop_operation_xyz
x,y,z
-x,-y,-z
loop_
_atom_site_type_symbol
_atom_site_label
_atom_site_fract_x
_atom_site_fract_y
_atom_site_fract_z
Si Si1 0.943947 0.783670 0.343526
Si Si2 0.945979 0.381164 0.105731
Si Si3 0.513856 0.401951 0.829050
Si Si4 0.237516 0.045876 0.842884
Si Si5 0.708360 0.074413 0.419315
Si Si6 0.171302 0.458122 0.456593
Si Si7 0.640605 0.188339 0.908931
O O1 0.926339 0.560619 0.238222
O O2 0.896534 0.733090 0.469788
O O3 0.153886 0.878944 0.229291
O O4 0.795949 0.940550 0.424368
O O5 0.768905 0.201750 0.158195
O O6 0.000000 0.500000 0.000000
O O7 0.096603 0.206438 0.003435
O O8 0.425125 0.197889 0.773769
O O9 0.668883 0.551101 0.713923
O O10 0.581369 0.274658 0.856972
O O11 0.370307 0.579637 0.976374
O O12 0.191001 0.994993 0.749362
O O13 0.755313 0.334221 0.473512
O O14 0.500000 0.000000 0.500000
O O15 0.000000 0.500000 0.500000
O O16 0.500000 0.000000 0.000000
#
# Coordination Sequence:
#
# PCOD9059514 Si02
#       7
#     2   2   2   2   2   2   2
#     4  12  26  46  75 108 145 196 248 296 372 441
#     4  11  23  41  70 108 138 186 241 300 370 433
#     4  11  25  47  71 105 149 187 245 303 369 430
#     4  11  23  42  70 101 145 184 235 311 361 427
#     4  12  27  47  70 105 145 191 248 301 365 438
#     4  12  27  49  73 104 154 196 241 301 370 447
#     4  11  27  45  74 108 142 193 249 302 362 448
#
# _framework density 22.788550000000001
#
# number of rings (size 3 to 8) (size 9 to 14) (size 15 to 20)
#    0.000    0.571    7.143    0.000    4.000    2.286 
#    2.571    0.000    0.000    0.000    0.000    0.000 
#    0.000    0.000    0.000    0.000    0.000    0.000 
#
# Total GULP energy -78221.671346 kJ/mol
# GULP energy per Si atom -5587.262239 kJ/mol
# Density = 2.273668 g / cm^3
# Si number density = 22.788550 Si / 1000 Ang^3
#
#
#
# Elastic Constant Matrix: (Units=GPa)
#
#
# Indices 1 2 3 4 5 6 
#
# 1 82.9367 37.3406 28.1318 -26.5583 -5.0535 -7.9944
# 2 37.3406 104.1256 26.6060 -34.6466 -1.8666 1.1980
# 3 28.1318 26.6060 89.7211 -34.1756 -2.3568 -12.5180
# 4 -26.5583 -34.6466 -34.1756 45.3796 0.0214 8.8388
# 5 -5.0535 -1.8666 -2.3568 0.0214 45.6530 -4.2593
# 6 -7.9944 1.1980 -12.5180 8.8388 -4.2593 45.8546
#
#
#
# Elastic Compliance Matrix: (Units=1/GPa)
#
#
# Indices 1 2 3 4 5 6 
#
# 1 0.016181 -0.003668 -0.001816 0.004986 0.001696 0.001617
# 2 -0.003668 0.013958 0.000099 0.009119 -0.000090 -0.002743
# 3 -0.001816 0.000099 0.016080 0.010717 0.000822 0.002081
# 4 0.004986 0.009119 0.010717 0.040807 0.001066 -0.004210
# 5 0.001696 -0.000090 0.000822 0.001066 0.022354 0.002393
# 6 0.001617 -0.002743 0.002081 -0.004210 0.002393 0.023764
#
#
# Mechanical properties :
#
#
# Convention : Reuss Voigt Hill
#
# Bulk Modulus (GPa) = 28.20959 51.21555 39.71257
# Shear Modulus (GPa) = 32.10714 39.69113 35.89913
#
# Velocity S-wave (km/s) = 3.75762 4.17791 3.97333
# Velocity P-wave (km/s) = 5.58856 6.76730 6.20598
#
# Compressibility (1/GPa) = 0.03544894
#
# Stress axis : x y z
#
# Youngs Moduli (GPa) = 61.80244 71.64363 62.18971
#
# Poissons Ratio (x) = 0.26277 0.11297
# Poissons Ratio (y) = 0.22667 -0.00618
# Poissons Ratio (z) = 0.11226 -0.00712
#
# Static dielectric constant tensor:
#      x y z
#    x 1.816900 -0.040070 -0.004300 
#    y -0.040070 1.812420 -0.079100 
#    z -0.004300 -0.079100 1.952020 
# 
# From -- ./inp_files/101314.got.cif
#   From: 2010.05.17/outbox.cif.g08.bks.cpg/sg2_51_cif.got.tgz:101314.got - 2010.06.03 11:33:40.
