data_PCOD9059065
_publ_section_title
;
Structure prediction by ZEFSAII (Michael W. Deem and Ramdas Pophale) SiO2 
 PCOD9059065
Probable space group: P -1
;
_chemical_formula_sum "Si O2"
_cell_formula_units_Z 16
_cell_length_a 9.640499
_cell_length_b 11.491158
_cell_length_c 8.556192
_cell_angle_alpha 99.429118
_cell_angle_beta 123.517946
_cell_angle_gamma 53.845647
_cell_volume 619.325769
_symmetry_space_group_name_H-M "P -1"
_symmetry_group_IT_number 2
_symmetry_cell_setting 'triclinic'
loop_
_space_group_symop_operation_xyz
x,y,z
-x,-y,-z
loop_
_atom_site_type_symbol
_atom_site_label
_atom_site_fract_x
_atom_site_fract_y
_atom_site_fract_z
Si Si1 0.145758 0.872930 0.856560
Si Si2 0.431209 0.352334 0.571660
Si Si3 0.452385 0.969828 0.790451
Si Si4 0.049317 0.578441 0.176307
Si Si5 0.713613 0.377757 0.302533
Si Si6 0.854639 0.697518 0.412730
Si Si7 0.769642 0.144047 0.505228
Si Si8 0.869290 0.873394 0.946644
O O1 0.318815 0.707603 0.865935
O O2 0.984235 0.986453 0.647158
O O3 0.007856 0.856429 0.886964
O O4 0.210377 0.969053 0.992136
O O5 0.284219 0.456968 0.358786
O O6 0.462730 0.455877 0.718070
O O7 0.291181 0.322706 0.578536
O O8 0.641292 0.207860 0.602133
O O9 0.269828 0.128352 0.644575
O O10 0.370292 0.873213 0.703856
O O11 0.500000 0.000000 0.000000
O O12 0.656389 0.893736 0.791960
O O13 0.904966 0.629397 0.253861
O O14 0.000174 0.728099 0.105790
O O15 0.000000 0.500000 0.000000
O O16 0.781841 0.269428 0.470646
O O17 0.919080 0.367678 0.388250
#
# Coordination Sequence:
#
# PCOD9059065 Si02
#       8
#     2   2   2   2   2   2   2   2
#     4  11  24  43  71  98 137 180 223 284 339 402
#     4  11  26  43  67 103 134 176 233 282 327 408
#     4  12  24  41  68 101 134 171 231 282 333 397
#     4  11  23  40  65  95 140 178 219 273 344 398
#     4  11  23  42  69  98 134 174 231 270 341 399
#     4  11  24  43  69 101 133 178 233 281 326 408
#     4  12  25  43  73  98 135 182 227 277 343 402
#     4  11  25  42  67 102 138 174 226 283 340 401
#
# _framework density 25.834547000000001
#
# number of rings (size 3 to 8) (size 9 to 14) (size 15 to 20)
#    0.000    0.750    2.500    6.000    5.250    1.000 
#    0.000    0.000    0.000    3.750    0.000    0.000 
#    0.000    0.000    0.000    0.000    0.000    0.000 
#
# Total GULP energy -89645.731071 kJ/mol
# GULP energy per Si atom -5602.858192 kJ/mol
# Density = 2.577575 g / cm^3
# Si number density = 25.834547 Si / 1000 Ang^3
#
#
#
# Elastic Constant Matrix: (Units=GPa)
#
#
# Indices 1 2 3 4 5 6 
#
# 1 132.6166 19.8434 1.9142 3.4578 -5.7098 20.1456
# 2 19.8434 109.2523 24.6910 28.8924 -3.2261 2.9249
# 3 1.9142 24.6910 62.8585 8.7365 -4.9180 3.6291
# 4 3.4578 28.8924 8.7365 44.6780 0.6208 1.6342
# 5 -5.7098 -3.2261 -4.9180 0.6208 30.7555 -5.0998
# 6 20.1456 2.9249 3.6291 1.6342 -5.0998 35.1294
#
#
#
# Elastic Compliance Matrix: (Units=1/GPa)
#
#
# Indices 1 2 3 4 5 6 
#
# 1 0.008519 -0.001669 0.000663 0.000454 0.000719 -0.004731
# 2 -0.001669 0.012162 -0.003742 -0.007041 0.000634 0.000751
# 3 0.000663 -0.003742 0.017780 -0.001085 0.002344 -0.001514
# 4 0.000454 -0.007041 -0.001085 0.027173 -0.001551 -0.001051
# 5 0.000719 0.000634 0.002344 -0.001551 0.033830 0.004276
# 6 -0.004731 0.000751 -0.001514 -0.001051 0.004276 0.031943
#
#
# Mechanical properties :
#
#
# Convention : Reuss Voigt Hill
#
# Bulk Modulus (GPa) = 34.52494 44.18050 39.35272
# Shear Modulus (GPa) = 33.20983 39.33118 36.27050
#
# Velocity S-wave (km/s) = 3.58925 3.90606 3.75100
# Velocity P-wave (km/s) = 5.52900 6.12222 5.83315
#
# Compressibility (1/GPa) = 0.02896457
#
# Stress axis : x y z
#
# Youngs Moduli (GPa) = 117.39077 82.22008 56.24275
#
# Poissons Ratio (x) = 0.13723 -0.03726
# Poissons Ratio (y) = 0.19593 0.21045
# Poissons Ratio (z) = -0.07777 0.30765
#
# Static dielectric constant tensor:
#      x y z
#    x 2.002740 -0.022830 -0.049720 
#    y -0.022830 2.017760 0.031440 
#    z -0.049720 0.031440 2.080060 
# 
# From -- ./inp_files/188792.got.cif
#   From: 2010.05.17/outbox.cif.g08.bks.cpg/sg2_95_cif.got.tgz:188792.got - 2010.06.03 11:33:40.
