data_PCOD9059869
_publ_section_title
;
Structure prediction by ZEFSAII (Michael W. Deem and Ramdas Pophale) SiO2 
 PCOD9059869
Probable space group: P -1
;
_chemical_formula_sum "Si O2"
_cell_formula_units_Z 14
_cell_length_a 7.989830
_cell_length_b 18.758596
_cell_length_c 7.412685
_cell_angle_alpha 143.654254
_cell_angle_beta 59.311548
_cell_angle_gamma 116.110738
_cell_volume 565.310039
_symmetry_space_group_name_H-M "P -1"
_symmetry_group_IT_number 2
_symmetry_cell_setting 'triclinic'
loop_
_space_group_symop_operation_xyz
x,y,z
-x,-y,-z
loop_
_atom_site_type_symbol
_atom_site_label
_atom_site_fract_x
_atom_site_fract_y
_atom_site_fract_z
Si Si1 0.969838 0.497134 0.292305
Si Si2 0.110732 0.783109 0.277767
Si Si3 0.399329 0.370061 0.239299
Si Si4 0.275610 0.088801 0.316590
Si Si5 0.496620 0.875623 0.357762
Si Si6 0.369038 0.596702 0.178475
Si Si7 0.309244 0.843135 0.912134
O O1 0.823736 0.602713 0.561931
O O2 0.000000 0.500000 0.500000
O O3 0.161695 0.524884 0.124314
O O4 0.890018 0.361821 0.013717
O O5 0.267447 0.839469 0.449300
O O6 0.893485 0.828226 0.485916
O O7 0.202518 0.828409 0.130058
O O8 0.500000 0.500000 0.500000
O O9 0.439566 0.239972 0.031348
O O10 0.493861 0.357230 0.964624
O O11 0.359873 0.113832 0.525834
O O12 0.464065 0.108600 0.126129
O O13 0.204418 0.948416 0.078237
O O14 0.500000 0.000000 0.500000
O O15 0.315454 0.710465 0.556850
O O16 0.500000 0.500000 0.000000
#
# Coordination Sequence:
#
# PCOD9059869 Si02
#       7
#     2   2   2   2   2   2   2
#     4  12  23  41  73 103 134 188 234 284 365 422
#     4  12  24  46  72 103 142 190 237 291 363 427
#     4  12  26  48  67 103 150 180 236 308 351 422
#     4  11  25  46  71 102 143 187 238 297 351 431
#     4  12  26  45  73 105 144 189 240 293 357 425
#     4  12  24  41  74 105 137 187 242 295 356 433
#     4  11  23  42  70 103 139 185 239 290 356 426
#
# _framework density 24.765169
#
# number of rings (size 3 to 8) (size 9 to 14) (size 15 to 20)
#    0.000    0.286    7.143    2.143    0.000    0.571 
#    0.000    4.286    0.000    0.000    0.000    0.000 
#    0.000    0.000    0.000    0.000    0.000    0.000 
#
# Total GULP energy -78266.984321 kJ/mol
# GULP energy per Si atom -5590.498880 kJ/mol
# Density = 2.470880 g / cm^3
# Si number density = 24.765169 Si / 1000 Ang^3
#
#
#
# Elastic Constant Matrix: (Units=GPa)
#
#
# Indices 1 2 3 4 5 6 
#
# 1 93.7165 3.4850 39.3792 15.3850 -25.5343 6.7764
# 2 3.4850 112.9156 31.9601 21.3075 -13.3800 8.7808
# 3 39.3792 31.9601 128.9496 33.2222 -18.8448 -1.7373
# 4 15.3850 21.3075 33.2222 58.9979 6.4900 -2.6576
# 5 -25.5343 -13.3800 -18.8448 6.4900 57.6639 -0.0721
# 6 6.7764 8.7808 -1.7373 -2.6576 -0.0721 36.6888
#
#
#
# Elastic Compliance Matrix: (Units=1/GPa)
#
#
# Indices 1 2 3 4 5 6 
#
# 1 0.014484 0.002155 -0.003150 -0.003635 0.006289 -0.003591
# 2 0.002155 0.010697 -0.001881 -0.003874 0.003254 -0.003321
# 3 -0.003150 -0.001881 0.010744 -0.004739 0.002215 0.001202
# 4 -0.003635 -0.003874 -0.004739 0.022829 -0.006623 0.003015
# 5 0.006289 0.003254 0.002215 -0.006623 0.022348 -0.002271
# 6 -0.003591 -0.003321 0.001202 0.003015 -0.002271 0.028985
#
#
# Mechanical properties :
#
#
# Convention : Reuss Voigt Hill
#
# Bulk Modulus (GPa) = 33.14204 53.91446 43.52825
# Shear Modulus (GPa) = 39.71531 48.05394 43.88463
#
# Velocity S-wave (km/s) = 4.00894 4.40976 4.21412
# Velocity P-wave (km/s) = 5.90257 6.90981 6.42596
#
# Compressibility (1/GPa) = 0.03017315
#
# Stress axis : x y z
#
# Youngs Moduli (GPa) = 69.04231 93.48646 93.07720
#
# Poissons Ratio (x) = -0.20146 0.29320
# Poissons Ratio (y) = -0.14878 0.17503
# Poissons Ratio (z) = 0.21749 0.17580
#
# Static dielectric constant tensor:
#      x y z
#    x 2.099900 0.006550 0.124310 
#    y 0.006550 2.097490 0.145490 
#    z 0.124310 0.145490 1.957020 
# 
# From -- ./inp_files/224312.got.cif
#   From: 2010.05.17/outbox.cif.g08.bks.cpg/sg2_113_cif.got.tgz:224312.got - 2010.06.03 11:33:40.
