data_PCOD9059849
_publ_section_title
;
Structure prediction by ZEFSAII (Michael W. Deem and Ramdas Pophale) SiO2 
 PCOD9059849
Probable space group: P -1
;
_chemical_formula_sum "Si O2"
_cell_formula_units_Z 16
_cell_length_a 14.964708
_cell_length_b 9.234033
_cell_length_c 10.930542
_cell_angle_alpha 108.167768
_cell_angle_beta 54.797181
_cell_angle_gamma 64.226114
_cell_volume 716.584792
_symmetry_space_group_name_H-M "P -1"
_symmetry_group_IT_number 2
_symmetry_cell_setting 'triclinic'
loop_
_space_group_symop_operation_xyz
x,y,z
-x,-y,-z
loop_
_atom_site_type_symbol
_atom_site_label
_atom_site_fract_x
_atom_site_fract_y
_atom_site_fract_z
Si Si1 0.803825 0.801756 0.102102
Si Si2 0.170263 0.655709 0.171698
Si Si3 0.508106 0.148597 0.872597
Si Si4 0.453408 0.378654 0.473592
Si Si5 0.050882 0.321203 0.308904
Si Si6 0.193421 0.975131 0.304411
Si Si7 0.875360 0.402334 0.065951
Si Si8 0.657669 0.656144 0.674674
O O1 0.806756 0.643852 0.136695
O O2 0.614407 0.092652 0.315750
O O3 0.875432 0.692604 0.878760
O O4 0.945513 0.759634 0.042946
O O5 0.350629 0.357811 0.958302
O O6 0.007079 0.785458 0.421355
O O7 0.224964 0.763009 0.202281
O O8 0.095697 0.729824 0.113180
O O9 0.413575 0.265514 0.110648
O O10 0.666727 0.096753 0.736292
O O11 0.592274 0.888406 0.728133
O O12 0.500000 0.500000 0.500000
O O13 0.273036 0.518066 0.716269
O O14 0.419297 0.392402 0.359979
O O15 0.195218 0.057656 0.194000
O O16 0.000000 0.500000 0.500000
O O17 0.871886 0.424991 0.447841
#
# Coordination Sequence:
#
# PCOD9059849 Si02
#       8
#     2   2   2   2   2   2   2   2
#     4  11  26  47  74  98 140 185 238 291 343 409
#     4  11  25  42  64 100 140 181 220 283 351 413
#     4  11  23  42  69  99 137 174 227 291 342 403
#     4  12  28  47  70 103 144 189 233 283 347 420
#     4  12  22  43  75 102 134 174 231 295 345 404
#     4  11  24  41  66 101 139 175 227 280 353 414
#     4  11  26  47  70 100 137 187 239 283 344 419
#     4  11  24  42  71 105 132 176 239 286 340 415
#
# _framework density 22.328133999999999
#
# number of rings (size 3 to 8) (size 9 to 14) (size 15 to 20)
#    0.000    0.750    3.750    3.000    5.250    2.500 
#    0.000    0.000    0.000    0.000    0.000    0.000 
#    0.000    0.000    0.000    0.000    0.000    0.000 
#
# Total GULP energy -89600.870779 kJ/mol
# GULP energy per Si atom -5600.054424 kJ/mol
# Density = 2.227731 g / cm^3
# Si number density = 22.328134 Si / 1000 Ang^3
#
#
#
# Elastic Constant Matrix: (Units=GPa)
#
#
# Indices 1 2 3 4 5 6 
#
# 1 149.7999 5.3671 20.0734 -2.0099 -11.6843 3.8793
# 2 5.3671 16.2718 3.4652 -12.6772 -7.6133 -6.3402
# 3 20.0734 3.4652 36.4026 -4.5229 -13.4418 2.2835
# 4 -2.0099 -12.6772 -4.5229 26.0306 -4.3732 -6.7333
# 5 -11.6843 -7.6133 -13.4418 -4.3732 38.7175 -1.9707
# 6 3.8793 -6.3402 2.2835 -6.7333 -1.9707 37.2113
#
#
#
# Elastic Compliance Matrix: (Units=1/GPa)
#
#
# Indices 1 2 3 4 5 6 
#
# 1 0.007372 -0.005468 -0.004137 -0.003494 -0.000789 -0.002120
# 2 -0.005468 0.235045 0.021316 0.147972 0.072241 0.069911
# 3 -0.004137 0.021316 0.036759 0.021262 0.018444 0.006632
# 4 -0.003494 0.147972 0.021262 0.136274 0.053451 0.051761
# 5 -0.000789 0.072241 0.018444 0.053451 0.053445 0.023761
# 6 -0.002120 0.069911 0.006632 0.051761 0.023761 0.049224
#
#
# Mechanical properties :
#
#
# Convention : Reuss Voigt Hill
#
# Bulk Modulus (GPa) = 3.30473 28.92063 16.11268
# Shear Modulus (GPa) = 8.39540 31.96312 20.17926
#
# Velocity S-wave (km/s) = 1.94118 3.78764 3.00952
# Velocity P-wave (km/s) = 2.55098 5.66648 4.39412
#
# Compressibility (1/GPa) = 0.30259652
#
# Stress axis : x y z
#
# Youngs Moduli (GPa) = 135.64175 4.25451 27.20405
#
# Poissons Ratio (x) = 0.02326 0.11255
# Poissons Ratio (y) = 0.74168 -0.57987
# Poissons Ratio (z) = 0.56119 -0.09069
#
# Static dielectric constant tensor:
#      x y z
#    x 1.870880 0.036800 0.054580 
#    y 0.036800 1.849580 0.006290 
#    z 0.054580 0.006290 1.839020 
# 
# From -- ./inp_files/447787.got.cif
#   From: 2010.05.17/outbox.cif.g08.bks.cpg/sg2_224_cif.got.tgz:447787.got - 2010.06.03 11:33:40.
