data_PCOD9059508
_publ_section_title
;
Structure prediction by ZEFSAII (Michael W. Deem and Ramdas Pophale) SiO2 
 PCOD9059508
Probable space group: P -1
;
_chemical_formula_sum "Si O2"
_cell_formula_units_Z 16
_cell_length_a 16.046652
_cell_length_b 11.823733
_cell_length_c 7.997742
_cell_angle_alpha 68.726709
_cell_angle_beta 144.261896
_cell_angle_gamma 126.487942
_cell_volume 688.964658
_symmetry_space_group_name_H-M "P -1"
_symmetry_group_IT_number 2
_symmetry_cell_setting 'triclinic'
loop_
_space_group_symop_operation_xyz
x,y,z
-x,-y,-z
loop_
_atom_site_type_symbol
_atom_site_label
_atom_site_fract_x
_atom_site_fract_y
_atom_site_fract_z
Si Si1 0.425906 0.685666 0.449763
Si Si2 0.066452 0.927474 0.433448
Si Si3 0.242689 0.821266 0.222525
Si Si4 0.743472 0.900618 0.022895
Si Si5 0.863847 0.653901 0.843235
Si Si6 0.414870 0.849486 0.841635
Si Si7 0.043332 0.660953 0.470003
Si Si8 0.670695 0.817435 0.450929
O O1 0.310535 0.752495 0.240992
O O2 0.290792 0.513836 0.341084
O O3 0.547930 0.747444 0.450986
O O4 0.565895 0.748591 0.792194
O O5 0.037867 0.774299 0.524530
O O6 0.883463 0.902955 0.130973
O O7 0.166633 0.044526 0.680991
O O8 0.186112 0.006856 0.423137
O O9 0.356081 0.851889 0.557651
O O10 0.038216 0.716354 0.985177
O O11 0.283138 0.974683 0.146356
O O12 0.780168 0.747187 0.639583
O O13 0.931726 0.662781 0.136048
O O14 0.240145 0.743872 0.705143
O O15 0.536448 0.792030 0.101582
O O16 0.500000 0.000000 0.000000
O O17 0.000000 0.500000 0.500000
#
# Coordination Sequence:
#
# PCOD9059508 Si02
#       8
#     2   2   2   2   2   2   2   2
#     4  12  26  42  74 110 146 182 247 302 360 427
#     4  11  25  46  74 106 149 189 249 294 372 429
#     4  11  25  47  72 105 147 191 239 295 372 427
#     4  11  25  45  74 108 141 196 241 307 357 435
#     4  11  26  48  73 105 148 197 237 294 373 435
#     4  11  23  41  70 105 137 183 238 295 351 430
#     4  11  25  43  72 104 146 188 240 298 359 427
#     4  12  24  45  76 104 147 191 245 299 357 439
#
# _framework density 23.223251000000001
#
# number of rings (size 3 to 8) (size 9 to 14) (size 15 to 20)
#    0.000    0.750    2.500    4.125    5.250    2.000 
#    0.000    2.500    0.000    0.000    0.000    0.000 
#    0.000    0.000    0.000    0.000    0.000    0.000 
#
# Total GULP energy -89389.365954 kJ/mol
# GULP energy per Si atom -5586.835372 kJ/mol
# Density = 2.317039 g / cm^3
# Si number density = 23.223251 Si / 1000 Ang^3
#
#
#
# Elastic Constant Matrix: (Units=GPa)
#
#
# Indices 1 2 3 4 5 6 
#
# 1 106.3741 42.3236 48.5306 4.8194 31.5952 4.3052
# 2 42.3236 160.3766 68.2234 18.1248 24.8296 -0.2327
# 3 48.5306 68.2234 171.1248 4.0598 34.9967 -2.3551
# 4 4.8194 18.1248 4.0598 56.4134 -6.8912 13.0390
# 5 31.5952 24.8296 34.9967 -6.8912 38.4553 -6.8389
# 6 4.3052 -0.2327 -2.3551 13.0390 -6.8389 21.9928
#
#
#
# Elastic Compliance Matrix: (Units=1/GPa)
#
#
# Indices 1 2 3 4 5 6 
#
# 1 0.013941 -0.001449 -0.001302 -0.000570 -0.010468 -0.005801
# 2 -0.001449 0.008310 -0.002331 -0.002927 -0.002380 0.001117
# 3 -0.001302 -0.002331 0.008156 -0.000267 -0.004945 -0.000276
# 4 -0.000570 -0.002927 -0.000267 0.021957 0.004478 -0.011573
# 5 -0.010468 -0.002380 -0.004945 0.004478 0.043652 0.012413
# 6 -0.005801 0.001117 -0.000276 -0.011573 0.012413 0.057309
#
#
# Mechanical properties :
#
#
# Convention : Reuss Voigt Hill
#
# Bulk Modulus (GPa) = 49.39532 84.00340 66.69936
# Shear Modulus (GPa) = 29.37139 41.95882 35.66510
#
# Velocity S-wave (km/s) = 3.56018 4.25521 3.92312
# Velocity P-wave (km/s) = 6.18189 7.77130 7.02171
#
# Compressibility (1/GPa) = 0.02024483
#
# Stress axis : x y z
#
# Youngs Moduli (GPa) = 71.73262 120.33673 122.61204
#
# Poissons Ratio (x) = 0.17433 0.15959
# Poissons Ratio (y) = 0.10392 0.28575
# Poissons Ratio (z) = 0.09337 0.28045
#
# Static dielectric constant tensor:
#      x y z
#    x 1.965570 0.013060 -0.048980 
#    y 0.013060 1.836180 0.018940 
#    z -0.048980 0.018940 1.919700 
# 
# From -- ./inp_files/333077.got.cif
#   From: 2010.05.17/outbox.cif.g08.bks.cpg/sg2_167_cif.got.tgz:333077.got - 2010.06.03 11:33:40.
