data_PCOD9059185
_publ_section_title
;
Structure prediction by ZEFSAII (Michael W. Deem and Ramdas Pophale) SiO2 
 PCOD9059185
Probable space group: P -1
;
_chemical_formula_sum "Si O2"
_cell_formula_units_Z 16
_cell_length_a 8.781093
_cell_length_b 18.978716
_cell_length_c 20.582264
_cell_angle_alpha 157.461788
_cell_angle_beta 42.597941
_cell_angle_gamma 148.775090
_cell_volume 656.203361
_symmetry_space_group_name_H-M "P -1"
_symmetry_group_IT_number 2
_symmetry_cell_setting 'triclinic'
loop_
_space_group_symop_operation_xyz
x,y,z
-x,-y,-z
loop_
_atom_site_type_symbol
_atom_site_label
_atom_site_fract_x
_atom_site_fract_y
_atom_site_fract_z
Si Si1 0.768943 0.784106 0.491031
Si Si2 0.406919 0.703165 0.114496
Si Si3 0.062927 0.902124 0.956988
Si Si4 0.148927 0.525149 0.406874
Si Si5 0.316707 0.661126 0.836821
Si Si6 0.260541 0.814143 0.124582
Si Si7 0.425043 0.077840 0.496018
Si Si8 0.247666 0.439026 0.123589
O O1 0.454060 0.579580 0.376510
O O2 0.794383 0.606849 0.370787
O O3 0.721089 0.953859 0.685297
O O4 0.078210 0.962851 0.503897
O O5 0.446703 0.843504 0.154246
O O6 0.367909 0.830517 0.292441
O O7 0.626440 0.667163 0.044199
O O8 0.098063 0.424236 0.956885
O O9 0.122054 0.737595 0.765620
O O10 0.776535 0.683488 0.904173
O O11 0.327411 0.122620 0.107913
O O12 0.000000 0.000000 0.000000
O O13 0.304937 0.741183 0.488133
O O14 0.000000 0.500000 0.500000
O O15 0.082038 0.672155 0.888077
O O16 0.331325 0.732447 0.968922
O O17 0.551599 0.268095 0.678367
#
# Coordination Sequence:
#
# PCOD9059185 Si02
#       8
#     2   2   2   2   2   2   2   2
#     4  12  23  43  71 104 141 181 233 295 350 420
#     4  11  23  40  70 100 139 174 234 292 344 407
#     4  11  23  44  72  96 132 181 243 288 339 414
#     4  11  24  40  68 104 138 171 233 300 352 404
#     4  12  26  45  68 101 143 190 228 284 358 424
#     4  11  24  39  70 104 135 175 235 289 349 403
#     4  11  24  43  69 105 140 184 232 291 355 413
#     4  11  27  45  67 101 147 186 227 284 355 429
#
# _framework density 24.382688000000002
#
# number of rings (size 3 to 8) (size 9 to 14) (size 15 to 20)
#    0.000    0.750    5.000    2.250    3.500    2.000 
#    0.000    0.000    0.000    5.250    0.000    0.000 
#    0.000    0.000    0.000    0.000    0.000    0.000 
#
# Total GULP energy -89081.833648 kJ/mol
# GULP energy per Si atom -5567.614603 kJ/mol
# Density = 2.432719 g / cm^3
# Si number density = 24.382688 Si / 1000 Ang^3
#
#
#
# Elastic Constant Matrix: (Units=GPa)
#
#
# Indices 1 2 3 4 5 6 
#
# 1 81.5042 23.9922 20.7243 2.4694 -15.9696 14.8083
# 2 23.9922 62.1244 33.4985 1.4760 3.9595 3.7758
# 3 20.7243 33.4985 160.0971 -8.2069 -14.6234 10.3232
# 4 2.4694 1.4760 -8.2069 41.4901 10.1488 4.3648
# 5 -15.9696 3.9595 -14.6234 10.1488 19.6939 -2.0685
# 6 14.8083 3.7758 10.3232 4.3648 -2.0685 41.2251
#
#
#
# Elastic Compliance Matrix: (Units=1/GPa)
#
#
# Indices 1 2 3 4 5 6 
#
# 1 0.019896 -0.009346 0.001372 -0.005239 0.021204 -0.005016
# 2 -0.009346 0.023505 -0.005250 0.002825 -0.017517 0.001341
# 3 0.001372 -0.005250 0.007995 -0.000098 0.007987 -0.001603
# 4 -0.005239 0.002825 -0.000098 0.029541 -0.020376 -0.002502
# 5 0.021204 -0.017517 0.007987 -0.020376 0.087772 -0.001451
# 6 -0.005016 0.001341 -0.001603 -0.002502 -0.001451 0.026529
#
#
# Mechanical properties :
#
#
# Convention : Reuss Voigt Hill
#
# Bulk Modulus (GPa) = 40.08349 51.12843 45.60596
# Shear Modulus (GPa) = 21.73888 35.51588 28.62738
#
# Velocity S-wave (km/s) = 2.98916 3.82069 3.43021
# Velocity P-wave (km/s) = 5.32808 6.36225 5.86799
#
# Compressibility (1/GPa) = 0.02494793
#
# Stress axis : x y z
#
# Youngs Moduli (GPa) = 50.26052 42.54461 125.07875
#
# Poissons Ratio (x) = 0.39761 -0.17155
# Poissons Ratio (y) = 0.46972 0.65666
# Poissons Ratio (z) = -0.06894 0.22336
#
# Static dielectric constant tensor:
#      x y z
#    x 1.987950 -0.059360 -0.025670 
#    y -0.059360 2.140000 -0.027380 
#    z -0.025670 -0.027380 2.069410 
# 
# From -- ./inp_files/608663.got.cif
#   From: 2010.05.17/outbox.cif.g08.bks.cpg/sg2_305_cif.got.tgz:608663.got - 2010.06.03 11:33:40.
