data_PCOD9059080
_publ_section_title
;
Structure prediction by ZEFSAII (Michael W. Deem and Ramdas Pophale) SiO2 
 PCOD9059080
Probable space group: P -1
;
_chemical_formula_sum "Si O2"
_cell_formula_units_Z 12
_cell_length_a 16.796176
_cell_length_b 11.151407
_cell_length_c 13.776229
_cell_angle_alpha 34.305598
_cell_angle_beta 35.052075
_cell_angle_gamma 22.816110
_cell_volume 544.259366
_symmetry_space_group_name_H-M "P -1"
_symmetry_group_IT_number 2
_symmetry_cell_setting 'triclinic'
loop_
_space_group_symop_operation_xyz
x,y,z
-x,-y,-z
loop_
_atom_site_type_symbol
_atom_site_label
_atom_site_fract_x
_atom_site_fract_y
_atom_site_fract_z
Si Si1 0.901174 0.394535 0.132904
Si Si2 0.919473 0.797546 0.437927
Si Si3 0.461889 0.771681 0.804687
Si Si4 0.826190 0.319213 0.587991
Si Si5 0.972657 0.918007 0.978646
Si Si6 0.439647 0.244925 0.616367
O O1 0.887783 0.379873 0.039439
O O2 0.670353 0.632106 0.251625
O O3 0.066658 0.029557 0.257834
O O4 0.000000 0.500000 0.000000
O O5 0.000000 0.500000 0.500000
O O6 0.999498 0.715761 0.523533
O O7 0.038770 0.854818 0.228133
O O8 0.664663 0.103487 0.482195
O O9 0.615393 0.609119 0.668782
O O10 0.480884 0.955369 0.731036
O O11 0.500000 0.500000 0.000000
O O12 0.218939 0.021234 0.851027
O O13 0.739273 0.445850 0.482267
O O14 0.000000 0.000000 0.000000
#
# Coordination Sequence:
#
# PCOD9059080 Si02
#       6
#     2   2   2   2   2   2
#     4  11  23  45  69  99 138 183 223 286 349 402
#     4  11  23  40  66 101 138 173 227 285 337 402
#     4  12  20  42  68  94 135 183 226 273 335 408
#     4  11  24  40  68 104 134 181 232 275 343 413
#     4  11  24  40  66  98 131 174 230 274 334 408
#     4  12  24  42  71  97 140 181 226 283 348 402
#
# _framework density 22.048311000000002
#
# number of rings (size 3 to 8) (size 9 to 14) (size 15 to 20)
#    0.000    0.667    6.667    2.000    2.333    2.667 
#    0.000    1.667    0.000   12.000    0.000    0.000 
#    0.000    0.000    0.000    0.000    0.000    0.000 
#
# Total GULP energy -66891.449470 kJ/mol
# GULP energy per Si atom -5574.287456 kJ/mol
# Density = 2.199813 g / cm^3
# Si number density = 22.048311 Si / 1000 Ang^3
#
#
#
# Elastic Constant Matrix: (Units=GPa)
#
#
# Indices 1 2 3 4 5 6 
#
# 1 121.9183 37.7145 32.2069 20.0552 4.5618 10.8477
# 2 37.7145 92.8560 26.5292 14.5798 0.6650 15.2484
# 3 32.2069 26.5292 46.3964 -4.5283 -11.9178 1.5837
# 4 20.0552 14.5798 -4.5283 43.9800 7.8676 -1.1713
# 5 4.5618 0.6650 -11.9178 7.8676 37.2644 5.6006
# 6 10.8477 15.2484 1.5837 -1.1713 5.6006 46.7665
#
#
#
# Elastic Compliance Matrix: (Units=1/GPa)
#
#
# Indices 1 2 3 4 5 6 
#
# 1 0.012133 -0.001139 -0.008989 -0.005620 -0.002862 -0.001937
# 2 -0.001139 0.015258 -0.008583 -0.005346 -0.001084 -0.004424
# 3 -0.008989 -0.008583 0.036190 0.008850 0.010566 0.002614
# 4 -0.005620 -0.005346 0.008850 0.028623 -0.003004 0.003824
# 5 -0.002862 -0.001084 0.010566 -0.003004 0.031701 -0.003212
# 6 -0.001937 -0.004424 0.002614 0.003824 -0.003212 0.023666
#
#
# Mechanical properties :
#
#
# Convention : Reuss Voigt Hill
#
# Bulk Modulus (GPa) = 38.22780 50.45244 44.34012
# Shear Modulus (GPa) = 25.81142 36.58350 31.19746
#
# Velocity S-wave (km/s) = 3.42523 4.07780 3.76567
# Velocity P-wave (km/s) = 5.74619 6.71592 6.24989
#
# Compressibility (1/GPa) = 0.02615897
#
# Stress axis : x y z
#
# Youngs Moduli (GPa) = 82.41998 65.53990 27.63225
#
# Poissons Ratio (x) = 0.07464 0.24838
# Poissons Ratio (y) = 0.09386 0.23717
# Poissons Ratio (z) = 0.74085 0.56254
#
# Static dielectric constant tensor:
#      x y z
#    x 1.915020 -0.081850 0.004280 
#    y -0.081850 1.902280 -0.101150 
#    z 0.004280 -0.101150 1.754760 
# 
# From -- ./inp_files/168927.got.cif
#   From: 2010.05.17/outbox.cif.g08.bks.cpg/sg2_85_cif.got.tgz:168927.got - 2010.06.03 11:33:40.
