data_PCOD9059815
_publ_section_title
;
Structure prediction by ZEFSAII (Michael W. Deem and Ramdas Pophale) SiO2 
 PCOD9059815
Probable space group: P -1
;
_chemical_formula_sum "Si O2"
_cell_formula_units_Z 16
_cell_length_a 6.771631
_cell_length_b 22.244377
_cell_length_c 5.182306
_cell_angle_alpha 68.390723
_cell_angle_beta 104.870332
_cell_angle_gamma 105.797388
_cell_volume 687.587730
_symmetry_space_group_name_H-M "P -1"
_symmetry_group_IT_number 2
_symmetry_cell_setting 'triclinic'
loop_
_space_group_symop_operation_xyz
x,y,z
-x,-y,-z
loop_
_atom_site_type_symbol
_atom_site_label
_atom_site_fract_x
_atom_site_fract_y
_atom_site_fract_z
Si Si1 0.634332 0.833844 0.528547
Si Si2 0.396758 0.252177 0.843608
Si Si3 0.452890 0.429038 0.240894
Si Si4 0.068311 0.932947 0.538098
Si Si5 0.128625 0.564337 0.318943
Si Si6 0.687082 0.348653 0.123433
Si Si7 0.661150 0.066857 0.877462
Si Si8 0.924498 0.654173 0.448985
O O1 0.595804 0.775985 0.394939
O O2 0.467755 0.879073 0.342933
O O3 0.863673 0.878003 0.503158
O O4 0.620006 0.804785 0.857616
O O5 0.203109 0.289176 0.737602
O O6 0.599076 0.305029 0.918829
O O7 0.639759 0.432530 0.500677
O O8 0.491502 0.368946 0.166533
O O9 0.235370 0.402609 0.354958
O O10 0.500000 0.500000 0.000000
O O11 0.198741 0.945559 0.298582
O O12 0.202404 0.912545 0.852678
O O13 0.000000 0.000000 0.500000
O O14 0.000000 0.500000 0.500000
O O15 0.002258 0.619578 0.281667
O O16 0.173913 0.579044 0.013064
O O17 0.856524 0.317485 0.379624
O O18 0.500000 0.000000 0.000000
#
# Coordination Sequence:
#
# PCOD9059815 Si02
#       8
#     2   2   2   2   2   2   2   2
#     4  12  29  49  75 114 150 201 258 301 366 452
#     4  12  28  50  73 103 154 203 255 300 365 463
#     4  11  23  42  69 104 140 183 242 311 386 451
#     4  12  26  47  81 117 156 198 250 306 380 436
#     4  11  24  41  69 106 133 178 248 308 378 453
#     4  11  26  45  69 100 141 190 246 304 377 443
#     4  12  26  47  81 116 159 198 243 318 375 426
#     4  11  26  45  70  98 142 194 237 312 376 434
#
# _framework density 23.269759000000001
#
# number of rings (size 3 to 8) (size 9 to 14) (size 15 to 20)
#    0.000    0.500    2.500    4.500    8.750    6.000 
#    0.000    0.000    0.000    0.000    0.000    0.000 
#    0.000    0.000    0.000    0.000    0.000    0.000 
#
# Total GULP energy -89528.284135 kJ/mol
# GULP energy per Si atom -5595.517758 kJ/mol
# Density = 2.321680 g / cm^3
# Si number density = 23.269759 Si / 1000 Ang^3
#
#
#
# Elastic Constant Matrix: (Units=GPa)
#
#
# Indices 1 2 3 4 5 6 
#
# 1 128.5655 28.2779 28.4539 -4.1418 -10.1680 -1.0290
# 2 28.2779 68.7696 7.6483 -1.8220 6.5731 8.8315
# 3 28.4539 7.6483 86.4250 -15.7731 0.0717 -1.1288
# 4 -4.1418 -1.8220 -15.7731 47.1671 -4.0004 5.3177
# 5 -10.1680 6.5731 0.0717 -4.0004 47.4262 -7.3545
# 6 -1.0290 8.8315 -1.1288 5.3177 -7.3545 30.6988
#
#
#
# Elastic Compliance Matrix: (Units=1/GPa)
#
#
# Indices 1 2 3 4 5 6 
#
# 1 0.009561 -0.004188 -0.002797 -0.000252 0.002950 0.002173
# 2 -0.004188 0.017511 -0.000138 0.000613 -0.004251 -0.006308
# 3 -0.002797 -0.000138 0.013266 0.004201 -0.000303 -0.000367
# 4 -0.000252 0.000613 0.004201 0.023134 0.001225 -0.003744
# 5 0.002950 -0.004251 -0.000303 0.001225 0.023453 0.006717
# 6 0.002173 -0.006308 -0.000367 -0.003744 0.006717 0.036706
#
#
# Mechanical properties :
#
#
# Convention : Reuss Voigt Hill
#
# Bulk Modulus (GPa) = 38.32578 45.83560 42.08069
# Shear Modulus (GPa) = 34.11231 39.68373 36.89802
#
# Velocity S-wave (km/s) = 3.83293 4.13410 3.98636
# Velocity P-wave (km/s) = 6.00786 6.52135 6.26986
#
# Compressibility (1/GPa) = 0.02609210
#
# Stress axis : x y z
#
# Youngs Moduli (GPa) = 104.59174 57.10566 75.38036
#
# Poissons Ratio (x) = 0.23916 0.21086
# Poissons Ratio (y) = 0.43804 0.01039
# Poissons Ratio (z) = 0.29257 0.00787
#
# Static dielectric constant tensor:
#      x y z
#    x 1.834990 0.035830 -0.025640 
#    y 0.035830 1.908170 -0.015240 
#    z -0.025640 -0.015240 1.946360 
# 
# From -- ./inp_files/11308.got.cif
#   From: 2010.05.17/outbox.cif.g08.bks.cpg/sg2_6_cif.got.tgz:11308.got - 2010.06.03 11:33:40.
