data_PCOD9059192
_publ_section_title
;
Structure prediction by ZEFSAII (Michael W. Deem and Ramdas Pophale) SiO2 
 PCOD9059192
Probable space group: P -1
;
_chemical_formula_sum "Si O2"
_cell_formula_units_Z 14
_cell_length_a 22.945733
_cell_length_b 5.185106
_cell_length_c 18.546550
_cell_angle_alpha 76.584930
_cell_angle_beta 20.893906
_cell_angle_gamma 67.902613
_cell_volume 679.852283
_symmetry_space_group_name_H-M "P -1"
_symmetry_group_IT_number 2
_symmetry_cell_setting 'triclinic'
loop_
_space_group_symop_operation_xyz
x,y,z
-x,-y,-z
loop_
_atom_site_type_symbol
_atom_site_label
_atom_site_fract_x
_atom_site_fract_y
_atom_site_fract_z
Si Si1 0.987733 0.303438 0.960816
Si Si2 0.461058 0.551134 0.252881
Si Si3 0.735182 0.135941 0.868210
Si Si4 0.584662 0.968620 0.825180
Si Si5 0.907857 0.415316 0.543912
Si Si6 0.575891 0.728814 0.372766
Si Si7 0.638619 0.949330 0.542461
O O1 0.794526 0.522675 0.133396
O O2 0.000000 0.500000 0.000000
O O3 0.157162 0.192411 0.717256
O O4 0.000000 0.000000 0.000000
O O5 0.387034 0.322991 0.377421
O O6 0.391026 0.749526 0.248348
O O7 0.408735 0.795341 0.359812
O O8 0.673045 0.341763 0.997596
O O9 0.776785 0.296394 0.741804
O O10 0.566971 0.066058 0.046883
O O11 0.925364 0.839726 0.675404
O O12 0.782467 0.686917 0.620600
O O13 0.500000 0.000000 0.000000
O O14 0.000000 0.500000 0.500000
O O15 0.500000 0.500000 0.500000
O O16 0.500000 0.000000 0.500000
O O17 0.497632 0.884976 0.377009
#
# Coordination Sequence:
#
# PCOD9059192 Si02
#       7
#     2   2   2   2   2   2   2
#     4  12  23  45  77 109 140 179 238 288 334 425
#     4  12  26  46  70  98 152 191 226 299 367 409
#     4  11  23  43  68 101 135 181 237 296 361 406
#     4  12  23  44  73  97 132 192 246 292 349 422
#     4  11  23  40  70 105 128 174 254 308 342 411
#     4  12  23  45  79 109 133 186 232 284 343 420
#     4  12  26  46  70 108 150 181 231 292 360 419
#
# _framework density 20.592707000000001
#
# number of rings (size 3 to 8) (size 9 to 14) (size 15 to 20)
#    0.000    0.286    7.143    2.143    0.000    0.000 
#    2.571    2.857    0.000    0.000    0.000    0.000 
#    0.000    0.000    0.000    0.000    0.000    0.000 
#
# Total GULP energy -78237.409976 kJ/mol
# GULP energy per Si atom -5588.386427 kJ/mol
# Density = 2.054584 g / cm^3
# Si number density = 20.592707 Si / 1000 Ang^3
#
#
#
# Elastic Constant Matrix: (Units=GPa)
#
#
# Indices 1 2 3 4 5 6 
#
# 1 67.5441 47.6586 71.3659 3.7726 20.1799 4.1939
# 2 47.6586 197.8193 98.2501 2.1857 10.6291 -4.0725
# 3 71.3659 98.2501 193.7915 34.2319 13.1631 -11.7689
# 4 3.7726 2.1857 34.2319 48.0229 2.5092 5.5244
# 5 20.1799 10.6291 13.1631 2.5092 43.8643 12.8646
# 6 4.1939 -4.0725 -11.7689 5.5244 12.8646 42.1435
#
#
#
# Elastic Compliance Matrix: (Units=1/GPa)
#
#
# Indices 1 2 3 4 5 6 
#
# 1 0.030443 -0.001363 -0.011337 0.006742 -0.009384 -0.004347
# 2 -0.001363 0.007112 -0.003548 0.002368 -0.000029 -0.000470
# 3 -0.011337 -0.003548 0.012928 -0.008822 0.001178 0.005192
# 4 0.006742 0.002368 -0.008822 0.027232 -0.000755 -0.006245
# 5 -0.009384 -0.000029 0.001178 -0.000755 0.029010 -0.007497
# 6 -0.004347 -0.000470 0.005192 -0.006245 -0.007497 0.028673
#
#
# Mechanical properties :
#
#
# Convention : Reuss Voigt Hill
#
# Bulk Modulus (GPa) = 55.60368 99.30047 77.45208
# Shear Modulus (GPa) = 28.75383 42.93150 35.84266
#
# Velocity S-wave (km/s) = 3.74078 4.57090 4.17652
# Velocity P-wave (km/s) = 6.76152 8.72831 7.80710
#
# Compressibility (1/GPa) = 0.01798442
#
# Stress axis : x y z
#
# Youngs Moduli (GPa) = 32.84868 140.61462 77.35156
#
# Poissons Ratio (x) = 0.19168 0.87696
# Poissons Ratio (y) = 0.04478 0.27448
# Poissons Ratio (z) = 0.37242 0.49896
#
# Static dielectric constant tensor:
#      x y z
#    x 1.772560 0.032180 -0.004330 
#    y 0.032180 1.792270 0.011100 
#    z -0.004330 0.011100 1.744920 
# 
# From -- ./inp_files/578627.got.cif
#   From: 2010.05.17/outbox.cif.g08.bks.cpg/sg2_290_cif.got.tgz:578627.got - 2010.06.03 11:33:40.
