data_PCOD9059318
_publ_section_title
;
Structure prediction by ZEFSAII (Michael W. Deem and Ramdas Pophale) SiO2 
 PCOD9059318
Probable space group: P -1
;
_chemical_formula_sum "Si O2"
_cell_formula_units_Z 10
_cell_length_a 8.565120
_cell_length_b 11.463165
_cell_length_c 10.346904
_cell_angle_alpha 82.219528
_cell_angle_beta 152.073241
_cell_angle_gamma 104.376936
_cell_volume 452.915978
_symmetry_space_group_name_H-M "P -1"
_symmetry_group_IT_number 2
_symmetry_cell_setting 'triclinic'
loop_
_space_group_symop_operation_xyz
x,y,z
-x,-y,-z
loop_
_atom_site_type_symbol
_atom_site_label
_atom_site_fract_x
_atom_site_fract_y
_atom_site_fract_z
Si Si1 0.127935 0.612487 0.672855
Si Si2 0.357442 0.002145 0.538930
Si Si3 0.757223 0.774899 0.222512
Si Si4 0.838283 0.146561 0.077435
Si Si5 0.893953 0.572584 0.795608
O O1 0.000000 0.500000 0.500000
O O2 0.891561 0.700600 0.444434
O O3 0.067222 0.569210 0.783014
O O4 0.535365 0.686204 0.962362
O O5 0.130153 0.099147 0.368549
O O6 0.500000 0.000000 0.500000
O O7 0.671364 0.047629 0.861319
O O8 0.095968 0.872236 0.403005
O O9 0.477598 0.840292 0.065092
O O10 0.014787 0.282280 0.130726
O O11 0.500000 0.500000 0.500000
O O12 0.000000 0.500000 0.000000
#
# Coordination Sequence:
#
# PCOD9059318 Si02
#       5
#     2   2   2   2   2
#     4  11  24  42  66  99 132 170 217 268 323 384
#     4  12  25  41  64  97 128 165 215 273 326 374
#     4  11  23  43  67  94 129 176 217 259 322 397
#     4  11  23  43  64  90 128 173 215 259 319 395
#     4  11  23  41  65  94 127 170 215 261 318 382
#
# _framework density 22.079149000000001
#
# number of rings (size 3 to 8) (size 9 to 14) (size 15 to 20)
#    0.000    0.800    0.000    9.600    0.000    4.800 
#    0.000    0.000    0.000    0.000    0.000    0.000 
#    0.000    0.000    0.000    0.000    0.000    0.000 
#
# Total GULP energy -55948.890111 kJ/mol
# GULP energy per Si atom -5594.889011 kJ/mol
# Density = 2.202890 g / cm^3
# Si number density = 22.079149 Si / 1000 Ang^3
#
#
#
# Elastic Constant Matrix: (Units=GPa)
#
#
# Indices 1 2 3 4 5 6 
#
# 1 72.1197 38.7929 8.7710 7.1794 -5.4261 7.7959
# 2 38.7929 107.0163 42.3622 15.9864 -4.2432 19.0077
# 3 8.7710 42.3622 138.2763 15.4620 -5.5250 4.8977
# 4 7.1794 15.9864 15.4620 68.5773 -1.6321 5.1788
# 5 -5.4261 -4.2432 -5.5250 -1.6321 35.2785 7.3630
# 6 7.7959 19.0077 4.8977 5.1788 7.3630 29.6201
#
#
#
# Elastic Compliance Matrix: (Units=1/GPa)
#
#
# Indices 1 2 3 4 5 6 
#
# 1 0.017525 -0.006395 0.001030 -0.000432 0.002314 -0.001179
# 2 -0.006395 0.014656 -0.003608 -0.001342 0.001677 -0.007307
# 3 0.001030 -0.003608 0.008416 -0.001193 0.000852 0.000650
# 4 -0.000432 -0.001342 -0.001193 0.015351 0.000644 -0.001672
# 5 0.002314 0.001677 0.000852 0.000644 0.031084 -0.009666
# 6 -0.001179 -0.007307 0.000650 -0.001672 -0.009666 0.041348
#
#
# Mechanical properties :
#
#
# Convention : Reuss Voigt Hill
#
# Bulk Modulus (GPa) = 44.14895 55.25162 49.70029
# Shear Modulus (GPa) = 32.49372 41.86093 37.17733
#
# Velocity S-wave (km/s) = 3.84043 4.35897 4.10789
# Velocity P-wave (km/s) = 6.30114 7.10020 6.71257
#
# Compressibility (1/GPa) = 0.02265059
#
# Stress axis : x y z
#
# Youngs Moduli (GPa) = 57.06208 68.23325 118.81468
#
# Poissons Ratio (x) = 0.43633 -0.12238
# Poissons Ratio (y) = 0.36490 0.42873
# Poissons Ratio (z) = -0.05877 0.24621
#
# Static dielectric constant tensor:
#      x y z
#    x 1.380100 -0.162560 -0.259620 
#    y -0.162560 1.788930 -0.065840 
#    z -0.259620 -0.065840 1.595380 
# 
# From -- ./inp_files/661.got.cif
#   From: 2010.05.17/outbox.cif.g08.bks.cpg/sg2_1_cif.got.tgz:661.got - 2010.06.03 11:33:40.
