data_PCOD9059650
_publ_section_title
;
Structure prediction by ZEFSAII (Michael W. Deem and Ramdas Pophale) SiO2 
 PCOD9059650
Probable space group: P -1
;
_chemical_formula_sum "Si O2"
_cell_formula_units_Z 10
_cell_length_a 5.457062
_cell_length_b 6.166503
_cell_length_c 14.934663
_cell_angle_alpha 79.715692
_cell_angle_beta 56.562460
_cell_angle_gamma 77.417209
_cell_volume 408.255335
_symmetry_space_group_name_H-M "P -1"
_symmetry_group_IT_number 2
_symmetry_cell_setting 'triclinic'
loop_
_space_group_symop_operation_xyz
x,y,z
-x,-y,-z
loop_
_atom_site_type_symbol
_atom_site_label
_atom_site_fract_x
_atom_site_fract_y
_atom_site_fract_z
Si Si1 0.673324 0.152466 0.548597
Si Si2 0.712679 0.191707 0.342602
Si Si3 0.716548 0.149143 0.001014
Si Si4 0.199737 0.524488 0.369891
Si Si5 0.797873 0.547561 0.825381
O O1 0.705784 0.284622 0.439277
O O2 0.632504 0.280691 0.640419
O O3 0.363641 0.053482 0.606036
O O4 0.000000 0.000000 0.500000
O O5 0.420819 0.295106 0.341912
O O6 0.979027 0.267879 0.230023
O O7 0.517144 0.301376 0.103376
O O8 0.826424 0.339433 0.902099
O O9 0.500000 0.000000 0.000000
O O10 0.000000 0.000000 0.000000
O O11 0.134529 0.561601 0.277350
O O12 0.000000 0.500000 0.500000
#
# Coordination Sequence:
#
# PCOD9059650 Si02
#       5
#     2   2   2   2   2
#     4  11  23  42  65 105 162 204 255 298 380 487
#     4  11  24  42  69 107 156 206 256 309 391 479
#     4  11  30  58  86 117 154 209 282 347 406 465
#     4  12  24  44  68 112 158 202 245 314 394 479
#     4  11  28  50  82 114 156 207 269 333 404 478
#
# _framework density 24.494474
#
# number of rings (size 3 to 8) (size 9 to 14) (size 15 to 20)
#    0.000    0.800    4.000    0.600    5.600    6.400 
#    0.000    0.000    0.000    0.000    0.000    0.000 
#    0.000    0.000    0.000    0.000    0.000    0.000 
#
# Total GULP energy -55731.963422 kJ/mol
# GULP energy per Si atom -5573.196342 kJ/mol
# Density = 2.443872 g / cm^3
# Si number density = 24.494474 Si / 1000 Ang^3
#
#
#
# Elastic Constant Matrix: (Units=GPa)
#
#
# Indices 1 2 3 4 5 6 
#
# 1 106.2379 42.1497 77.2912 -7.4793 -6.0334 -5.1293
# 2 42.1497 87.7577 72.0800 -3.3930 -0.9841 -12.3549
# 3 77.2912 72.0800 205.8779 -23.7088 -17.7360 0.1296
# 4 -7.4793 -3.3930 -23.7088 32.8048 14.2735 3.1243
# 5 -6.0334 -0.9841 -17.7360 14.2735 29.6437 1.3413
# 6 -5.1293 -12.3549 0.1296 3.1243 1.3413 55.8818
#
#
#
# Elastic Compliance Matrix: (Units=1/GPa)
#
#
# Indices 1 2 3 4 5 6 
#
# 1 0.013612 -0.003180 -0.004002 -0.000352 0.000414 0.000565
# 2 -0.003180 0.017906 -0.005542 -0.002156 -0.002505 0.003861
# 3 -0.004002 -0.005542 0.008989 0.004110 0.002487 -0.001903
# 4 -0.000352 -0.002156 0.004110 0.040890 -0.017265 -0.002390
# 5 0.000414 -0.002505 0.002487 -0.017265 0.043563 -0.000602
# 6 0.000565 0.003861 -0.001903 -0.002390 -0.000602 0.018953
#
#
# Mechanical properties :
#
#
# Convention : Reuss Voigt Hill
#
# Bulk Modulus (GPa) = 66.40503 86.99058 76.69780
# Shear Modulus (GPa) = 28.67283 37.55623 33.11453
#
# Velocity S-wave (km/s) = 3.42509 3.91993 3.68083
# Velocity P-wave (km/s) = 6.54299 7.48861 7.03171
#
# Compressibility (1/GPa) = 0.01505910
#
# Stress axis : x y z
#
# Youngs Moduli (GPa) = 73.46314 55.84656 111.25078
#
# Poissons Ratio (x) = 0.17760 0.44524
# Poissons Ratio (y) = 0.23362 0.61653
# Poissons Ratio (z) = 0.29401 0.30949
#
# Static dielectric constant tensor:
#      x y z
#    x 2.190330 0.042740 -0.005110 
#    y 0.042740 2.274430 -0.109770 
#    z -0.005110 -0.109770 1.966960 
# 
# From -- ./inp_files/85968.got.cif
#   From: 2010.05.17/outbox.cif.g08.bks.cpg/sg2_43_cif.got.tgz:85968.got - 2010.06.03 11:33:40.
