data_PCOD9059784
_publ_section_title
;
Structure prediction by ZEFSAII (Michael W. Deem and Ramdas Pophale) SiO2 
 PCOD9059784
Probable space group: P -1
;
_chemical_formula_sum "Si O2"
_cell_formula_units_Z 16
_cell_length_a 12.232086
_cell_length_b 8.186542
_cell_length_c 15.247381
_cell_angle_alpha 77.641846
_cell_angle_beta 28.981490
_cell_angle_gamma 71.138012
_cell_volume 692.150241
_symmetry_space_group_name_H-M "P -1"
_symmetry_group_IT_number 2
_symmetry_cell_setting 'triclinic'
loop_
_space_group_symop_operation_xyz
x,y,z
-x,-y,-z
loop_
_atom_site_type_symbol
_atom_site_label
_atom_site_fract_x
_atom_site_fract_y
_atom_site_fract_z
Si Si1 0.562949 0.818413 0.425179
Si Si2 0.574518 0.322923 0.122056
Si Si3 0.123221 0.272377 0.487033
Si Si4 0.804054 0.951473 0.085764
Si Si5 0.014645 0.420355 0.730310
Si Si6 0.652182 0.296575 0.709659
Si Si7 0.833970 0.101913 0.427848
Si Si8 0.210217 0.199015 0.073999
O O1 0.687548 0.844841 0.244806
O O2 0.313440 0.806547 0.564748
O O3 0.751315 0.680095 0.367646
O O4 0.500000 0.000000 0.500000
O O5 0.313777 0.309227 0.280708
O O6 0.512084 0.503902 0.198711
O O7 0.657344 0.145045 0.137873
O O8 0.795429 0.334187 0.905854
O O9 0.082638 0.405251 0.582231
O O10 0.878522 0.282933 0.611486
O O11 0.205394 0.082440 0.497714
O O12 0.858852 0.838044 0.972222
O O13 0.000000 0.000000 0.000000
O O14 0.918921 0.612469 0.815775
O O15 0.743267 0.225610 0.559282
O O16 0.485483 0.185080 0.877685
O O17 0.109166 0.071185 0.218558
#
# Coordination Sequence:
#
# PCOD9059784 Si02
#       8
#     2   2   2   2   2   2   2   2
#     4  12  22  41  69  99 131 172 218 273 332 400
#     4  11  23  42  68  98 131 175 226 269 337 389
#     4  12  24  44  69  98 134 180 228 274 330 393
#     4  12  22  41  70  99 135 174 219 274 337 403
#     4  11  25  43  68  99 138 176 222 275 332 398
#     4  11  26  44  67  99 138 177 223 281 328 393
#     4  12  24  42  69  96 137 172 228 273 336 397
#     4  11  26  44  64 102 135 176 225 273 334 397
#
# _framework density 23.11637
#
# number of rings (size 3 to 8) (size 9 to 14) (size 15 to 20)
#    0.000    0.500    5.000    3.000    0.000    5.500 
#    0.000    0.000    0.000    0.000    0.000    0.000 
#    0.000    0.000    0.000    0.000    0.000    0.000 
#
# Total GULP energy -89346.903858 kJ/mol
# GULP energy per Si atom -5584.181491 kJ/mol
# Density = 2.306376 g / cm^3
# Si number density = 23.116370 Si / 1000 Ang^3
#
#
#
# Elastic Constant Matrix: (Units=GPa)
#
#
# Indices 1 2 3 4 5 6 
#
# 1 99.3620 24.8411 30.5650 22.5017 -17.7306 12.0392
# 2 24.8411 43.8491 11.2868 -4.3881 -6.1869 15.4447
# 3 30.5650 11.2868 98.5456 -21.8453 -22.3064 3.7055
# 4 22.5017 -4.3881 -21.8453 45.1279 15.1420 0.7217
# 5 -17.7306 -6.1869 -22.3064 15.1420 29.6865 1.6913
# 6 12.0392 15.4447 3.7055 0.7217 1.6913 28.4257
#
#
#
# Elastic Compliance Matrix: (Units=1/GPa)
#
#
# Indices 1 2 3 4 5 6 
#
# 1 0.023173 -0.009506 -0.006632 -0.021729 0.018205 -0.004316
# 2 -0.009506 0.033702 0.001368 0.009455 -0.001617 -0.014608
# 3 -0.006632 0.001368 0.014781 0.009774 0.002459 -0.000255
# 4 -0.021729 0.009455 0.009774 0.048119 -0.028393 0.003259
# 5 0.018205 -0.001617 0.002459 -0.028393 0.061125 -0.010068
# 6 -0.004316 -0.014608 -0.000255 0.003259 -0.010068 0.045494
#
#
# Mechanical properties :
#
#
# Convention : Reuss Voigt Hill
#
# Bulk Modulus (GPa) = 23.74476 41.68250 32.71363
# Shear Modulus (GPa) = 18.52024 32.31895 25.41959
#
# Velocity S-wave (km/s) = 2.83357 3.74317 3.31967
# Velocity P-wave (km/s) = 4.58254 6.06238 5.37365
#
# Compressibility (1/GPa) = 0.04211456
#
# Stress axis : x y z
#
# Youngs Moduli (GPa) = 43.15286 29.67172 67.65420
#
# Poissons Ratio (x) = 0.28207 0.44871
# Poissons Ratio (y) = 0.41023 -0.09254
# Poissons Ratio (z) = 0.28621 -0.04058
#
# Static dielectric constant tensor:
#      x y z
#    x 2.075450 0.082310 -0.193910 
#    y 0.082310 1.922200 -0.047820 
#    z -0.193910 -0.047820 2.048370 
# 
# From -- ./inp_files/515483.got.cif
#   From: 2010.05.17/outbox.cif.g08.bks.cpg/sg2_258_cif.got.tgz:515483.got - 2010.06.03 11:33:40.
