data_PCOD9059710
_publ_section_title
;
Structure prediction by ZEFSAII (Michael W. Deem and Ramdas Pophale) SiO2 
 PCOD9059710
Probable space group: P -1
;
_chemical_formula_sum "Si O2"
_cell_formula_units_Z 14
_cell_length_a 9.131681
_cell_length_b 17.809547
_cell_length_c 5.009968
_cell_angle_alpha 99.443648
_cell_angle_beta 70.249878
_cell_angle_gamma 50.075500
_cell_volume 499.508221
_symmetry_space_group_name_H-M "P -1"
_symmetry_group_IT_number 2
_symmetry_cell_setting 'triclinic'
loop_
_space_group_symop_operation_xyz
x,y,z
-x,-y,-z
loop_
_atom_site_type_symbol
_atom_site_label
_atom_site_fract_x
_atom_site_fract_y
_atom_site_fract_z
Si Si1 0.350649 0.650236 0.234597
Si Si2 0.159249 0.636330 0.839950
Si Si3 0.537305 0.786959 0.702786
Si Si4 0.681175 0.866168 0.000429
Si Si5 0.845906 0.132029 0.691094
Si Si6 0.231924 0.446345 0.468516
Si Si7 0.757137 0.989372 0.250663
O O1 0.335233 0.613702 0.506022
O O2 0.196679 0.783593 0.432524
O O3 0.222867 0.641147 0.097441
O O4 0.585378 0.589746 0.893535
O O5 0.172715 0.541147 0.737731
O O6 0.896835 0.756834 0.983004
O O7 0.669869 0.660802 0.474651
O O8 0.314115 0.900329 0.740706
O O9 0.678224 0.810827 0.716043
O O10 0.413507 0.803506 0.057126
O O11 0.439434 0.950698 0.366269
O O12 0.718170 0.943417 0.008907
O O13 0.000000 0.000000 0.500000
O O14 0.987803 0.117099 0.842556
O O15 0.000000 0.500000 0.500000
#
# Coordination Sequence:
#
# PCOD9059710 Si02
#       7
#     2   2   2   2   2   2   2
#     4  11  28  50  77 108 148 199 248 295 372 444
#     4  12  26  51  77 106 149 201 248 296 367 443
#     4  11  24  43  68 102 140 189 239 307 367 427
#     4  11  24  41  69 103 144 188 246 290 368 432
#     4  11  23  42  67 105 144 188 238 299 368 437
#     4  11  25  50  74 111 145 189 253 314 365 425
#     4  11  24  43  67 104 145 191 241 298 368 442
#
# _framework density 28.027564999999999
#
# number of rings (size 3 to 8) (size 9 to 14) (size 15 to 20)
#    0.000    0.857    4.286    1.714    4.000    2.286 
#    2.571    3.571    0.000    0.000    0.000    0.000 
#    0.000    0.000    0.000    0.000    0.000    0.000 
#
# Total GULP energy -78394.805212 kJ/mol
# GULP energy per Si atom -5599.628944 kJ/mol
# Density = 2.796377 g / cm^3
# Si number density = 28.027565 Si / 1000 Ang^3
#
#
#
# Elastic Constant Matrix: (Units=GPa)
#
#
# Indices 1 2 3 4 5 6 
#
# 1 120.1246 31.8944 31.3216 15.0239 -0.1210 7.0158
# 2 31.8944 186.5643 17.6743 25.3274 28.8990 31.9131
# 3 31.3216 17.6743 95.5784 -1.2862 -4.7793 8.9798
# 4 15.0239 25.3274 -1.2862 41.6427 6.1593 19.0671
# 5 -0.1210 28.8990 -4.7793 6.1593 43.1157 15.2297
# 6 7.0158 31.9131 8.9798 19.0671 15.2297 53.0765
#
#
#
# Elastic Compliance Matrix: (Units=1/GPa)
#
#
# Indices 1 2 3 4 5 6 
#
# 1 0.009826 -0.001181 -0.003113 -0.003477 0.000614 0.001011
# 2 -0.001181 0.006869 -0.000920 -0.002359 -0.003698 -0.001910
# 3 -0.003113 -0.000920 0.012092 0.003003 0.002540 -0.002889
# 4 -0.003477 -0.002359 0.003003 0.031300 0.001024 -0.010168
# 5 0.000614 -0.003698 0.002540 0.001024 0.028191 -0.006745
# 6 0.001011 -0.001910 -0.002889 -0.010168 -0.006745 0.025932
#
#
# Mechanical properties :
#
#
# Convention : Reuss Voigt Hill
#
# Bulk Modulus (GPa) = 54.47054 62.67199 58.57127
# Shear Modulus (GPa) = 38.23862 48.99212 43.61537
#
# Velocity S-wave (km/s) = 3.69768 4.18544 3.94910
# Velocity P-wave (km/s) = 6.14063 6.76510 6.46041
#
# Compressibility (1/GPa) = 0.01835855
#
# Stress axis : x y z
#
# Youngs Moduli (GPa) = 101.76787 145.58491 82.70138
#
# Poissons Ratio (x) = 0.17193 0.25743
# Poissons Ratio (y) = 0.12018 0.07612
# Poissons Ratio (z) = 0.31678 0.13399
#
# Static dielectric constant tensor:
#      x y z
#    x 2.231340 -0.006760 -0.001170 
#    y -0.006760 2.178890 0.039890 
#    z -0.001170 0.039890 2.200380 
# 
# From -- ./inp_files/48556.got.cif
#   From: 2010.05.17/outbox.cif.g08.bks.cpg/sg2_25_cif.got.tgz:48556.got - 2010.06.03 11:33:40.
