data_PCOD9059595
_publ_section_title
;
Structure prediction by ZEFSAII (Michael W. Deem and Ramdas Pophale) SiO2 
 PCOD9059595
Probable space group: P -1
;
_chemical_formula_sum "Si O2"
_cell_formula_units_Z 13
_cell_length_a 15.672965
_cell_length_b 11.520968
_cell_length_c 14.855952
_cell_angle_alpha 139.979104
_cell_angle_beta 161.399341
_cell_angle_gamma 38.307871
_cell_volume 527.073866
_symmetry_space_group_name_H-M "P -1"
_symmetry_group_IT_number 2
_symmetry_cell_setting 'triclinic'
loop_
_space_group_symop_operation_xyz
x,y,z
-x,-y,-z
loop_
_atom_site_type_symbol
_atom_site_label
_atom_site_fract_x
_atom_site_fract_y
_atom_site_fract_z
Si Si1 0.276609 0.087411 0.751766
Si Si2 0.834019 0.610315 0.484002
Si Si3 0.941047 0.253547 0.682094
Si Si4 0.738917 0.012612 0.679241
Si Si5 0.000000 0.500000 0.000000
Si Si6 0.618140 0.559369 0.978856
Si Si7 0.438048 0.588241 0.355363
O O1 0.028057 0.217788 0.643881
O O2 0.175128 0.918285 0.510016
O O3 0.388211 0.224874 0.881528
O O4 0.500000 0.000000 0.000000
O O5 0.776230 0.832034 0.545415
O O6 0.578255 0.531020 0.210864
O O7 0.000000 0.500000 0.500000
O O8 0.062269 0.561674 0.762570
O O9 0.744329 0.474688 0.636199
O O10 0.173783 0.280154 0.997841
O O11 0.500000 0.000000 0.500000
O O12 0.620483 0.206033 0.622060
O O13 0.000000 0.000000 0.000000
O O14 0.186788 0.595229 0.173335
O O15 0.551103 0.545949 0.799444
#
# Coordination Sequence:
#
# PCOD9059595 Si02
#       7
#     2   2   2   2   1   2   2
#     4  11  23  41  74 105 139 198 246 302 375 467
#     4  12  27  50  74 114 145 191 254 324 376 445
#     4  11  24  44  67 107 153 190 257 306 380 446
#     4  12  26  47  80 111 145 204 257 305 383 460
#     4  12  26  44  70 106 154 194 248 318 376 448
#     4  12  24  46  80 101 151 194 246 309 388 451
#     4  12  25  45  74 106 151 200 251 312 376 460
#
# _framework density 24.664473999999998
#
# number of rings (size 3 to 8) (size 9 to 14) (size 15 to 20)
#    0.000    0.308    6.154    1.846    4.308    1.231 
#    2.769    0.000    0.000    0.000    0.000    0.000 
#    0.000    0.000    0.000    0.000    0.000    0.000 
#
# Total GULP energy -72525.486378 kJ/mol
# GULP energy per Si atom -5578.883568 kJ/mol
# Density = 2.460834 g / cm^3
# Si number density = 24.664474 Si / 1000 Ang^3
#
#
#
# Elastic Constant Matrix: (Units=GPa)
#
#
# Indices 1 2 3 4 5 6 
#
# 1 102.5931 51.8975 33.3864 16.8107 14.3901 -0.6622
# 2 51.8975 196.0303 70.7055 43.4659 14.4623 11.5627
# 3 33.3864 70.7055 122.8000 31.8008 19.3071 9.2204
# 4 16.8107 43.4659 31.8008 59.4473 -2.3260 0.2142
# 5 14.3901 14.4623 19.3071 -2.3260 48.4119 14.8670
# 6 -0.6622 11.5627 9.2204 0.2142 14.8670 47.0351
#
#
#
# Elastic Compliance Matrix: (Units=1/GPa)
#
#
# Indices 1 2 3 4 5 6 
#
# 1 0.011970 -0.002355 -0.001291 -0.001097 -0.002992 0.001951
# 2 -0.002355 0.007544 -0.002682 -0.003421 -0.000261 -0.001264
# 3 -0.001291 -0.002682 0.011680 -0.004058 -0.003508 -0.000521
# 4 -0.001097 -0.003421 -0.004058 0.021957 0.003936 0.000277
# 5 -0.002992 -0.000261 -0.003508 0.003936 0.025471 -0.007359
# 6 0.001951 -0.001264 -0.000521 0.000277 -0.007359 0.024026
#
#
# Mechanical properties :
#
#
# Convention : Reuss Voigt Hill
#
# Bulk Modulus (GPa) = 53.93697 81.48913 67.71305
# Shear Modulus (GPa) = 41.15793 48.67446 44.91619
#
# Velocity S-wave (km/s) = 4.08942 4.44719 4.27205
# Velocity P-wave (km/s) = 6.64933 7.71238 7.20050
#
# Compressibility (1/GPa) = 0.01854016
#
# Stress axis : x y z
#
# Youngs Moduli (GPa) = 83.53958 132.55031 85.61776
#
# Poissons Ratio (x) = 0.31211 0.11051
# Poissons Ratio (y) = 0.19670 0.22961
# Poissons Ratio (z) = 0.10783 0.35547
#
# Static dielectric constant tensor:
#      x y z
#    x 1.987570 -0.113860 -0.123340 
#    y -0.113860 1.956310 -0.031450 
#    z -0.123340 -0.031450 2.274100 
# 
# From -- ./inp_files/454552.got.cif
#   From: 2010.05.17/outbox.cif.g08.bks.cpg/sg2_228_cif.got.tgz:454552.got - 2010.06.03 11:33:40.
