data_PCOD9059512
_publ_section_title
;
Structure prediction by ZEFSAII (Michael W. Deem and Ramdas Pophale) SiO2 
 PCOD9059512
Probable space group: P -1
;
_chemical_formula_sum "Si O2"
_cell_formula_units_Z 14
_cell_length_a 9.001803
_cell_length_b 9.228215
_cell_length_c 19.665637
_cell_angle_alpha 129.829826
_cell_angle_beta 150.261850
_cell_angle_gamma 48.160651
_cell_volume 595.353386
_symmetry_space_group_name_H-M "P -1"
_symmetry_group_IT_number 2
_symmetry_cell_setting 'triclinic'
loop_
_space_group_symop_operation_xyz
x,y,z
-x,-y,-z
loop_
_atom_site_type_symbol
_atom_site_label
_atom_site_fract_x
_atom_site_fract_y
_atom_site_fract_z
Si Si1 0.173079 0.143809 0.882606
Si Si2 0.827781 0.874868 0.851681
Si Si3 0.264434 0.492117 0.702412
Si Si4 0.537151 0.633728 0.490123
Si Si5 0.574486 0.355533 0.048581
Si Si6 0.569135 0.044543 0.668504
Si Si7 0.297021 0.469076 0.215122
O O1 0.965627 0.372366 0.886306
O O2 0.350084 0.213651 0.910438
O O3 0.901102 0.040997 0.761460
O O4 0.500000 0.000000 0.000000
O O5 0.571952 0.012408 0.742234
O O6 0.768482 0.719457 0.834169
O O7 0.065431 0.760728 0.853832
O O8 0.000000 0.000000 0.000000
O O9 0.439226 0.527092 0.851231
O O10 0.393854 0.605909 0.729886
O O11 0.899801 0.565155 0.592910
O O12 0.357431 0.268491 0.644615
O O13 0.500000 0.500000 0.500000
O O14 0.450715 0.866795 0.539959
O O15 0.349098 0.591931 0.338255
O O16 0.500000 0.500000 0.000000
#
# Coordination Sequence:
#
# PCOD9059512 Si02
#       7
#     2   2   2   2   2   2   2
#     4  11  23  41  70 106 145 186 239 297 364 426
#     4  12  24  43  68 110 146 186 244 291 364 444
#     4  11  26  45  73 105 146 189 248 302 367 427
#     4  12  24  51  75 100 151 191 251 298 362 432
#     4  12  23  44  71 102 151 193 234 299 369 428
#     4  11  25  44  71 109 142 193 243 300 356 438
#     4  11  26  45  74 107 146 200 234 309 365 424
#
# _framework density 23.515446000000001
#
# number of rings (size 3 to 8) (size 9 to 14) (size 15 to 20)
#    0.000    0.571    5.714    1.286    2.000    5.143 
#    0.000    1.429    0.000    0.000    0.000    0.000 
#    0.000    0.000    0.000    0.000    0.000    0.000 
#
# Total GULP energy -78017.349907 kJ/mol
# GULP energy per Si atom -5572.667851 kJ/mol
# Density = 2.346192 g / cm^3
# Si number density = 23.515446 Si / 1000 Ang^3
#
#
#
# Elastic Constant Matrix: (Units=GPa)
#
#
# Indices 1 2 3 4 5 6 
#
# 1 132.1148 56.8598 33.6334 24.9017 16.8468 21.7475
# 2 56.8598 87.2444 48.7757 30.9610 8.8335 23.7237
# 3 33.6334 48.7757 91.2772 30.1157 -5.5055 3.2276
# 4 24.9017 30.9610 30.1157 46.7183 -4.3800 13.3032
# 5 16.8468 8.8335 -5.5055 -4.3800 45.1128 4.9218
# 6 21.7475 23.7237 3.2276 13.3032 4.9218 43.4140
#
#
#
# Elastic Compliance Matrix: (Units=1/GPa)
#
#
# Indices 1 2 3 4 5 6 
#
# 1 0.011093 -0.005451 -0.000769 -0.001624 -0.003145 -0.001666
# 2 -0.005451 0.024721 -0.009308 -0.005544 -0.003608 -0.007978
# 3 -0.000769 -0.009308 0.018381 -0.006630 0.003078 0.005788
# 4 -0.001624 -0.005544 -0.006630 0.032403 0.004697 -0.006126
# 5 -0.003145 -0.003608 0.003078 0.004697 0.024983 -0.000953
# 6 -0.001666 -0.007978 0.005788 -0.006126 -0.000953 0.029783
#
#
# Mechanical properties :
#
#
# Convention : Reuss Voigt Hill
#
# Bulk Modulus (GPa) = 43.21886 65.46381 54.34134
# Shear Modulus (GPa) = 27.75716 38.47353 33.11535
#
# Velocity S-wave (km/s) = 3.43939 4.04926 3.75672
# Velocity P-wave (km/s) = 5.84734 7.05415 6.47891
#
# Compressibility (1/GPa) = 0.02313805
#
# Stress axis : x y z
#
# Youngs Moduli (GPa) = 90.14987 40.45198 54.40304
#
# Poissons Ratio (x) = 0.22052 0.04184
# Poissons Ratio (y) = 0.49145 0.50637
# Poissons Ratio (z) = 0.06933 0.37652
#
# Static dielectric constant tensor:
#      x y z
#    x 1.897820 0.002430 0.032400 
#    y 0.002430 2.033830 -0.076010 
#    z 0.032400 -0.076010 1.978020 
# 
# From -- ./inp_files/588160.got.cif
#   From: 2010.05.17/outbox.cif.g08.bks.cpg/sg2_295_cif.got.tgz:588160.got - 2010.06.03 11:33:40.
