data_PCOD9059085
_publ_section_title
;
Structure prediction by ZEFSAII (Michael W. Deem and Ramdas Pophale) SiO2 
 PCOD9059085
Probable space group: P -1
;
_chemical_formula_sum "Si O2"
_cell_formula_units_Z 12
_cell_length_a 7.662851
_cell_length_b 8.993547
_cell_length_c 9.530746
_cell_angle_alpha 76.711009
_cell_angle_beta 129.803318
_cell_angle_gamma 95.675129
_cell_volume 490.066098
_symmetry_space_group_name_H-M "P -1"
_symmetry_group_IT_number 2
_symmetry_cell_setting 'triclinic'
loop_
_space_group_symop_operation_xyz
x,y,z
-x,-y,-z
loop_
_atom_site_type_symbol
_atom_site_label
_atom_site_fract_x
_atom_site_fract_y
_atom_site_fract_z
Si Si1 0.684047 0.526622 0.877147
Si Si2 0.200168 0.814631 0.739464
Si Si3 0.968706 0.125953 0.657766
Si Si4 0.332747 0.346532 0.871415
Si Si5 0.726664 0.299359 0.726907
Si Si6 0.759793 0.635756 0.599723
O O1 0.432546 0.482883 0.804218
O O2 0.792379 0.368261 0.897355
O O3 0.704241 0.644336 0.736253
O O4 0.779796 0.588975 0.056150
O O5 0.203527 0.854560 0.566490
O O6 0.999728 0.698215 0.675653
O O7 0.442972 0.754272 0.938455
O O8 0.103271 0.963435 0.742164
O O9 0.852118 0.159660 0.741207
O O10 0.156319 0.251640 0.719906
O O11 0.743734 0.453089 0.605766
O O12 0.457472 0.276743 0.603418
#
# Coordination Sequence:
#
# PCOD9059085 Si02
#       6
#     2   2   2   2   2   2
#     4   9  21  37  61  96 119 158 203 264 300 356
#     4  11  25  42  63  91 128 167 204 251 308 373
#     4  11  25  42  63  91 128 167 204 251 308 373
#     4  11  23  40  66  92 126 162 206 256 310 362
#     4   9  20  39  64  95 124 157 211 255 307 361
#     4   9  20  39  64  95 124 157 211 255 307 361
#
# _framework density 24.486492999999999
#
# number of rings (size 3 to 8) (size 9 to 14) (size 15 to 20)
#    1.000    1.000    0.000    2.500    4.667    4.000 
#    0.000    5.000    0.000    0.000    0.000    0.000 
#    0.000    0.000    0.000    0.000    0.000    0.000 
#
# Total GULP energy -67027.706720 kJ/mol
# GULP energy per Si atom -5585.642227 kJ/mol
# Density = 2.443076 g / cm^3
# Si number density = 24.486493 Si / 1000 Ang^3
#
#
#
# Elastic Constant Matrix: (Units=GPa)
#
#
# Indices 1 2 3 4 5 6 
#
# 1 103.1408 14.7090 29.2736 0.5147 -12.9032 -34.7447
# 2 14.7090 65.7323 23.6276 14.2070 -13.0936 -37.7713
# 3 29.2736 23.6276 96.1449 4.9079 -5.2035 -26.9164
# 4 0.5147 14.2070 4.9079 28.2656 -5.6976 -5.2891
# 5 -12.9032 -13.0936 -5.2035 -5.6976 48.8689 11.4446
# 6 -34.7447 -37.7713 -26.9164 -5.2891 11.4446 40.8111
#
#
#
# Elastic Compliance Matrix: (Units=1/GPa)
#
#
# Indices 1 2 3 4 5 6 
#
# 1 0.015938 0.009276 -0.001180 -0.000518 0.001624 0.020853
# 2 0.009276 0.041673 0.000103 -0.012464 0.001769 0.044423
# 3 -0.001180 0.000103 0.012897 -0.000996 -0.000830 0.007700
# 4 -0.000518 -0.012464 -0.000996 0.040918 0.003109 -0.008202
# 5 0.001624 0.001769 -0.000830 0.003109 0.022440 -0.003417
# 6 0.020853 0.044423 0.007700 -0.008202 -0.003417 0.088344
#
#
# Mechanical properties :
#
#
# Convention : Reuss Voigt Hill
#
# Bulk Modulus (GPa) = 11.50678 44.47093 27.98886
# Shear Modulus (GPa) = 21.29651 36.74963 29.02307
#
# Velocity S-wave (km/s) = 2.95231 3.87823 3.44651
# Velocity P-wave (km/s) = 4.04116 6.18507 5.22427
#
# Compressibility (1/GPa) = 0.08690526
#
# Stress axis : x y z
#
# Youngs Moduli (GPa) = 62.74328 23.99631 77.53999
#
# Poissons Ratio (x) = -0.22258 0.09149
# Poissons Ratio (y) = -0.58199 -0.00799
# Poissons Ratio (z) = 0.07403 -0.00247
#
# Static dielectric constant tensor:
#      x y z
#    x 2.003920 -0.012380 -0.010370 
#    y -0.012380 1.948330 -0.004910 
#    z -0.010370 -0.004910 1.956390 
# 
# From -- ./inp_files/379736.got.cif
#   From: 2010.05.17/outbox.cif.g08.bks.cpg/sg2_190_cif.got.tgz:379736.got - 2010.06.03 11:33:40.
