data_PCOD9059712
_publ_section_title
;
Structure prediction by ZEFSAII (Michael W. Deem and Ramdas Pophale) SiO2 
 PCOD9059712
Probable space group: P -1
;
_chemical_formula_sum "Si O2"
_cell_formula_units_Z 14
_cell_length_a 22.456959
_cell_length_b 9.342967
_cell_length_c 22.253658
_cell_angle_alpha 25.924181
_cell_angle_beta 18.199396
_cell_angle_gamma 26.219419
_cell_volume 605.520810
_symmetry_space_group_name_H-M "P -1"
_symmetry_group_IT_number 2
_symmetry_cell_setting 'triclinic'
loop_
_space_group_symop_operation_xyz
x,y,z
-x,-y,-z
loop_
_atom_site_type_symbol
_atom_site_label
_atom_site_fract_x
_atom_site_fract_y
_atom_site_fract_z
Si Si1 0.495582 0.377267 0.346489
Si Si2 0.016721 0.553305 0.892829
Si Si3 0.652076 0.134048 0.513838
Si Si4 0.551199 0.247621 0.908917
Si Si5 0.194610 0.749847 0.001180
Si Si6 0.823692 0.542438 0.478465
Si Si7 0.566645 0.920770 0.146868
O O1 0.306764 0.506952 0.434489
O O2 0.487518 0.600648 0.327892
O O3 0.500000 0.000000 0.500000
O O4 0.700603 0.363380 0.120668
O O5 0.165444 0.779034 0.661309
O O6 0.000000 0.500000 0.000000
O O7 0.801650 0.765953 0.993005
O O8 0.100772 0.163380 0.934263
O O9 0.500000 0.500000 0.500000
O O10 0.550704 0.940547 0.731771
O O11 0.731273 0.903292 0.466202
O O12 0.382950 0.613000 0.917455
O O13 0.527329 0.137036 0.041410
O O14 0.774728 0.271261 0.673647
O O15 0.500000 0.000000 0.000000
O O16 0.035867 0.560440 0.245153
#
# Coordination Sequence:
#
# PCOD9059712 Si02
#       7
#     2   2   2   2   2   2   2
#     4  11  23  42  67 106 140 177 239 289 351 407
#     4  12  24  43  71 106 142 176 230 287 353 411
#     4  12  23  43  71 104 143 182 228 293 353 415
#     4  11  25  51  66 100 147 188 232 289 350 416
#     4  11  23  44  74  99 142 184 229 291 348 409
#     4  11  24  42  71  98 139 188 233 289 348 410
#     4  12  26  45  71 103 140 188 232 286 355 415
#
# _framework density 23.120593
#
# number of rings (size 3 to 8) (size 9 to 14) (size 15 to 20)
#    0.000    0.571    5.714    4.286    0.000    5.714 
#    0.000    1.429    0.000    0.000    0.000    0.000 
#    0.000    0.000    0.000    0.000    0.000    0.000 
#
# Total GULP energy -78253.958585 kJ/mol
# GULP energy per Si atom -5589.568470 kJ/mol
# Density = 2.306797 g / cm^3
# Si number density = 23.120593 Si / 1000 Ang^3
#
#
#
# Elastic Constant Matrix: (Units=GPa)
#
#
# Indices 1 2 3 4 5 6 
#
# 1 88.6528 2.3918 33.6376 17.4753 -1.3756 -1.9574
# 2 2.3918 39.0163 15.0396 7.7752 -4.1159 3.4015
# 3 33.6376 15.0396 165.3292 8.8285 -8.2199 4.0542
# 4 17.4753 7.7752 8.8285 35.8439 0.3648 3.7340
# 5 -1.3756 -4.1159 -8.2199 0.3648 46.5536 -8.2753
# 6 -1.9574 3.4015 4.0542 3.7340 -8.2753 37.8906
#
#
#
# Elastic Compliance Matrix: (Units=1/GPa)
#
#
# Indices 1 2 3 4 5 6 
#
# 1 0.013517 0.001338 -0.002548 -0.006420 0.000397 0.001570
# 2 0.001338 0.027970 -0.002370 -0.006034 0.001933 -0.001171
# 3 -0.002548 -0.002370 0.006830 0.000115 0.000835 -0.000479
# 4 -0.006420 -0.006034 0.000115 0.032675 -0.001557 -0.003362
# 5 0.000397 0.001933 0.000835 -0.001557 0.022688 0.004866
# 6 0.001570 -0.001171 -0.000479 -0.003362 0.004866 0.028023
#
#
# Mechanical properties :
#
#
# Convention : Reuss Voigt Hill
#
# Bulk Modulus (GPa) = 24.29669 43.90404 34.10036
# Shear Modulus (GPa) = 32.76939 40.18624 36.47782
#
# Velocity S-wave (km/s) = 3.76882 4.17359 3.97636
# Velocity P-wave (km/s) = 5.42864 6.50043 5.98856
#
# Compressibility (1/GPa) = 0.04115786
#
# Stress axis : x y z
#
# Youngs Moduli (GPa) = 73.98104 35.75244 146.42247
#
# Poissons Ratio (x) = -0.04783 0.37305
# Poissons Ratio (y) = -0.09898 0.34696
# Poissons Ratio (z) = 0.18849 0.08472
#
# Static dielectric constant tensor:
#      x y z
#    x 1.898170 0.025680 0.038090 
#    y 0.025680 1.933780 -0.029120 
#    z 0.038090 -0.029120 1.927910 
# 
# From -- ./inp_files/601260.got.cif
#   From: 2010.05.17/outbox.cif.g08.bks.cpg/sg2_301_cif.got.tgz:601260.got - 2010.06.03 11:33:40.
