data_PCOD9059475
_publ_section_title
;
Structure prediction by ZEFSAII (Michael W. Deem and Ramdas Pophale) SiO2 
 PCOD9059475
Probable space group: P -1
;
_chemical_formula_sum "Si O2"
_cell_formula_units_Z 12
_cell_length_a 5.281561
_cell_length_b 9.178963
_cell_length_c 12.034913
_cell_angle_alpha 63.359737
_cell_angle_beta 68.076579
_cell_angle_gamma 76.414876
_cell_volume 482.187060
_symmetry_space_group_name_H-M "P -1"
_symmetry_group_IT_number 2
_symmetry_cell_setting 'triclinic'
loop_
_space_group_symop_operation_xyz
x,y,z
-x,-y,-z
loop_
_atom_site_type_symbol
_atom_site_label
_atom_site_fract_x
_atom_site_fract_y
_atom_site_fract_z
Si Si1 0.001870 0.934702 0.289811
Si Si2 0.554977 0.160726 0.360327
Si Si3 0.442967 0.695762 0.935465
Si Si4 0.828354 0.851143 0.993663
Si Si5 0.325001 0.476992 0.424968
Si Si6 0.549338 0.793338 0.277039
O O1 0.772979 0.812595 0.331601
O O2 0.254210 0.864704 0.346537
O O3 0.873472 0.102396 0.307741
O O4 0.127404 0.984523 0.136012
O O5 0.483077 0.214995 0.224689
O O6 0.431296 0.316802 0.395074
O O7 0.500000 0.000000 0.500000
O O8 0.631606 0.760001 0.977473
O O9 0.121460 0.747488 0.991494
O O10 0.500000 0.500000 0.000000
O O11 0.685653 0.883329 0.123514
O O12 0.500000 0.500000 0.500000
O O13 0.447838 0.630726 0.290950
O O14 0.000000 0.500000 0.500000
#
# Coordination Sequence:
#
# PCOD9059475 Si02
#       6
#     2   2   2   2   2   2
#     4  11  24  43  70 105 141 185 237 291 353 425
#     4  11  25  48  73 102 142 189 238 295 357 427
#     4  11  24  43  69 107 147 189 237 295 360 425
#     4  11  23  41  69 106 143 188 238 292 352 427
#     4  12  28  47  70 100 137 184 241 297 357 425
#     4  12  23  44  70 102 142 187 233 292 355 423
#
# _framework density 24.886609
#
# number of rings (size 3 to 8) (size 9 to 14) (size 15 to 20)
#    0.000    0.667    0.000    8.500    0.000    6.667 
#    0.000   10.000    0.000    0.000    0.000    0.000 
#    0.000    0.000    0.000    0.000    0.000    0.000 
#
# Total GULP energy -66889.094917 kJ/mol
# GULP energy per Si atom -5574.091243 kJ/mol
# Density = 2.482997 g / cm^3
# Si number density = 24.886609 Si / 1000 Ang^3
#
#
#
# Elastic Constant Matrix: (Units=GPa)
#
#
# Indices 1 2 3 4 5 6 
#
# 1 244.5356 86.1724 32.6107 9.7168 3.8580 1.6477
# 2 86.1724 151.2222 10.6690 5.4629 -3.8359 -14.5098
# 3 32.6107 10.6690 91.7595 12.7259 -7.6997 -3.4107
# 4 9.7168 5.4629 12.7259 48.1637 -2.2437 0.0857
# 5 3.8580 -3.8359 -7.6997 -2.2437 30.5896 0.4119
# 6 1.6477 -14.5098 -3.4107 0.0857 0.4119 45.1228
#
#
#
# Elastic Compliance Matrix: (Units=1/GPa)
#
#
# Indices 1 2 3 4 5 6 
#
# 1 0.005475 -0.003153 -0.001706 -0.000365 -0.001524 -0.001328
# 2 -0.003153 0.008716 0.000398 -0.000392 0.001523 0.002935
# 3 -0.001706 0.000398 0.012143 -0.002767 0.003104 0.001085
# 4 -0.000365 -0.000392 -0.002767 0.021654 0.000894 -0.000371
# 5 -0.001524 0.001523 0.003104 0.000894 0.033915 0.000469
# 6 -0.001328 0.002935 0.001085 -0.000371 0.000469 0.023232
#
#
# Mechanical properties :
#
#
# Convention : Reuss Voigt Hill
#
# Bulk Modulus (GPa) = 57.42930 82.93576 70.18253
# Shear Modulus (GPa) = 41.71563 48.64623 45.18093
#
# Velocity S-wave (km/s) = 4.09862 4.42601 4.26546
# Velocity P-wave (km/s) = 6.74720 7.71474 7.24714
#
# Compressibility (1/GPa) = 0.01741272
#
# Stress axis : x y z
#
# Youngs Moduli (GPa) = 182.63693 114.73766 82.35513
#
# Poissons Ratio (x) = 0.36172 0.14050
# Poissons Ratio (y) = 0.57578 -0.03280
# Poissons Ratio (z) = 0.31158 -0.04570
#
# Static dielectric constant tensor:
#      x y z
#    x 2.041670 -0.035260 0.004870 
#    y -0.035260 2.383000 -0.450870 
#    z 0.004870 -0.450870 2.537030 
# 
# From -- ./inp_files/214191.got.cif
#   From: 2010.05.17/outbox.cif.g08.bks.cpg/sg2_108_cif.got.tgz:214191.got - 2010.06.03 11:33:40.
