data_PCOD9059072
_publ_section_title
;
Structure prediction by ZEFSAII (Michael W. Deem and Ramdas Pophale) SiO2 
 PCOD9059072
Probable space group: P -1
;
_chemical_formula_sum "Si O2"
_cell_formula_units_Z 16
_cell_length_a 16.179380
_cell_length_b 14.601472
_cell_length_c 17.186777
_cell_angle_alpha 136.979178
_cell_angle_beta 153.738574
_cell_angle_gamma 26.564877
_cell_volume 749.921764
_symmetry_space_group_name_H-M "P -1"
_symmetry_group_IT_number 2
_symmetry_cell_setting 'triclinic'
loop_
_space_group_symop_operation_xyz
x,y,z
-x,-y,-z
loop_
_atom_site_type_symbol
_atom_site_label
_atom_site_fract_x
_atom_site_fract_y
_atom_site_fract_z
Si Si1 0.770801 0.921124 0.723265
Si Si2 0.843249 0.119355 0.089589
Si Si3 0.671801 0.615578 0.285640
Si Si4 0.852837 0.724788 0.988855
Si Si5 0.143048 0.078760 0.599341
Si Si6 0.755981 0.318348 0.283469
Si Si7 0.839990 0.252525 0.616202
Si Si8 0.914180 0.313498 0.003835
O O1 0.014930 0.843500 0.821307
O O2 0.500000 0.000000 0.500000
O O3 0.592626 0.145869 0.750672
O O4 0.921826 0.750739 0.814915
O O5 0.884627 0.127599 0.219907
O O6 0.481060 0.315446 0.885431
O O7 0.023656 0.880649 0.075479
O O8 0.683401 0.473540 0.255810
O O9 0.000000 0.500000 0.500000
O O10 0.490021 0.919866 0.807373
O O11 0.000000 0.500000 0.000000
O O12 0.960963 0.782955 0.173214
O O13 0.949801 0.694952 0.962831
O O14 0.995225 0.233121 0.495701
O O15 0.951423 0.222168 0.603782
O O16 0.135012 0.924043 0.474360
O O17 0.444278 0.455349 0.147899
O O18 0.500000 0.500000 0.500000
#
# Coordination Sequence:
#
# PCOD9059072 Si02
#       8
#     2   2   2   2   2   2   2   2
#     4  11  23  43  67  98 140 185 230 280 338 418
#     4  11  23  45  69  95 141 187 224 281 350 411
#     4  11  23  40  65  97 138 179 227 281 336 412
#     4  12  26  49  74 102 143 184 238 301 358 419
#     4  11  27  44  74 109 132 183 239 288 362 430
#     4  12  24  43  69  99 139 178 231 278 350 421
#     4  11  23  51  76  96 140 181 226 302 364 414
#     4  11  25  46  66 100 139 182 234 283 346 415
#
# _framework density 21.335560000000001
#
# number of rings (size 3 to 8) (size 9 to 14) (size 15 to 20)
#    0.000    0.750    3.750    3.750    8.750    0.000 
#    4.500    0.000    0.000    0.000    0.000    0.000 
#    0.000    0.000    0.000    0.000    0.000    0.000 
#
# Total GULP energy -89436.249908 kJ/mol
# GULP energy per Si atom -5589.765619 kJ/mol
# Density = 2.128700 g / cm^3
# Si number density = 21.335560 Si / 1000 Ang^3
#
#
#
# Elastic Constant Matrix: (Units=GPa)
#
#
# Indices 1 2 3 4 5 6 
#
# 1 122.1349 31.7751 47.1005 -0.9734 -10.7777 -22.2149
# 2 31.7751 66.6003 23.3041 -5.6371 -3.5541 -26.0874
# 3 47.1005 23.3041 155.1119 -8.6311 -9.9528 -18.4989
# 4 -0.9734 -5.6371 -8.6311 30.8272 0.5720 5.7406
# 5 -10.7777 -3.5541 -9.9528 0.5720 33.1650 -3.2588
# 6 -22.2149 -26.0874 -18.4989 5.7406 -3.2588 35.0364
#
#
#
# Elastic Compliance Matrix: (Units=1/GPa)
#
#
# Indices 1 2 3 4 5 6 
#
# 1 0.010770 -0.002690 -0.002268 -0.001618 0.002968 0.004169
# 2 -0.002690 0.022567 -0.000558 0.001060 0.002822 0.014892
# 3 -0.002268 -0.000558 0.007664 0.001551 0.001682 0.002095
# 4 -0.001618 0.001060 0.001551 0.033981 -0.001032 -0.005082
# 5 0.002968 0.002822 0.001682 -0.001032 0.032736 0.008085
# 6 0.004169 0.014892 0.002095 -0.005082 0.008085 0.044964
#
#
# Mechanical properties :
#
#
# Convention : Reuss Voigt Hill
#
# Bulk Modulus (GPa) = 33.36889 60.91185 47.14037
# Shear Modulus (GPa) = 28.78471 35.91689 32.35080
#
# Velocity S-wave (km/s) = 3.67705 4.10741 3.89818
# Velocity P-wave (km/s) = 5.80531 7.14884 6.51182
#
# Compressibility (1/GPa) = 0.02996804
#
# Stress axis : x y z
#
# Youngs Moduli (GPa) = 92.85318 44.31288 130.48595
#
# Poissons Ratio (x) = 0.11920 0.29601
# Poissons Ratio (y) = 0.24977 0.07276
# Poissons Ratio (z) = 0.21064 0.02471
#
# Static dielectric constant tensor:
#      x y z
#    x 1.783270 -0.023610 -0.073080 
#    y -0.023610 1.895450 0.154470 
#    z -0.073080 0.154470 1.937040 
# 
# From -- ./inp_files/529699.got.cif
#   From: 2010.05.17/outbox.cif.g08.bks.cpg/sg2_265_cif.got.tgz:529699.got - 2010.06.03 11:33:40.
