data_PCOD9059366
_publ_section_title
;
Structure prediction by ZEFSAII (Michael W. Deem and Ramdas Pophale) SiO2 
 PCOD9059366
Probable space group: P -1
;
_chemical_formula_sum "Si O2"
_cell_formula_units_Z 16
_cell_length_a 9.704605
_cell_length_b 11.959189
_cell_length_c 12.569819
_cell_angle_alpha 93.905085
_cell_angle_beta 46.894143
_cell_angle_gamma 125.284048
_cell_volume 727.236247
_symmetry_space_group_name_H-M "P -1"
_symmetry_group_IT_number 2
_symmetry_cell_setting 'triclinic'
loop_
_space_group_symop_operation_xyz
x,y,z
-x,-y,-z
loop_
_atom_site_type_symbol
_atom_site_label
_atom_site_fract_x
_atom_site_fract_y
_atom_site_fract_z
Si Si1 0.966836 0.166676 0.061734
Si Si2 0.925115 0.688360 0.791714
Si Si3 0.738726 0.189795 0.848824
Si Si4 0.380856 0.161219 0.872060
Si Si5 0.321937 0.430175 0.482071
Si Si6 0.475994 0.385230 0.172741
Si Si7 0.200485 0.625385 0.498051
Si Si8 0.806113 0.323847 0.037939
O O1 0.848858 0.230927 0.078504
O O2 0.883794 0.147703 0.227957
O O3 0.866407 0.033648 0.017704
O O4 0.270542 0.239778 0.928839
O O5 0.775919 0.693695 0.777491
O O6 0.064242 0.645529 0.656583
O O7 0.725195 0.544857 0.978589
O O8 0.580458 0.216205 0.866274
O O9 0.001287 0.251311 0.652720
O O10 0.878130 0.311383 0.882595
O O11 0.500000 0.000000 0.000000
O O12 0.549587 0.204860 0.680258
O O13 0.500000 0.500000 0.500000
O O14 0.446752 0.429821 0.307938
O O15 0.304930 0.555230 0.483773
O O16 0.527719 0.275879 0.162109
O O17 0.000000 0.500000 0.500000
O O18 0.000000 0.500000 0.000000
#
# Coordination Sequence:
#
# PCOD9059366 Si02
#       8
#     2   2   2   2   2   2   2   2
#     4  11  25  42  70 103 141 187 245 296 366 435
#     4  11  23  41  68 102 136 187 236 302 359 436
#     4  12  25  47  75 105 151 200 239 299 381 446
#     4  11  25  47  71 101 143 196 244 300 361 453
#     4  12  27  43  71 111 146 190 249 311 359 439
#     4  11  23  41  67 100 142 184 239 297 366 424
#     4  12  24  43  71 102 138 183 248 297 361 434
#     4  12  24  40  68 106 142 188 244 305 363 433
#
# _framework density 22.001103000000001
#
# number of rings (size 3 to 8) (size 9 to 14) (size 15 to 20)
#    0.000    0.500    5.000    3.000    5.250    0.500 
#    0.000    0.625    2.750    0.000    0.000    0.000 
#    0.000    0.000    0.000    0.000    0.000    0.000 
#
# Total GULP energy -89114.876976 kJ/mol
# GULP energy per Si atom -5569.679811 kJ/mol
# Density = 2.195103 g / cm^3
# Si number density = 22.001103 Si / 1000 Ang^3
#
#
#
# Elastic Constant Matrix: (Units=GPa)
#
#
# Indices 1 2 3 4 5 6 
#
# 1 207.0193 25.4913 36.1550 26.1922 8.0145 -10.1008
# 2 25.4913 55.6082 16.1056 33.0511 6.0145 -5.1070
# 3 36.1550 16.1056 104.6382 37.0383 5.7677 -6.5189
# 4 26.1922 33.0511 37.0383 43.6458 -0.0217 3.0618
# 5 8.0145 6.0145 5.7677 -0.0217 25.2894 14.8869
# 6 -10.1008 -5.1070 -6.5189 3.0618 14.8869 42.6534
#
#
#
# Elastic Compliance Matrix: (Units=1/GPa)
#
#
# Indices 1 2 3 4 5 6 
#
# 1 0.005556 0.000043 -0.000476 -0.003146 -0.003188 0.002587
# 2 0.000043 0.047487 0.012290 -0.047836 -0.025966 0.020071
# 3 -0.000476 0.012290 0.018099 -0.025123 -0.013103 0.010502
# 4 -0.003146 -0.047836 -0.025123 0.084367 0.035003 -0.028585
# 5 -0.003188 -0.025966 -0.013103 0.035003 0.068818 -0.032398
# 6 0.002587 0.020071 0.010502 -0.028585 -0.032398 0.041425
#
#
# Mechanical properties :
#
#
# Convention : Reuss Voigt Hill
#
# Bulk Modulus (GPa) = 10.54224 58.08550 34.31387
# Shear Modulus (GPa) = 18.27112 41.61863 29.94488
#
# Velocity S-wave (km/s) = 2.88490 4.35404 3.69326
# Velocity P-wave (km/s) = 3.98735 7.19273 5.81525
#
# Compressibility (1/GPa) = 0.09485653
#
# Stress axis : x y z
#
# Youngs Moduli (GPa) = 179.98846 21.05826 55.25229
#
# Poissons Ratio (x) = -0.00091 0.02630
# Poissons Ratio (y) = -0.00775 -0.67906
# Poissons Ratio (z) = 0.08567 -0.25881
#
# Static dielectric constant tensor:
#      x y z
#    x 1.831870 0.036590 -0.023170 
#    y 0.036590 1.954970 -0.109060 
#    z -0.023170 -0.109060 1.903360 
# 
# From -- ./inp_files/392565.got.cif
#   From: 2010.05.17/outbox.cif.g08.bks.cpg/sg2_197_cif.got.tgz:392565.got - 2010.06.03 11:33:40.
