data_PCOD9059415
_publ_section_title
;
Structure prediction by ZEFSAII (Michael W. Deem and Ramdas Pophale) SiO2 
 PCOD9059415
Probable space group: P -1
;
_chemical_formula_sum "Si O2"
_cell_formula_units_Z 12
_cell_length_a 6.942427
_cell_length_b 9.351686
_cell_length_c 7.330441
_cell_angle_alpha 81.681650
_cell_angle_beta 74.856132
_cell_angle_gamma 84.504615
_cell_volume 453.718868
_symmetry_space_group_name_H-M "P -1"
_symmetry_group_IT_number 2
_symmetry_cell_setting 'triclinic'
loop_
_space_group_symop_operation_xyz
x,y,z
-x,-y,-z
loop_
_atom_site_type_symbol
_atom_site_label
_atom_site_fract_x
_atom_site_fract_y
_atom_site_fract_z
Si Si1 0.303658 0.096563 0.586124
Si Si2 0.448588 0.296403 0.215215
Si Si3 0.064276 0.058416 0.170148
Si Si4 0.573843 0.166039 0.820991
Si Si5 0.069445 0.403503 0.170192
Si Si6 0.308140 0.611669 0.541536
O O1 0.303078 0.220439 0.411357
O O2 0.368319 0.149911 0.761060
O O3 0.500000 0.000000 0.500000
O O4 0.110257 0.005910 0.652250
O O5 0.298706 0.428574 0.161901
O O6 0.638818 0.316949 0.290065
O O7 0.527661 0.218620 0.026668
O O8 0.722232 0.023040 0.819641
O O9 0.069072 0.231511 0.152169
O O10 0.000000 0.000000 0.000000
O O11 0.685329 0.279409 0.647995
O O12 0.909044 0.441659 0.360375
O O13 0.000000 0.500000 0.000000
O O14 0.500000 0.500000 0.500000
#
# Coordination Sequence:
#
# PCOD9059415 Si02
#       6
#     2   2   2   2   2   2
#     4  11  23  41  68 103 140 179 229 289 351 413
#     4  11  25  46  73 105 142 182 233 296 356 422
#     4  12  25  43  73 108 142 186 238 293 352 420
#     4  11  24  45  73 107 143 182 235 296 356 419
#     4  12  27  46  70 103 145 191 237 289 356 425
#     4  11  26  47  73 104 142 190 238 290 357 427
#
# _framework density 26.448096
#
# number of rings (size 3 to 8) (size 9 to 14) (size 15 to 20)
#    0.000    0.667    0.000    8.000    0.000   10.000 
#    0.000    1.667    0.000    0.000    0.000    0.000 
#    0.000    0.000    0.000    0.000    0.000    0.000 
#
# Total GULP energy -67265.624094 kJ/mol
# GULP energy per Si atom -5605.468675 kJ/mol
# Density = 2.638790 g / cm^3
# Si number density = 26.448096 Si / 1000 Ang^3
#
#
#
# Elastic Constant Matrix: (Units=GPa)
#
#
# Indices 1 2 3 4 5 6 
#
# 1 125.3733 37.0393 69.8086 0.4262 -5.2200 -15.3271
# 2 37.0393 97.9397 60.8675 -7.6651 10.8825 -25.2138
# 3 69.8086 60.8675 184.9074 4.9831 17.8315 1.5563
# 4 0.4262 -7.6651 4.9831 50.0005 -1.2595 6.4640
# 5 -5.2200 10.8825 17.8315 -1.2595 62.5186 5.0406
# 6 -15.3271 -25.2138 1.5563 6.4640 5.0406 52.2232
#
#
#
# Elastic Compliance Matrix: (Units=1/GPa)
#
#
# Indices 1 2 3 4 5 6 
#
# 1 0.010933 -0.001292 -0.003916 -0.000176 0.002048 0.002526
# 2 -0.001292 0.015872 -0.004648 0.001899 -0.002103 0.007391
# 3 -0.003916 -0.004648 0.008643 -0.001152 -0.001737 -0.003341
# 4 -0.000176 0.001899 -0.001152 0.020641 0.000537 -0.001707
# 5 0.002048 -0.002103 -0.001737 0.000537 0.017207 -0.002090
# 6 0.002526 0.007391 -0.003341 -0.001707 -0.002090 0.023971
#
#
# Mechanical properties :
#
#
# Convention : Reuss Voigt Hill
#
# Bulk Modulus (GPa) = 63.54485 82.62791 73.08638
# Shear Modulus (GPa) = 40.90813 48.98215 44.94514
#
# Velocity S-wave (km/s) = 3.93712 4.30817 4.12682
# Velocity P-wave (km/s) = 6.68927 7.48708 7.09939
#
# Compressibility (1/GPa) = 0.01573692
#
# Stress axis : x y z
#
# Youngs Moduli (GPa) = 91.46529 63.00304 115.69694
#
# Poissons Ratio (x) = 0.08139 0.45311
# Poissons Ratio (y) = 0.11816 0.53773
# Poissons Ratio (z) = 0.35821 0.29282
#
# Static dielectric constant tensor:
#      x y z
#    x 2.088060 0.087040 0.042960 
#    y 0.087040 2.166610 0.028690 
#    z 0.042960 0.028690 2.121330 
# 
# From -- ./inp_files/18762.got.cif
#   From: 2010.05.17/outbox.cif.g08.bks.cpg/sg2_10_cif.got.tgz:18762.got - 2010.06.03 11:33:40.
