data_PCOD9059212
_publ_section_title
;
Structure prediction by ZEFSAII (Michael W. Deem and Ramdas Pophale) SiO2 
 PCOD9059212
Probable space group: P -1
;
_chemical_formula_sum "Si O2"
_cell_formula_units_Z 15
_cell_length_a 16.248637
_cell_length_b 8.700855
_cell_length_c 20.580197
_cell_angle_alpha 31.899354
_cell_angle_beta 159.731836
_cell_angle_gamma 145.195476
_cell_volume 527.743528
_symmetry_space_group_name_H-M "P -1"
_symmetry_group_IT_number 2
_symmetry_cell_setting 'triclinic'
loop_
_space_group_symop_operation_xyz
x,y,z
-x,-y,-z
loop_
_atom_site_type_symbol
_atom_site_label
_atom_site_fract_x
_atom_site_fract_y
_atom_site_fract_z
Si Si1 0.797739 0.598778 0.677014
Si Si2 0.521422 0.600968 0.348064
Si Si3 0.215078 0.876394 0.330884
Si Si4 0.328979 0.343181 0.752475
Si Si5 0.010676 0.823389 0.332362
Si Si6 0.000000 0.500000 0.000000
Si Si7 0.261744 0.916293 0.736490
Si Si8 0.178461 0.381688 0.946843
O O1 0.584513 0.495797 0.505195
O O2 0.030830 0.569411 0.816548
O O3 0.815523 0.945780 0.579022
O O4 0.853724 0.450643 0.839450
O O5 0.723888 0.457639 0.508844
O O6 0.264727 0.511162 0.157817
O O7 0.581494 0.948508 0.256661
O O8 0.061456 0.968112 0.246344
O O9 0.024095 0.887871 0.126746
O O10 0.500000 0.000000 0.500000
O O11 0.105087 0.514105 0.508169
O O12 0.350716 0.094082 0.804806
O O13 0.243958 0.215041 0.806961
O O14 0.559297 0.596360 0.835094
O O15 0.242329 0.572241 0.860075
O O16 0.000000 0.000000 0.500000
#
# Coordination Sequence:
#
# PCOD9059212 Si02
#       8
#     2   2   2   2   2   1   2   2
#     4  11  24  45  71 104 141 188 241 299 344 422
#     4  11  24  45  73 101 141 187 240 291 357 430
#     4  11  24  46  67  93 144 192 230 291 359 418
#     4  11  23  40  71 108 144 180 232 296 364 435
#     4  11  23  43  67 103 150 181 221 298 371 410
#     4  12  26  42  70 104 134 190 248 290 338 418
#     4  12  19  42  74 105 136 183 230 294 363 419
#     4  11  24  44  74 104 139 187 245 290 355 438
#
# _framework density 28.422896999999999
#
# number of rings (size 3 to 8) (size 9 to 14) (size 15 to 20)
#    0.000    0.800    5.333    2.400    1.867    2.667 
#    4.800    0.667    0.000    0.000    0.000    0.000 
#    0.000    0.000    0.000    0.000    0.000    0.000 
#
# Total GULP energy -83556.328300 kJ/mol
# GULP energy per Si atom -5570.421887 kJ/mol
# Density = 2.835821 g / cm^3
# Si number density = 28.422897 Si / 1000 Ang^3
#
#
#
# Elastic Constant Matrix: (Units=GPa)
#
#
# Indices 1 2 3 4 5 6 
#
# 1 104.9632 14.2260 57.8800 28.1978 -22.2348 -19.6320
# 2 14.2260 88.8514 25.7008 27.6982 4.6972 -3.2252
# 3 57.8800 25.7008 164.5593 52.6536 19.7898 5.0816
# 4 28.1978 27.6982 52.6536 56.2557 5.9742 3.9705
# 5 -22.2348 4.6972 19.7898 5.9742 44.7775 -10.3450
# 6 -19.6320 -3.2252 5.0816 3.9705 -10.3450 41.5169
#
#
#
# Elastic Compliance Matrix: (Units=1/GPa)
#
#
# Indices 1 2 3 4 5 6 
#
# 1 0.025302 0.000677 -0.009897 -0.007507 0.022379 0.019522
# 2 0.000677 0.013430 -0.000241 -0.006928 0.000460 0.002170
# 3 -0.009897 -0.000241 0.012954 -0.005156 -0.011952 -0.008769
# 4 -0.007507 -0.006928 -0.005156 0.031064 -0.006739 -0.008107
# 5 0.022379 0.000460 -0.011952 -0.006739 0.045116 0.023967
# 6 0.019522 0.002170 -0.008769 -0.008107 0.023967 0.041307
#
#
# Mechanical properties :
#
#
# Convention : Reuss Voigt Hill
#
# Bulk Modulus (GPa) = 30.52185 61.55418 46.03801
# Shear Modulus (GPa) = 25.12362 45.88116 35.50239
#
# Velocity S-wave (km/s) = 2.97631 4.02211 3.53806
# Velocity P-wave (km/s) = 4.75110 6.57825 5.73787
#
# Compressibility (1/GPa) = 0.03276341
#
# Stress axis : x y z
#
# Youngs Moduli (GPa) = 39.52312 74.45820 77.19818
#
# Poissons Ratio (x) = -0.05044 0.76405
# Poissons Ratio (y) = -0.02678 0.01863
# Poissons Ratio (z) = 0.39117 0.01797
#
# Static dielectric constant tensor:
#      x y z
#    x 2.268480 0.018740 0.015710 
#    y 0.018740 2.524570 -0.038320 
#    z 0.015710 -0.038320 2.138620 
# 
# From -- ./inp_files/599725.got.cif
#   From: 2010.05.17/outbox.cif.g08.bks.cpg/sg2_300_cif.got.tgz:599725.got - 2010.06.03 11:33:40.
