data_PCOD9059564
_publ_section_title
;
Structure prediction by ZEFSAII (Michael W. Deem and Ramdas Pophale) SiO2 
 PCOD9059564
Probable space group: P -1
;
_chemical_formula_sum "Si O2"
_cell_formula_units_Z 14
_cell_length_a 5.747995
_cell_length_b 13.058371
_cell_length_c 22.537544
_cell_angle_alpha 25.778891
_cell_angle_beta 114.704548
_cell_angle_gamma 120.819887
_cell_volume 627.523211
_symmetry_space_group_name_H-M "P -1"
_symmetry_group_IT_number 2
_symmetry_cell_setting 'triclinic'
loop_
_space_group_symop_operation_xyz
x,y,z
-x,-y,-z
loop_
_atom_site_type_symbol
_atom_site_label
_atom_site_fract_x
_atom_site_fract_y
_atom_site_fract_z
Si Si1 0.053380 0.735901 0.145115
Si Si2 0.616559 0.782057 0.388579
Si Si3 0.219711 0.592561 0.114923
Si Si4 0.387137 0.000263 0.142782
Si Si5 0.237626 0.970097 0.336418
Si Si6 0.479601 0.761064 0.661574
Si Si7 0.208032 0.309990 0.051410
O O1 0.791773 0.480732 0.250737
O O2 0.202339 0.724245 0.105911
O O3 0.229051 0.761613 0.210332
O O4 0.000000 0.000000 0.000000
O O5 0.500000 0.500000 0.500000
O O6 0.408499 0.820533 0.397084
O O7 0.941588 0.836568 0.406702
O O8 0.568172 0.943167 0.243409
O O9 0.279443 0.347007 0.268249
O O10 0.446296 0.785963 0.996840
O O11 0.965581 0.530489 0.075626
O O12 0.194917 0.119092 0.095810
O O13 0.461455 0.144598 0.314092
O O14 0.145570 0.137517 0.192044
O O15 0.500000 0.000000 0.500000
O O16 0.500000 0.500000 0.000000
#
# Coordination Sequence:
#
# PCOD9059564 Si02
#       7
#     2   2   2   2   2   2   2
#     4  12  25  46  70 107 147 192 258 313 377 462
#     4  11  26  48  77 111 153 205 254 317 392 464
#     4  12  23  45  75 103 148 192 257 313 391 446
#     4  11  24  42  69 109 141 191 249 319 373 454
#     4  11  26  49  74 110 154 193 262 318 388 461
#     4  12  31  49  71 108 153 206 254 314 387 469
#     4  11  23  41  72 108 145 183 248 321 385 453
#
# _framework density 22.309932
#
# number of rings (size 3 to 8) (size 9 to 14) (size 15 to 20)
#    0.000    0.571    4.286    2.571    8.000    2.857 
#    0.000    0.000    0.000    0.000    0.000    0.000 
#    0.000    0.000    0.000    0.000    0.000    0.000 
#
# Total GULP energy -78107.798433 kJ/mol
# GULP energy per Si atom -5579.128460 kJ/mol
# Density = 2.225915 g / cm^3
# Si number density = 22.309932 Si / 1000 Ang^3
#
#
#
# Elastic Constant Matrix: (Units=GPa)
#
#
# Indices 1 2 3 4 5 6 
#
# 1 78.3796 44.7866 44.9762 1.4191 13.9591 10.1714
# 2 44.7866 139.9418 17.1318 -7.4894 8.9882 1.4264
# 3 44.9762 17.1318 96.0418 -9.2459 18.4010 -10.8977
# 4 1.4191 -7.4894 -9.2459 31.5409 1.2009 -6.7512
# 5 13.9591 8.9882 18.4010 1.2009 30.5370 -9.4277
# 6 10.1714 1.4264 -10.8977 -6.7512 -9.4277 44.9209
#
#
#
# Elastic Compliance Matrix: (Units=1/GPa)
#
#
# Indices 1 2 3 4 5 6 
#
# 1 0.026229 -0.006890 -0.012021 -0.008502 -0.005822 -0.011136
# 2 -0.006890 0.009272 0.002259 0.003678 -0.000379 0.002287
# 3 -0.012021 0.002259 0.018038 0.008101 -0.004077 0.007388
# 4 -0.008502 0.003678 0.008101 0.037340 -0.000694 0.009240
# 5 -0.005822 -0.000379 -0.004077 -0.000694 0.040715 0.008782
# 6 -0.011136 0.002287 0.007388 0.009240 0.008782 0.029734
#
#
# Mechanical properties :
#
#
# Convention : Reuss Voigt Hill
#
# Bulk Modulus (GPa) = 49.41830 58.68361 54.05095
# Shear Modulus (GPa) = 24.82891 35.23100 30.02996
#
# Velocity S-wave (km/s) = 3.33965 3.97818 3.67282
# Velocity P-wave (km/s) = 6.08850 6.88928 6.50123
#
# Compressibility (1/GPa) = 0.02023542
#
# Stress axis : x y z
#
# Youngs Moduli (GPa) = 38.12526 107.84781 55.43929
#
# Poissons Ratio (x) = 0.74311 0.66642
# Poissons Ratio (y) = 0.26270 -0.12524
# Poissons Ratio (z) = 0.45829 -0.24362
#
# Static dielectric constant tensor:
#      x y z
#    x 1.931960 0.031650 0.021650 
#    y 0.031650 1.820720 0.007180 
#    z 0.021650 0.007180 1.836230 
# 
# From -- ./inp_files/68897.got.cif
#   From: 2010.05.17/outbox.cif.g08.bks.cpg/sg2_35_cif.got.tgz:68897.got - 2010.06.03 11:33:40.
