data_PCOD9059659
_publ_section_title
;
Structure prediction by ZEFSAII (Michael W. Deem and Ramdas Pophale) SiO2 
 PCOD9059659
Probable space group: P -1
;
_chemical_formula_sum "Si O2"
_cell_formula_units_Z 14
_cell_length_a 12.360578
_cell_length_b 8.612403
_cell_length_c 9.271111
_cell_angle_alpha 112.142260
_cell_angle_beta 67.029133
_cell_angle_gamma 67.186957
_cell_volume 655.590775
_symmetry_space_group_name_H-M "P -1"
_symmetry_group_IT_number 2
_symmetry_cell_setting 'triclinic'
loop_
_space_group_symop_operation_xyz
x,y,z
-x,-y,-z
loop_
_atom_site_type_symbol
_atom_site_label
_atom_site_fract_x
_atom_site_fract_y
_atom_site_fract_z
Si Si1 0.611693 0.896188 0.540670
Si Si2 0.823396 0.385801 0.720770
Si Si3 0.957899 0.558626 0.208450
Si Si4 0.491340 0.832657 0.028143
Si Si5 0.057837 0.771173 0.716206
Si Si6 0.355623 0.521925 0.623109
Si Si7 0.244582 0.785268 0.047044
O O1 0.786705 0.779686 0.378889
O O2 0.615973 0.695728 0.512987
O O3 0.500000 0.000000 0.500000
O O4 0.553640 0.074677 0.754321
O O5 0.904737 0.294615 0.493599
O O6 0.803870 0.241450 0.781531
O O7 0.923236 0.425169 0.774204
O O8 0.654739 0.602699 0.858489
O O9 0.962088 0.380985 0.233792
O O10 0.000000 0.500000 0.000000
O O11 0.366596 0.822148 0.020795
O O12 0.500000 0.000000 0.000000
O O13 0.208520 0.718698 0.683992
O O14 0.904982 0.012735 0.882190
O O15 0.500000 0.500000 0.500000
O O16 0.316991 0.578840 0.832882
#
# Coordination Sequence:
#
# PCOD9059659 Si02
#       7
#     2   2   2   2   2   2   2
#     4  11  24  42  64  94 128 168 213 261 320 386
#     4  12  24  42  66  98 133 170 219 276 323 384
#     4  11  23  42  65  94 131 174 218 267 324 393
#     4  12  24  43  68  96 130 174 217 265 325 390
#     4  11  24  43  65  95 131 174 217 268 329 390
#     4  11  24  43  65  94 130 169 215 269 321 381
#     4  12  25  43  67  99 132 173 219 270 328 386
#
# _framework density 21.354786000000001
#
# number of rings (size 3 to 8) (size 9 to 14) (size 15 to 20)
#    0.000    0.571    0.000   10.286    0.000    3.429 
#    0.000    0.000    0.000    0.000    0.000    0.000 
#    0.000    0.000    0.000    0.000    0.000    0.000 
#
# Total GULP energy -78362.425786 kJ/mol
# GULP energy per Si atom -5597.316128 kJ/mol
# Density = 2.130618 g / cm^3
# Si number density = 21.354786 Si / 1000 Ang^3
#
#
#
# Elastic Constant Matrix: (Units=GPa)
#
#
# Indices 1 2 3 4 5 6 
#
# 1 129.9922 20.8601 11.8244 0.4038 -28.2814 -10.1364
# 2 20.8601 91.7972 12.1931 -2.0722 -22.4218 -17.0931
# 3 11.8244 12.1931 105.0638 -7.8005 3.1479 -2.6484
# 4 0.4038 -2.0722 -7.8005 44.9850 -8.9223 -5.8835
# 5 -28.2814 -22.4218 3.1479 -8.9223 50.9173 0.8385
# 6 -10.1364 -17.0931 -2.6484 -5.8835 0.8385 34.6932
#
#
#
# Elastic Compliance Matrix: (Units=1/GPa)
#
#
# Indices 1 2 3 4 5 6 
#
# 1 0.009145 -0.000163 -0.001020 0.001106 0.005222 0.002575
# 2 -0.000163 0.014099 -0.001441 0.002626 0.006551 0.007076
# 3 -0.001020 -0.001441 0.009949 0.001357 -0.001578 0.000020
# 4 0.001106 0.002626 0.001357 0.024493 0.005884 0.005732
# 5 0.005222 0.006551 -0.001578 0.005884 0.026472 0.004991
# 6 0.002575 0.007076 0.000020 0.005732 0.004991 0.033916
#
#
# Mechanical properties :
#
#
# Convention : Reuss Voigt Hill
#
# Bulk Modulus (GPa) = 35.78310 46.28980 41.03645
# Shear Modulus (GPa) = 37.69748 44.91748 41.30748
#
# Velocity S-wave (km/s) = 4.20610 4.59125 4.40289
# Velocity P-wave (km/s) = 6.35462 7.05902 6.71606
#
# Compressibility (1/GPa) = 0.02794615
#
# Stress axis : x y z
#
# Youngs Moduli (GPa) = 109.34676 70.92781 100.51668
#
# Poissons Ratio (x) = 0.01153 0.10251
# Poissons Ratio (y) = 0.01778 0.14483
# Poissons Ratio (z) = 0.11151 0.10220
#
# Static dielectric constant tensor:
#      x y z
#    x 1.740370 -0.008210 0.009200 
#    y -0.008210 1.805300 -0.005650 
#    z 0.009200 -0.005650 1.800710 
# 
# From -- ./inp_files/156597.got.cif
#   From: 2010.05.17/outbox.cif.g08.bks.cpg/sg2_79_cif.got.tgz:156597.got - 2010.06.03 11:33:40.
