data_PCOD9059946
_publ_section_title
;
Structure prediction by ZEFSAII (Michael W. Deem and Ramdas Pophale) SiO2 
 PCOD9059946
Probable space group: P -1
;
_chemical_formula_sum "Si O2"
_cell_formula_units_Z 14
_cell_length_a 5.269147
_cell_length_b 8.908881
_cell_length_c 12.278552
_cell_angle_alpha 97.876092
_cell_angle_beta 70.383708
_cell_angle_gamma 95.312154
_cell_volume 537.138133
_symmetry_space_group_name_H-M "P -1"
_symmetry_group_IT_number 2
_symmetry_cell_setting 'triclinic'
loop_
_space_group_symop_operation_xyz
x,y,z
-x,-y,-z
loop_
_atom_site_type_symbol
_atom_site_label
_atom_site_fract_x
_atom_site_fract_y
_atom_site_fract_z
Si Si1 0.399135 0.766591 0.957421
Si Si2 0.115641 0.287046 0.776005
Si Si3 0.876407 0.029115 0.636700
Si Si4 0.976638 0.609125 0.855725
Si Si5 0.024582 0.705980 0.632664
Si Si6 0.587143 0.929399 0.154795
Si Si7 0.611155 0.437966 0.592183
O O1 0.695561 0.694401 0.901958
O O2 0.174302 0.647257 0.931539
O O3 0.358716 0.912323 0.898891
O O4 0.398712 0.834767 0.086392
O O5 0.013800 0.179067 0.682992
O O6 0.175809 0.178225 0.858190
O O7 0.397214 0.367739 0.700596
O O8 0.931767 0.428715 0.835218
O O9 0.560359 0.042120 0.706487
O O10 0.936958 0.875436 0.676791
O O11 0.000000 0.000000 0.500000
O O12 0.141306 0.660998 0.727815
O O13 0.206770 0.692115 0.497539
O O14 0.790051 0.575765 0.632486
O O15 0.500000 0.500000 0.500000
#
# Coordination Sequence:
#
# PCOD9059946 Si02
#       7
#     2   2   2   2   2   2   2
#     4  11  28  52  82 111 152 211 260 320 388 465
#     4  12  28  44  76 113 158 193 265 320 390 457
#     4  12  27  46  73 111 154 201 252 326 388 461
#     4  12  26  48  80 112 151 203 258 318 389 455
#     4  11  24  43  73 104 155 204 262 304 393 461
#     4  11  28  49  78 111 154 199 264 317 389 463
#     4  11  23  42  71 109 151 210 252 319 379 471
#
# _framework density 26.064059
#
# number of rings (size 3 to 8) (size 9 to 14) (size 15 to 20)
#    0.000    0.571    2.857    3.429    8.000    6.857 
#    0.000    0.000    0.000    0.000    0.000    0.000 
#    0.000    0.000    0.000    0.000    0.000    0.000 
#
# Total GULP energy -78424.750264 kJ/mol
# GULP energy per Si atom -5601.767876 kJ/mol
# Density = 2.600474 g / cm^3
# Si number density = 26.064059 Si / 1000 Ang^3
#
#
#
# Elastic Constant Matrix: (Units=GPa)
#
#
# Indices 1 2 3 4 5 6 
#
# 1 74.0638 22.6380 22.3305 5.1429 6.6692 -17.7481
# 2 22.6380 155.9666 26.2259 21.9616 0.0373 -25.6370
# 3 22.3305 26.2259 144.9374 5.1231 5.8887 -2.9502
# 4 5.1429 21.9616 5.1231 38.3281 3.5715 11.8364
# 5 6.6692 0.0373 5.8887 3.5715 44.7155 -0.8887
# 6 -17.7481 -25.6370 -2.9502 11.8364 -0.8887 46.0997
#
#
#
# Elastic Compliance Matrix: (Units=1/GPa)
#
#
# Indices 1 2 3 4 5 6 
#
# 1 0.016297 -0.000376 -0.002105 -0.003639 -0.001727 0.006831
# 2 -0.000376 0.008668 -0.001176 -0.006806 0.000874 0.006365
# 3 -0.002105 -0.001176 0.007430 0.000369 -0.000715 -0.001097
# 4 -0.003639 -0.006806 0.000369 0.035060 -0.002583 -0.014214
# 5 -0.001727 0.000874 -0.000715 -0.002583 0.022938 0.000881
# 6 0.006831 0.006365 -0.001097 -0.014214 0.000881 0.031458
#
#
# Mechanical properties :
#
#
# Convention : Reuss Voigt Hill
#
# Bulk Modulus (GPa) = 39.86945 57.48407 48.67676
# Shear Modulus (GPa) = 36.35687 46.08023 41.21855
#
# Velocity S-wave (km/s) = 3.73889 4.20927 3.98104
# Velocity P-wave (km/s) = 5.82830 6.76216 6.31252
#
# Compressibility (1/GPa) = 0.02508186
#
# Stress axis : x y z
#
# Youngs Moduli (GPa) = 61.36262 115.36188 134.58383
#
# Poissons Ratio (x) = 0.04335 0.28330
# Poissons Ratio (y) = 0.02306 0.15827
# Poissons Ratio (z) = 0.12917 0.13566
#
# Static dielectric constant tensor:
#      x y z
#    x 2.091830 -0.028630 -0.061910 
#    y -0.028630 2.045080 -0.009290 
#    z -0.061910 -0.009290 2.080210 
# 
# From -- ./inp_files/28371.got.cif
#   From: 2010.05.17/outbox.cif.g08.bks.cpg/sg2_15_cif.got.tgz:28371.got - 2010.06.03 11:33:40.
