data_PCOD9059783
_publ_section_title
;
Structure prediction by ZEFSAII (Michael W. Deem and Ramdas Pophale) SiO2 
 PCOD9059783
Probable space group: P -1
;
_chemical_formula_sum "Si O2"
_cell_formula_units_Z 16
_cell_length_a 10.673300
_cell_length_b 19.847683
_cell_length_c 16.322134
_cell_angle_alpha 22.693183
_cell_angle_beta 136.587741
_cell_angle_gamma 149.055277
_cell_volume 648.265291
_symmetry_space_group_name_H-M "P -1"
_symmetry_group_IT_number 2
_symmetry_cell_setting 'triclinic'
loop_
_space_group_symop_operation_xyz
x,y,z
-x,-y,-z
loop_
_atom_site_type_symbol
_atom_site_label
_atom_site_fract_x
_atom_site_fract_y
_atom_site_fract_z
Si Si1 0.033516 0.767992 0.310063
Si Si2 0.476545 0.186017 0.299025
Si Si3 0.425849 0.426798 0.374024
Si Si4 0.421047 0.167134 0.907408
Si Si5 0.811421 0.501863 0.248537
Si Si6 0.208676 0.896480 0.854999
Si Si7 0.870913 0.571407 0.911345
Si Si8 0.060832 0.047312 0.158232
O O1 0.735616 0.602258 0.332592
O O2 0.221083 0.974963 0.098916
O O3 0.091247 0.603025 0.539798
O O4 0.103295 0.926242 0.246854
O O5 0.557819 0.285525 0.318459
O O6 0.500000 0.000000 0.500000
O O7 0.664986 0.387628 0.091625
O O8 0.192190 0.064275 0.283111
O O9 0.290163 0.421957 0.236170
O O10 0.305011 0.154838 0.625306
O O11 0.390159 0.553929 0.283675
O O12 0.241544 0.119279 0.804738
O O13 0.565578 0.090182 0.041023
O O14 0.803717 0.672444 0.106659
O O15 0.003714 0.690737 0.055239
O O16 0.099320 0.808190 0.809335
O O17 0.000000 0.500000 0.000000
#
# Coordination Sequence:
#
# PCOD9059783 Si02
#       8
#     2   2   2   2   2   2   2   2
#     4  11  24  43  70 100 131 171 222 276 323 382
#     4  11  23  43  68  96 131 171 219 272 327 387
#     4  11  23  42  68  97 131 173 220 268 325 384
#     4  11  24  43  70 100 131 171 222 276 323 382
#     4  11  26  44  67 100 136 174 216 267 333 399
#     4  11  26  44  67 100 136 174 216 267 333 399
#     4  11  23  43  68  96 131 171 219 272 327 387
#     4  11  23  42  68  97 131 173 220 268 325 384
#
# _framework density 24.681255
#
# number of rings (size 3 to 8) (size 9 to 14) (size 15 to 20)
#    0.000    1.000    2.500    4.500    0.000    8.000 
#    0.000    2.500    0.000    0.000    0.000    0.000 
#    0.000    0.000    0.000    0.000    0.000    0.000 
#
# Total GULP energy -89573.170766 kJ/mol
# GULP energy per Si atom -5598.323173 kJ/mol
# Density = 2.462508 g / cm^3
# Si number density = 24.681255 Si / 1000 Ang^3
#
#
#
# Elastic Constant Matrix: (Units=GPa)
#
#
# Indices 1 2 3 4 5 6 
#
# 1 64.8763 29.3089 25.8632 -0.6616 10.1029 2.6509
# 2 29.3089 118.8803 51.1879 15.3307 4.7758 2.1464
# 3 25.8632 51.1879 162.2845 9.0772 35.2429 -2.7519
# 4 -0.6616 15.3307 9.0772 42.2587 2.1133 14.4368
# 5 10.1029 4.7758 35.2429 2.1133 30.0284 4.8237
# 6 2.6509 2.1464 -2.7519 14.4368 4.8237 39.2904
#
#
#
# Elastic Compliance Matrix: (Units=1/GPa)
#
#
# Indices 1 2 3 4 5 6 
#
# 1 0.018501 -0.004387 -0.000747 0.002792 -0.004602 -0.001522
# 2 -0.004387 0.011330 -0.003539 -0.003724 0.004041 0.000301
# 3 -0.000747 -0.003539 0.009952 -0.001254 -0.011224 0.002780
# 4 0.002792 -0.003724 -0.001254 0.028984 0.000824 -0.010824
# 5 -0.004602 0.004041 -0.011224 0.000824 0.048439 -0.006946
# 6 -0.001522 0.000301 0.002780 -0.010824 -0.006946 0.030562
#
#
# Mechanical properties :
#
#
# Convention : Reuss Voigt Hill
#
# Bulk Modulus (GPa) = 44.56989 62.08456 53.32723
# Shear Modulus (GPa) = 28.96996 38.29425 33.63211
#
# Velocity S-wave (km/s) = 3.42974 3.94325 3.69542
# Velocity P-wave (km/s) = 5.81219 6.77801 6.31360
#
# Compressibility (1/GPa) = 0.02243667
#
# Stress axis : x y z
#
# Youngs Moduli (GPa) = 54.05081 88.26511 100.48174
#
# Poissons Ratio (x) = 0.38724 0.07509
# Poissons Ratio (y) = 0.23713 0.35556
# Poissons Ratio (z) = 0.04039 0.31233
#
# Static dielectric constant tensor:
#      x y z
#    x 2.003380 -0.013040 -0.026890 
#    y -0.013040 1.971730 -0.024790 
#    z -0.026890 -0.024790 1.929360 
# 
# From -- ./inp_files/570698.got.cif
#   From: 2010.05.17/outbox.cif.g08.bks.cpg/sg2_286_cif.got.tgz:570698.got - 2010.06.03 11:33:40.
