data_PCOD9059703
_publ_section_title
;
Structure prediction by ZEFSAII (Michael W. Deem and Ramdas Pophale) SiO2 
 PCOD9059703
Probable space group: P -1
;
_chemical_formula_sum "Si O2"
_cell_formula_units_Z 16
_cell_length_a 9.294135
_cell_length_b 8.680870
_cell_length_c 12.279460
_cell_angle_alpha 88.811300
_cell_angle_beta 95.812173
_cell_angle_gamma 47.548220
_cell_volume 721.864525
_symmetry_space_group_name_H-M "P -1"
_symmetry_group_IT_number 2
_symmetry_cell_setting 'triclinic'
loop_
_space_group_symop_operation_xyz
x,y,z
-x,-y,-z
loop_
_atom_site_type_symbol
_atom_site_label
_atom_site_fract_x
_atom_site_fract_y
_atom_site_fract_z
Si Si1 0.764376 0.168152 0.969139
Si Si2 0.111254 0.401038 0.629038
Si Si3 0.288557 0.733954 0.462417
Si Si4 0.220863 0.655014 0.684345
Si Si5 0.732533 0.701565 0.734904
Si Si6 0.203927 0.985403 0.256773
Si Si7 0.607329 0.040934 0.431340
Si Si8 0.516819 0.632370 0.861746
O O1 0.730098 0.094487 0.859462
O O2 0.667345 0.404197 0.933108
O O3 0.650635 0.194673 0.067563
O O4 0.000000 0.000000 0.000000
O O5 0.243185 0.455065 0.668657
O O6 0.246892 0.153058 0.634111
O O7 0.000000 0.500000 0.500000
O O8 0.946125 0.506320 0.707566
O O9 0.500000 0.500000 0.500000
O O10 0.172380 0.745579 0.555417
O O11 0.244982 0.795485 0.330990
O O12 0.281151 0.918894 0.489327
O O13 0.394591 0.625152 0.757951
O O14 0.029056 0.819354 0.742241
O O15 0.653128 0.678381 0.836933
O O16 0.710952 0.902321 0.719146
O O17 0.574003 0.741882 0.640360
O O18 0.500000 0.000000 0.500000
#
# Coordination Sequence:
#
# PCOD9059703 Si02
#       8
#     2   2   2   2   2   2   2   2
#     4  11  25  48  75  97 133 175 234 289 345 405
#     4  11  24  40  63  95 146 186 221 272 332 403
#     4  12  24  38  64 104 139 179 227 273 332 414
#     4  11  23  42  67 104 136 179 230 277 340 413
#     4  11  25  43  65 104 137 176 229 279 341 409
#     4  11  24  43  69  97 139 183 226 285 344 402
#     4  12  21  40  64  96 143 182 219 267 338 407
#     4  11  25  46  73 101 132 178 230 288 343 405
#
# _framework density 22.164826000000001
#
# number of rings (size 3 to 8) (size 9 to 14) (size 15 to 20)
#    0.000    0.750    5.000    2.625    1.750    2.500 
#    0.000    0.625    0.000    0.000    0.000    0.000 
#    0.000    0.000    0.000    0.000    0.000    0.000 
#
# Total GULP energy -89147.693959 kJ/mol
# GULP energy per Si atom -5571.730872 kJ/mol
# Density = 2.211438 g / cm^3
# Si number density = 22.164826 Si / 1000 Ang^3
#
#
#
# Elastic Constant Matrix: (Units=GPa)
#
#
# Indices 1 2 3 4 5 6 
#
# 1 102.3105 41.9597 42.2835 3.5982 -31.0846 -6.3928
# 2 41.9597 79.3966 17.0073 16.1598 -8.0908 -9.3351
# 3 42.2835 17.0073 78.6099 22.2208 -17.0219 -1.7894
# 4 3.5982 16.1598 22.2208 38.6369 -5.1462 -2.2609
# 5 -31.0846 -8.0908 -17.0219 -5.1462 33.4486 0.0219
# 6 -6.3928 -9.3351 -1.7894 -2.2609 0.0219 26.7565
#
#
#
# Elastic Compliance Matrix: (Units=1/GPa)
#
#
# Indices 1 2 3 4 5 6 
#
# 1 0.021741 -0.009724 -0.008985 0.009284 0.014707 0.001973
# 2 -0.009724 0.018954 0.002804 -0.009005 -0.004413 0.003720
# 3 -0.008985 0.002804 0.020542 -0.012075 0.000925 -0.000816
# 4 0.009284 -0.009005 -0.012075 0.036598 0.005935 0.001357
# 5 0.014707 -0.004413 0.000925 0.005935 0.043879 0.002502
# 6 0.001973 0.003720 -0.000816 0.001357 0.002502 0.039201
#
#
# Mechanical properties :
#
#
# Convention : Reuss Voigt Hill
#
# Bulk Modulus (GPa) = 33.98256 51.42421 42.70338
# Shear Modulus (GPa) = 22.46857 30.37284 26.42070
#
# Velocity S-wave (km/s) = 3.18733 3.70580 3.45630
# Velocity P-wave (km/s) = 5.37684 6.44684 5.93600
#
# Compressibility (1/GPa) = 0.02942686
#
# Stress axis : x y z
#
# Youngs Moduli (GPa) = 45.99675 52.76052 48.67992
#
# Poissons Ratio (x) = 0.51303 0.43740
# Poissons Ratio (y) = 0.44726 -0.13651
# Poissons Ratio (z) = 0.41329 -0.14795
#
# Static dielectric constant tensor:
#      x y z
#    x 1.896590 0.045390 -0.093910 
#    y 0.045390 1.861840 -0.127860 
#    z -0.093910 -0.127860 2.136130 
# 
# From -- ./inp_files/382305.got.cif
#   From: 2010.05.17/outbox.cif.g08.bks.cpg/sg2_192_cif.got.tgz:382305.got - 2010.06.03 11:33:40.
