data_PCOD9059697
_publ_section_title
;
Structure prediction by ZEFSAII (Michael W. Deem and Ramdas Pophale) SiO2 
 PCOD9059697
Probable space group: P -1
;
_chemical_formula_sum "Si O2"
_cell_formula_units_Z 16
_cell_length_a 17.971139
_cell_length_b 6.608518
_cell_length_c 19.325480
_cell_angle_alpha 137.590508
_cell_angle_beta 151.965499
_cell_angle_gamma 50.565198
_cell_volume 726.531284
_symmetry_space_group_name_H-M "P -1"
_symmetry_group_IT_number 2
_symmetry_cell_setting 'triclinic'
loop_
_space_group_symop_operation_xyz
x,y,z
-x,-y,-z
loop_
_atom_site_type_symbol
_atom_site_label
_atom_site_fract_x
_atom_site_fract_y
_atom_site_fract_z
Si Si1 0.069500 0.161281 0.164261
Si Si2 0.600552 0.755667 0.423607
Si Si3 0.944519 0.813838 0.243790
Si Si4 0.687344 0.235493 0.709083
Si Si5 0.532711 0.180645 0.822333
Si Si6 0.647107 0.819523 0.102607
Si Si7 0.856136 0.862941 0.029116
Si Si8 0.247835 0.857803 0.590238
O O1 0.016352 0.495332 0.205074
O O2 0.250965 0.076702 0.288384
O O3 0.994731 0.998991 0.129232
O O4 0.000000 0.000000 0.000000
O O5 0.462282 0.681784 0.347643
O O6 0.524885 0.735228 0.280314
O O7 0.730929 0.501999 0.473209
O O8 0.652153 0.107044 0.570820
O O9 0.782414 0.788348 0.147652
O O10 0.901359 0.940219 0.165093
O O11 0.085944 0.948715 0.442933
O O12 0.815945 0.508835 0.893505
O O13 0.393849 0.983006 0.694939
O O14 0.575326 0.487054 0.975870
O O15 0.694451 0.009870 0.910800
O O16 0.727557 0.986689 0.276114
O O17 0.500000 0.000000 0.000000
#
# Coordination Sequence:
#
# PCOD9059697 Si02
#       8
#     2   2   2   2   2   2   2   2
#     4  12  24  41  69  99 146 187 232 283 340 413
#     4  11  24  44  68 103 142 184 234 286 349 415
#     4  12  27  46  71 107 144 182 232 296 353 412
#     4  11  23  42  67 102 143 187 229 280 345 415
#     4  12  25  46  75 103 138 183 240 290 347 424
#     4  12  25  51  78  97 137 189 236 292 358 421
#     4  12  25  44  71 104 144 186 241 279 345 429
#     4  12  26  46  73 106 141 180 235 300 353 409
#
# _framework density 22.022452999999999
#
# number of rings (size 3 to 8) (size 9 to 14) (size 15 to 20)
#    0.000    0.250    6.250    3.375    1.750    0.500 
#    0.000    1.250    0.000    0.000    0.000    0.000 
#    0.000    0.000    0.000    0.000    0.000    0.000 
#
# Total GULP energy -89398.960064 kJ/mol
# GULP energy per Si atom -5587.435004 kJ/mol
# Density = 2.197233 g / cm^3
# Si number density = 22.022453 Si / 1000 Ang^3
#
#
#
# Elastic Constant Matrix: (Units=GPa)
#
#
# Indices 1 2 3 4 5 6 
#
# 1 50.1444 4.4031 18.5446 -11.6134 -6.9542 10.3617
# 2 4.4031 64.9782 9.9569 -11.2998 3.2582 -7.6179
# 3 18.5446 9.9569 94.6442 -14.7327 -16.6484 11.3720
# 4 -11.6134 -11.2998 -14.7327 39.9634 -10.4457 -0.3779
# 5 -6.9542 3.2582 -16.6484 -10.4457 45.8103 -5.1535
# 6 10.3617 -7.6179 11.3720 -0.3779 -5.1535 31.7730
#
#
#
# Elastic Compliance Matrix: (Units=1/GPa)
#
#
# Indices 1 2 3 4 5 6 
#
# 1 0.024344 -0.001109 -0.002089 0.006930 0.003836 -0.006753
# 2 -0.001109 0.016990 -0.001685 0.003759 -0.000571 0.004990
# 3 -0.002089 -0.001685 0.013352 0.005229 0.005447 -0.003556
# 4 0.006930 0.003759 0.005229 0.032626 0.009987 -0.001222
# 5 0.003836 -0.000571 0.005447 0.009987 0.026837 0.001134
# 6 -0.006753 0.004990 -0.003556 -0.001222 0.001134 0.036314
#
#
# Mechanical properties :
#
#
# Convention : Reuss Voigt Hill
#
# Bulk Modulus (GPa) = 22.26062 30.61954 26.44008
# Shear Modulus (GPa) = 28.53846 35.30015 31.91931
#
# Velocity S-wave (km/s) = 3.60374 4.00799 3.81123
# Velocity P-wave (km/s) = 5.23889 5.94580 5.60351
#
# Compressibility (1/GPa) = 0.04492238
#
# Stress axis : x y z
#
# Youngs Moduli (GPa) = 41.07712 58.85656 74.89583
#
# Poissons Ratio (x) = 0.06524 0.15642
# Poissons Ratio (y) = 0.04553 0.12621
# Poissons Ratio (z) = 0.08579 0.09918
#
# Static dielectric constant tensor:
#      x y z
#    x 1.796640 0.000560 -0.051110 
#    y 0.000560 1.872700 -0.088660 
#    z -0.051110 -0.088660 2.099650 
# 
# From -- ./inp_files/81382.got.cif
#   From: 2010.05.17/outbox.cif.g08.bks.cpg/sg2_41_cif.got.tgz:81382.got - 2010.06.03 11:33:40.
