data_PCOD9059947
_publ_section_title
;
Structure prediction by ZEFSAII (Michael W. Deem and Ramdas Pophale) SiO2 
 PCOD9059947
Probable space group: P -1
;
_chemical_formula_sum "Si O2"
_cell_formula_units_Z 12
_cell_length_a 9.334170
_cell_length_b 13.080917
_cell_length_c 5.126446
_cell_angle_alpha 110.992401
_cell_angle_beta 90.149966
_cell_angle_gamma 121.007997
_cell_volume 486.985337
_symmetry_space_group_name_H-M "P -1"
_symmetry_group_IT_number 2
_symmetry_cell_setting 'triclinic'
loop_
_space_group_symop_operation_xyz
x,y,z
-x,-y,-z
loop_
_atom_site_type_symbol
_atom_site_label
_atom_site_fract_x
_atom_site_fract_y
_atom_site_fract_z
Si Si1 0.029266 0.245516 0.717889
Si Si2 0.495531 0.874625 0.995383
Si Si3 0.156954 0.118222 0.949599
Si Si4 0.074784 0.464746 0.227160
Si Si5 0.698104 0.596608 0.543674
Si Si6 0.729450 0.250808 0.608638
O O1 0.202646 0.366544 0.698520
O O2 0.861965 0.205446 0.509348
O O3 0.072112 0.141623 0.714545
O O4 0.986216 0.311146 0.013187
O O5 0.681613 0.896924 0.069823
O O6 0.383416 0.770882 0.668571
O O7 0.396262 0.829838 0.228534
O O8 0.500000 0.000000 0.000000
O O9 0.235364 0.258741 0.218683
O O10 0.000000 0.000000 0.000000
O O11 0.241377 0.480018 0.362493
O O12 0.152435 0.593925 0.163042
O O13 0.000000 0.500000 0.500000
O O14 0.500000 0.500000 0.500000
#
# Coordination Sequence:
#
# PCOD9059947 Si02
#       6
#     2   2   2   2   2   2
#     4  11  26  44  76 110 151 202 247 318 386 458
#     4  12  29  50  77 109 147 202 261 322 378 458
#     4  11  28  49  74 106 153 202 254 313 386 459
#     4  11  23  42  71 110 147 196 251 310 382 454
#     4  11  26  44  71 109 155 193 254 310 387 453
#     4  12  26  47  78 109 154 194 259 318 385 449
#
# _framework density 24.641397000000001
#
# number of rings (size 3 to 8) (size 9 to 14) (size 15 to 20)
#    0.000    0.667    1.667    4.000   14.000    2.000 
#    0.000    0.000    0.000    0.000    0.000    0.000 
#    0.000    0.000    0.000    0.000    0.000    0.000 
#
# Total GULP energy -66926.607262 kJ/mol
# GULP energy per Si atom -5577.217272 kJ/mol
# Density = 2.458531 g / cm^3
# Si number density = 24.641397 Si / 1000 Ang^3
#
#
#
# Elastic Constant Matrix: (Units=GPa)
#
#
# Indices 1 2 3 4 5 6 
#
# 1 192.4885 25.6762 -20.5748 6.5700 9.9890 -0.1870
# 2 25.6762 108.1327 -9.8525 21.0062 -3.9214 4.6816
# 3 -20.5748 -9.8525 38.3158 17.4322 -18.5083 5.9310
# 4 6.5700 21.0062 17.4322 51.5901 -3.9575 -6.6553
# 5 9.9890 -3.9214 -18.5083 -3.9575 29.7229 -3.8401
# 6 -0.1870 4.6816 5.9310 -6.6553 -3.8401 58.3632
#
#
#
# Elastic Compliance Matrix: (Units=1/GPa)
#
#
# Indices 1 2 3 4 5 6 
#
# 1 0.005754 -0.000622 0.003908 -0.001861 0.000101 -0.000534
# 2 -0.000622 0.012262 0.010184 -0.008160 0.006758 -0.002506
# 3 0.003908 0.010184 0.057659 -0.022592 0.032004 -0.007134
# 4 -0.001861 -0.008160 -0.022592 0.030580 -0.009699 0.005793
# 5 0.000101 0.006758 0.032004 -0.009699 0.052956 -0.001416
# 6 -0.000534 -0.002506 -0.007134 0.005793 -0.001416 0.018626
#
#
# Mechanical properties :
#
#
# Convention : Reuss Voigt Hill
#
# Bulk Modulus (GPa) = 9.74521 36.60389 23.17455
# Shear Modulus (GPa) = 27.01224 50.84777 38.93000
#
# Velocity S-wave (km/s) = 3.31450 4.54752 3.97906
# Velocity P-wave (km/s) = 4.31408 6.51614 5.52591
#
# Compressibility (1/GPa) = 0.10261454
#
# Stress axis : x y z
#
# Youngs Moduli (GPa) = 173.80632 81.55166 17.34350
#
# Poissons Ratio (x) = 0.05070 -0.06778
# Poissons Ratio (y) = 0.10806 -0.17663
# Poissons Ratio (z) = -0.67922 -0.83052
#
# Static dielectric constant tensor:
#      x y z
#    x 2.008350 -0.011440 0.236690 
#    y -0.011440 1.939180 0.007940 
#    z 0.236690 0.007940 2.366480 
# 
# From -- ./inp_files/28728.got.cif
#   From: 2010.05.17/outbox.cif.g08.bks.cpg/sg2_15_cif.got.tgz:28728.got - 2010.06.03 11:33:40.
