data_PCOD9059455
_publ_section_title
;
Structure prediction by ZEFSAII (Michael W. Deem and Ramdas Pophale) SiO2 
 PCOD9059455
Probable space group: P -1
;
_chemical_formula_sum "Si O2"
_cell_formula_units_Z 12
_cell_length_a 8.561860
_cell_length_b 14.706636
_cell_length_c 9.312735
_cell_angle_alpha 31.892522
_cell_angle_beta 69.940610
_cell_angle_gamma 81.487402
_cell_volume 557.198310
_symmetry_space_group_name_H-M "P -1"
_symmetry_group_IT_number 2
_symmetry_cell_setting 'triclinic'
loop_
_space_group_symop_operation_xyz
x,y,z
-x,-y,-z
loop_
_atom_site_type_symbol
_atom_site_label
_atom_site_fract_x
_atom_site_fract_y
_atom_site_fract_z
Si Si1 0.217544 0.470961 0.219396
Si Si2 0.974111 0.236748 0.119005
Si Si3 0.573717 0.050222 0.067102
Si Si4 0.962002 0.167706 0.873225
Si Si5 0.582265 0.755377 0.689380
Si Si6 0.280137 0.114370 0.241590
O O1 0.269089 0.340421 0.263007
O O2 0.120236 0.340866 0.550781
O O3 0.089823 0.589965 0.066245
O O4 0.406349 0.613351 0.990229
O O5 0.172920 0.256262 0.066558
O O6 0.858433 0.080999 0.468803
O O7 0.951268 0.171747 0.045214
O O8 0.443112 0.148962 0.042370
O O9 0.553323 0.866402 0.411402
O O10 0.773812 0.163868 0.873535
O O11 0.500000 0.000000 0.000000
O O12 0.000000 0.000000 0.000000
O O13 0.648239 0.890164 0.616269
#
# Coordination Sequence:
#
# PCOD9059455 Si02
#       6
#     2   2   2   2   2   2
#     4  11  24  43  68  97 136 172 220 275 330 384
#     4  11  23  41  69 101 132 173 222 271 328 391
#     4  12  24  43  71  98 128 175 224 270 325 397
#     4  12  23  44  67  97 135 174 220 274 332 384
#     4  11  23  46  69  96 133 178 217 271 332 391
#     4  11  23  43  70  97 133 177 220 265 332 399
#
# _framework density 21.536318000000001
#
# number of rings (size 3 to 8) (size 9 to 14) (size 15 to 20)
#    0.000    0.667    5.000    3.000    0.000    2.000 
#    6.000    1.667    0.000    0.000    0.000    0.000 
#    0.000    0.000    0.000    0.000    0.000    0.000 
#
# Total GULP energy -66957.730337 kJ/mol
# GULP energy per Si atom -5579.810861 kJ/mol
# Density = 2.148730 g / cm^3
# Si number density = 21.536318 Si / 1000 Ang^3
#
#
#
# Elastic Constant Matrix: (Units=GPa)
#
#
# Indices 1 2 3 4 5 6 
#
# 1 117.0105 62.4701 23.4224 28.4678 7.5469 -22.3885
# 2 62.4701 46.6671 6.9473 13.9493 9.9388 -27.5602
# 3 23.4224 6.9473 69.0239 15.0239 -20.8708 -2.7410
# 4 28.4678 13.9493 15.0239 28.3807 -7.9256 7.6514
# 5 7.5469 9.9388 -20.8708 -7.9256 38.0026 4.6716
# 6 -22.3885 -27.5602 -2.7410 7.6514 4.6716 53.4973
#
#
#
# Elastic Compliance Matrix: (Units=1/GPa)
#
#
# Indices 1 2 3 4 5 6 
#
# 1 0.042111 -0.072161 -0.005632 0.005126 0.011134 -0.021546
# 2 -0.072161 0.212676 0.003679 -0.079081 -0.067659 0.096772
# 3 -0.005632 0.003679 0.020007 -0.003937 0.010295 0.000227
# 4 0.005126 -0.079081 -0.003937 0.098991 0.045141 -0.056896
# 5 0.011134 -0.067659 0.010295 0.045141 0.061972 -0.041537
# 6 -0.021546 0.096772 0.000227 -0.056896 -0.041537 0.071306
#
#
# Mechanical properties :
#
#
# Convention : Reuss Voigt Hill
#
# Bulk Modulus (GPa) = 7.90097 46.48678 27.19387
# Shear Modulus (GPa) = 7.16865 33.30025 20.23445
#
# Velocity S-wave (km/s) = 1.82643 3.93649 3.06853
# Velocity P-wave (km/s) = 2.85034 6.50334 5.02085
#
# Compressibility (1/GPa) = 0.12656682
#
# Stress axis : x y z
#
# Youngs Moduli (GPa) = 23.74652 4.70198 49.98139
#
# Poissons Ratio (x) = 0.33930 0.28148
# Poissons Ratio (y) = 1.71358 -0.18387
# Poissons Ratio (z) = 0.13373 -0.01730
#
# Static dielectric constant tensor:
#      x y z
#    x 1.762610 -0.027200 0.013070 
#    y -0.027200 1.784770 -0.005000 
#    z 0.013070 -0.005000 1.795270 
# 
# From -- ./inp_files/148058.got.cif
#   From: 2010.05.17/outbox.cif.g08.bks.cpg/sg2_75_cif.got.tgz:148058.got - 2010.06.03 11:33:40.
