data_PCOD9059038
_publ_section_title
;
Structure prediction by ZEFSAII (Michael W. Deem and Ramdas Pophale) SiO2 
 PCOD9059038
Probable space group: P -1
;
_chemical_formula_sum "Si O2"
_cell_formula_units_Z 14
_cell_length_a 12.531883
_cell_length_b 11.529944
_cell_length_c 25.577578
_cell_angle_alpha 149.635345
_cell_angle_beta 158.912928
_cell_angle_gamma 40.570043
_cell_volume 650.843998
_symmetry_space_group_name_H-M "P -1"
_symmetry_group_IT_number 2
_symmetry_cell_setting 'triclinic'
loop_
_space_group_symop_operation_xyz
x,y,z
-x,-y,-z
loop_
_atom_site_type_symbol
_atom_site_label
_atom_site_fract_x
_atom_site_fract_y
_atom_site_fract_z
Si Si1 0.330236 0.603728 0.903984
Si Si2 0.179485 0.600963 0.569366
Si Si3 0.739032 0.785346 0.358788
Si Si4 0.411488 0.747408 0.395673
Si Si5 0.007648 0.717215 0.301190
Si Si6 0.358034 0.008770 0.997464
Si Si7 0.056145 0.665262 0.041076
O O1 0.325762 0.353764 0.778829
O O2 0.065518 0.536091 0.800703
O O3 0.667410 0.714788 0.123971
O O4 0.281991 0.756748 0.892189
O O5 0.309190 0.380722 0.522608
O O6 0.424656 0.820452 0.793877
O O7 0.000000 0.500000 0.500000
O O8 0.973891 0.692990 0.468435
O O9 0.407745 0.732389 0.213421
O O10 0.863955 0.063451 0.517077
O O11 0.252070 0.776131 0.388790
O O12 0.500000 0.000000 0.500000
O O13 0.151663 0.519065 0.166022
O O14 0.061185 0.111224 0.905942
O O15 0.500000 0.000000 0.000000
O O16 0.000000 0.500000 0.000000
#
# Coordination Sequence:
#
# PCOD9059038 Si02
#       7
#     2   2   2   2   2   2   2
#     4  11  24  45  69  99 137 180 223 275 339 402
#     4  11  23  40  64 101 137 175 221 283 331 401
#     4  12  23  42  68 100 132 174 231 272 335 396
#     4  11  24  43  68  97 137 177 227 274 338 397
#     4  11  24  45  69  99 137 180 223 275 339 402
#     4  11  24  43  68  97 137 177 227 274 338 397
#     4  11  23  40  64 101 137 175 221 283 331 401
#
# _framework density 21.510529999999999
#
# number of rings (size 3 to 8) (size 9 to 14) (size 15 to 20)
#    0.000    0.857    2.857    5.571    0.000    3.429 
#    0.000    8.571    0.000    0.000    0.000    0.000 
#    0.000    0.000    0.000    0.000    0.000    0.000 
#
# Total GULP energy -77992.414867 kJ/mol
# GULP energy per Si atom -5570.886776 kJ/mol
# Density = 2.146157 g / cm^3
# Si number density = 21.510530 Si / 1000 Ang^3
#
#
#
# Elastic Constant Matrix: (Units=GPa)
#
#
# Indices 1 2 3 4 5 6 
#
# 1 92.2791 29.6415 34.7998 10.5199 26.9268 -7.0219
# 2 29.6415 83.3996 36.6257 4.2929 22.4078 -7.7773
# 3 34.7998 36.6257 109.1940 10.1606 17.1688 -13.1946
# 4 10.5199 4.2929 10.1606 36.9483 1.2986 -0.5763
# 5 26.9268 22.4078 17.1688 1.2986 55.5635 10.2684
# 6 -7.0219 -7.7773 -13.1946 -0.5763 10.2684 35.5415
#
#
#
# Elastic Compliance Matrix: (Units=1/GPa)
#
#
# Indices 1 2 3 4 5 6 
#
# 1 0.014792 -0.002109 -0.002360 -0.003051 -0.006128 0.003306
# 2 -0.002109 0.015890 -0.003500 -0.000062 -0.004890 0.003173
# 3 -0.002360 -0.003500 0.012010 -0.002103 -0.001793 0.003710
# 4 -0.003051 -0.000062 -0.002103 0.028435 0.001755 -0.001443
# 5 -0.006128 -0.004890 -0.001793 0.001755 0.025344 -0.010240
# 6 0.003306 0.003173 0.003710 -0.001443 -0.010240 0.033796
#
#
# Mechanical properties :
#
#
# Convention : Reuss Voigt Hill
#
# Bulk Modulus (GPa) = 37.37726 54.11184 45.74455
# Shear Modulus (GPa) = 32.23289 37.86436 35.04863
#
# Velocity S-wave (km/s) = 3.87521 4.20011 4.04093
# Velocity P-wave (km/s) = 6.11858 6.98082 6.56387
#
# Compressibility (1/GPa) = 0.02675423
#
# Stress axis : x y z
#
# Youngs Moduli (GPa) = 67.60632 62.93382 83.26525
#
# Poissons Ratio (x) = 0.13273 0.19649
# Poissons Ratio (y) = 0.14258 0.29140
# Poissons Ratio (z) = 0.15953 0.22024
#
# Static dielectric constant tensor:
#      x y z
#    x 1.828830 0.027440 -0.002410 
#    y 0.027440 1.820020 0.042700 
#    z -0.002410 0.042700 2.187250 
# 
# From -- ./inp_files/618459.got.cif
#   From: 2010.05.17/outbox.cif.g08.bks.cpg/sg2_310_cif.got.tgz:618459.got - 2010.06.03 11:33:40.
