data_PCOD9059469
_publ_section_title
;
Structure prediction by ZEFSAII (Michael W. Deem and Ramdas Pophale) SiO2 
 PCOD9059469
Probable space group: P -1
;
_chemical_formula_sum "Si O2"
_cell_formula_units_Z 14
_cell_length_a 8.229038
_cell_length_b 12.007423
_cell_length_c 9.919451
_cell_angle_alpha 59.312672
_cell_angle_beta 46.749301
_cell_angle_gamma 68.049454
_cell_volume 613.469355
_symmetry_space_group_name_H-M "P -1"
_symmetry_group_IT_number 2
_symmetry_cell_setting 'triclinic'
loop_
_space_group_symop_operation_xyz
x,y,z
-x,-y,-z
loop_
_atom_site_type_symbol
_atom_site_label
_atom_site_fract_x
_atom_site_fract_y
_atom_site_fract_z
Si Si1 0.407403 0.328965 0.845224
Si Si2 0.540833 0.908879 0.840536
Si Si3 0.065828 0.709396 0.875000
Si Si4 0.644811 0.177089 0.562629
Si Si5 0.486083 0.438033 0.192265
Si Si6 0.340814 0.175184 0.466594
Si Si7 0.050679 0.003449 0.126387
O O1 0.515537 0.262112 0.694742
O O2 0.538446 0.448259 0.754835
O O3 0.388757 0.218673 0.038668
O O4 0.151741 0.373282 0.936726
O O5 0.524004 0.870572 0.715905
O O6 0.697212 0.032509 0.676952
O O7 0.310140 0.959861 0.008769
O O8 0.147522 0.745605 0.656595
O O9 0.278390 0.639779 0.867082
O O10 0.999363 0.850607 0.886879
O O11 0.483882 0.157296 0.534740
O O12 0.303422 0.329397 0.376860
O O13 0.500000 0.500000 0.000000
O O14 0.117666 0.095071 0.649440
O O15 0.000000 0.000000 0.000000
#
# Coordination Sequence:
#
# PCOD9059469 Si02
#       7
#     2   2   2   2   2   2   2
#     4  12  26  46  67 101 146 179 225 282 340 416
#     4  12  23  41  70 103 142 173 226 289 341 403
#     4  11  25  42  73  98 137 185 224 282 351 399
#     4  11  23  41  69 105 135 177 229 285 347 399
#     4  11  25  47  72  98 138 189 232 278 335 413
#     4  11  23  43  71 102 137 183 228 284 341 404
#     4  12  22  39  72 107 133 174 231 283 346 403
#
# _framework density 22.821024999999999
#
# number of rings (size 3 to 8) (size 9 to 14) (size 15 to 20)
#    0.000    0.571    5.714    3.000    0.000    4.000 
#    0.000    3.571    0.000    0.000    0.000    0.000 
#    0.000    0.000    0.000    0.000    0.000    0.000 
#
# Total GULP energy -78347.128315 kJ/mol
# GULP energy per Si atom -5596.223451 kJ/mol
# Density = 2.276908 g / cm^3
# Si number density = 22.821025 Si / 1000 Ang^3
#
#
#
# Elastic Constant Matrix: (Units=GPa)
#
#
# Indices 1 2 3 4 5 6 
#
# 1 32.6197 28.3675 18.3576 9.3268 8.1799 5.1432
# 2 28.3675 124.0356 46.9890 7.8470 14.6279 13.6044
# 3 18.3576 46.9890 105.8550 16.5638 10.9200 9.3103
# 4 9.3268 7.8470 16.5638 45.3423 2.5295 8.7468
# 5 8.1799 14.6279 10.9200 2.5295 29.1846 5.0664
# 6 5.1432 13.6044 9.3103 8.7468 5.0664 36.3697
#
#
#
# Elastic Compliance Matrix: (Units=1/GPa)
#
#
# Indices 1 2 3 4 5 6 
#
# 1 0.041910 -0.007549 -0.002275 -0.006090 -0.006559 -0.000142
# 2 -0.007549 0.011577 -0.003637 0.001454 -0.002036 -0.002398
# 3 -0.002275 -0.003637 0.012169 -0.003168 -0.001744 -0.000428
# 4 -0.006090 0.001454 -0.003168 0.025137 0.000859 -0.005037
# 5 -0.006559 -0.002036 -0.001744 0.000859 0.038293 -0.003405
# 6 -0.000142 -0.002398 -0.000428 -0.005037 -0.003405 0.030208
#
#
# Mechanical properties :
#
#
# Convention : Reuss Voigt Hill
#
# Bulk Modulus (GPa) = 25.81609 49.99316 37.90463
# Shear Modulus (GPa) = 25.10967 33.43239 29.27103
#
# Velocity S-wave (km/s) = 3.32066 3.83166 3.58527
# Velocity P-wave (km/s) = 5.10287 6.44435 5.81244
#
# Compressibility (1/GPa) = 0.03873553
#
# Stress axis : x y z
#
# Youngs Moduli (GPa) = 23.86071 86.37452 82.17557
#
# Poissons Ratio (x) = 0.65201 0.18696
# Poissons Ratio (y) = 0.18012 0.29884
# Poissons Ratio (z) = 0.05429 0.31411
#
# Static dielectric constant tensor:
#      x y z
#    x 1.914280 0.005350 -0.012250 
#    y 0.005350 1.858750 -0.035110 
#    z -0.012250 -0.035110 1.848310 
# 
# From -- ./inp_files/184684.got.cif
#   From: 2010.05.17/outbox.cif.g08.bks.cpg/sg2_93_cif.got.tgz:184684.got - 2010.06.03 11:33:40.
