data_PCOD9059016
_publ_section_title
;
Structure prediction by ZEFSAII (Michael W. Deem and Ramdas Pophale) SiO2 
 PCOD9059016
Probable space group: P -1
;
_chemical_formula_sum "Si O2"
_cell_formula_units_Z 14
_cell_length_a 10.786786
_cell_length_b 11.868118
_cell_length_c 14.532694
_cell_angle_alpha 140.112346
_cell_angle_beta 151.696829
_cell_angle_gamma 49.420583
_cell_volume 563.758343
_symmetry_space_group_name_H-M "P -1"
_symmetry_group_IT_number 2
_symmetry_cell_setting 'triclinic'
loop_
_space_group_symop_operation_xyz
x,y,z
-x,-y,-z
loop_
_atom_site_type_symbol
_atom_site_label
_atom_site_fract_x
_atom_site_fract_y
_atom_site_fract_z
Si Si1 0.581048 0.595101 0.940612
Si Si2 0.601534 0.056971 0.435635
Si Si3 0.584337 0.442474 0.666302
Si Si4 0.853462 0.401817 0.621683
Si Si5 0.262696 0.931404 0.972464
Si Si6 0.756076 0.764479 0.477289
Si Si7 0.872510 0.090844 0.325882
O O1 0.667025 0.592388 0.888229
O O2 0.443219 0.767549 0.984902
O O3 0.378932 0.424397 0.709459
O O4 0.834808 0.575650 0.155122
O O5 0.571939 0.900833 0.394029
O O6 0.893701 0.027929 0.568455
O O7 0.608545 0.249818 0.604358
O O8 0.383034 0.044858 0.206217
O O9 0.749902 0.444832 0.682587
O O10 0.291049 0.473557 0.462879
O O11 0.765215 0.198914 0.407058
O O12 0.274057 0.999498 0.915540
O O13 0.954758 0.865230 0.743419
O O14 0.973447 0.745500 0.527075
#
# Coordination Sequence:
#
# PCOD9059016 Si02
#       7
#     2   2   2   2   2   2   2
#     4  12  20  39  62  87 118 159 189 238 296 344
#     4   9  20  40  59  87 120 150 191 242 299 331
#     4  11  25  40  58  86 122 156 194 244 283 346
#     4  11  23  40  61  85 118 156 204 231 287 350
#     4   9  18  36  61  87 118 149 191 238 293 341
#     4   8  21  34  61  91 118 142 201 237 287 356
#     4   8  19  38  58  90 111 145 202 235 278 357
#
# _framework density 24.833335999999999
#
# number of rings (size 3 to 8) (size 9 to 14) (size 15 to 20)
#    1.714    0.286    2.857    0.857    0.000    6.857 
#    0.000    2.143    0.000    0.000    0.000    0.000 
#    0.000    0.000    0.000    0.000    0.000    0.000 
#
# Total GULP energy -78082.654185 kJ/mol
# GULP energy per Si atom -5577.332442 kJ/mol
# Density = 2.477681 g / cm^3
# Si number density = 24.833336 Si / 1000 Ang^3
#
#
#
# Elastic Constant Matrix: (Units=GPa)
#
#
# Indices 1 2 3 4 5 6 
#
# 1 41.6583 -4.6758 19.0192 3.7361 -16.9419 -5.1352
# 2 -4.6758 84.0584 18.0803 -20.8988 -0.2207 -3.6859
# 3 19.0192 18.0803 20.9998 8.1412 41.0548 2.0975
# 4 3.7361 -20.8988 8.1412 27.7934 -22.1785 -7.3398
# 5 -16.9419 -0.2207 41.0548 -22.1785 7.7455 0.5027
# 6 -5.1352 -3.6859 2.0975 -7.3398 0.5027 27.2711
#
#
#
# Elastic Compliance Matrix: (Units=1/GPa)
#
#
# Indices 1 2 3 4 5 6 
#
# 1 0.020114 -0.002531 0.003425 -0.011667 -0.007651 0.000183
# 2 -0.002531 0.012356 0.002536 0.004276 -0.006530 0.002270
# 3 0.003425 0.002536 0.005669 0.013486 0.015881 0.003889
# 4 -0.011667 0.004276 0.013486 0.030566 -0.009731 0.005750
# 5 -0.007651 -0.006530 0.015881 -0.009731 0.000542 -0.006174
# 6 0.000183 0.002270 0.003889 0.005750 -0.006174 0.038372
#
#
# Mechanical properties :
#
#
# Convention : Reuss Voigt Hill
#
# Bulk Modulus (GPa) = 22.22199 23.50710 22.86455
# Shear Modulus (GPa) = 43.19365 20.18151 31.68758
#
# Velocity S-wave (km/s) = 4.17507 2.85384 3.57600
# Velocity P-wave (km/s) = 5.67534 4.51062 5.12617
#
# Compressibility (1/GPa) = 0.04500046
#
# Stress axis : x y z
#
# Youngs Moduli (GPa) = 49.71611 80.93438 176.40565
#
# Poissons Ratio (x) = 0.20482 -0.60423
# Poissons Ratio (y) = 0.12582 -0.44744
# Poissons Ratio (z) = -0.17029 -0.20528
#
# Static dielectric constant tensor:
#      x y z
#    x 2.103660 0.029170 0.036180 
#    y 0.029170 1.910160 -0.027280 
#    z 0.036180 -0.027280 2.007530 
# 
# From -- ./inp_files/519274.got.cif
#   From: 2010.05.17/outbox.cif.g08.bks.cpg/sg2_260_cif.got.tgz:519274.got - 2010.06.03 11:33:40.
