data_PCOD9059057
_publ_section_title
;
Structure prediction by ZEFSAII (Michael W. Deem and Ramdas Pophale) SiO2 
 PCOD9059057
Probable space group: P -1
;
_chemical_formula_sum "Si O2"
_cell_formula_units_Z 14
_cell_length_a 10.901745
_cell_length_b 11.723481
_cell_length_c 11.478030
_cell_angle_alpha 142.019854
_cell_angle_beta 62.179027
_cell_angle_gamma 139.556681
_cell_volume 552.068897
_symmetry_space_group_name_H-M "P -1"
_symmetry_group_IT_number 2
_symmetry_cell_setting 'triclinic'
loop_
_space_group_symop_operation_xyz
x,y,z
-x,-y,-z
loop_
_atom_site_type_symbol
_atom_site_label
_atom_site_fract_x
_atom_site_fract_y
_atom_site_fract_z
Si Si1 0.854909 0.473474 0.452613
Si Si2 0.512350 0.291366 0.179519
Si Si3 0.401629 0.371147 0.767225
Si Si4 0.155896 0.785310 0.377714
Si Si5 0.293087 0.524774 0.136697
Si Si6 0.410351 0.004358 0.221023
Si Si7 0.901970 0.944674 0.875837
O O1 0.624356 0.189934 0.341447
O O2 0.862992 0.703732 0.648713
O O3 0.000000 0.500000 0.500000
O O4 0.943053 0.535098 0.331168
O O5 0.629471 0.580959 0.309921
O O6 0.462698 0.216155 0.275714
O O7 0.295632 0.122905 0.083583
O O8 0.612180 0.203428 0.012594
O O9 0.605534 0.460881 0.781592
O O10 0.234585 0.055324 0.611439
O O11 0.409156 0.552894 0.997447
O O12 0.287898 0.737679 0.320273
O O13 0.219552 0.852758 0.267068
O O14 0.071582 0.234184 0.974164
O O15 0.000000 0.000000 0.000000
#
# Coordination Sequence:
#
# PCOD9059057 Si02
#       7
#     2   2   2   2   2   2   2
#     4  12  28  44  71 110 142 181 242 295 350 423
#     4  11  24  49  71  99 143 192 235 287 361 421
#     4  11  23  40  69  99 141 185 230 287 354 418
#     4  12  25  45  71 107 140 186 232 295 358 413
#     4  11  23  40  65 105 140 177 234 289 352 416
#     4  11  27  48  72 102 146 188 235 295 352 425
#     4  12  23  44  69 102 142 183 235 295 348 417
#
# _framework density 25.359154
#
# number of rings (size 3 to 8) (size 9 to 14) (size 15 to 20)
#    0.000    0.571    4.286    3.857    4.000    2.286 
#    2.571    3.571    0.000    0.000    0.000    0.000 
#    0.000    0.000    0.000    0.000    0.000    0.000 
#
# Total GULP energy -78227.583587 kJ/mol
# GULP energy per Si atom -5587.684542 kJ/mol
# Density = 2.530144 g / cm^3
# Si number density = 25.359154 Si / 1000 Ang^3
#
#
#
# Elastic Constant Matrix: (Units=GPa)
#
#
# Indices 1 2 3 4 5 6 
#
# 1 57.1697 14.2302 21.4184 -5.0286 -7.1225 -22.3473
# 2 14.2302 134.8098 30.2414 -17.9539 -9.8302 -8.4574
# 3 21.4184 30.2414 83.1307 -13.6813 -19.6216 -4.1883
# 4 -5.0286 -17.9539 -13.6813 49.5637 -2.0044 -1.8579
# 5 -7.1225 -9.8302 -19.6216 -2.0044 33.1660 7.9355
# 6 -22.3473 -8.4574 -4.1883 -1.8579 7.9355 39.3872
#
#
#
# Elastic Compliance Matrix: (Units=1/GPa)
#
#
# Indices 1 2 3 4 5 6 
#
# 1 0.025113 -0.000424 -0.005729 0.001278 -0.001367 0.013884
# 2 -0.000424 0.008449 -0.002278 0.002473 0.000912 0.001264
# 3 -0.005729 -0.002278 0.016889 0.003490 0.009165 -0.003625
# 4 0.001278 0.002473 0.003490 0.022396 0.003975 0.001883
# 5 -0.001367 0.000912 0.009165 0.003975 0.037457 -0.006964
# 6 0.013884 0.001264 -0.003625 0.001883 -0.006964 0.034644
#
#
# Mechanical properties :
#
#
# Convention : Reuss Voigt Hill
#
# Bulk Modulus (GPa) = 29.77216 45.21001 37.49108
# Shear Modulus (GPa) = 28.90074 38.37141 33.63607
#
# Velocity S-wave (km/s) = 3.37954 3.89410 3.64591
# Velocity P-wave (km/s) = 5.19559 6.17133 5.70436
#
# Compressibility (1/GPa) = 0.03358843
#
# Stress axis : x y z
#
# Youngs Moduli (GPa) = 39.82023 118.35902 59.21047
#
# Poissons Ratio (x) = 0.05021 0.33920
# Poissons Ratio (y) = 0.01689 0.13490
# Poissons Ratio (z) = 0.22812 0.26965
#
# Static dielectric constant tensor:
#      x y z
#    x 1.972550 -0.016970 0.013710 
#    y -0.016970 2.181670 -0.016650 
#    z 0.013710 -0.016650 2.016990 
# 
# From -- ./inp_files/263243.got.cif
#   From: 2010.05.17/outbox.cif.g08.bks.cpg/sg2_132_cif.got.tgz:263243.got - 2010.06.03 11:33:40.
