data_PCOD9059483
_publ_section_title
;
Structure prediction by ZEFSAII (Michael W. Deem and Ramdas Pophale) SiO2 
 PCOD9059483
Probable space group: P -1
;
_chemical_formula_sum "Si O2"
_cell_formula_units_Z 14
_cell_length_a 16.453109
_cell_length_b 8.839466
_cell_length_c 13.901022
_cell_angle_alpha 104.988056
_cell_angle_beta 25.974032
_cell_angle_gamma 120.771448
_cell_volume 642.752751
_symmetry_space_group_name_H-M "P -1"
_symmetry_group_IT_number 2
_symmetry_cell_setting 'triclinic'
loop_
_space_group_symop_operation_xyz
x,y,z
-x,-y,-z
loop_
_atom_site_type_symbol
_atom_site_label
_atom_site_fract_x
_atom_site_fract_y
_atom_site_fract_z
Si Si1 0.622363 0.705837 0.020187
Si Si2 0.918473 0.543555 0.384969
Si Si3 0.848015 0.336017 0.049502
Si Si4 0.028189 0.676666 0.558182
Si Si5 0.798600 0.026544 0.733698
Si Si6 0.841047 0.969659 0.023023
Si Si7 0.383366 0.264241 0.580022
O O1 0.672714 0.811560 0.262264
O O2 0.604406 0.821553 0.970758
O O3 0.349188 0.531194 0.322420
O O4 0.772860 0.633863 0.819036
O O5 0.922797 0.370872 0.397793
O O6 0.991664 0.567161 0.201141
O O7 0.103426 0.773183 0.274035
O O8 0.220329 0.135705 0.032737
O O9 0.000000 0.500000 0.000000
O O10 0.797886 0.129172 0.091364
O O11 0.585655 0.273255 0.312891
O O12 0.227010 0.903187 0.331953
O O13 0.000000 0.500000 0.500000
O O14 0.000000 0.000000 0.500000
O O15 0.125425 0.106423 0.772853
O O16 0.500000 0.500000 0.500000
#
# Coordination Sequence:
#
# PCOD9059483 Si02
#       7
#     2   2   2   2   2   2   2
#     4  11  23  41  69  94 137 172 219 275 332 401
#     4  11  24  41  66 100 133 176 219 272 340 386
#     4  12  24  43  69  97 138 178 224 271 333 406
#     4   9  22  41  65  96 132 169 222 270 332 400
#     4   9  20  43  64  95 129 170 223 269 333 396
#     4  11  25  43  66 100 128 181 226 270 337 396
#     4  11  25  44  68  95 136 176 222 279 333 388
#
# _framework density 21.781316
#
# number of rings (size 3 to 8) (size 9 to 14) (size 15 to 20)
#    0.000    1.429    2.857    1.286    2.000    6.857 
#    0.000    2.857    0.000    0.000    0.000    0.000 
#    0.000    0.000    0.000    0.000    0.000    0.000 
#
# Total GULP energy -78217.771274 kJ/mol
# GULP energy per Si atom -5586.983662 kJ/mol
# Density = 2.173174 g / cm^3
# Si number density = 21.781316 Si / 1000 Ang^3
#
#
#
# Elastic Constant Matrix: (Units=GPa)
#
#
# Indices 1 2 3 4 5 6 
#
# 1 53.3174 40.4396 36.9642 -6.1542 17.7082 -14.0453
# 2 40.4396 117.5691 54.5616 1.3383 14.0423 -18.6929
# 3 36.9642 54.5616 141.2878 10.7547 19.3062 -9.6412
# 4 -6.1542 1.3383 10.7547 31.1087 -13.6261 -3.8695
# 5 17.7082 14.0423 19.3062 -13.6261 39.4782 1.0752
# 6 -14.0453 -18.6929 -9.6412 -3.8695 1.0752 40.4114
#
#
#
# Elastic Compliance Matrix: (Units=1/GPa)
#
#
# Indices 1 2 3 4 5 6 
#
# 1 0.032667 -0.006923 -0.004671 0.005790 -0.008120 0.007807
# 2 -0.006923 0.012666 -0.002782 -0.000782 -0.000383 0.002724
# 3 -0.004671 -0.002782 0.010355 -0.006311 -0.004132 -0.000934
# 4 0.005790 -0.000782 -0.006311 0.042733 0.015412 0.003827
# 5 -0.008120 -0.000383 -0.004132 0.015412 0.036544 -0.003482
# 6 0.007807 0.002724 -0.000934 0.003827 -0.003482 0.028955
#
#
# Mechanical properties :
#
#
# Convention : Reuss Voigt Hill
#
# Bulk Modulus (GPa) = 37.12615 64.01168 50.56891
# Shear Modulus (GPa) = 24.79508 34.21356 29.50432
#
# Velocity S-wave (km/s) = 3.37763 3.96760 3.68444
# Velocity P-wave (km/s) = 5.68270 7.10220 6.43173
#
# Compressibility (1/GPa) = 0.02693519
#
# Stress axis : x y z
#
# Youngs Moduli (GPa) = 30.61185 78.95194 96.56710
#
# Poissons Ratio (x) = 0.54660 0.45109
# Poissons Ratio (y) = 0.21193 0.26867
# Poissons Ratio (z) = 0.14300 0.21966
#
# Static dielectric constant tensor:
#      x y z
#    x 1.829580 0.012010 0.008020 
#    y 0.012010 1.739360 0.017580 
#    z 0.008020 0.017580 1.847310 
# 
# From -- ./inp_files/445860.got.cif
#   From: 2010.05.17/outbox.cif.g08.bks.cpg/sg2_223_cif.got.tgz:445860.got - 2010.06.03 11:33:40.
