data_PCOD9059920
_publ_section_title
;
Structure prediction by ZEFSAII (Michael W. Deem and Ramdas Pophale) SiO2 
 PCOD9059920
Probable space group: P -1
;
_chemical_formula_sum "Si O2"
_cell_formula_units_Z 16
_cell_length_a 11.288342
_cell_length_b 8.064214
_cell_length_c 11.786819
_cell_angle_alpha 105.814753
_cell_angle_beta 49.516260
_cell_angle_gamma 124.972597
_cell_volume 660.133163
_symmetry_space_group_name_H-M "P -1"
_symmetry_group_IT_number 2
_symmetry_cell_setting 'triclinic'
loop_
_space_group_symop_operation_xyz
x,y,z
-x,-y,-z
loop_
_atom_site_type_symbol
_atom_site_label
_atom_site_fract_x
_atom_site_fract_y
_atom_site_fract_z
Si Si1 0.078748 0.488484 0.330318
Si Si2 0.569067 0.340094 0.237488
Si Si3 0.199729 0.136210 0.512209
Si Si4 0.451790 0.548700 0.159348
Si Si5 0.057771 0.873791 0.770187
Si Si6 0.683831 0.022183 0.059044
Si Si7 0.897839 0.751964 0.073784
Si Si8 0.855218 0.118429 0.726864
O O1 0.232972 0.444584 0.264005
O O2 0.184237 0.708647 0.246272
O O3 0.000000 0.500000 0.500000
O O4 0.927473 0.319469 0.305731
O O5 0.419860 0.269370 0.418146
O O6 0.503001 0.443484 0.205452
O O7 0.588373 0.153214 0.150552
O O8 0.776353 0.531975 0.164695
O O9 0.085829 0.956945 0.640195
O O10 0.080477 0.238515 0.613024
O O11 0.189769 0.036325 0.377474
O O12 0.553417 0.795961 0.150406
O O13 0.500000 0.500000 0.000000
O O14 0.157259 0.096055 0.810946
O O15 0.886441 0.756851 0.944617
O O16 0.745507 0.011345 0.889984
O O17 0.885060 0.152722 0.019296
#
# Coordination Sequence:
#
# PCOD9059920 Si02
#       8
#     2   2   2   2   2   2   2   2
#     4  12  24  42  70 107 143 178 223 293 366 420
#     4  12  27  44  71 105 138 186 243 294 345 411
#     4  11  24  43  69 105 144 179 229 296 358 414
#     4  12  25  42  69 107 145 182 230 290 352 424
#     4  11  23  45  74  99 139 189 234 282 356 421
#     4  12  25  46  72 104 139 189 242 286 348 426
#     4  11  24  47  74  95 139 198 240 284 340 425
#     4  11  23  42  71 103 145 182 224 291 361 427
#
# _framework density 24.237532000000002
#
# number of rings (size 3 to 8) (size 9 to 14) (size 15 to 20)
#    0.000    0.500    2.500    7.125    1.750    2.000 
#    0.000    0.625    2.750    0.000    0.000    0.000 
#    0.000    0.000    0.000    0.000    0.000    0.000 
#
# Total GULP energy -89201.525453 kJ/mol
# GULP energy per Si atom -5575.095341 kJ/mol
# Density = 2.418237 g / cm^3
# Si number density = 24.237532 Si / 1000 Ang^3
#
#
#
# Elastic Constant Matrix: (Units=GPa)
#
#
# Indices 1 2 3 4 5 6 
#
# 1 80.7756 25.9307 33.9965 -9.9091 -11.1060 -14.3078
# 2 25.9307 155.1140 41.9364 -6.5670 -0.0379 -15.9407
# 3 33.9965 41.9364 138.4876 1.1033 -2.7676 3.6517
# 4 -9.9091 -6.5670 1.1033 43.0677 0.2237 -4.7955
# 5 -11.1060 -0.0379 -2.7676 0.2237 34.6378 -3.8488
# 6 -14.3078 -15.9407 3.6517 -4.7955 -3.8488 28.6053
#
#
#
# Elastic Compliance Matrix: (Units=1/GPa)
#
#
# Indices 1 2 3 4 5 6 
#
# 1 0.017930 -0.000417 -0.004479 0.005378 0.006589 0.011096
# 2 -0.000417 0.007709 -0.002365 0.001662 0.000197 0.004694
# 3 -0.004479 -0.002365 0.009168 -0.002206 -0.001278 -0.005270
# 4 0.005378 0.001662 -0.002206 0.025703 0.002331 0.008520
# 5 0.006589 0.000197 -0.001278 0.002331 0.031781 0.008235
# 6 0.011096 0.004694 -0.005270 0.008520 0.008235 0.046334
#
#
# Mechanical properties :
#
#
# Convention : Reuss Voigt Hill
#
# Bulk Modulus (GPa) = 49.29915 64.23381 56.76648
# Shear Modulus (GPa) = 31.26813 39.42974 35.34894
#
# Velocity S-wave (km/s) = 3.59565 4.03774 3.82309
# Velocity P-wave (km/s) = 6.13371 6.94962 6.55437
#
# Compressibility (1/GPa) = 0.02028432
#
# Stress axis : x y z
#
# Youngs Moduli (GPa) = 55.77277 129.72169 109.07988
#
# Poissons Ratio (x) = 0.05408 0.48857
# Poissons Ratio (y) = 0.02325 0.25799
# Poissons Ratio (z) = 0.24981 0.30681
#
# Static dielectric constant tensor:
#      x y z
#    x 2.092150 0.044790 -0.025990 
#    y 0.044790 2.046570 -0.012850 
#    z -0.025990 -0.012850 1.847730 
# 
# From -- ./inp_files/419585.got.cif
#   From: 2010.05.17/outbox.cif.g08.bks.cpg/sg2_210_cif.got.tgz:419585.got - 2010.06.03 11:33:40.
