data_PCOD9059017
_publ_section_title
;
Structure prediction by ZEFSAII (Michael W. Deem and Ramdas Pophale) SiO2 
 PCOD9059017
Probable space group: P -1
;
_chemical_formula_sum "Si O2"
_cell_formula_units_Z 16
_cell_length_a 9.186492
_cell_length_b 14.324942
_cell_length_c 8.767826
_cell_angle_alpha 62.722942
_cell_angle_beta 50.307048
_cell_angle_gamma 72.538561
_cell_volume 789.060020
_symmetry_space_group_name_H-M "P -1"
_symmetry_group_IT_number 2
_symmetry_cell_setting 'triclinic'
loop_
_space_group_symop_operation_xyz
x,y,z
-x,-y,-z
loop_
_atom_site_type_symbol
_atom_site_label
_atom_site_fract_x
_atom_site_fract_y
_atom_site_fract_z
Si Si1 0.099295 0.599476 0.436756
Si Si2 0.969851 0.116230 0.485206
Si Si3 0.897211 0.266861 0.137703
Si Si4 0.762626 0.733503 0.678795
Si Si5 0.353404 0.752968 0.955333
Si Si6 0.199979 0.538482 0.761723
Si Si7 0.433511 0.880580 0.095020
Si Si8 0.299673 0.318597 0.889719
O O1 0.168245 0.572712 0.582310
O O2 0.000000 0.500000 0.500000
O O3 0.924732 0.679722 0.513225
O O4 0.263227 0.657860 0.186930
O O5 0.939931 0.185196 0.303282
O O6 0.778168 0.129723 0.695570
O O7 0.153418 0.152473 0.427850
O O8 0.000000 0.000000 0.500000
O O9 0.796865 0.220884 0.092844
O O10 0.768493 0.359587 0.229793
O O11 0.108590 0.305804 0.928405
O O12 0.552529 0.722827 0.766380
O O13 0.751991 0.684051 0.893293
O O14 0.412427 0.848037 0.956128
O O15 0.347289 0.440796 0.742092
O O16 0.000000 0.500000 0.000000
O O17 0.563736 0.783316 0.146733
O O18 0.500000 0.000000 0.000000
#
# Coordination Sequence:
#
# PCOD9059017 Si02
#       8
#     2   2   2   2   2   2   2   2
#     4  12  22  39  66  94 131 180 217 261 325 389
#     4  11  21  44  72  89 124 178 213 267 335 384
#     4  10  20  40  62  93 131 169 209 269 326 379
#     4  10  21  42  60  92 131 173 214 265 322 383
#     4  11  24  41  65  99 131 165 226 266 320 393
#     4  10  17  37  64  89 130 172 212 262 323 384
#     4  11  22  43  68  97 125 169 225 266 321 397
#     4   9  19  37  65  90 127 170 215 266 318 380
#
# _framework density 20.277290000000001
#
# number of rings (size 3 to 8) (size 9 to 14) (size 15 to 20)
#    0.000    1.500    5.000    3.750    0.000    0.500 
#    6.750    8.125    0.000    0.000    0.000    0.000 
#    0.000    0.000    0.000    0.000    0.000    0.000 
#
# Total GULP energy -89150.671977 kJ/mol
# GULP energy per Si atom -5571.916999 kJ/mol
# Density = 2.023114 g / cm^3
# Si number density = 20.277290 Si / 1000 Ang^3
#
#
#
# Elastic Constant Matrix: (Units=GPa)
#
#
# Indices 1 2 3 4 5 6 
#
# 1 88.3763 25.0499 8.9843 9.3447 -19.8463 8.1768
# 2 25.0499 141.1922 10.7387 -2.0531 -16.4396 -1.5369
# 3 8.9843 10.7387 65.7015 -4.6090 -24.2256 -3.9167
# 4 9.3447 -2.0531 -4.6090 21.2721 -0.8972 -5.7799
# 5 -19.8463 -16.4396 -24.2256 -0.8972 26.3700 3.4494
# 6 8.1768 -1.5369 -3.9167 -5.7799 3.4494 36.0505
#
#
#
# Elastic Compliance Matrix: (Units=1/GPa)
#
#
# Indices 1 2 3 4 5 6 
#
# 1 0.015959 -0.001600 0.002164 -0.007754 0.013521 -0.005990
# 2 -0.001600 0.007852 0.000708 0.001980 0.004320 0.000679
# 3 0.002164 0.000708 0.024262 0.005606 0.024454 0.000734
# 4 -0.007754 0.001980 0.005606 0.054895 0.000957 0.011162
# 5 0.013521 0.004320 0.024454 0.000957 0.074227 -0.007175
# 6 -0.005990 0.000679 0.000734 0.011162 -0.007175 0.031682
#
#
# Mechanical properties :
#
#
# Convention : Reuss Voigt Hill
#
# Bulk Modulus (GPa) = 19.75638 42.75731 31.25684
# Shear Modulus (GPa) = 22.40080 33.43833 27.91957
#
# Velocity S-wave (km/s) = 3.32734 4.06526 3.71467
# Velocity P-wave (km/s) = 4.95236 6.57017 5.81778
#
# Compressibility (1/GPa) = 0.05061656
#
# Stress axis : x y z
#
# Youngs Moduli (GPa) = 62.66011 127.36155 41.21594
#
# Poissons Ratio (x) = 0.20373 -0.08918
# Poissons Ratio (y) = 0.10023 -0.02916
# Poissons Ratio (z) = -0.13558 -0.09011
#
# Static dielectric constant tensor:
#      x y z
#    x 1.836970 0.089700 -0.060280 
#    y 0.089700 1.835070 -0.008690 
#    z -0.060280 -0.008690 1.774890 
# 
# From -- ./inp_files/206164.got.cif
#   From: 2010.05.17/outbox.cif.g08.bks.cpg/sg2_104_cif.got.tgz:206164.got - 2010.06.03 11:33:40.
