data_PCOD9059242
_publ_section_title
;
Structure prediction by ZEFSAII (Michael W. Deem and Ramdas Pophale) SiO2 
 PCOD9059242
Probable space group: P -1
;
_chemical_formula_sum "Si O2"
_cell_formula_units_Z 15
_cell_length_a 9.209703
_cell_length_b 7.323464
_cell_length_c 15.872343
_cell_angle_alpha 89.707042
_cell_angle_beta 150.182935
_cell_angle_gamma 100.086931
_cell_volume 499.947197
_symmetry_space_group_name_H-M "P -1"
_symmetry_group_IT_number 2
_symmetry_cell_setting 'triclinic'
loop_
_space_group_symop_operation_xyz
x,y,z
-x,-y,-z
loop_
_atom_site_type_symbol
_atom_site_label
_atom_site_fract_x
_atom_site_fract_y
_atom_site_fract_z
Si Si1 0.897487 0.469277 0.614272
Si Si2 0.500000 0.500000 0.000000
Si Si3 0.873597 0.957082 0.032053
Si Si4 0.331798 0.820940 0.356972
Si Si5 0.990920 0.172372 0.560822
Si Si6 0.254835 0.913667 0.798446
Si Si7 0.946263 0.355059 0.099457
Si Si8 0.473363 0.682948 0.273646
O O1 0.971168 0.703750 0.654547
O O2 0.775851 0.293758 0.484300
O O3 0.714288 0.363568 0.605752
O O4 0.252359 0.474000 0.800788
O O5 0.272688 0.589805 0.944807
O O6 0.006053 0.157908 0.150311
O O7 0.993956 0.812219 0.148977
O O8 0.000000 0.000000 0.000000
O O9 0.501420 0.892887 0.852125
O O10 0.516558 0.856165 0.361275
O O11 0.500000 0.000000 0.500000
O O12 0.233994 0.338755 0.623114
O O13 0.124762 0.084552 0.708586
O O14 0.000000 0.000000 0.500000
O O15 0.500000 0.000000 0.000000
O O16 0.268707 0.508787 0.229786
O O17 0.744470 0.303044 0.912191
#
# Coordination Sequence:
#
# PCOD9059242 Si02
#       8
#     2   1   2   2   2   2   2   2
#     4  12  25  43  74 104 146 200 245 309 379 448
#     4  12  20  42  72 104 142 186 250 308 372 442
#     4  12  24  44  73 110 146 182 255 318 367 446
#     4  12  26  47  71 104 155 201 240 306 385 460
#     4  12  26  49  71 104 155 198 245 312 380 457
#     4  12  27  45  74 112 142 189 264 312 369 454
#     4  11  23  40  74 107 139 192 248 318 375 434
#     4  11  23  44  70 105 143 188 248 307 383 434
#
# _framework density 30.003169
#
# number of rings (size 3 to 8) (size 9 to 14) (size 15 to 20)
#    0.000    0.267    5.333    4.000    1.867    0.533 
#    2.400    0.667    0.000    0.000    0.000    0.000 
#    0.000    0.000    0.000    0.000    0.000    0.000 
#
# Total GULP energy -83516.228158 kJ/mol
# GULP energy per Si atom -5567.748544 kJ/mol
# Density = 2.993488 g / cm^3
# Si number density = 30.003169 Si / 1000 Ang^3
#
#
#
# Elastic Constant Matrix: (Units=GPa)
#
#
# Indices 1 2 3 4 5 6 
#
# 1 218.5847 57.9470 19.6074 25.6268 -36.6428 -29.3095
# 2 57.9470 206.4268 20.7741 1.6914 -23.8576 2.7624
# 3 19.6074 20.7741 79.9542 10.5037 -24.7503 -12.3187
# 4 25.6268 1.6914 10.5037 48.3732 -17.5392 1.1836
# 5 -36.6428 -23.8576 -24.7503 -17.5392 53.8355 5.9658
# 6 -29.3095 2.7624 -12.3187 1.1836 5.9658 45.5423
#
#
#
# Elastic Compliance Matrix: (Units=1/GPa)
#
#
# Indices 1 2 3 4 5 6 
#
# 1 0.006183 -0.001536 0.000615 -0.002529 0.002546 0.003971
# 2 -0.001536 0.005583 -0.001050 0.001485 0.001637 -0.001864
# 3 0.000615 -0.001050 0.015298 -0.001504 0.006071 0.003841
# 4 -0.002529 0.001485 -0.001504 0.024819 0.006736 -0.003652
# 5 0.002546 0.001637 0.006071 0.006736 0.026064 -0.000408
# 6 0.003971 -0.001864 0.003841 -0.003652 -0.000408 0.025813
#
#
# Mechanical properties :
#
#
# Convention : Reuss Voigt Hill
#
# Bulk Modulus (GPa) = 43.24687 77.95809 60.60248
# Shear Modulus (GPa) = 43.32474 56.65934 49.99204
#
# Velocity S-wave (km/s) = 3.80413 4.35034 4.08637
# Velocity P-wave (km/s) = 5.80867 7.16056 6.51975
#
# Compressibility (1/GPa) = 0.02312306
#
# Stress axis : x y z
#
# Youngs Moduli (GPa) = 161.74478 179.11643 65.36936
#
# Poissons Ratio (x) = 0.27504 -0.04021
# Poissons Ratio (y) = 0.24837 0.06861
# Poissons Ratio (z) = -0.09949 0.18800
#
# Static dielectric constant tensor:
#      x y z
#    x 2.457140 0.108680 0.070730 
#    y 0.108680 3.229130 0.779490 
#    z 0.070730 0.779490 3.063090 
# 
# From -- ./inp_files/495348.got.cif
#   From: 2010.05.17/outbox.cif.g08.bks.cpg/sg2_248_cif.got.tgz:495348.got - 2010.06.03 11:33:40.
