data_PCOD9059661
_publ_section_title
;
Structure prediction by ZEFSAII (Michael W. Deem and Ramdas Pophale) SiO2 
 PCOD9059661
Probable space group: P -1
;
_chemical_formula_sum "Si O2"
_cell_formula_units_Z 14
_cell_length_a 8.761955
_cell_length_b 8.872155
_cell_length_c 13.673808
_cell_angle_alpha 117.274843
_cell_angle_beta 43.181665
_cell_angle_gamma 94.692651
_cell_volume 588.259570
_symmetry_space_group_name_H-M "P -1"
_symmetry_group_IT_number 2
_symmetry_cell_setting 'triclinic'
loop_
_space_group_symop_operation_xyz
x,y,z
-x,-y,-z
loop_
_atom_site_type_symbol
_atom_site_label
_atom_site_fract_x
_atom_site_fract_y
_atom_site_fract_z
Si Si1 0.664629 0.788366 0.332543
Si Si2 0.314139 0.839070 0.207646
Si Si3 0.728829 0.551027 0.423113
Si Si4 0.202219 0.176976 0.127784
Si Si5 0.160773 0.245721 0.395223
Si Si6 0.598334 0.415010 0.727395
Si Si7 0.855719 0.194911 0.929922
O O1 0.751194 0.666125 0.353722
O O2 0.492568 0.711450 0.333348
O O3 0.896853 0.778586 0.157231
O O4 0.500000 0.000000 0.500000
O O5 0.371071 0.669815 0.203753
O O6 0.147614 0.830988 0.193385
O O7 0.190499 0.048447 0.369895
O O8 0.570970 0.821981 0.037655
O O9 0.500000 0.500000 0.500000
O O10 0.708095 0.668798 0.566371
O O11 0.965420 0.358642 0.264821
O O12 0.249891 0.192504 0.226148
O O13 0.155907 0.991383 0.077418
O O14 0.873236 0.382836 0.562975
O O15 0.386844 0.621272 0.879318
#
# Coordination Sequence:
#
# PCOD9059661 Si02
#       7
#     2   2   2   2   2   2   2
#     4  12  25  44  66  98 137 176 219 272 328 390
#     4  11  23  43  69 100 131 172 221 275 327 388
#     4  12  25  43  67  98 132 173 219 272 328 390
#     4  11  25  44  68  98 134 173 218 274 331 389
#     4  11  23  43  70  99 129 173 222 271 328 395
#     4  12  24  43  70  98 131 178 223 267 325 395
#     4  11  23  42  65  97 135 173 217 273 329 389
#
# _framework density 23.799019999999999
#
# number of rings (size 3 to 8) (size 9 to 14) (size 15 to 20)
#    0.000    0.571    0.000   10.286    0.000    3.429 
#    0.000    2.143    0.000    0.000    0.000    0.000 
#    0.000    0.000    0.000    0.000    0.000    0.000 
#
# Total GULP energy -78527.707605 kJ/mol
# GULP energy per Si atom -5609.121972 kJ/mol
# Density = 2.374485 g / cm^3
# Si number density = 23.799020 Si / 1000 Ang^3
#
#
#
# Elastic Constant Matrix: (Units=GPa)
#
#
# Indices 1 2 3 4 5 6 
#
# 1 77.2764 5.8304 -1.2476 -1.0991 -9.1570 35.9531
# 2 5.8304 104.9691 28.4482 -0.9864 -4.6008 13.6331
# 3 -1.2476 28.4482 85.2595 9.3229 -18.4462 16.2018
# 4 -1.0991 -0.9864 9.3229 61.3585 2.8860 0.3077
# 5 -9.1570 -4.6008 -18.4462 2.8860 34.8024 2.3402
# 6 35.9531 13.6331 16.2018 0.3077 2.3402 54.3846
#
#
#
# Elastic Compliance Matrix: (Units=1/GPa)
#
#
# Indices 1 2 3 4 5 6 
#
# 1 0.021959 -0.000205 0.005814 -0.000881 0.010023 -0.016624
# 2 -0.000205 0.010654 -0.003446 0.000719 -0.000431 -0.001494
# 3 0.005814 -0.003446 0.017334 -0.003064 0.011094 -0.008604
# 4 -0.000881 0.000719 -0.003064 0.016905 -0.003254 0.001360
# 5 0.010023 -0.000431 0.011094 -0.003254 0.038234 -0.011450
# 6 -0.016624 -0.001494 -0.008604 0.001360 -0.011450 0.032800
#
#
# Mechanical properties :
#
#
# Convention : Reuss Voigt Hill
#
# Bulk Modulus (GPa) = 18.42547 37.06299 27.74423
# Shear Modulus (GPa) = 32.97028 45.74070 39.35549
#
# Velocity S-wave (km/s) = 3.72608 4.38877 4.07093
# Velocity P-wave (km/s) = 5.12548 6.42564 5.81203
#
# Compressibility (1/GPa) = 0.05427269
#
# Stress axis : x y z
#
# Youngs Moduli (GPa) = 45.53846 93.86347 57.69027
#
# Poissons Ratio (x) = 0.01926 -0.33540
# Poissons Ratio (y) = 0.00935 0.19879
# Poissons Ratio (z) = -0.26475 0.32343
#
# Static dielectric constant tensor:
#      x y z
#    x 1.891170 -0.014570 0.012930 
#    y -0.014570 1.958290 -0.016710 
#    z 0.012930 -0.016710 1.907730 
# 
# From -- ./inp_files/185208.got.cif
#   From: 2010.05.17/outbox.cif.g08.bks.cpg/sg2_93_cif.got.tgz:185208.got - 2010.06.03 11:33:40.
