data_PCOD9059562
_publ_section_title
;
Structure prediction by ZEFSAII (Michael W. Deem and Ramdas Pophale) SiO2 
 PCOD9059562
Probable space group: P -1
;
_chemical_formula_sum "Si O2"
_cell_formula_units_Z 14
_cell_length_a 5.442987
_cell_length_b 22.715262
_cell_length_c 14.553519
_cell_angle_alpha 158.973699
_cell_angle_beta 122.043039
_cell_angle_gamma 58.574816
_cell_volume 545.224948
_symmetry_space_group_name_H-M "P -1"
_symmetry_group_IT_number 2
_symmetry_cell_setting 'triclinic'
loop_
_space_group_symop_operation_xyz
x,y,z
-x,-y,-z
loop_
_atom_site_type_symbol
_atom_site_label
_atom_site_fract_x
_atom_site_fract_y
_atom_site_fract_z
Si Si1 0.852596 0.470947 0.527138
Si Si2 0.016345 0.272705 0.920386
Si Si3 0.849064 0.701287 0.212161
Si Si4 0.562771 0.022829 0.425318
Si Si5 0.650700 0.388942 0.682519
Si Si6 0.226500 0.789540 0.727964
Si Si7 0.625259 0.910086 0.719069
O O1 0.500000 0.500000 0.500000
O O2 0.897888 0.290595 0.321575
O O3 0.000000 0.500000 0.500000
O O4 0.979151 0.597959 0.809096
O O5 0.980670 0.343443 0.913234
O O6 0.798327 0.130482 0.676225
O O7 0.336612 0.168751 0.829522
O O8 0.737627 0.892832 0.470464
O O9 0.035620 0.659686 0.278810
O O10 0.592650 0.578037 0.976564
O O11 0.524525 0.068215 0.376842
O O12 0.647676 0.357241 0.527240
O O13 0.459439 0.257520 0.497619
O O14 0.975876 0.886956 0.758513
O O15 0.447213 0.922211 0.993598
#
# Coordination Sequence:
#
# PCOD9059562 Si02
#       7
#     2   2   2   2   2   2   2
#     4  12  30  54  78 112 150 198 258 316 380 458
#     4  11  25  46  71 101 145 199 246 307 381 441
#     4  11  23  41  72 107 147 189 247 308 382 450
#     4  11  24  44  67 104 143 197 247 310 370 451
#     4  11  23  41  72 107 147 189 247 308 382 450
#     4  11  25  46  71 101 145 199 246 307 381 441
#     4  11  24  44  67 104 143 197 247 310 370 451
#
# _framework density 25.677472999999999
#
# number of rings (size 3 to 8) (size 9 to 14) (size 15 to 20)
#    0.000    0.857    4.286    1.714    6.000    0.571 
#   10.286    0.000    0.000    0.000    0.000    0.000 
#    0.000    0.000    0.000    0.000    0.000    0.000 
#
# Total GULP energy -78295.017864 kJ/mol
# GULP energy per Si atom -5592.501276 kJ/mol
# Density = 2.561903 g / cm^3
# Si number density = 25.677473 Si / 1000 Ang^3
#
#
#
# Elastic Constant Matrix: (Units=GPa)
#
#
# Indices 1 2 3 4 5 6 
#
# 1 66.2272 34.8860 23.0914 -16.5486 -0.9693 21.3219
# 2 34.8860 115.1801 30.0428 -7.6503 2.6088 21.6481
# 3 23.0914 30.0428 140.2863 -18.3758 5.1774 8.4420
# 4 -16.5486 -7.6503 -18.3758 51.0464 -1.7298 -0.6606
# 5 -0.9693 2.6088 5.1774 -1.7298 37.3589 -2.5276
# 6 21.3219 21.6481 8.4420 -0.6606 -2.5276 49.3171
#
#
#
# Elastic Compliance Matrix: (Units=1/GPa)
#
#
# Indices 1 2 3 4 5 6 
#
# 1 0.021702 -0.004507 -0.001460 0.005773 0.000872 -0.007033
# 2 -0.004507 0.010917 -0.001459 -0.000414 -0.000875 -0.002644
# 3 -0.001460 -0.001459 0.008006 0.002156 -0.000954 -0.000119
# 4 0.005773 -0.000414 0.002156 0.022171 0.000748 -0.002348
# 5 0.000872 -0.000875 -0.000954 0.000748 0.027124 0.001571
# 6 -0.007033 -0.002644 -0.000119 -0.002348 0.001571 0.024548
#
#
# Mechanical properties :
#
#
# Convention : Reuss Voigt Hill
#
# Bulk Modulus (GPa) = 38.79940 55.30379 47.05159
# Shear Modulus (GPa) = 36.25567 43.12271 39.68919
#
# Velocity S-wave (km/s) = 3.76169 4.10249 3.93578
# Velocity P-wave (km/s) = 5.83182 6.63515 6.24641
#
# Compressibility (1/GPa) = 0.02577360
#
# Stress axis : x y z
#
# Youngs Moduli (GPa) = 46.07864 91.60075 124.90983
#
# Poissons Ratio (x) = 0.41284 0.18234
# Poissons Ratio (y) = 0.20767 0.18223
# Poissons Ratio (z) = 0.06727 0.13363
#
# Static dielectric constant tensor:
#      x y z
#    x 2.129480 -0.072940 -0.031520 
#    y -0.072940 2.042230 0.059960 
#    z -0.031520 0.059960 2.038900 
# 
# From -- ./inp_files/63598.got.cif
#   From: 2010.05.17/outbox.cif.g08.bks.cpg/sg2_32_cif.got.tgz:63598.got - 2010.06.03 11:33:40.
