data_PCOD9059667
_publ_section_title
;
Structure prediction by ZEFSAII (Michael W. Deem and Ramdas Pophale) SiO2 
 PCOD9059667
Probable space group: P -1
;
_chemical_formula_sum "Si O2"
_cell_formula_units_Z 14
_cell_length_a 12.324645
_cell_length_b 5.124208
_cell_length_c 16.760069
_cell_angle_alpha 110.923795
_cell_angle_beta 38.703790
_cell_angle_gamma 121.270296
_cell_volume 563.422335
_symmetry_space_group_name_H-M "P -1"
_symmetry_group_IT_number 2
_symmetry_cell_setting 'triclinic'
loop_
_space_group_symop_operation_xyz
x,y,z
-x,-y,-z
loop_
_atom_site_type_symbol
_atom_site_label
_atom_site_fract_x
_atom_site_fract_y
_atom_site_fract_z
Si Si1 0.204498 0.223540 0.373163
Si Si2 0.556658 0.311428 0.830631
Si Si3 0.588145 0.334721 0.225391
Si Si4 0.023342 0.772463 0.297816
Si Si5 0.664222 0.336853 0.947321
Si Si6 0.221632 0.877570 0.587397
Si Si7 0.643074 0.995744 0.297630
O O1 0.291574 0.556936 0.315341
O O2 0.361043 0.251025 0.351791
O O3 0.000000 0.000000 0.500000
O O4 0.193067 0.020289 0.278949
O O5 0.666757 0.441626 0.864661
O O6 0.437275 0.944466 0.851505
O O7 0.400962 0.456240 0.936264
O O8 0.664798 0.701484 0.215291
O O9 0.688526 0.261550 0.235776
O O10 0.912028 0.479630 0.385214
O O11 0.133169 0.672798 0.155428
O O12 0.881332 0.916387 0.364566
O O13 0.500000 0.000000 0.000000
O O14 0.425597 0.935334 0.439981
O O15 0.248947 0.926145 0.672092
#
# Coordination Sequence:
#
# PCOD9059667 Si02
#       7
#     2   2   2   2   2   2   2
#     4  12  24  39  63 107 146 172 215 281 366 429
#     4  11  23  42  66 103 137 189 227 273 354 412
#     4  12  23  41  66  99 135 183 218 283 347 422
#     4  12  24  41  69 100 141 172 234 287 345 411
#     4  11  23  42  69 100 142 187 236 281 341 421
#     4  11  25  44  65  99 129 190 234 289 334 406
#     4  11  24  44  68  92 140 183 239 274 347 422
#
# _framework density 24.848143
#
# number of rings (size 3 to 8) (size 9 to 14) (size 15 to 20)
#    0.000    0.571    4.286    4.286    2.000    2.857 
#    0.000    0.000    0.000    5.143    0.000    0.000 
#    0.000    0.000    0.000    0.000    0.000    0.000 
#
# Total GULP energy -78115.598152 kJ/mol
# GULP energy per Si atom -5579.685582 kJ/mol
# Density = 2.479159 g / cm^3
# Si number density = 24.848143 Si / 1000 Ang^3
#
#
#
# Elastic Constant Matrix: (Units=GPa)
#
#
# Indices 1 2 3 4 5 6 
#
# 1 97.6048 16.6862 9.0134 14.2599 11.8048 -15.9021
# 2 16.6862 93.7345 23.5877 22.8720 -5.3040 -26.8483
# 3 9.0134 23.5877 70.7715 9.9326 -3.9298 -20.3896
# 4 14.2599 22.8720 9.9326 38.1984 -6.5182 3.2851
# 5 11.8048 -5.3040 -3.9298 -6.5182 35.1156 9.9820
# 6 -15.9021 -26.8483 -20.3896 3.2851 9.9820 48.8120
#
#
#
# Elastic Compliance Matrix: (Units=1/GPa)
#
#
# Indices 1 2 3 4 5 6 
#
# 1 0.013241 0.000962 0.000722 -0.007643 -0.007700 0.007233
# 2 0.000962 0.016247 -0.001232 -0.011137 -0.002942 0.010086
# 3 0.000722 -0.001232 0.017174 -0.004889 -0.001509 0.007369
# 4 -0.007643 -0.011137 -0.004889 0.040451 0.012371 -0.015910
# 5 -0.007700 -0.002942 -0.001509 0.012371 0.036457 -0.013045
# 6 0.007233 0.010086 0.007369 -0.015910 -0.013045 0.035208
#
#
# Mechanical properties :
#
#
# Convention : Reuss Voigt Hill
#
# Bulk Modulus (GPa) = 21.02322 40.07615 30.54969
# Shear Modulus (GPa) = 28.78057 38.61344 33.69701
#
# Velocity S-wave (km/s) = 3.40701 3.94633 3.68655
# Velocity P-wave (km/s) = 4.89449 6.07685 5.51743
#
# Compressibility (1/GPa) = 0.04756645
#
# Stress axis : x y z
#
# Youngs Moduli (GPa) = 75.52569 61.54911 58.22735
#
# Poissons Ratio (x) = -0.05923 -0.04204
# Poissons Ratio (y) = -0.07268 0.07174
# Poissons Ratio (z) = -0.05453 0.07583
#
# Static dielectric constant tensor:
#      x y z
#    x 2.049570 -0.054080 0.086520 
#    y -0.054080 2.018660 0.055960 
#    z 0.086520 0.055960 2.078630 
# 
# From -- ./inp_files/564236.got.cif
#   From: 2010.05.17/outbox.cif.g08.bks.cpg/sg2_283_cif.got.tgz:564236.got - 2010.06.03 11:33:40.
