data_PCOD9059635
_publ_section_title
;
Structure prediction by ZEFSAII (Michael W. Deem and Ramdas Pophale) SiO2 
 PCOD9059635
Probable space group: P -1
;
_chemical_formula_sum "Si O2"
_cell_formula_units_Z 14
_cell_length_a 7.871936
_cell_length_b 12.233634
_cell_length_c 8.034537
_cell_angle_alpha 120.415499
_cell_angle_beta 122.429916
_cell_angle_gamma 81.429652
_cell_volume 555.170001
_symmetry_space_group_name_H-M "P -1"
_symmetry_group_IT_number 2
_symmetry_cell_setting 'triclinic'
loop_
_space_group_symop_operation_xyz
x,y,z
-x,-y,-z
loop_
_atom_site_type_symbol
_atom_site_label
_atom_site_fract_x
_atom_site_fract_y
_atom_site_fract_z
Si Si1 0.273734 0.801152 0.626018
Si Si2 0.720343 0.045987 0.574674
Si Si3 0.668488 0.641560 0.443749
Si Si4 0.495244 0.638494 0.819081
Si Si5 0.110479 0.405925 0.824751
Si Si6 0.032405 0.117939 0.230250
Si Si7 0.269963 0.686904 0.085685
O O1 0.305017 0.915819 0.599598
O O2 0.464934 0.739125 0.738765
O O3 0.103151 0.688066 0.372559
O O4 0.171301 0.847255 0.773041
O O5 0.805085 0.179136 0.818782
O O6 0.500000 0.000000 0.500000
O O7 0.847996 0.933075 0.588974
O O8 0.617290 0.504750 0.400574
O O9 0.777020 0.611761 0.305135
O O10 0.827829 0.759792 0.685043
O O11 0.456983 0.684115 0.311063
O O12 0.726085 0.630329 0.984918
O O13 0.374857 0.673080 0.950015
O O14 0.108342 0.558614 0.941543
O O15 0.000000 0.000000 0.000000
#
# Coordination Sequence:
#
# PCOD9059635 Si02
#       7
#     2   2   2   2   2   2   2
#     4  11  24  42  64  99 131 162 218 274 316 370
#     4  12  25  43  64  86 133 182 211 259 319 378
#     4   8  16  35  65  93 130 162 206 264 322 380
#     4   9  18  38  69  98 121 163 209 268 333 379
#     4   8  18  36  65  98 126 161 206 272 324 375
#     4  11  23  42  64  95 129 171 218 257 312 389
#     4   9  17  37  65  93 124 169 212 250 327 388
#
# _framework density 25.217499
#
# number of rings (size 3 to 8) (size 9 to 14) (size 15 to 20)
#    0.000    2.286    1.429    3.000    0.000    6.857 
#    2.571    4.286    0.000    0.000    0.000    0.000 
#    0.000    0.000    0.000    0.000    0.000    0.000 
#
# Total GULP energy -78426.188391 kJ/mol
# GULP energy per Si atom -5601.870599 kJ/mol
# Density = 2.516010 g / cm^3
# Si number density = 25.217499 Si / 1000 Ang^3
#
#
#
# Elastic Constant Matrix: (Units=GPa)
#
#
# Indices 1 2 3 4 5 6 
#
# 1 93.1140 28.8645 18.7293 -4.4673 -2.5976 9.2089
# 2 28.8645 101.2249 22.8832 -19.4803 -1.5637 -12.3996
# 3 18.7293 22.8832 89.8472 11.2496 -11.2945 4.7417
# 4 -4.4673 -19.4803 11.2496 41.3357 -9.0506 -7.8462
# 5 -2.5976 -1.5637 -11.2945 -9.0506 22.6451 1.0107
# 6 9.2089 -12.3996 4.7417 -7.8462 1.0107 38.1310
#
#
#
# Elastic Compliance Matrix: (Units=1/GPa)
#
#
# Indices 1 2 3 4 5 6 
#
# 1 0.012641 -0.004061 -0.001196 -0.000981 0.000379 -0.004436
# 2 -0.004061 0.014977 -0.004398 0.009827 0.001929 0.008369
# 3 -0.001196 -0.004398 0.014006 -0.005849 0.004395 -0.004203
# 4 -0.000981 0.009827 -0.005849 0.034829 0.011076 0.011033
# 5 0.000379 0.001929 0.004395 0.011076 0.050914 0.000919
# 6 -0.004436 0.008369 -0.004203 0.011033 0.000919 0.032787
#
#
# Mechanical properties :
#
#
# Convention : Reuss Voigt Hill
#
# Bulk Modulus (GPa) = 44.81265 47.23780 46.02522
# Shear Modulus (GPa) = 26.75205 34.66966 30.71085
#
# Velocity S-wave (km/s) = 3.26061 3.71189 3.49354
# Velocity P-wave (km/s) = 5.65548 6.09456 5.87912
#
# Compressibility (1/GPa) = 0.02231513
#
# Stress axis : x y z
#
# Youngs Moduli (GPa) = 79.10659 66.76818 71.39780
#
# Poissons Ratio (x) = 0.27112 0.08542
# Poissons Ratio (y) = 0.32122 0.31398
# Poissons Ratio (z) = 0.09464 0.29363
#
# Static dielectric constant tensor:
#      x y z
#    x 2.008330 0.006360 -0.076870 
#    y 0.006360 1.982510 -0.013770 
#    z -0.076870 -0.013770 2.026760 
# 
# From -- ./inp_files/190532.got.cif
#   From: 2010.05.17/outbox.cif.g08.bks.cpg/sg2_96_cif.got.tgz:190532.got - 2010.06.03 11:33:40.
