data_PCOD9059867
_publ_section_title
;
Structure prediction by ZEFSAII (Michael W. Deem and Ramdas Pophale) SiO2 
 PCOD9059867
Probable space group: P -1
;
_chemical_formula_sum "Si O2"
_cell_formula_units_Z 16
_cell_length_a 10.601943
_cell_length_b 9.011915
_cell_length_c 11.315404
_cell_angle_alpha 56.582233
_cell_angle_beta 123.870484
_cell_angle_gamma 96.315620
_cell_volume 718.362317
_symmetry_space_group_name_H-M "P -1"
_symmetry_group_IT_number 2
_symmetry_cell_setting 'triclinic'
loop_
_space_group_symop_operation_xyz
x,y,z
-x,-y,-z
loop_
_atom_site_type_symbol
_atom_site_label
_atom_site_fract_x
_atom_site_fract_y
_atom_site_fract_z
Si Si1 0.149550 0.073256 0.029138
Si Si2 0.129767 0.102157 0.561963
Si Si3 0.571892 0.570449 0.192505
Si Si4 0.387743 0.707120 0.267754
Si Si5 0.119994 0.309329 0.692075
Si Si6 0.281396 0.372106 0.397778
Si Si7 0.591689 0.243719 0.206104
Si Si8 0.645316 0.843118 0.704533
O O1 0.222085 0.087853 0.189788
O O2 0.284896 0.915236 0.100680
O O3 0.105486 0.254505 0.844323
O O4 0.000000 0.000000 0.000000
O O5 0.105416 0.147412 0.667488
O O6 0.152989 0.291914 0.433245
O O7 0.293429 0.955711 0.672883
O O8 0.000000 0.000000 0.500000
O O9 0.469317 0.591248 0.247246
O O10 0.702657 0.675010 0.236682
O O11 0.661186 0.365609 0.280336
O O12 0.455097 0.658879 0.986212
O O13 0.274498 0.588722 0.312015
O O14 0.537159 0.715073 0.422491
O O15 0.000000 0.500000 0.500000
O O16 0.280028 0.305080 0.291886
O O17 0.433936 0.237302 0.194066
O O18 0.500000 0.000000 0.500000
#
# Coordination Sequence:
#
# PCOD9059867 Si02
#       8
#     2   2   2   2   2   2   2   2
#     4  12  29  46  71 107 150 193 240 302 367 436
#     4  12  26  44  68 103 148 190 236 292 364 435
#     4  11  23  43  71 100 137 178 242 303 346 430
#     4  11  23  45  71 106 140 185 247 294 363 423
#     4  12  28  47  72 104 143 194 241 302 365 427
#     4  11  24  41  74 105 136 191 237 298 352 441
#     4  11  23  42  70 103 135 183 236 289 358 422
#     4  12  22  44  73 104 138 184 240 291 355 430
#
# _framework density 22.272883
#
# number of rings (size 3 to 8) (size 9 to 14) (size 15 to 20)
#    0.000    0.500    6.250    1.500    3.500    2.000 
#    0.000    0.625    0.000    0.000    0.000    0.000 
#    0.000    0.000    0.000    0.000    0.000    0.000 
#
# Total GULP energy -89375.980437 kJ/mol
# GULP energy per Si atom -5585.998777 kJ/mol
# Density = 2.222219 g / cm^3
# Si number density = 22.272883 Si / 1000 Ang^3
#
#
#
# Elastic Constant Matrix: (Units=GPa)
#
#
# Indices 1 2 3 4 5 6 
#
# 1 63.7759 16.1408 24.6470 11.9940 -6.9860 16.5217
# 2 16.1408 122.1223 42.6304 28.6822 8.5602 10.4038
# 3 24.6470 42.6304 90.5248 6.8590 -4.4800 2.2726
# 4 11.9940 28.6822 6.8590 44.8921 3.2591 2.0334
# 5 -6.9860 8.5602 -4.4800 3.2591 19.2738 0.9948
# 6 16.5217 10.4038 2.2726 2.0334 0.9948 52.6702
#
#
#
# Elastic Compliance Matrix: (Units=1/GPa)
#
#
# Indices 1 2 3 4 5 6 
#
# 1 0.020977 0.000156 -0.004852 -0.005228 0.007618 -0.006343
# 2 0.000156 0.012147 -0.005493 -0.006485 -0.005423 -0.001858
# 3 -0.004852 -0.005493 0.014927 0.002176 0.003689 0.001809
# 4 -0.005228 -0.006485 0.002176 0.027639 -0.003277 0.001822
# 5 0.007618 -0.005423 0.003689 -0.003277 0.058592 -0.002458
# 6 -0.006343 -0.001858 0.001809 0.001822 -0.002458 0.021241
#
#
# Mechanical properties :
#
#
# Convention : Reuss Voigt Hill
#
# Bulk Modulus (GPa) = 36.13821 49.25106 42.69464
# Shear Modulus (GPa) = 27.00866 36.23421 31.62144
#
# Velocity S-wave (km/s) = 3.48605 4.03777 3.77202
# Velocity P-wave (km/s) = 5.69771 6.62561 6.17910
#
# Compressibility (1/GPa) = 0.02767154
#
# Stress axis : x y z
#
# Youngs Moduli (GPa) = 47.67192 82.32432 66.99295
#
# Poissons Ratio (x) = -0.01282 0.32506
# Poissons Ratio (y) = -0.00742 0.36800
# Poissons Ratio (z) = 0.23131 0.45221
#
# Static dielectric constant tensor:
#      x y z
#    x 1.813220 0.041100 -0.030290 
#    y 0.041100 1.925160 -0.031000 
#    z -0.030290 -0.031000 1.851230 
# 
# From -- ./inp_files/414374.got.cif
#   From: 2010.05.17/outbox.cif.g08.bks.cpg/sg2_208_cif.got.tgz:414374.got - 2010.06.03 11:33:40.
