data_PCOD9059997
_publ_section_title
;
Structure prediction by ZEFSAII (Michael W. Deem and Ramdas Pophale) SiO2 
 PCOD9059997
Probable space group: P -1
;
_chemical_formula_sum "Si O2"
_cell_formula_units_Z 14
_cell_length_a 13.468443
_cell_length_b 18.956966
_cell_length_c 8.776384
_cell_angle_alpha 139.260448
_cell_angle_beta 49.675951
_cell_angle_gamma 153.887580
_cell_volume 639.323439
_symmetry_space_group_name_H-M "P -1"
_symmetry_group_IT_number 2
_symmetry_cell_setting 'triclinic'
loop_
_space_group_symop_operation_xyz
x,y,z
-x,-y,-z
loop_
_atom_site_type_symbol
_atom_site_label
_atom_site_fract_x
_atom_site_fract_y
_atom_site_fract_z
Si Si1 0.233908 0.348125 0.000794
Si Si2 0.866720 0.486398 0.489657
Si Si3 0.405695 0.054778 0.170435
Si Si4 0.143459 0.738868 0.344631
Si Si5 0.403213 0.075349 0.865146
Si Si6 0.043221 0.236395 0.675712
Si Si7 0.097277 0.050072 0.152587
O O1 0.076955 0.144314 0.893605
O O2 0.187790 0.342327 0.859121
O O3 0.500000 0.500000 0.000000
O O4 0.167376 0.413886 0.259118
O O5 0.617161 0.274578 0.352083
O O6 0.000000 0.500000 0.500000
O O7 0.006996 0.582479 0.351898
O O8 0.212313 0.950154 0.311202
O O9 0.314294 0.991165 0.985470
O O10 0.500000 0.000000 0.000000
O O11 0.341645 0.795663 0.179537
O O12 0.983823 0.682336 0.281494
O O13 0.270005 0.922506 0.612554
O O14 0.340593 0.158281 0.058084
O O15 0.118275 0.179398 0.422846
O O16 0.000000 0.000000 0.000000
#
# Coordination Sequence:
#
# PCOD9059997 Si02
#       7
#     2   2   2   2   2   2   2
#     4  12  27  48  67 105 142 181 232 294 353 416
#     4  12  27  46  70 104 145 184 233 297 348 408
#     4  12  24  45  74 103 134 185 237 288 355 420
#     4  11  24  46  72 106 139 184 237 292 346 414
#     4  11  23  42  73 100 143 179 237 281 350 417
#     4  12  24  46  75 102 139 189 236 284 351 426
#     4  12  24  45  71 103 138 190 234 279 344 427
#
# _framework density 21.898147999999999
#
# number of rings (size 3 to 8) (size 9 to 14) (size 15 to 20)
#    0.000    0.286    5.714    3.000    4.000    1.714 
#    2.571    1.429    0.000    0.000    0.000    0.000 
#    0.000    0.000    0.000    0.000    0.000    0.000 
#
# Total GULP energy -78263.441622 kJ/mol
# GULP energy per Si atom -5590.245830 kJ/mol
# Density = 2.184831 g / cm^3
# Si number density = 21.898148 Si / 1000 Ang^3
#
#
#
# Elastic Constant Matrix: (Units=GPa)
#
#
# Indices 1 2 3 4 5 6 
#
# 1 167.4559 39.1899 20.5118 -9.4094 5.4283 1.0250
# 2 39.1899 78.1908 9.9701 -6.0945 -3.8485 5.3618
# 3 20.5118 9.9701 81.7206 -13.7325 -7.7918 8.5969
# 4 -9.4094 -6.0945 -13.7325 29.5434 6.8660 3.3010
# 5 5.4283 -3.8485 -7.7918 6.8660 42.7267 -13.2471
# 6 1.0250 5.3618 8.5969 3.3010 -13.2471 37.5780
#
#
#
# Elastic Compliance Matrix: (Units=1/GPa)
#
#
# Indices 1 2 3 4 5 6 
#
# 1 0.007041 -0.003333 -0.001277 0.001370 -0.001692 -0.000141
# 2 -0.003333 0.014816 -0.000397 0.001817 0.000836 -0.001797
# 3 -0.001277 -0.000397 0.014089 0.006307 0.000606 -0.003472
# 4 0.001370 0.001817 0.006307 0.040310 -0.007831 -0.008041
# 5 -0.001692 0.000836 0.000606 -0.007831 0.028305 0.010454
# 6 -0.000141 -0.001797 -0.003472 -0.008041 0.010454 0.032058
#
#
# Mechanical properties :
#
#
# Convention : Reuss Voigt Hill
#
# Bulk Modulus (GPa) = 38.56163 51.85676 45.20919
# Shear Modulus (GPa) = 32.20077 39.14934 35.67505
#
# Velocity S-wave (km/s) = 3.83884 4.23282 4.04063
# Velocity P-wave (km/s) = 6.10710 6.90082 6.51606
#
# Compressibility (1/GPa) = 0.02593252
#
# Stress axis : x y z
#
# Youngs Moduli (GPa) = 142.02919 67.49313 70.97915
#
# Poissons Ratio (x) = 0.22495 0.09063
# Poissons Ratio (y) = 0.47337 0.02818
# Poissons Ratio (z) = 0.18134 0.02679
#
# Static dielectric constant tensor:
#      x y z
#    x 1.797980 0.013620 0.004000 
#    y 0.013620 1.811550 -0.003700 
#    z 0.004000 -0.003700 1.799640 
# 
# From -- ./inp_files/242628.got.cif
#   From: 2010.05.17/outbox.cif.g08.bks.cpg/sg2_122_cif.got.tgz:242628.got - 2010.06.03 11:33:40.
