data_PCOD9059002
_publ_section_title
;
Structure prediction by ZEFSAII (Michael W. Deem and Ramdas Pophale) SiO2 
 PCOD9059002
Probable space group: P -1
;
_chemical_formula_sum "Si O2"
_cell_formula_units_Z 16
_cell_length_a 8.652065
_cell_length_b 9.901821
_cell_length_c 16.923883
_cell_angle_alpha 136.627328
_cell_angle_beta 95.788124
_cell_angle_gamma 108.666147
_cell_volume 809.972049
_symmetry_space_group_name_H-M "P -1"
_symmetry_group_IT_number 2
_symmetry_cell_setting 'triclinic'
loop_
_space_group_symop_operation_xyz
x,y,z
-x,-y,-z
loop_
_atom_site_type_symbol
_atom_site_label
_atom_site_fract_x
_atom_site_fract_y
_atom_site_fract_z
Si Si1 0.525995 0.929274 0.381951
Si Si2 0.367224 0.381952 0.366214
Si Si3 0.837568 0.945148 0.030957
Si Si4 0.465331 0.492497 0.743335
Si Si5 0.907567 0.362082 0.818662
Si Si6 0.126153 0.586206 0.464451
Si Si7 0.046275 0.854308 0.124936
Si Si8 0.137168 0.570367 0.761580
O O1 0.593010 0.755228 0.326117
O O2 0.319006 0.785237 0.268305
O O3 0.500000 0.000000 0.500000
O O4 0.680288 0.149332 0.428028
O O5 0.500000 0.500000 0.500000
O O6 0.480979 0.506450 0.344921
O O7 0.200580 0.419830 0.383093
O O8 0.258903 0.095347 0.228053
O O9 0.903207 0.910350 0.104566
O O10 0.813101 0.161567 0.119647
O O11 0.651128 0.700971 0.887526
O O12 0.000000 0.000000 0.000000
O O13 0.314510 0.556020 0.766481
O O14 0.963089 0.218495 0.815590
O O15 0.002149 0.420900 0.763774
O O16 0.995920 0.621104 0.974247
O O17 0.000000 0.500000 0.500000
O O18 0.983799 0.549902 0.373935
#
# Coordination Sequence:
#
# PCOD9059002 Si02
#       8
#     2   2   2   2   2   2   2   2
#     4  12  23  46  72  97 139 189 235 285 355 427
#     4  12  23  42  68  99 138 187 236 284 355 423
#     4  12  20  45  72  98 134 185 235 289 353 425
#     4  12  25  41  70 104 133 186 236 292 351 424
#     4  11  23  44  70 103 135 186 235 294 350 428
#     4  12  26  44  68 102 141 184 234 292 350 424
#     4  11  23  39  74  98 134 179 242 289 349 415
#     4  12  24  43  68 102 144 179 239 289 356 419
#
# _framework density 19.753769999999999
#
# number of rings (size 3 to 8) (size 9 to 14) (size 15 to 20)
#    0.000    0.250    7.500    1.875    0.000    1.500 
#    0.000    1.875    0.000    0.000    0.000    0.000 
#    0.000    0.000    0.000    0.000    0.000    0.000 
#
# Total GULP energy -89392.524844 kJ/mol
# GULP energy per Si atom -5587.032803 kJ/mol
# Density = 1.970881 g / cm^3
# Si number density = 19.753770 Si / 1000 Ang^3
#
#
#
# Elastic Constant Matrix: (Units=GPa)
#
#
# Indices 1 2 3 4 5 6 
#
# 1 110.4857 49.8397 39.0897 7.9815 -5.8168 -15.0323
# 2 49.8397 154.1265 51.8050 -12.9527 -3.2162 -0.7594
# 3 39.0897 51.8050 105.4876 0.3333 23.5184 1.5449
# 4 7.9815 -12.9527 0.3333 34.2918 -5.8302 5.2537
# 5 -5.8168 -3.2162 23.5184 -5.8302 31.5705 -4.1792
# 6 -15.0323 -0.7594 1.5449 5.2537 -4.1792 40.6571
#
#
#
# Elastic Compliance Matrix: (Units=1/GPa)
#
#
# Indices 1 2 3 4 5 6 
#
# 1 0.013629 -0.002900 -0.005055 -0.004160 0.006052 0.006337
# 2 -0.002900 0.009536 -0.004676 0.005273 0.004774 -0.000907
# 3 -0.005055 -0.004676 0.017092 -0.002749 -0.015152 -0.003808
# 4 -0.004160 0.005273 -0.002749 0.034182 0.007471 -0.004984
# 5 0.006052 0.004774 -0.015152 0.007471 0.046838 0.006752
# 6 0.006337 -0.000907 -0.003808 -0.004984 0.006752 0.028405
#
#
# Mechanical properties :
#
#
# Convention : Reuss Voigt Hill
#
# Bulk Modulus (GPa) = 66.69258 72.39653 69.54455
# Shear Modulus (GPa) = 27.78659 36.59492 32.19076
#
# Velocity S-wave (km/s) = 3.75460 4.30880 4.04121
# Velocity P-wave (km/s) = 7.25474 7.84113 7.55363
#
# Compressibility (1/GPa) = 0.01499417
#
# Stress axis : x y z
#
# Youngs Moduli (GPa) = 73.37298 104.86409 58.50641
#
# Poissons Ratio (x) = 0.30413 0.29575
# Poissons Ratio (y) = 0.21280 0.27360
# Poissons Ratio (z) = 0.37090 0.49038
#
# Static dielectric constant tensor:
#      x y z
#    x 1.655250 -0.021400 -0.003390 
#    y -0.021400 1.752100 0.015970 
#    z -0.003390 0.015970 1.716320 
# 
# From -- ./inp_files/356592.got.cif
#   From: 2010.05.17/outbox.cif.g08.bks.cpg/sg2_179_cif.got.tgz:356592.got - 2010.06.03 11:33:40.
