data_PCOD9059958
_publ_section_title
;
Structure prediction by ZEFSAII (Michael W. Deem and Ramdas Pophale) SiO2 
 PCOD9059958
Probable space group: P -1
;
_chemical_formula_sum "Si O2"
_cell_formula_units_Z 14
_cell_length_a 17.897447
_cell_length_b 11.989333
_cell_length_c 9.453474
_cell_angle_alpha 111.186247
_cell_angle_beta 69.632896
_cell_angle_gamma 160.513165
_cell_volume 630.779118
_symmetry_space_group_name_H-M "P -1"
_symmetry_group_IT_number 2
_symmetry_cell_setting 'triclinic'
loop_
_space_group_symop_operation_xyz
x,y,z
-x,-y,-z
loop_
_atom_site_type_symbol
_atom_site_label
_atom_site_fract_x
_atom_site_fract_y
_atom_site_fract_z
Si Si1 0.398964 0.804897 0.220074
Si Si2 0.479946 0.721703 0.344066
Si Si3 0.295825 0.238052 0.119076
Si Si4 0.683442 0.838498 0.617501
Si Si5 0.395342 0.656246 0.688053
Si Si6 0.121341 0.270742 0.951202
Si Si7 0.948108 0.288953 0.404658
O O1 0.510734 0.885144 0.309083
O O2 0.161226 0.527775 0.300317
O O3 0.552934 0.132108 0.226554
O O4 0.333007 0.622455 0.054318
O O5 0.316170 0.406497 0.221001
O O6 0.372337 0.601260 0.511189
O O7 0.709734 0.968660 0.332468
O O8 0.297059 0.177003 0.242363
O O9 0.500000 0.500000 0.000000
O O10 0.066229 0.892676 0.030412
O O11 0.500000 0.500000 0.500000
O O12 0.602373 0.861698 0.685379
O O13 0.897945 0.143719 0.514169
O O14 0.201278 0.341506 0.776281
O O15 0.000000 0.000000 0.000000
O O16 0.000000 0.500000 0.500000
#
# Coordination Sequence:
#
# PCOD9059958 Si02
#       7
#     2   2   2   2   2   2   2
#     4  12  25  47  72 100 146 180 229 292 343 418
#     4  11  24  44  74 103 137 183 230 291 341 406
#     4  12  25  45  68 104 139 182 232 285 347 411
#     4  11  23  42  71  99 137 177 227 291 335 408
#     4  11  25  46  67 104 136 177 233 287 348 403
#     4  12  27  44  68 100 136 186 228 282 347 413
#     4  11  23  43  70 107 135 177 230 281 352 404
#
# _framework density 22.194773000000001
#
# number of rings (size 3 to 8) (size 9 to 14) (size 15 to 20)
#    0.000    0.571    7.143    2.571    4.000    0.571 
#    0.000    0.714    0.000    0.000    0.000    0.000 
#    0.000    0.000    0.000    0.000    0.000    0.000 
#
# Total GULP energy -78232.785294 kJ/mol
# GULP energy per Si atom -5588.056092 kJ/mol
# Density = 2.214426 g / cm^3
# Si number density = 22.194773 Si / 1000 Ang^3
#
#
#
# Elastic Constant Matrix: (Units=GPa)
#
#
# Indices 1 2 3 4 5 6 
#
# 1 97.2335 1.7630 31.3530 -5.8718 31.6216 -18.4167
# 2 1.7630 59.7260 27.9700 -17.0737 14.9458 -9.9500
# 3 31.3530 27.9700 91.3037 -8.8082 29.3716 -7.7842
# 4 -5.8718 -17.0737 -8.8082 35.9137 -7.2671 -3.1256
# 5 31.6216 14.9458 29.3716 -7.2671 39.1962 -0.6423
# 6 -18.4167 -9.9500 -7.7842 -3.1256 -0.6423 46.9389
#
#
#
# Elastic Compliance Matrix: (Units=1/GPa)
#
#
# Indices 1 2 3 4 5 6 
#
# 1 0.016975 0.006147 -0.002418 0.003024 -0.013541 0.007578
# 2 0.006147 0.025606 -0.005562 0.010762 -0.008437 0.007519
# 3 -0.002418 -0.005562 0.016050 -0.000705 -0.008080 0.000376
# 4 0.003024 0.010762 -0.000705 0.033841 0.000352 0.005609
# 5 -0.013541 -0.008437 -0.008080 0.000352 0.045646 -0.007793
# 6 0.007578 0.007519 0.000376 0.005609 -0.007793 0.026201
#
#
# Mechanical properties :
#
#
# Convention : Reuss Voigt Hill
#
# Bulk Modulus (GPa) = 18.19348 41.15944 29.67646
# Shear Modulus (GPa) = 26.83741 36.88824 31.86283
#
# Velocity S-wave (km/s) = 3.48109 4.08122 3.79304
# Velocity P-wave (km/s) = 4.93684 6.38697 5.70814
#
# Compressibility (1/GPa) = 0.05496475
#
# Stress axis : x y z
#
# Youngs Moduli (GPa) = 58.91186 39.05268 62.30553
#
# Poissons Ratio (x) = -0.24005 0.15066
# Poissons Ratio (y) = -0.36212 0.34653
# Poissons Ratio (z) = 0.14245 0.21721
#
# Static dielectric constant tensor:
#      x y z
#    x 1.832390 0.017240 0.000010 
#    y 0.017240 1.907080 -0.035790 
#    z 0.000010 -0.035790 1.882380 
# 
# From -- ./inp_files/153782.got.cif
#   From: 2010.05.17/outbox.cif.g08.bks.cpg/sg2_77_cif.got.tgz:153782.got - 2010.06.03 11:33:40.
