data_PCOD9059497
_publ_section_title
;
Structure prediction by ZEFSAII (Michael W. Deem and Ramdas Pophale) SiO2 
 PCOD9059497
Probable space group: P -1
;
_chemical_formula_sum "Si O2"
_cell_formula_units_Z 14
_cell_length_a 13.064004
_cell_length_b 12.474032
_cell_length_c 5.998752
_cell_angle_alpha 68.858209
_cell_angle_beta 133.313130
_cell_angle_gamma 113.603505
_cell_volume 646.335917
_symmetry_space_group_name_H-M "P -1"
_symmetry_group_IT_number 2
_symmetry_cell_setting 'triclinic'
loop_
_space_group_symop_operation_xyz
x,y,z
-x,-y,-z
loop_
_atom_site_type_symbol
_atom_site_label
_atom_site_fract_x
_atom_site_fract_y
_atom_site_fract_z
Si Si1 0.269539 0.034277 0.111100
Si Si2 0.457332 0.907059 0.202256
Si Si3 0.085300 0.816595 0.196729
Si Si4 0.190254 0.266583 0.833797
Si Si5 0.720110 0.304613 0.140567
Si Si6 0.990312 0.370060 0.170399
Si Si7 0.422977 0.483178 0.147041
O O1 0.407058 0.078282 0.443446
O O2 0.322421 0.946233 0.086801
O O3 0.135133 0.952411 0.099056
O O4 0.233084 0.152985 0.873166
O O5 0.406104 0.776267 0.130703
O O6 0.500000 0.000000 0.000000
O O7 0.226696 0.780835 0.539700
O O8 0.947903 0.786670 0.176951
O O9 0.044745 0.729206 0.994950
O O10 0.135453 0.351837 0.515351
O O11 0.321768 0.351352 0.094029
O O12 0.860693 0.347943 0.168444
O O13 0.669963 0.416673 0.073512
O O14 0.000000 0.500000 0.000000
O O15 0.500000 0.500000 0.500000
O O16 0.500000 0.500000 0.000000
#
# Coordination Sequence:
#
# PCOD9059497 Si02
#       7
#     2   2   2   2   2   2   2
#     4  11  24  43  69 102 141 178 237 294 363 434
#     4  11  23  41  70 100 138 187 226 287 357 431
#     4  11  23  43  71 101 133 187 233 294 363 431
#     4  11  27  45  68 107 139 184 237 302 360 429
#     4  11  24  45  71 102 136 183 245 290 358 434
#     4  11  24  44  73  96 139 186 236 293 354 428
#     4  12  30  48  75 108 147 194 242 305 370 432
#
# _framework density 21.660561999999999
#
# number of rings (size 3 to 8) (size 9 to 14) (size 15 to 20)
#    0.000    0.857    2.857    3.000    8.000    4.000 
#    0.000    0.000    0.000    0.000    0.000    0.000 
#    0.000    0.000    0.000    0.000    0.000    0.000 
#
# Total GULP energy -78209.961553 kJ/mol
# GULP energy per Si atom -5586.425825 kJ/mol
# Density = 2.161126 g / cm^3
# Si number density = 21.660562 Si / 1000 Ang^3
#
#
#
# Elastic Constant Matrix: (Units=GPa)
#
#
# Indices 1 2 3 4 5 6 
#
# 1 60.6113 7.7836 10.5229 -3.3561 0.3405 -6.9590
# 2 7.7836 132.5536 26.1712 -8.7095 8.3462 1.3977
# 3 10.5229 26.1712 72.9608 -3.4125 -7.0858 5.2763
# 4 -3.3561 -8.7095 -3.4125 39.6972 1.2494 -1.2995
# 5 0.3405 8.3462 -7.0858 1.2494 17.3030 2.2463
# 6 -6.9590 1.3977 5.2763 -1.2995 2.2463 34.3636
#
#
#
# Elastic Compliance Matrix: (Units=1/GPa)
#
#
# Indices 1 2 3 4 5 6 
#
# 1 0.017605 -0.000293 -0.002870 0.001379 -0.002025 0.004202
# 2 -0.000293 0.008763 -0.003635 0.001791 -0.005916 0.000597
# 3 -0.002870 -0.003635 0.016561 -0.000018 0.009056 -0.003569
# 4 0.001379 0.001791 -0.000018 0.025836 -0.002943 0.001379
# 5 -0.002025 -0.005916 0.009056 -0.002943 0.065380 -0.005945
# 6 0.004202 0.000597 -0.003569 0.001379 -0.005945 0.030916
#
#
# Mechanical properties :
#
#
# Convention : Reuss Voigt Hill
#
# Bulk Modulus (GPa) = 34.09284 39.45345 36.77314
# Shear Modulus (GPa) = 26.53441 33.04927 29.79184
#
# Velocity S-wave (km/s) = 3.50381 3.91036 3.71266
# Velocity P-wave (km/s) = 5.66945 6.21626 5.94914
#
# Compressibility (1/GPa) = 0.02933168
#
# Stress axis : x y z
#
# Youngs Moduli (GPa) = 56.80301 114.11684 60.38450
#
# Poissons Ratio (x) = 0.03347 0.17330
# Poissons Ratio (y) = 0.01666 0.21950
# Poissons Ratio (z) = 0.16302 0.41481
#
# Static dielectric constant tensor:
#      x y z
#    x 1.807580 0.068100 -0.048120 
#    y 0.068100 1.655830 0.096460 
#    z -0.048120 0.096460 1.796750 
# 
# From -- ./inp_files/28412.got.cif
#   From: 2010.05.17/outbox.cif.g08.bks.cpg/sg2_15_cif.got.tgz:28412.got - 2010.06.03 11:33:40.
