data_PCOD9059438
_publ_section_title
;
Structure prediction by ZEFSAII (Michael W. Deem and Ramdas Pophale) SiO2 
 PCOD9059438
Probable space group: P -1
;
_chemical_formula_sum "Si O2"
_cell_formula_units_Z 12
_cell_length_a 9.149196
_cell_length_b 13.243260
_cell_length_c 9.535343
_cell_angle_alpha 125.042296
_cell_angle_beta 46.582220
_cell_angle_gamma 95.433984
_cell_volume 593.285683
_symmetry_space_group_name_H-M "P -1"
_symmetry_group_IT_number 2
_symmetry_cell_setting 'triclinic'
loop_
_space_group_symop_operation_xyz
x,y,z
-x,-y,-z
loop_
_atom_site_type_symbol
_atom_site_label
_atom_site_fract_x
_atom_site_fract_y
_atom_site_fract_z
Si Si1 0.364202 0.657737 0.538339
Si Si2 0.470337 0.353630 0.272937
Si Si3 0.171271 0.120987 0.936258
Si Si4 0.277580 0.143870 0.204001
Si Si5 0.129503 0.836667 0.335290
Si Si6 0.549188 0.188233 0.637244
O O1 0.356402 0.512493 0.414226
O O2 0.511092 0.641833 0.568016
O O3 0.470206 0.691964 0.360485
O O4 0.102628 0.787723 0.835820
O O5 0.342356 0.267072 0.249423
O O6 0.730204 0.265153 0.966831
O O7 0.308507 0.194891 0.838590
O O8 0.288555 0.964234 0.667074
O O9 0.213429 0.111683 0.067906
O O10 0.063920 0.188720 0.485862
O O11 0.500000 0.000000 0.000000
O O12 0.319479 0.812259 0.308588
O O13 0.000000 0.000000 0.500000
#
# Coordination Sequence:
#
# PCOD9059438 Si02
#       6
#     2   2   2   2   2   2
#     4  11  25  44  66  90 136 174 206 267 320 386
#     4  11  26  44  63  98 129 170 218 257 327 380
#     4  11  23  41  68  98 125 169 217 263 318 378
#     4  12  23  41  67  97 128 165 214 270 317 376
#     4  12  23  41  67  97 128 165 214 270 317 376
#     4  11  23  41  68  98 125 169 217 263 318 378
#
# _framework density 20.226343
#
# number of rings (size 3 to 8) (size 9 to 14) (size 15 to 20)
#    0.000    0.667    5.000    2.500    0.000    6.667 
#    0.000    3.333    0.000    0.000    0.000    0.000 
#    0.000    0.000    0.000    0.000    0.000    0.000 
#
# Total GULP energy -67152.425579 kJ/mol
# GULP energy per Si atom -5596.035465 kJ/mol
# Density = 2.018031 g / cm^3
# Si number density = 20.226343 Si / 1000 Ang^3
#
#
#
# Elastic Constant Matrix: (Units=GPa)
#
#
# Indices 1 2 3 4 5 6 
#
# 1 40.2364 21.6513 -19.9221 -3.2315 8.1287 -0.8118
# 2 21.6513 124.6195 12.5544 -19.6978 4.1680 -4.2267
# 3 -19.9221 12.5544 38.7002 -19.2671 1.9609 7.2038
# 4 -3.2315 -19.6978 -19.2671 29.7288 8.0363 -0.7351
# 5 8.1287 4.1680 1.9609 8.0363 30.0760 -8.0531
# 6 -0.8118 -4.2267 7.2038 -0.7351 -8.0531 32.9922
#
#
#
# Elastic Compliance Matrix: (Units=1/GPa)
#
#
# Indices 1 2 3 4 5 6 
#
# 1 0.144317 -0.018989 0.161716 0.132806 -0.097113 -0.054937
# 2 -0.018989 0.011757 -0.020402 -0.009878 0.009506 0.007594
# 3 0.161716 -0.020402 0.226988 0.182989 -0.124526 -0.074515
# 4 0.132806 -0.009878 0.182989 0.189279 -0.113480 -0.061435
# 5 -0.097113 0.009506 -0.124526 -0.113480 0.110105 0.050365
# 6 -0.054937 0.007594 -0.074515 -0.061435 0.050365 0.057126
#
#
# Mechanical properties :
#
#
# Convention : Reuss Voigt Hill
#
# Bulk Modulus (GPa) = 1.59308 25.79148 13.69228
# Shear Modulus (GPa) = 7.10066 31.17758 19.13912
#
# Velocity S-wave (km/s) = 1.87569 3.93037 3.07945
# Velocity P-wave (km/s) = 2.34100 5.77721 4.40775
#
# Compressibility (1/GPa) = 0.62771354
#
# Stress axis : x y z
#
# Youngs Moduli (GPa) = 6.92917 85.05517 4.40551
#
# Poissons Ratio (x) = 1.61509 -0.71244
# Poissons Ratio (y) = 0.13158 0.08988
# Poissons Ratio (z) = -1.12056 1.73531
#
# Static dielectric constant tensor:
#      x y z
#    x 1.684570 0.007270 0.002200 
#    y 0.007270 1.713900 -0.012310 
#    z 0.002200 -0.012310 1.695190 
# 
# From -- ./inp_files/148999.got.cif
#   From: 2010.05.17/outbox.cif.g08.bks.cpg/sg2_75_cif.got.tgz:148999.got - 2010.06.03 11:33:40.
