data_PCOD9059011
_publ_section_title
;
Structure prediction by ZEFSAII (Michael W. Deem and Ramdas Pophale) SiO2 
 PCOD9059011
Probable space group: P -1
;
_chemical_formula_sum "Si O2"
_cell_formula_units_Z 16
_cell_length_a 15.961900
_cell_length_b 8.272003
_cell_length_c 5.464576
_cell_angle_alpha 76.321707
_cell_angle_beta 95.472301
_cell_angle_gamma 64.825426
_cell_volume 618.518763
_symmetry_space_group_name_H-M "P -1"
_symmetry_group_IT_number 2
_symmetry_cell_setting 'triclinic'
loop_
_space_group_symop_operation_xyz
x,y,z
-x,-y,-z
loop_
_atom_site_type_symbol
_atom_site_label
_atom_site_fract_x
_atom_site_fract_y
_atom_site_fract_z
Si Si1 0.559535 0.785891 0.532329
Si Si2 0.921075 0.927844 0.041200
Si Si3 0.918624 0.466668 0.739601
Si Si4 0.680326 0.889202 0.200470
Si Si5 0.162489 0.090519 0.472121
Si Si6 0.638424 0.496342 0.032081
Si Si7 0.444411 0.710349 0.197734
Si Si8 0.815289 0.499791 0.202347
O O1 0.624498 0.782509 0.328997
O O2 0.627781 0.672437 0.807082
O O3 0.483849 0.709973 0.479415
O O4 0.500000 0.000000 0.500000
O O5 0.872461 0.981992 0.274889
O O6 0.975907 0.699735 0.143689
O O7 0.852145 0.986053 0.764635
O O8 0.000000 0.000000 0.000000
O O9 0.899372 0.681433 0.641663
O O10 0.879611 0.429831 0.485946
O O11 0.865008 0.448408 0.972134
O O12 0.731386 0.945046 0.413584
O O13 0.764597 0.728484 0.127835
O O14 0.604641 0.073835 0.979386
O O15 0.630879 0.357691 0.879142
O O16 0.543085 0.580331 0.133961
O O17 0.736921 0.424962 0.220447
#
# Coordination Sequence:
#
# PCOD9059011 Si02
#       8
#     2   2   2   2   2   2   2   2
#     4  12  22  40  66  91 125 181 230 283 327 396
#     4  12  26  46  72 102 139 174 216 272 348 416
#     4  11  24  45  73 101 133 176 226 277 339 400
#     4  11  23  43  65  98 129 172 232 276 333 386
#     4  11  24  44  71 102 133 177 223 278 328 411
#     4  11  23  40  60  91 136 173 224 270 344 390
#     4  11  24  40  60  93 130 178 220 280 333 400
#     4  11  23  42  70 101 135 179 229 285 328 404
#
# _framework density 25.868252999999999
#
# number of rings (size 3 to 8) (size 9 to 14) (size 15 to 20)
#    0.000    0.750    2.500    6.375    0.000    3.000 
#    0.000    0.000    0.000    0.000    0.000    0.000 
#    0.000    0.000    0.000    0.000    0.000    0.000 
#
# Total GULP energy -89609.656895 kJ/mol
# GULP energy per Si atom -5600.603556 kJ/mol
# Density = 2.580938 g / cm^3
# Si number density = 25.868253 Si / 1000 Ang^3
#
#
#
# Elastic Constant Matrix: (Units=GPa)
#
#
# Indices 1 2 3 4 5 6 
#
# 1 108.6142 20.9854 58.8991 13.9083 18.0149 9.1811
# 2 20.9854 42.9596 20.6082 3.3045 -7.0898 -5.4224
# 3 58.8991 20.6082 172.9875 13.1531 22.6358 4.2019
# 4 13.9083 3.3045 13.1531 33.3445 10.3747 2.7500
# 5 18.0149 -7.0898 22.6358 10.3747 52.4412 15.7770
# 6 9.1811 -5.4224 4.2019 2.7500 15.7770 37.5436
#
#
#
# Elastic Compliance Matrix: (Units=1/GPa)
#
#
# Indices 1 2 3 4 5 6 
#
# 1 0.012906 -0.005295 -0.003172 -0.002618 -0.002572 -0.002293
# 2 -0.005295 0.028538 -0.002329 -0.001858 0.006068 0.003263
# 3 -0.003172 -0.002329 0.007505 -0.000673 -0.002548 0.000719
# 4 -0.002618 -0.001858 -0.000673 0.033294 -0.005780 0.000437
# 5 -0.002572 0.006068 -0.002548 -0.005780 0.025585 -0.008537
# 6 -0.002293 0.003263 0.000719 0.000437 -0.008537 0.031143
#
#
# Mechanical properties :
#
#
# Convention : Reuss Voigt Hill
#
# Bulk Modulus (GPa) = 36.55419 58.39410 47.47415
# Shear Modulus (GPa) = 29.46693 39.60377 34.53535
#
# Velocity S-wave (km/s) = 3.37874 3.91702 3.65779
# Velocity P-wave (km/s) = 5.42059 6.56354 6.01925
#
# Compressibility (1/GPa) = 0.02735664
#
# Stress axis : x y z
#
# Youngs Moduli (GPa) = 77.48432 35.04116 133.23838
#
# Poissons Ratio (x) = 0.18556 0.42263
# Poissons Ratio (y) = 0.41031 0.31029
# Poissons Ratio (z) = 0.24578 0.08160
#
# Static dielectric constant tensor:
#      x y z
#    x 2.184770 0.041580 -0.031760 
#    y 0.041580 2.111680 0.077010 
#    z -0.031760 0.077010 2.001530 
# 
# From -- ./inp_files/90153.got.cif
#   From: 2010.05.17/outbox.cif.g08.bks.cpg/sg2_46_cif.got.tgz:90153.got - 2010.06.03 11:33:40.
