data_PCOD9059990
_publ_section_title
;
Structure prediction by ZEFSAII (Michael W. Deem and Ramdas Pophale) SiO2 
 PCOD9059990
Probable space group: P -1
;
_chemical_formula_sum "Si O2"
_cell_formula_units_Z 16
_cell_length_a 8.835798
_cell_length_b 15.318984
_cell_length_c 11.466103
_cell_angle_alpha 78.053107
_cell_angle_beta 91.237886
_cell_angle_gamma 148.282655
_cell_volume 761.400430
_symmetry_space_group_name_H-M "P -1"
_symmetry_group_IT_number 2
_symmetry_cell_setting 'triclinic'
loop_
_space_group_symop_operation_xyz
x,y,z
-x,-y,-z
loop_
_atom_site_type_symbol
_atom_site_label
_atom_site_fract_x
_atom_site_fract_y
_atom_site_fract_z
Si Si1 0.949981 0.103288 0.439052
Si Si2 0.826649 0.935964 0.701279
Si Si3 0.836370 0.969331 0.106144
Si Si4 0.664825 0.072656 0.105965
Si Si5 0.743926 0.399757 0.731848
Si Si6 0.812607 0.341572 0.128968
Si Si7 0.317147 0.794718 0.377712
Si Si8 0.257435 0.423723 0.433695
O O1 0.165741 0.139402 0.373648
O O2 0.119722 0.282897 0.379641
O O3 0.909062 0.062128 0.587344
O O4 0.615731 0.932815 0.424376
O O5 0.526281 0.798316 0.809207
O O6 0.074187 0.030028 0.770960
O O7 0.483909 0.769242 0.140595
O O8 0.886826 0.100802 0.082722
O O9 0.000000 0.000000 0.000000
O O10 0.801427 0.235486 0.107030
O O11 0.431529 0.918987 0.243028
O O12 0.500000 0.000000 0.000000
O O13 0.787462 0.351209 0.642620
O O14 0.611940 0.423833 0.671737
O O15 0.028957 0.572154 0.765685
O O16 0.000000 0.500000 0.000000
O O17 0.034379 0.690163 0.469380
O O18 0.500000 0.500000 0.500000
#
# Coordination Sequence:
#
# PCOD9059990 Si02
#       8
#     2   2   2   2   2   2   2   2
#     4  11  23  43  70  96 132 179 225 266 334 407
#     4  11  23  42  72  94 132 175 230 267 327 403
#     4  11  23  46  70  95 130 179 228 272 320 407
#     4  11  23  43  69  93 128 179 228 263 331 406
#     4  11  24  42  64  95 137 169 213 274 340 385
#     4  12  25  44  66  99 134 173 223 283 340 384
#     4  11  23  46  66  91 133 181 218 262 336 410
#     4  12  26  38  65 103 134 163 217 279 334 386
#
# _framework density 21.013909000000002
#
# number of rings (size 3 to 8) (size 9 to 14) (size 15 to 20)
#    0.000    0.750    2.500    6.750    3.500    1.000 
#    2.250    1.250    0.000    0.000    0.000    0.000 
#    0.000    0.000    0.000    0.000    0.000    0.000 
#
# Total GULP energy -89379.428647 kJ/mol
# GULP energy per Si atom -5586.214290 kJ/mol
# Density = 2.096608 g / cm^3
# Si number density = 21.013909 Si / 1000 Ang^3
#
#
#
# Elastic Constant Matrix: (Units=GPa)
#
#
# Indices 1 2 3 4 5 6 
#
# 1 122.8983 61.8820 28.9812 -5.7455 -5.6502 -22.4696
# 2 61.8820 116.3187 9.9112 14.6421 8.7943 -27.7415
# 3 28.9812 9.9112 75.5670 -3.0013 8.8808 -14.2604
# 4 -5.7455 14.6421 -3.0013 34.9055 8.5998 8.3603
# 5 -5.6502 8.7943 8.8808 8.5998 50.9460 3.5446
# 6 -22.4696 -27.7415 -14.2604 8.3603 3.5446 47.0642
#
#
#
# Elastic Compliance Matrix: (Units=1/GPa)
#
#
# Indices 1 2 3 4 5 6 
#
# 1 0.013192 -0.007513 -0.004310 0.004362 0.002804 -0.000422
# 2 -0.007513 0.015679 0.002373 -0.008819 -0.003033 0.008169
# 3 -0.004310 0.002373 0.015867 -0.000466 -0.003890 0.004524
# 4 0.004362 -0.008819 -0.000466 0.036108 -0.003352 -0.009418
# 5 0.002804 -0.003033 -0.003890 -0.003352 0.021894 -0.002681
# 6 -0.000422 0.008169 0.004524 -0.009418 -0.002681 0.029107
#
#
# Mechanical properties :
#
#
# Convention : Reuss Voigt Hill
#
# Bulk Modulus (GPa) = 38.70154 57.37030 48.03592
# Shear Modulus (GPa) = 31.37552 40.85045 36.11299
#
# Velocity S-wave (km/s) = 3.86824 4.41383 4.15001
# Velocity P-wave (km/s) = 6.19743 7.30317 6.77290
#
# Compressibility (1/GPa) = 0.02583877
#
# Stress axis : x y z
#
# Youngs Moduli (GPa) = 75.80629 63.77776 63.02223
#
# Poissons Ratio (x) = 0.47913 0.27161
# Poissons Ratio (y) = 0.56950 -0.14952
# Poissons Ratio (z) = 0.32671 -0.15132
#
# Static dielectric constant tensor:
#      x y z
#    x 1.792660 -0.017270 0.025360 
#    y -0.017270 1.769230 0.013830 
#    z 0.025360 0.013830 1.770820 
# 
# From -- ./inp_files/176119.got.cif
#   From: 2010.05.17/outbox.cif.g08.bks.cpg/sg2_89_cif.got.tgz:176119.got - 2010.06.03 11:33:40.
