data_PCOD9059211
_publ_section_title
;
Structure prediction by ZEFSAII (Michael W. Deem and Ramdas Pophale) SiO2 
 PCOD9059211
Probable space group: P -1
;
_chemical_formula_sum "Si O2"
_cell_formula_units_Z 14
_cell_length_a 8.267753
_cell_length_b 16.993285
_cell_length_c 11.401078
_cell_angle_alpha 127.131007
_cell_angle_beta 72.128398
_cell_angle_gamma 147.395477
_cell_volume 607.623963
_symmetry_space_group_name_H-M "P -1"
_symmetry_group_IT_number 2
_symmetry_cell_setting 'triclinic'
loop_
_space_group_symop_operation_xyz
x,y,z
-x,-y,-z
loop_
_atom_site_type_symbol
_atom_site_label
_atom_site_fract_x
_atom_site_fract_y
_atom_site_fract_z
Si Si1 0.345222 0.266949 0.162914
Si Si2 0.694076 0.647081 0.433090
Si Si3 0.255597 0.972069 0.759125
Si Si4 0.391008 0.671967 0.093044
Si Si5 0.613240 0.304354 0.357338
Si Si6 0.290017 0.925933 0.091516
Si Si7 0.423934 0.531874 0.151659
O O1 0.450298 0.432367 0.313984
O O2 0.573551 0.308664 0.230684
O O3 0.960670 0.078265 0.134964
O O4 0.441034 0.298323 0.032679
O O5 0.557296 0.684194 0.538921
O O6 0.710388 0.668154 0.308901
O O7 0.014290 0.783987 0.564608
O O8 0.557320 0.060401 0.824133
O O9 0.397135 0.122067 0.771530
O O10 0.404696 0.626210 0.174684
O O11 0.000000 0.500000 0.000000
O O12 0.387441 0.091084 0.238070
O O13 0.000000 0.500000 0.500000
O O14 0.500000 0.000000 0.000000
O O15 0.928370 0.694201 0.931819
O O16 0.500000 0.500000 0.000000
#
# Coordination Sequence:
#
# PCOD9059211 Si02
#       7
#     2   2   2   2   2   2   2
#     4  11  23  44  71  99 137 182 232 284 342 413
#     4  11  25  45  69 101 141 181 231 292 344 408
#     4  11  24  46  71 102 135 184 233 286 344 406
#     4  12  26  46  69 102 140 184 229 283 348 418
#     4  11  23  40  71 106 136 178 233 292 340 398
#     4  12  25  45  74 106 139 183 237 281 338 417
#     4  12  27  48  70 100 143 185 230 285 350 418
#
# _framework density 23.040565000000001
#
# number of rings (size 3 to 8) (size 9 to 14) (size 15 to 20)
#    0.000    0.571    2.857    6.429    6.000    0.571 
#    0.000    1.429    0.000    0.000    0.000    0.000 
#    0.000    0.000    0.000    0.000    0.000    0.000 
#
# Total GULP energy -78099.341258 kJ/mol
# GULP energy per Si atom -5578.524376 kJ/mol
# Density = 2.298812 g / cm^3
# Si number density = 23.040565 Si / 1000 Ang^3
#
#
#
# Elastic Constant Matrix: (Units=GPa)
#
#
# Indices 1 2 3 4 5 6 
#
# 1 80.3156 -13.8803 6.8936 8.5562 4.0447 -28.6069
# 2 -13.8803 77.5995 1.9766 13.4287 -11.7749 -14.9557
# 3 6.8936 1.9766 74.8280 -2.9362 12.5530 -12.5429
# 4 8.5562 13.4287 -2.9362 34.5212 -9.8730 -2.6732
# 5 4.0447 -11.7749 12.5530 -9.8730 50.8112 2.3487
# 6 -28.6069 -14.9557 -12.5429 -2.6732 2.3487 34.6813
#
#
#
# Elastic Compliance Matrix: (Units=1/GPa)
#
#
# Indices 1 2 3 4 5 6 
#
# 1 0.023485 0.009772 0.001688 -0.008429 -0.002757 0.023733
# 2 0.009772 0.019299 0.000740 -0.008300 0.001162 0.015932
# 3 0.001688 0.000740 0.015116 0.000001 -0.004042 0.007452
# 4 -0.008429 -0.008300 0.000001 0.035366 0.005999 -0.008212
# 5 -0.002757 0.001162 -0.004042 0.005999 0.022532 -0.004298
# 6 0.023733 0.015932 0.007452 -0.008212 -0.004298 0.057634
#
#
# Mechanical properties :
#
#
# Convention : Reuss Voigt Hill
#
# Bulk Modulus (GPa) = 12.15054 24.74700 18.44877
# Shear Modulus (GPa) = 28.33419 39.85295 34.09357
#
# Velocity S-wave (km/s) = 3.51059 4.16346 3.85088
# Velocity P-wave (km/s) = 4.66018 5.82035 5.27228
#
# Compressibility (1/GPa) = 0.08230089
#
# Stress axis : x y z
#
# Youngs Moduli (GPa) = 42.58038 51.81569 66.15452
#
# Poissons Ratio (x) = -0.50636 -0.11168
# Poissons Ratio (y) = -0.41611 -0.04894
# Poissons Ratio (z) = -0.07189 -0.03833
#
# Static dielectric constant tensor:
#      x y z
#    x 2.119980 -0.069190 0.053960 
#    y -0.069190 1.934690 0.025000 
#    z 0.053960 0.025000 2.015560 
# 
# From -- ./inp_files/159983.got.cif
#   From: 2010.05.17/outbox.cif.g08.bks.cpg/sg2_80_cif.got.tgz:159983.got - 2010.06.03 11:33:40.
