data_PCOD9059715
_publ_section_title
;
Structure prediction by ZEFSAII (Michael W. Deem and Ramdas Pophale) SiO2 
 PCOD9059715
Probable space group: P -1
;
_chemical_formula_sum "Si O2"
_cell_formula_units_Z 16
_cell_length_a 11.547736
_cell_length_b 5.790141
_cell_length_c 13.816997
_cell_angle_alpha 95.183396
_cell_angle_beta 50.028576
_cell_angle_gamma 108.031703
_cell_volume 665.724836
_symmetry_space_group_name_H-M "P -1"
_symmetry_group_IT_number 2
_symmetry_cell_setting 'triclinic'
loop_
_space_group_symop_operation_xyz
x,y,z
-x,-y,-z
loop_
_atom_site_type_symbol
_atom_site_label
_atom_site_fract_x
_atom_site_fract_y
_atom_site_fract_z
Si Si1 0.336104 0.305431 0.617069
Si Si2 0.974967 0.304027 0.090379
Si Si3 0.331200 0.128867 0.811862
Si Si4 0.652857 0.837246 0.734206
Si Si5 0.342361 0.473790 0.965274
Si Si6 0.887279 0.467697 0.347239
Si Si7 0.637954 0.042940 0.558348
Si Si8 0.751449 0.410288 0.771435
O O1 0.500000 0.500000 0.500000
O O2 0.325048 0.324195 0.738922
O O3 0.178460 0.323455 0.650749
O O4 0.358276 0.062219 0.553635
O O5 0.893886 0.331670 0.236692
O O6 0.846616 0.063302 0.103480
O O7 0.000000 0.500000 0.000000
O O8 0.158272 0.360519 0.026565
O O9 0.393438 0.248418 0.886834
O O10 0.468018 0.036232 0.690137
O O11 0.700339 0.120451 0.758030
O O12 0.464545 0.705500 0.854077
O O13 0.690470 0.878841 0.602141
O O14 0.731372 0.636232 0.725423
O O15 0.338391 0.550891 0.080703
O O16 0.062111 0.533769 0.300441
O O17 0.761617 0.314793 0.488959
#
# Coordination Sequence:
#
# PCOD9059715 Si02
#       8
#     2   2   2   2   2   2   2   2
#     4  12  23  42  72 106 151 192 237 295 373 455
#     4  11  23  42  67 109 152 192 239 300 373 453
#     4  12  23  44  75 113 152 196 240 301 380 459
#     4  12  27  50  76 108 144 201 255 320 374 429
#     4  11  25  46  75 107 145 192 252 308 374 451
#     4  11  26  46  71 110 147 197 246 307 369 453
#     4  12  26  44  73 106 150 193 253 298 373 451
#     4  11  29  50  78 107 147 195 257 320 376 428
#
# _framework density 24.033956
#
# number of rings (size 3 to 8) (size 9 to 14) (size 15 to 20)
#    0.000    0.500    2.500    5.250    3.500    4.000 
#    0.000    0.000    0.000    0.000    0.000    0.000 
#    0.000    0.000    0.000    0.000    0.000    0.000 
#
# Total GULP energy -89226.963635 kJ/mol
# GULP energy per Si atom -5576.685227 kJ/mol
# Density = 2.397925 g / cm^3
# Si number density = 24.033956 Si / 1000 Ang^3
#
#
#
# Elastic Constant Matrix: (Units=GPa)
#
#
# Indices 1 2 3 4 5 6 
#
# 1 107.1015 66.2300 50.4604 1.4081 -7.0119 -8.7526
# 2 66.2300 125.0446 27.8233 -0.3107 -2.0146 12.8519
# 3 50.4604 27.8233 66.8458 -15.5901 4.0569 -3.2165
# 4 1.4081 -0.3107 -15.5901 45.3389 -1.8733 1.9414
# 5 -7.0119 -2.0146 4.0569 -1.8733 39.5058 5.0986
# 6 -8.7526 12.8519 -3.2165 1.9414 5.0986 40.0627
#
#
#
# Elastic Compliance Matrix: (Units=1/GPa)
#
#
# Indices 1 2 3 4 5 6 
#
# 1 0.023126 -0.009604 -0.014774 -0.005988 0.003979 0.006731
# 2 -0.009604 0.013347 0.001700 0.001229 -0.000332 -0.006260
# 3 -0.014774 0.001700 0.027944 0.009943 -0.004752 -0.001406
# 4 -0.005988 0.001229 0.009943 0.025737 -0.000532 -0.002083
# 5 0.003979 -0.000332 -0.004752 -0.000532 0.026825 -0.002794
# 6 0.006731 -0.006260 -0.001406 -0.002083 -0.002794 0.028783
#
#
# Mechanical properties :
#
#
# Convention : Reuss Voigt Hill
#
# Bulk Modulus (GPa) = 52.46243 65.33548 58.89896
# Shear Modulus (GPa) = 25.32005 35.28002 30.30003
#
# Velocity S-wave (km/s) = 3.24931 3.83551 3.55451
# Velocity P-wave (km/s) = 5.99610 6.84533 6.43474
#
# Compressibility (1/GPa) = 0.01906126
#
# Stress axis : x y z
#
# Youngs Moduli (GPa) = 43.24184 74.92464 35.78527
#
# Poissons Ratio (x) = 0.71956 0.52869
# Poissons Ratio (y) = 0.41529 -0.06083
# Poissons Ratio (z) = 0.63885 -0.12736
#
# Static dielectric constant tensor:
#      x y z
#    x 2.425640 -0.528040 -0.292470 
#    y -0.528040 2.767030 0.342630 
#    z -0.292470 0.342630 2.054810 
# 
# From -- ./inp_files/510939.got.cif
#   From: 2010.05.17/outbox.cif.g08.bks.cpg/sg2_256_cif.got.tgz:510939.got - 2010.06.03 11:33:40.
