data_PCOD9059813
_publ_section_title
;
Structure prediction by ZEFSAII (Michael W. Deem and Ramdas Pophale) SiO2 
 PCOD9059813
Probable space group: P -1
;
_chemical_formula_sum "Si O2"
_cell_formula_units_Z 16
_cell_length_a 5.418875
_cell_length_b 11.913865
_cell_length_c 10.722621
_cell_angle_alpha 74.399305
_cell_angle_beta 113.611874
_cell_angle_gamma 107.408943
_cell_volume 596.374556
_symmetry_space_group_name_H-M "P -1"
_symmetry_group_IT_number 2
_symmetry_cell_setting 'triclinic'
loop_
_space_group_symop_operation_xyz
x,y,z
-x,-y,-z
loop_
_atom_site_type_symbol
_atom_site_label
_atom_site_fract_x
_atom_site_fract_y
_atom_site_fract_z
Si Si1 0.676052 0.477926 0.193390
Si Si2 0.902705 0.076595 0.660662
Si Si3 0.054562 0.703610 0.543182
Si Si4 0.466788 0.415865 0.636976
Si Si5 0.947609 0.814044 0.729806
Si Si6 0.762186 0.691548 0.987931
Si Si7 0.538160 0.130989 0.029289
Si Si8 0.571350 0.176375 0.761628
O O1 0.801949 0.393855 0.337747
O O2 0.469322 0.526447 0.231852
O O3 0.544664 0.389143 0.082816
O O4 0.855387 0.595470 0.126562
O O5 0.798534 0.165264 0.515742
O O6 0.745878 0.096380 0.749497
O O7 0.239629 0.119677 0.717871
O O8 0.843057 0.936449 0.662795
O O9 0.861008 0.642298 0.411170
O O10 0.882487 0.739471 0.614164
O O11 0.500000 0.500000 0.500000
O O12 0.599541 0.304496 0.667335
O O13 0.853432 0.732172 0.854764
O O14 0.274634 0.856317 0.814357
O O15 0.721410 0.812110 0.011335
O O16 0.680575 0.203896 0.916358
O O17 0.500000 0.000000 0.000000
#
# Coordination Sequence:
#
# PCOD9059813 Si02
#       8
#     2   2   2   2   2   2   2   2
#     4  11  23  47  70 103 153 187 250 304 372 439
#     4  11  26  48  73 108 149 195 247 310 365 449
#     4  11  25  45  70 107 144 194 249 304 373 441
#     4  11  23  42  69 103 143 196 244 303 363 444
#     4  12  26  44  72 106 144 196 246 304 378 439
#     4  11  26  45  71 107 147 190 243 314 367 443
#     4  12  24  45  71 102 146 186 245 304 368 439
#     4  11  25  45  72 107 144 190 252 300 374 432
#
# _framework density 26.828773999999999
#
# number of rings (size 3 to 8) (size 9 to 14) (size 15 to 20)
#    0.000    0.750    3.750    3.000    1.750    4.500 
#    0.000    3.750    0.000    0.000    0.000    0.000 
#    0.000    0.000    0.000    0.000    0.000    0.000 
#
# Total GULP energy -89428.531014 kJ/mol
# GULP energy per Si atom -5589.283188 kJ/mol
# Density = 2.676771 g / cm^3
# Si number density = 26.828774 Si / 1000 Ang^3
#
#
#
# Elastic Constant Matrix: (Units=GPa)
#
#
# Indices 1 2 3 4 5 6 
#
# 1 89.8389 30.0984 12.7387 10.1610 -7.6386 -13.6592
# 2 30.0984 122.6200 40.1837 -8.0183 11.7446 -20.5024
# 3 12.7387 40.1837 104.4209 -16.6263 -12.7294 8.7731
# 4 10.1610 -8.0183 -16.6263 50.5325 -7.6113 -7.0208
# 5 -7.6386 11.7446 -12.7294 -7.6113 48.6367 1.6724
# 6 -13.6592 -20.5024 8.7731 -7.0208 1.6724 44.4873
#
#
#
# Elastic Compliance Matrix: (Units=1/GPa)
#
#
# Indices 1 2 3 4 5 6 
#
# 1 0.013064 -0.002907 -0.000862 -0.002744 0.002019 0.002332
# 2 -0.002907 0.012130 -0.005270 0.000889 -0.004834 0.006059
# 3 -0.000862 -0.005270 0.013402 0.003879 0.005421 -0.004928
# 4 -0.002744 0.000889 0.003879 0.022646 0.003837 0.002232
# 5 0.002019 -0.004834 0.005421 0.003837 0.024167 -0.002980
# 6 0.002332 0.006059 -0.004928 0.002232 -0.002980 0.027423
#
#
# Mechanical properties :
#
#
# Convention : Reuss Voigt Hill
#
# Bulk Modulus (GPa) = 48.73674 53.65794 51.19734
# Shear Modulus (GPa) = 36.29778 44.32190 40.30984
#
# Velocity S-wave (km/s) = 3.68223 4.06892 3.88040
# Velocity P-wave (km/s) = 6.02359 6.48987 6.26107
#
# Compressibility (1/GPa) = 0.02051840
#
# Stress axis : x y z
#
# Youngs Moduli (GPa) = 76.54799 82.43903 74.61375
#
# Poissons Ratio (x) = 0.23965 0.06430
# Poissons Ratio (y) = 0.22252 0.39323
# Poissons Ratio (z) = 0.06596 0.43447
#
# Static dielectric constant tensor:
#      x y z
#    x 2.273040 0.140320 0.055330 
#    y 0.140320 2.107450 -0.039720 
#    z 0.055330 -0.039720 2.125550 
# 
# From -- ./inp_files/364133.got.cif
#   From: 2010.05.17/outbox.cif.g08.bks.cpg/sg2_183_cif.got.tgz:364133.got - 2010.06.03 11:33:40.
