data_PCOD9059944
_publ_section_title
;
Structure prediction by ZEFSAII (Michael W. Deem and Ramdas Pophale) SiO2 
 PCOD9059944
Probable space group: P -1
;
_chemical_formula_sum "Si O2"
_cell_formula_units_Z 16
_cell_length_a 5.307710
_cell_length_b 15.885907
_cell_length_c 12.271428
_cell_angle_alpha 118.595402
_cell_angle_beta 88.079757
_cell_angle_gamma 57.043359
_cell_volume 699.022848
_symmetry_space_group_name_H-M "P -1"
_symmetry_group_IT_number 2
_symmetry_cell_setting 'triclinic'
loop_
_space_group_symop_operation_xyz
x,y,z
-x,-y,-z
loop_
_atom_site_type_symbol
_atom_site_label
_atom_site_fract_x
_atom_site_fract_y
_atom_site_fract_z
Si Si1 0.760140 0.111512 0.350571
Si Si2 0.378506 0.382554 0.434204
Si Si3 0.552497 0.408296 0.683643
Si Si4 0.724077 0.155168 0.887616
Si Si5 0.200316 0.147764 0.509361
Si Si6 0.503698 0.371341 0.176839
Si Si7 0.066600 0.432034 0.843428
Si Si8 0.138578 0.209229 0.785825
O O1 0.519460 0.243320 0.374632
O O2 0.520014 0.097093 0.406162
O O3 0.991724 0.112932 0.434422
O O4 0.002076 0.993068 0.196279
O O5 0.464709 0.417803 0.564466
O O6 0.522640 0.368911 0.304695
O O7 0.000000 0.500000 0.500000
O O8 0.387117 0.548180 0.812176
O O9 0.423837 0.357232 0.736674
O O10 0.944833 0.299979 0.599366
O O11 0.413447 0.179525 0.849053
O O12 0.881322 0.198707 0.834566
O O13 0.644787 0.238485 0.045809
O O14 0.279069 0.125766 0.622894
O O15 0.147089 0.467359 0.186272
O O16 0.980804 0.345602 0.828259
O O17 0.000000 0.500000 0.000000
#
# Coordination Sequence:
#
# PCOD9059944 Si02
#       8
#     2   2   2   2   2   2   2   2
#     4  11  26  47  68 103 140 181 238 290 342 417
#     4  11  23  46  75 102 132 179 240 301 349 398
#     4  11  23  42  71 108 136 176 236 298 352 398
#     4  12  28  44  67 101 145 191 232 273 351 430
#     4  11  23  43  74  99 138 185 233 292 342 400
#     4  12  25  41  70 102 141 185 230 287 353 414
#     4  12  23  40  67 106 146 179 225 287 350 419
#     4  12  24  43  70 103 142 189 232 282 346 414
#
# _framework density 22.889095999999999
#
# number of rings (size 3 to 8) (size 9 to 14) (size 15 to 20)
#    0.000    0.500    3.750    5.625    0.000    5.500 
#    0.000    0.000    0.000    6.000    0.000    0.000 
#    0.000    0.000    0.000    0.000    0.000    0.000 
#
# Total GULP energy -89251.784005 kJ/mol
# GULP energy per Si atom -5578.236500 kJ/mol
# Density = 2.283700 g / cm^3
# Si number density = 22.889096 Si / 1000 Ang^3
#
#
#
# Elastic Constant Matrix: (Units=GPa)
#
#
# Indices 1 2 3 4 5 6 
#
# 1 90.0201 23.3626 3.0182 -7.2382 6.1365 -1.0892
# 2 23.3626 98.9402 32.1537 10.8657 11.5227 2.4100
# 3 3.0182 32.1537 110.6486 16.3306 12.2660 -2.2884
# 4 -7.2382 10.8657 16.3306 45.5114 9.6959 0.7235
# 5 6.1365 11.5227 12.2660 9.6959 26.1482 -1.7561
# 6 -1.0892 2.4100 -2.2884 0.7235 -1.7561 23.5138
#
#
#
# Elastic Compliance Matrix: (Units=1/GPa)
#
#
# Indices 1 2 3 4 5 6 
#
# 1 0.012350 -0.003081 0.000424 0.003148 -0.002865 0.000618
# 2 -0.003081 0.012367 -0.002979 -0.001746 -0.002806 -0.001856
# 3 0.000424 -0.002979 0.010585 -0.002451 -0.002761 0.001224
# 4 0.003148 -0.001746 -0.002451 0.025579 -0.008394 -0.001328
# 5 -0.002865 -0.002806 -0.002761 -0.008394 0.044795 0.003490
# 6 0.000618 -0.001856 0.001224 -0.001328 0.003490 0.043168
#
#
# Mechanical properties :
#
#
# Convention : Reuss Voigt Hill
#
# Bulk Modulus (GPa) = 41.61579 46.29753 43.95666
# Shear Modulus (GPa) = 29.73988 35.10631 32.42310
#
# Velocity S-wave (km/s) = 3.60850 3.92057 3.76777
# Velocity P-wave (km/s) = 5.96512 6.38477 6.17851
#
# Compressibility (1/GPa) = 0.02402934
#
# Stress axis : x y z
#
# Youngs Moduli (GPa) = 80.97171 80.86276 94.47452
#
# Poissons Ratio (x) = 0.24915 -0.04008
# Poissons Ratio (y) = 0.24949 0.28146
# Poissons Ratio (z) = -0.03435 0.24091
#
# Static dielectric constant tensor:
#      x y z
#    x 1.998950 -0.019250 0.057280 
#    y -0.019250 1.868080 0.050570 
#    z 0.057280 0.050570 1.892750 
# 
# From -- ./inp_files/369498.got.cif
#   From: 2010.05.17/outbox.cif.g08.bks.cpg/sg2_185_cif.got.tgz:369498.got - 2010.06.03 11:33:40.
