data_PCOD9059445
_publ_section_title
;
Structure prediction by ZEFSAII (Michael W. Deem and Ramdas Pophale) SiO2 
 PCOD9059445
Probable space group: P -1
;
_chemical_formula_sum "Si O2"
_cell_formula_units_Z 12
_cell_length_a 9.842628
_cell_length_b 11.215506
_cell_length_c 7.495203
_cell_angle_alpha 38.786471
_cell_angle_beta 101.755922
_cell_angle_gamma 92.555174
_cell_volume 498.545255
_symmetry_space_group_name_H-M "P -1"
_symmetry_group_IT_number 2
_symmetry_cell_setting 'triclinic'
loop_
_space_group_symop_operation_xyz
x,y,z
-x,-y,-z
loop_
_atom_site_type_symbol
_atom_site_label
_atom_site_fract_x
_atom_site_fract_y
_atom_site_fract_z
Si Si1 0.381635 0.859899 0.943477
Si Si2 0.354334 0.625241 0.881410
Si Si3 0.337161 0.974709 0.198365
Si Si4 0.074277 0.535660 0.763264
Si Si5 0.972067 0.795489 0.104020
Si Si6 0.087425 0.092269 0.562404
O O1 0.359553 0.677068 0.032041
O O2 0.531609 0.915264 0.874868
O O3 0.253442 0.031230 0.651538
O O4 0.365895 0.854689 0.159855
O O5 0.330707 0.828190 0.529813
O O6 0.225565 0.524394 0.906871
O O7 0.500000 0.500000 0.000000
O O8 0.191777 0.130564 0.974478
O O9 0.034358 0.338355 0.915743
O O10 0.066230 0.659657 0.431110
O O11 0.962661 0.681633 0.681280
O O12 0.043348 0.974882 0.858553
O O13 0.000000 0.000000 0.500000
#
# Coordination Sequence:
#
# PCOD9059445 Si02
#       6
#     2   2   2   2   2   2
#     4  11  24  41  69 101 129 179 224 272 339 395
#     4  12  25  44  66  97 140 177 223 276 335 398
#     4  11  23  45  70  95 136 180 219 276 337 393
#     4  11  23  41  69 100 125 178 225 266 333 398
#     4  11  23  43  72  95 134 177 220 275 334 395
#     4  12  22  42  67  98 138 170 221 279 329 395
#
# _framework density 24.070032000000001
#
# number of rings (size 3 to 8) (size 9 to 14) (size 15 to 20)
#    0.000    0.667    5.000    3.000    0.000    2.667 
#    3.000    0.000    0.000    0.000    0.000    0.000 
#    0.000    0.000    0.000    0.000    0.000    0.000 
#
# Total GULP energy -67216.660553 kJ/mol
# GULP energy per Si atom -5601.388379 kJ/mol
# Density = 2.401525 g / cm^3
# Si number density = 24.070032 Si / 1000 Ang^3
#
#
#
# Elastic Constant Matrix: (Units=GPa)
#
#
# Indices 1 2 3 4 5 6 
#
# 1 141.0885 39.7833 28.6605 -8.2562 34.7480 19.8158
# 2 39.7833 173.9185 20.0513 2.3832 19.6200 2.3650
# 3 28.6605 20.0513 58.7173 -8.2334 1.4562 7.7847
# 4 -8.2562 2.3832 -8.2334 47.3744 -6.1403 3.9251
# 5 34.7480 19.6200 1.4562 -6.1403 48.7123 3.6169
# 6 19.8158 2.3650 7.7847 3.9251 3.6169 41.0360
#
#
#
# Elastic Compliance Matrix: (Units=1/GPa)
#
#
# Indices 1 2 3 4 5 6 
#
# 1 0.010351 -0.001147 -0.003922 0.000649 -0.006450 -0.003682
# 2 -0.001147 0.006450 -0.001867 -0.001167 -0.001932 0.000818
# 3 -0.003922 -0.001867 0.020335 0.003618 0.003585 -0.002518
# 4 0.000649 -0.001167 0.003618 0.022575 0.002994 -0.003356
# 5 -0.006450 -0.001932 0.003585 0.002994 0.026181 -0.000048
# 6 -0.003682 0.000818 -0.002518 -0.003356 -0.000048 0.026903
#
#
# Mechanical properties :
#
#
# Convention : Reuss Voigt Hill
#
# Bulk Modulus (GPa) = 42.98321 61.19050 52.08685
# Shear Modulus (GPa) = 37.19627 46.43982 41.81804
#
# Velocity S-wave (km/s) = 3.93534 4.39722 4.17267
# Velocity P-wave (km/s) = 6.20850 7.15945 6.70087
#
# Compressibility (1/GPa) = 0.02326490
#
# Stress axis : x y z
#
# Youngs Moduli (GPa) = 96.60536 155.03308 49.17663
#
# Poissons Ratio (x) = 0.17781 0.19286
# Poissons Ratio (y) = 0.11080 0.09182
# Poissons Ratio (z) = 0.37887 0.28946
#
# Static dielectric constant tensor:
#      x y z
#    x 1.859270 -0.063050 -0.033120 
#    y -0.063050 1.984360 0.069110 
#    z -0.033120 0.069110 1.955040 
# 
# From -- ./inp_files/165720.got.cif
#   From: 2010.05.17/outbox.cif.g08.bks.cpg/sg2_83_cif.got.tgz:165720.got - 2010.06.03 11:33:40.
