data_PCOD9059307
_publ_section_title
;
Structure prediction by ZEFSAII (Michael W. Deem and Ramdas Pophale) SiO2 
 PCOD9059307
Probable space group: P -1
;
_chemical_formula_sum "Si O2"
_cell_formula_units_Z 9
_cell_length_a 9.649015
_cell_length_b 7.616113
_cell_length_c 7.492472
_cell_angle_alpha 117.194348
_cell_angle_beta 93.068590
_cell_angle_gamma 131.697863
_cell_volume 308.159841
_symmetry_space_group_name_H-M "P -1"
_symmetry_group_IT_number 2
_symmetry_cell_setting 'triclinic'
loop_
_space_group_symop_operation_xyz
x,y,z
-x,-y,-z
loop_
_atom_site_type_symbol
_atom_site_label
_atom_site_fract_x
_atom_site_fract_y
_atom_site_fract_z
Si Si1 0.757256 0.493585 0.419962
Si Si2 0.942196 0.210799 0.918166
Si Si3 0.424022 0.688277 0.322063
Si Si4 0.000000 0.000000 0.500000
Si Si5 0.751989 0.012252 0.190655
O O1 0.598217 0.397326 0.513461
O O2 0.761168 0.602647 0.284200
O O3 0.756488 0.257581 0.306096
O O4 0.024246 0.835527 0.632203
O O5 0.170889 0.394807 0.107932
O O6 0.882848 0.026061 0.652444
O O7 0.000000 0.500000 0.000000
O O8 0.771647 0.997916 0.973802
O O9 0.500000 0.000000 0.500000
O O10 0.569296 0.765113 0.209343
#
# Coordination Sequence:
#
# PCOD9059307 Si02
#       5
#     2   2   2   1   2
#     4   9  19  38  63  91 125 165 203 258 309 368
#     4  11  23  41  65  92 129 168 199 260 318 360
#     4   9  20  39  69  92 117 171 216 245 307 381
#     4  12  24  40  62  98 132 156 210 260 312 370
#     4   9  18  40  67  85 122 172 209 245 312 373
#
# _framework density 29.205624
#
# number of rings (size 3 to 8) (size 9 to 14) (size 15 to 20)
#    0.000    2.222    2.222    1.333    0.000    4.444 
#    0.000    6.667    0.000    0.000    0.000    0.000 
#    0.000    0.000    0.000    0.000    0.000    0.000 
#
# Total GULP energy -50198.544019 kJ/mol
# GULP energy per Si atom -5577.616002 kJ/mol
# Density = 2.913915 g / cm^3
# Si number density = 29.205624 Si / 1000 Ang^3
#
#
#
# Elastic Constant Matrix: (Units=GPa)
#
#
# Indices 1 2 3 4 5 6 
#
# 1 113.6449 78.7594 66.5672 -13.3612 -21.5011 0.3811
# 2 78.7594 276.3829 42.8158 -67.8589 -32.7840 53.2617
# 3 66.5672 42.8158 156.0548 -47.3787 -24.4299 14.2562
# 4 -13.3612 -67.8589 -47.3787 62.2982 -8.1470 -27.2097
# 5 -21.5011 -32.7840 -24.4299 -8.1470 58.7719 -0.0972
# 6 0.3811 53.2617 14.2562 -27.2097 -0.0972 72.0609
#
#
#
# Elastic Compliance Matrix: (Units=1/GPa)
#
#
# Indices 1 2 3 4 5 6 
#
# 1 0.017121 -0.006699 -0.009019 -0.009477 -0.002531 0.003063
# 2 -0.006699 0.008974 0.005260 0.011782 0.006369 -0.003180
# 3 -0.009019 0.005260 0.014969 0.015888 0.008058 -0.000792
# 4 -0.009477 0.011782 0.015888 0.042918 0.015666 0.004425
# 5 -0.002531 0.006369 0.008058 0.015666 0.025163 -0.000339
# 6 0.003063 -0.003180 -0.000792 0.004425 -0.000339 0.018039
#
#
# Mechanical properties :
#
#
# Convention : Reuss Voigt Hill
#
# Bulk Modulus (GPa) = 49.62940 102.48528 76.05734
# Shear Modulus (GPa) = 32.29672 62.48888 47.39280
#
# Velocity S-wave (km/s) = 3.32902 4.63062 4.03268
# Velocity P-wave (km/s) = 5.63973 7.98482 6.91245
#
# Compressibility (1/GPa) = 0.02014935
#
# Stress axis : x y z
#
# Youngs Moduli (GPa) = 58.40624 111.43902 66.80378
#
# Poissons Ratio (x) = 0.74656 0.60247
# Poissons Ratio (y) = 0.39128 -0.35141
# Poissons Ratio (z) = 0.52674 -0.58621
#
# Static dielectric constant tensor:
#      x y z
#    x 4.048500 -2.591830 0.919770 
#    y -2.591830 6.547490 -1.361000 
#    z 0.919770 -1.361000 2.766050 
# 
# From -- ./inp_files/136465.got.cif
#   From: 2010.05.17/outbox.cif.g08.bks.cpg/sg2_69_cif.got.tgz:136465.got - 2010.06.03 11:33:40.
