data_PCOD9059765
_publ_section_title
;
Structure prediction by ZEFSAII (Michael W. Deem and Ramdas Pophale) SiO2 
 PCOD9059765
Probable space group: P -1
;
_chemical_formula_sum "Si O2"
_cell_formula_units_Z 16
_cell_length_a 16.504380
_cell_length_b 10.503525
_cell_length_c 6.452762
_cell_angle_alpha 62.434323
_cell_angle_beta 115.159556
_cell_angle_gamma 131.768197
_cell_volume 727.953942
_symmetry_space_group_name_H-M "P -1"
_symmetry_group_IT_number 2
_symmetry_cell_setting 'triclinic'
loop_
_space_group_symop_operation_xyz
x,y,z
-x,-y,-z
loop_
_atom_site_type_symbol
_atom_site_label
_atom_site_fract_x
_atom_site_fract_y
_atom_site_fract_z
Si Si1 0.622020 0.064570 0.023566
Si Si2 0.892487 0.695124 0.908277
Si Si3 0.509541 0.842119 0.703045
Si Si4 0.817085 0.380460 0.781190
Si Si5 0.137169 0.904393 0.063491
Si Si6 0.775348 0.791912 0.400657
Si Si7 0.322686 0.104022 0.462211
Si Si8 0.729918 0.501221 0.254145
O O1 0.681196 0.046416 0.294592
O O2 0.697997 0.256615 0.859928
O O3 0.500000 0.000000 0.000000
O O4 0.598251 0.927092 0.920477
O O5 0.890818 0.544850 0.889528
O O6 0.863986 0.790430 0.638317
O O7 0.795891 0.601094 0.044097
O O8 0.011421 0.823465 0.044475
O O9 0.562912 0.799122 0.610814
O O10 0.392340 0.675537 0.776921
O O11 0.500000 0.000000 0.500000
O O12 0.853891 0.253871 0.871760
O O13 0.798210 0.445449 0.497414
O O14 0.221863 0.013447 0.259971
O O15 0.169195 0.030432 0.805835
O O16 0.688709 0.778227 0.477255
O O17 0.724758 0.632521 0.302669
#
# Coordination Sequence:
#
# PCOD9059765 Si02
#       8
#     2   2   2   2   2   2   2   2
#     4  12  22  39  70 103 138 180 223 278 349 415
#     4  11  27  45  73 101 142 191 227 296 356 409
#     4  12  22  42  71 104 140 183 228 287 350 420
#     4  11  23  42  68 107 141 172 235 293 347 418
#     4  12  25  47  72 104 140 185 241 287 353 421
#     4  11  26  48  70 100 143 186 242 288 340 426
#     4  12  24  42  72 102 136 189 232 285 345 415
#     4  11  25  46  68 106 145 180 237 287 352 419
#
# _framework density 21.979410999999999
#
# number of rings (size 3 to 8) (size 9 to 14) (size 15 to 20)
#    0.000    0.500    5.000    2.250    1.750    6.000 
#    0.000    4.375    0.000    0.000    0.000    0.000 
#    0.000    0.000    0.000    0.000    0.000    0.000 
#
# Total GULP energy -89550.202027 kJ/mol
# GULP energy per Si atom -5596.887627 kJ/mol
# Density = 2.192939 g / cm^3
# Si number density = 21.979411 Si / 1000 Ang^3
#
#
#
# Elastic Constant Matrix: (Units=GPa)
#
#
# Indices 1 2 3 4 5 6 
#
# 1 80.7452 48.1723 24.4185 -1.3278 -6.8868 -7.9618
# 2 48.1723 60.3648 40.5248 3.1877 8.4131 1.3623
# 3 24.4185 40.5248 129.2132 1.0105 -0.1688 0.3104
# 4 -1.3278 3.1877 1.0105 26.7404 -2.2060 5.4811
# 5 -6.8868 8.4131 -0.1688 -2.2060 25.5234 0.5418
# 6 -7.9618 1.3623 0.3104 5.4811 0.5418 43.6592
#
#
#
# Elastic Compliance Matrix: (Units=1/GPa)
#
#
# Indices 1 2 3 4 5 6 
#
# 1 0.032387 -0.031494 0.003724 0.005619 0.019505 0.005915
# 2 -0.031494 0.053171 -0.010679 -0.008486 -0.026703 -0.005930
# 3 0.003724 -0.010679 0.010379 0.001306 0.004691 0.000716
# 4 0.005619 -0.008486 0.001306 0.040076 0.007867 -0.003849
# 5 0.019505 -0.026703 0.004691 0.007867 0.053898 0.002700
# 6 0.005915 -0.005930 0.000716 -0.003849 0.002700 0.024613
#
#
# Mechanical properties :
#
#
# Convention : Reuss Voigt Hill
#
# Bulk Modulus (GPa) = 52.52099 55.17274 53.84686
# Shear Modulus (GPa) = 16.79166 29.66511 23.22838
#
# Velocity S-wave (km/s) = 2.76700 3.67778 3.25441
# Velocity P-wave (km/s) = 5.84430 6.57201 6.21881
#
# Compressibility (1/GPa) = 0.01904001
#
# Stress axis : x y z
#
# Youngs Moduli (GPa) = 30.87672 18.80714 96.35210
#
# Poissons Ratio (x) = 0.59232 -0.35885
# Poissons Ratio (y) = 0.97244 1.02890
# Poissons Ratio (z) = -0.11500 0.20083
#
# Static dielectric constant tensor:
#      x y z
#    x 1.827520 -0.027160 -0.010480 
#    y -0.027160 1.782260 0.011510 
#    z -0.010480 0.011510 1.807170 
# 
# From -- ./inp_files/109597.got.cif
#   From: 2010.05.17/outbox.cif.g08.bks.cpg/sg2_55_cif.got.tgz:109597.got - 2010.06.03 11:33:40.
