data_PCOD9059005
_publ_section_title
;
Structure prediction by ZEFSAII (Michael W. Deem and Ramdas Pophale) SiO2 
 PCOD9059005
Probable space group: P -1
;
_chemical_formula_sum "Si O2"
_cell_formula_units_Z 12
_cell_length_a 11.763404
_cell_length_b 9.497742
_cell_length_c 11.289828
_cell_angle_alpha 38.969931
_cell_angle_beta 68.009972
_cell_angle_gamma 97.471563
_cell_volume 508.787023
_symmetry_space_group_name_H-M "P -1"
_symmetry_group_IT_number 2
_symmetry_cell_setting 'triclinic'
loop_
_space_group_symop_operation_xyz
x,y,z
-x,-y,-z
loop_
_atom_site_type_symbol
_atom_site_label
_atom_site_fract_x
_atom_site_fract_y
_atom_site_fract_z
Si Si1 0.944344 0.256633 0.544930
Si Si2 0.665680 0.493804 0.343535
Si Si3 0.292843 0.422624 0.992312
Si Si4 0.818164 0.543365 0.479976
Si Si5 0.294611 0.839704 0.893885
Si Si6 0.574441 0.557854 0.665471
O O1 0.808262 0.275035 0.615329
O O2 0.002556 0.216007 0.671207
O O3 0.122966 0.600394 0.199015
O O4 0.862367 0.963364 0.683474
O O5 0.725230 0.495194 0.187937
O O6 0.796479 0.656350 0.294881
O O7 0.578149 0.617257 0.262033
O O8 0.491452 0.117855 0.690283
O O9 0.294645 0.619589 0.956579
O O10 0.473050 0.512417 0.850509
O O11 0.671666 0.453356 0.684310
O O12 0.290858 0.063314 0.670561
#
# Coordination Sequence:
#
# PCOD9059005 Si02
#       6
#     2   2   2   2   2   2
#     4  11  25  34  58  88 129 151 168 250 292 351
#     4   8  20  39  65  83 104 156 198 244 264 335
#     4   9  20  41  60  87 114 149 198 234 288 335
#     4  11  23  40  56  92 119 149 198 222 306 337
#     4   9  20  41  60  87 114 149 198 234 288 335
#     4   8  20  39  65  83 104 156 198 244 264 335
#
# _framework density 23.585505999999999
#
# number of rings (size 3 to 8) (size 9 to 14) (size 15 to 20)
#    2.000    0.333    0.000    3.000    0.000   10.667 
#    0.000   10.000    0.000    0.000    0.000    0.000 
#    0.000    0.000    0.000    0.000    0.000    0.000 
#
# Total GULP energy -66857.186355 kJ/mol
# GULP energy per Si atom -5571.432196 kJ/mol
# Density = 2.353182 g / cm^3
# Si number density = 23.585506 Si / 1000 Ang^3
#
#
#
# Elastic Constant Matrix: (Units=GPa)
#
#
# Indices 1 2 3 4 5 6 
#
# 1 98.9636 31.6082 13.9503 -1.4414 -3.2882 -28.1322
# 2 31.6082 116.3260 9.5418 -0.6643 -11.1661 -28.1440
# 3 13.9503 9.5418 115.7038 1.4709 -14.9330 -5.5966
# 4 -1.4414 -0.6643 1.4709 25.2096 2.3515 -6.4017
# 5 -3.2882 -11.1661 -14.9330 2.3515 10.1550 0.1835
# 6 -28.1322 -28.1440 -5.5966 -6.4017 0.1835 19.2853
#
#
#
# Elastic Compliance Matrix: (Units=1/GPa)
#
#
# Indices 1 2 3 4 5 6 
#
# 1 0.020690 0.005459 0.000183 0.011021 0.009664 0.041768
# 2 0.005459 0.018358 0.002546 0.008133 0.023128 0.037972
# 3 0.000183 0.002546 0.011260 -0.000654 0.019444 0.006848
# 4 0.011021 0.008133 -0.000654 0.052119 -0.001334 0.045069
# 5 0.009664 0.023128 0.019444 -0.001334 0.155003 0.051574
# 6 0.041768 0.037972 0.006848 0.045069 0.051574 0.184653
#
#
# Mechanical properties :
#
#
# Convention : Reuss Voigt Hill
#
# Bulk Modulus (GPa) = 14.99622 49.02156 32.00889
# Shear Modulus (GPa) = 11.16231 29.32285 20.24258
#
# Velocity S-wave (km/s) = 2.17784 3.52981 2.93279
# Velocity P-wave (km/s) = 3.56315 6.11903 5.00692
#
# Compressibility (1/GPa) = 0.06668345
#
# Stress axis : x y z
#
# Youngs Moduli (GPa) = 48.33185 54.47245 88.81149
#
# Poissons Ratio (x) = -0.29736 -0.01622
# Poissons Ratio (y) = -0.26384 -0.22613
# Poissons Ratio (z) = -0.00883 -0.13870
#
# Static dielectric constant tensor:
#      x y z
#    x 1.897920 0.009700 -0.002090 
#    y 0.009700 1.875680 0.038180 
#    z -0.002090 0.038180 1.952010 
# 
# From -- ./inp_files/442408.got.cif
#   From: 2010.05.17/outbox.cif.g08.bks.cpg/sg2_222_cif.got.tgz:442408.got - 2010.06.03 11:33:40.
