data_PCOD9059588
_publ_section_title
;
Structure prediction by ZEFSAII (Michael W. Deem and Ramdas Pophale) SiO2 
 PCOD9059588
Probable space group: P -1
;
_chemical_formula_sum "Si O2"
_cell_formula_units_Z 15
_cell_length_a 9.440303
_cell_length_b 7.449035
_cell_length_c 10.757515
_cell_angle_alpha 117.821772
_cell_angle_beta 95.963470
_cell_angle_gamma 64.691893
_cell_volume 600.480527
_symmetry_space_group_name_H-M "P -1"
_symmetry_group_IT_number 2
_symmetry_cell_setting 'triclinic'
loop_
_space_group_symop_operation_xyz
x,y,z
-x,-y,-z
loop_
_atom_site_type_symbol
_atom_site_label
_atom_site_fract_x
_atom_site_fract_y
_atom_site_fract_z
Si Si1 0.580196 0.138312 0.825377
Si Si2 0.000000 0.500000 0.000000
Si Si3 0.297645 0.591748 0.390498
Si Si4 0.463688 0.820222 0.600646
Si Si5 0.836564 0.973718 0.218202
Si Si6 0.078463 0.195551 0.288917
Si Si7 0.948795 0.714983 0.404517
Si Si8 0.666268 0.548646 0.918322
O O1 0.600444 0.359121 0.860093
O O2 0.503983 0.030825 0.683339
O O3 0.757608 0.957173 0.811378
O O4 0.456511 0.226686 0.955410
O O5 0.882463 0.772122 0.060204
O O6 0.158262 0.548451 0.040566
O O7 0.377238 0.763050 0.460186
O O8 0.376908 0.407198 0.443955
O O9 0.113289 0.734356 0.435226
O O10 0.318257 0.441541 0.223702
O O11 0.343914 0.850493 0.716492
O O12 0.872225 0.832097 0.306957
O O13 0.951401 0.092781 0.245705
O O14 0.996159 0.449038 0.311691
O O15 0.125687 0.208454 0.442430
#
# Coordination Sequence:
#
# PCOD9059588 Si02
#       8
#     2   1   2   2   2   2   2   2
#     4  11  23  44  64 102 139 179 223 291 344 410
#     4  12  22  42  72  98 132 190 240 280 336 428
#     4  11  23  45  68 104 133 182 231 283 344 420
#     4  11  25  42  70  99 141 176 230 284 350 407
#     4  12  24  45  68  99 137 189 227 286 346 404
#     4  11  23  43  70  99 139 178 231 292 336 413
#     4  11  23  41  74 101 134 180 236 284 345 409
#     4  11  25  43  71  97 139 183 233 283 347 416
#
# _framework density 24.979994000000001
#
# number of rings (size 3 to 8) (size 9 to 14) (size 15 to 20)
#    0.000    0.800    6.667    0.400    1.867    1.067 
#    4.800    0.667    0.000    0.000    0.000    0.000 
#    0.000    0.000    0.000    0.000    0.000    0.000 
#
# Total GULP energy -83628.891550 kJ/mol
# GULP energy per Si atom -5575.259437 kJ/mol
# Density = 2.492314 g / cm^3
# Si number density = 24.979994 Si / 1000 Ang^3
#
#
#
# Elastic Constant Matrix: (Units=GPa)
#
#
# Indices 1 2 3 4 5 6 
#
# 1 129.3088 12.4482 26.5477 3.7465 8.4516 2.6794
# 2 12.4482 75.0972 13.8517 16.1220 5.8593 6.9917
# 3 26.5477 13.8517 79.3912 24.5450 2.8160 6.0361
# 4 3.7465 16.1220 24.5450 29.4051 8.0868 6.7740
# 5 8.4516 5.8593 2.8160 8.0868 36.8032 23.0409
# 6 2.6794 6.9917 6.0361 6.7740 23.0409 43.7713
#
#
#
# Elastic Compliance Matrix: (Units=1/GPa)
#
#
# Indices 1 2 3 4 5 6 
#
# 1 0.008690 -0.001340 -0.003655 0.003212 -0.003003 0.001270
# 2 -0.001340 0.015358 0.000478 -0.008480 0.000587 -0.001434
# 3 -0.003655 0.000478 0.018723 -0.016087 0.004222 -0.002168
# 4 0.003212 -0.008480 -0.016087 0.054434 -0.010377 0.000414
# 5 -0.003003 0.000587 0.004222 -0.010377 0.043296 -0.021677
# 6 0.001270 -0.001434 -0.002168 0.000414 -0.021677 0.034643
#
#
# Mechanical properties :
#
#
# Convention : Reuss Voigt Hill
#
# Bulk Modulus (GPa) = 29.63982 43.27691 36.45837
# Shear Modulus (GPa) = 25.58560 37.39256 31.48908
#
# Velocity S-wave (km/s) = 3.20385 3.87318 3.55431
# Velocity P-wave (km/s) = 5.05741 6.11263 5.60989
#
# Compressibility (1/GPa) = 0.03373840
#
# Stress axis : x y z
#
# Youngs Moduli (GPa) = 115.07867 65.11217 53.40974
#
# Poissons Ratio (x) = 0.08723 0.19521
# Poissons Ratio (y) = 0.15416 -0.02555
# Poissons Ratio (z) = 0.42061 -0.03114
#
# Static dielectric constant tensor:
#      x y z
#    x 1.989280 0.007520 -0.004760 
#    y 0.007520 1.970960 -0.022340 
#    z -0.004760 -0.022340 2.059550 
# 
# From -- ./inp_files/380644.got.cif
#   From: 2010.05.17/outbox.cif.g08.bks.cpg/sg2_191_cif.got.tgz:380644.got - 2010.06.03 11:33:40.
