data_PCOD9059626
_publ_section_title
;
Structure prediction by ZEFSAII (Michael W. Deem and Ramdas Pophale) SiO2 
 PCOD9059626
Probable space group: P -1
;
_chemical_formula_sum "Si O2"
_cell_formula_units_Z 14
_cell_length_a 14.561176
_cell_length_b 8.931864
_cell_length_c 13.364460
_cell_angle_alpha 136.159930
_cell_angle_beta 150.333338
_cell_angle_gamma 43.222363
_cell_volume 568.921046
_symmetry_space_group_name_H-M "P -1"
_symmetry_group_IT_number 2
_symmetry_cell_setting 'triclinic'
loop_
_space_group_symop_operation_xyz
x,y,z
-x,-y,-z
loop_
_atom_site_type_symbol
_atom_site_label
_atom_site_fract_x
_atom_site_fract_y
_atom_site_fract_z
Si Si1 0.090818 0.190134 0.889087
Si Si2 0.551354 0.747784 0.973633
Si Si3 0.042001 0.572359 0.729807
Si Si4 0.202123 0.704172 0.736395
Si Si5 0.555121 0.304504 0.668204
Si Si6 0.788264 0.894815 0.807804
Si Si7 0.291262 0.534353 0.273476
O O1 0.882875 0.373596 0.769913
O O2 0.089939 0.962817 0.724540
O O3 0.136125 0.130382 0.020288
O O4 0.249890 0.318227 0.078584
O O5 0.421752 0.719345 0.935028
O O6 0.493196 0.569205 0.760288
O O7 0.779448 0.632707 0.157265
O O8 0.500000 0.000000 0.000000
O O9 0.131149 0.657517 0.756959
O O10 0.866998 0.473995 0.481767
O O11 0.950000 0.769399 0.818592
O O12 0.378859 0.227832 0.423339
O O13 0.718668 0.270321 0.721768
O O14 0.662947 0.152033 0.787938
O O15 0.500000 0.500000 0.500000
#
# Coordination Sequence:
#
# PCOD9059626 Si02
#       7
#     2   2   2   2   2   2   2
#     4  11  24  42  70  99 135 181 227 282 343 410
#     4  12  26  46  69 101 142 185 224 280 347 416
#     4  11  25  47  71  97 140 181 231 284 339 410
#     4  11  25  45  67 103 134 179 232 278 347 402
#     4  11  23  43  72 100 135 176 234 284 340 399
#     4  11  23  45  73 101 130 179 234 289 333 401
#     4  11  23  42  64 100 140 176 226 284 345 406
#
# _framework density 24.607983999999998
#
# number of rings (size 3 to 8) (size 9 to 14) (size 15 to 20)
#    0.000    0.857    2.857    3.857    0.000    5.714 
#    2.571    0.000    0.000    0.000    0.000    0.000 
#    0.000    0.000    0.000    0.000    0.000    0.000 
#
# Total GULP energy -78231.083099 kJ/mol
# GULP energy per Si atom -5587.934507 kJ/mol
# Density = 2.455198 g / cm^3
# Si number density = 24.607984 Si / 1000 Ang^3
#
#
#
# Elastic Constant Matrix: (Units=GPa)
#
#
# Indices 1 2 3 4 5 6 
#
# 1 89.6235 13.3615 21.5060 2.5243 27.1212 6.8663
# 2 13.3615 123.7825 30.7506 13.6958 14.3647 6.3177
# 3 21.5060 30.7506 121.8329 5.1407 21.3510 4.4605
# 4 2.5243 13.6958 5.1407 42.0048 -0.0123 -5.1226
# 5 27.1212 14.3647 21.3510 -0.0123 33.8596 5.5620
# 6 6.8663 6.3177 4.4605 -5.1226 5.5620 31.9316
#
#
#
# Elastic Compliance Matrix: (Units=1/GPa)
#
#
# Indices 1 2 3 4 5 6 
#
# 1 0.014846 0.000027 -0.000550 -0.000996 -0.011342 -0.001305
# 2 0.000027 0.009211 -0.001688 -0.002997 -0.002600 -0.001620
# 3 -0.000550 -0.001688 0.009618 -0.000612 -0.004886 -0.000138
# 4 -0.000996 -0.002997 -0.000612 0.025491 0.001695 0.004687
# 5 -0.011342 -0.002600 -0.004886 0.001695 0.043403 -0.003652
# 6 -0.001305 -0.001620 -0.000138 0.004687 -0.003652 0.033326
#
#
# Mechanical properties :
#
#
# Convention : Reuss Voigt Hill
#
# Bulk Modulus (GPa) = 34.18417 51.83059 43.00738
# Shear Modulus (GPa) = 33.31816 39.53391 36.42603
#
# Velocity S-wave (km/s) = 3.68361 4.01253 3.85158
# Velocity P-wave (km/s) = 5.65806 6.52498 6.10692
#
# Compressibility (1/GPa) = 0.02925331
#
# Stress axis : x y z
#
# Youngs Moduli (GPa) = 67.35788 108.56423 103.96866
#
# Poissons Ratio (x) = -0.00295 0.05718
# Poissons Ratio (y) = -0.00183 0.17553
# Poissons Ratio (z) = 0.03704 0.18329
#
# Static dielectric constant tensor:
#      x y z
#    x 2.106280 -0.014710 0.030640 
#    y -0.014710 1.984700 0.007960 
#    z 0.030640 0.007960 1.912300 
# 
# From -- ./inp_files/419711.got.cif
#   From: 2010.05.17/outbox.cif.g08.bks.cpg/sg2_210_cif.got.tgz:419711.got - 2010.06.03 11:33:40.
