data_PCOD9059014
_publ_section_title
;
Structure prediction by ZEFSAII (Michael W. Deem and Ramdas Pophale) SiO2 
 PCOD9059014
Probable space group: P -1
;
_chemical_formula_sum "Si O2"
_cell_formula_units_Z 13
_cell_length_a 11.364662
_cell_length_b 9.286861
_cell_length_c 12.107044
_cell_angle_alpha 127.803436
_cell_angle_beta 51.119658
_cell_angle_gamma 141.412734
_cell_volume 600.402226
_symmetry_space_group_name_H-M "P -1"
_symmetry_group_IT_number 2
_symmetry_cell_setting 'triclinic'
loop_
_space_group_symop_operation_xyz
x,y,z
-x,-y,-z
loop_
_atom_site_type_symbol
_atom_site_label
_atom_site_fract_x
_atom_site_fract_y
_atom_site_fract_z
Si Si1 0.377086 0.056180 0.836733
Si Si2 0.070172 0.746444 0.219487
Si Si3 0.188727 0.436097 0.926616
Si Si4 0.228137 0.493218 0.293045
Si Si5 0.143759 0.592717 0.622689
Si Si6 0.356935 0.201027 0.143967
Si Si7 0.000000 0.000000 0.000000
O O1 0.595914 0.285937 0.778891
O O2 0.304749 0.813459 0.709634
O O3 0.365510 0.052546 0.974299
O O4 0.225466 0.089892 0.898191
O O5 0.903043 0.655682 0.183825
O O6 0.975931 0.648633 0.349081
O O7 0.236429 0.028216 0.236377
O O8 0.158853 0.619315 0.072965
O O9 0.420033 0.571795 0.853835
O O10 0.062810 0.214918 0.979793
O O11 0.235205 0.580380 0.452603
O O12 0.249365 0.292628 0.196157
O O13 0.018909 0.385062 0.311770
#
# Coordination Sequence:
#
# PCOD9059014 Si02
#       7
#     2   2   2   2   2   2   1
#     4  12  22  39  69  97 123 160 216 273 312 365
#     4  11  23  40  61  92 137 169 203 261 328 380
#     4  11  23  40  61 101 130 165 209 270 322 372
#     4  11  26  43  68  94 127 171 220 264 314 380
#     4  11  25  46  64  92 133 174 211 262 322 382
#     4  12  24  39  68  99 125 166 216 266 317 379
#     4  12  20  38  70  94 130 162 214 276 314 370
#
# _framework density 21.652152999999998
#
# number of rings (size 3 to 8) (size 9 to 14) (size 15 to 20)
#    0.000    0.615    4.615    4.154    0.000    1.846 
#    0.000    0.769    0.000    0.000    0.000    0.000 
#    0.000    0.000    0.000    0.000    0.000    0.000 
#
# Total GULP energy -72548.996039 kJ/mol
# GULP energy per Si atom -5580.692003 kJ/mol
# Density = 2.160287 g / cm^3
# Si number density = 21.652153 Si / 1000 Ang^3
#
#
#
# Elastic Constant Matrix: (Units=GPa)
#
#
# Indices 1 2 3 4 5 6 
#
# 1 123.0376 -0.1929 -29.7447 -7.3484 -29.2515 -2.3785
# 2 -0.1929 133.7123 23.7178 -8.8101 10.4473 -15.3159
# 3 -29.7447 23.7178 80.2436 5.0039 24.3456 -3.7408
# 4 -7.3484 -8.8101 5.0039 24.6374 6.3414 10.8585
# 5 -29.2515 10.4473 24.3456 6.3414 34.1741 -12.7887
# 6 -2.3785 -15.3159 -3.7408 10.8585 -12.7887 35.4853
#
#
#
# Elastic Compliance Matrix: (Units=1/GPa)
#
#
# Indices 1 2 3 4 5 6 
#
# 1 0.011064 -0.000633 0.001288 -0.002457 0.011223 0.005401
# 2 -0.000633 0.008418 -0.002471 0.002647 -0.001043 0.002145
# 3 0.001288 -0.002471 0.017024 0.000664 -0.011749 -0.003623
# 4 -0.002457 0.002647 0.000664 0.057780 -0.023500 -0.025102
# 5 0.011223 -0.001043 -0.011749 -0.023500 0.062717 0.028858
# 6 0.005401 0.002145 -0.003623 -0.025102 0.028858 0.047168
#
#
# Mechanical properties :
#
#
# Convention : Reuss Voigt Hill
#
# Bulk Modulus (GPa) = 30.41875 36.06152 33.24013
# Shear Modulus (GPa) = 22.85610 41.74024 32.29817
#
# Velocity S-wave (km/s) = 3.25253 4.39539 3.86642
# Velocity P-wave (km/s) = 5.30892 6.51540 5.94285
#
# Compressibility (1/GPa) = 0.03287446
#
# Stress axis : x y z
#
# Youngs Moduli (GPa) = 90.38434 118.79758 58.73960
#
# Poissons Ratio (x) = 0.07516 -0.07566
# Poissons Ratio (y) = 0.05718 0.14516
# Poissons Ratio (z) = -0.11643 0.29357
#
# Static dielectric constant tensor:
#      x y z
#    x 1.792990 0.040580 0.018020 
#    y 0.040580 1.785500 0.040870 
#    z 0.018020 0.040870 1.798520 
# 
# From -- ./inp_files/252711.got.cif
#   From: 2010.05.17/outbox.cif.g08.bks.cpg/sg2_127_cif.got.tgz:252711.got - 2010.06.03 11:33:40.
