data_PCOD9059088
_publ_section_title
;
Structure prediction by ZEFSAII (Michael W. Deem and Ramdas Pophale) SiO2 
 PCOD9059088
Probable space group: P -1
;
_chemical_formula_sum "Si O2"
_cell_formula_units_Z 16
_cell_length_a 15.528828
_cell_length_b 15.397062
_cell_length_c 16.610615
_cell_angle_alpha 154.840926
_cell_angle_beta 27.921223
_cell_angle_gamma 153.460290
_cell_volume 695.097218
_symmetry_space_group_name_H-M "P -1"
_symmetry_group_IT_number 2
_symmetry_cell_setting 'triclinic'
loop_
_space_group_symop_operation_xyz
x,y,z
-x,-y,-z
loop_
_atom_site_type_symbol
_atom_site_label
_atom_site_fract_x
_atom_site_fract_y
_atom_site_fract_z
Si Si1 0.156365 0.999866 0.803659
Si Si2 0.697340 0.279905 0.457445
Si Si3 0.792538 0.750871 0.444063
Si Si4 0.411676 0.194652 0.054333
Si Si5 0.000804 0.746725 0.553775
Si Si6 0.481859 0.470580 0.896210
Si Si7 0.559212 0.274559 0.172794
Si Si8 0.613806 0.921481 0.592201
O O1 0.308768 0.945349 0.688156
O O2 0.077247 0.824782 0.647631
O O3 0.262618 0.244139 0.876363
O O4 0.000000 0.000000 0.000000
O O5 0.904470 0.467750 0.399831
O O6 0.662548 0.411777 0.670940
O O7 0.512211 0.227245 0.504740
O O8 0.762096 0.490430 0.229252
O O9 0.638044 0.714337 0.615141
O O10 0.696051 0.802697 0.487739
O O11 0.000000 0.000000 0.500000
O O12 0.185951 0.182952 0.245893
O O13 0.491527 0.328936 0.016782
O O14 0.554586 0.311628 0.112105
O O15 0.445498 0.973638 0.822509
O O16 0.182166 0.865197 0.437550
O O17 0.500000 0.500000 0.000000
O O18 0.500000 0.000000 0.000000
#
# Coordination Sequence:
#
# PCOD9059088 Si02
#       8
#     2   2   2   2   2   2   2   2
#     4  12  24  40  63  97 135 182 243 295 354 428
#     4  11  24  44  65  95 143 188 234 301 360 432
#     4  11  25  46  79 111 146 189 249 305 376 452
#     4  11  25  47  70 103 147 190 242 299 370 443
#     4  11  25  42  66 101 137 186 242 295 356 438
#     4  11  23  40  66  93 133 187 231 294 359 427
#     4  11  24  50  74 107 152 192 238 312 376 442
#     4  12  24  46  73 102 143 193 234 303 377 432
#
# _framework density 23.018363000000001
#
# number of rings (size 3 to 8) (size 9 to 14) (size 15 to 20)
#    0.000    0.750    2.500    6.000    3.500    1.500 
#    0.000    0.000    0.000    0.000    0.000    0.000 
#    0.000    0.000    0.000    0.000    0.000    0.000 
#
# Total GULP energy -89220.279191 kJ/mol
# GULP energy per Si atom -5576.267449 kJ/mol
# Density = 2.296597 g / cm^3
# Si number density = 23.018363 Si / 1000 Ang^3
#
#
#
# Elastic Constant Matrix: (Units=GPa)
#
#
# Indices 1 2 3 4 5 6 
#
# 1 107.2946 13.2928 25.9924 11.6370 14.3297 -4.2236
# 2 13.2928 85.7841 4.6632 6.3141 6.0279 11.0874
# 3 25.9924 4.6632 70.9748 9.5061 9.6887 -3.7658
# 4 11.6370 6.3141 9.5061 34.3132 -5.2198 8.9991
# 5 14.3297 6.0279 9.6887 -5.2198 37.4863 0.2524
# 6 -4.2236 11.0874 -3.7658 8.9991 0.2524 29.9647
#
#
#
# Elastic Compliance Matrix: (Units=1/GPa)
#
#
# Indices 1 2 3 4 5 6 
#
# 1 0.011271 -0.001402 -0.002768 -0.004203 -0.003974 0.003056
# 2 -0.001402 0.012655 -0.000253 -0.000790 -0.001512 -0.004662
# 3 -0.002768 -0.000253 0.016504 -0.005052 -0.003893 0.003328
# 4 -0.004203 -0.000790 -0.005052 0.036500 0.008203 -0.011966
# 5 -0.003974 -0.001512 -0.003893 0.008203 0.030609 -0.003211
# 6 0.003056 -0.004662 0.003328 -0.011966 -0.003211 0.039567
#
#
# Mechanical properties :
#
#
# Convention : Reuss Voigt Hill
#
# Bulk Modulus (GPa) = 31.66152 39.10561 35.38357
# Shear Modulus (GPa) = 30.03335 35.02651 32.52993
#
# Velocity S-wave (km/s) = 3.61606 3.90510 3.76336
# Velocity P-wave (km/s) = 5.58742 6.11219 5.85569
#
# Compressibility (1/GPa) = 0.03158408
#
# Stress axis : x y z
#
# Youngs Moduli (GPa) = 88.72060 79.01876 60.58970
#
# Poissons Ratio (x) = 0.11082 0.16772
# Poissons Ratio (y) = 0.12442 0.01533
# Poissons Ratio (z) = 0.24559 0.01999
#
# Static dielectric constant tensor:
#      x y z
#    x 1.983060 -0.162550 0.008880 
#    y -0.162550 2.365450 0.058500 
#    z 0.008880 0.058500 1.943940 
# 
# From -- ./inp_files/534536.got.cif
#   From: 2010.05.17/outbox.cif.g08.bks.cpg/sg2_268_cif.got.tgz:534536.got - 2010.06.03 11:33:40.
