data_PCOD9059028
_publ_section_title
;
Structure prediction by ZEFSAII (Michael W. Deem and Ramdas Pophale) SiO2 
 PCOD9059028
Probable space group: P -1
;
_chemical_formula_sum "Si O2"
_cell_formula_units_Z 16
_cell_length_a 9.422447
_cell_length_b 12.107800
_cell_length_c 13.219527
_cell_angle_alpha 45.827191
_cell_angle_beta 69.780709
_cell_angle_gamma 103.033013
_cell_volume 731.894309
_symmetry_space_group_name_H-M "P -1"
_symmetry_group_IT_number 2
_symmetry_cell_setting 'triclinic'
loop_
_space_group_symop_operation_xyz
x,y,z
-x,-y,-z
loop_
_atom_site_type_symbol
_atom_site_label
_atom_site_fract_x
_atom_site_fract_y
_atom_site_fract_z
Si Si1 0.186951 0.725672 0.045121
Si Si2 0.931225 0.994698 0.907311
Si Si3 0.465544 0.347010 0.258588
Si Si4 0.545684 0.882709 0.135240
Si Si5 0.003067 0.978583 0.632812
Si Si6 0.919624 0.675728 0.985984
Si Si7 0.105010 0.454391 0.579147
Si Si8 0.444554 0.246468 0.100992
O O1 0.995268 0.576750 0.267001
O O2 0.371757 0.731549 0.999533
O O3 0.084097 0.673881 0.993652
O O4 0.308621 0.959330 0.909444
O O5 0.048198 0.238856 0.701442
O O6 0.961078 0.865078 0.915302
O O7 0.684710 0.862219 0.050750
O O8 0.000000 0.000000 0.000000
O O9 0.242914 0.179980 0.476530
O O10 0.455126 0.244120 0.222110
O O11 0.677961 0.455341 0.196583
O O12 0.496533 0.542911 0.087279
O O13 0.347161 0.661017 0.373418
O O14 0.500000 0.000000 0.000000
O O15 0.000000 0.000000 0.500000
O O16 0.953118 0.764605 0.808140
O O17 0.805367 0.943341 0.741904
O O18 0.000000 0.500000 0.500000
#
# Coordination Sequence:
#
# PCOD9059028 Si02
#       8
#     2   2   2   2   2   2   2   2
#     4  11  24  41  59  95 132 166 218 266 329 383
#     4  11  23  44  61  94 135 169 215 273 323 381
#     4   9  20  39  63  92 121 163 216 261 327 382
#     4  11  23  41  65  92 134 168 219 274 317 387
#     4   9  20  40  64  90 121 161 216 263 316 385
#     4  11  23  40  62  92 134 170 209 272 323 383
#     4  11  23  41  65  91 125 172 217 260 323 382
#     4   9  20  39  65  90 124 163 209 273 317 383
#
# _framework density 21.861080999999999
#
# number of rings (size 3 to 8) (size 9 to 14) (size 15 to 20)
#    0.000    1.750    5.000    0.750    3.500    5.000 
#    0.000    2.500    0.000    0.000    0.000    0.000 
#    0.000    0.000    0.000    0.000    0.000    0.000 
#
# Total GULP energy -89237.310437 kJ/mol
# GULP energy per Si atom -5577.331902 kJ/mol
# Density = 2.181132 g / cm^3
# Si number density = 21.861081 Si / 1000 Ang^3
#
#
#
# Elastic Constant Matrix: (Units=GPa)
#
#
# Indices 1 2 3 4 5 6 
#
# 1 88.0158 -1.2435 30.1699 -13.2948 -24.1092 19.6698
# 2 -1.2435 29.7617 10.1295 0.8075 -8.4928 6.3737
# 3 30.1699 10.1295 157.6387 -14.0549 -40.8488 7.0182
# 4 -13.2948 0.8075 -14.0549 23.1900 0.9612 -6.7983
# 5 -24.1092 -8.4928 -40.8488 0.9612 37.8829 2.4859
# 6 19.6698 6.3737 7.0182 -6.7983 2.4859 33.6159
#
#
#
# Elastic Compliance Matrix: (Units=1/GPa)
#
#
# Indices 1 2 3 4 5 6 
#
# 1 0.019337 0.007473 0.001127 0.007129 0.015849 -0.012697
# 2 0.007473 0.041134 0.000362 -0.001579 0.015307 -0.013699
# 3 0.001127 0.000362 0.009572 0.005243 0.011151 -0.002491
# 4 0.007129 -0.001579 0.005243 0.051522 0.008211 0.004846
# 5 0.015849 0.015307 0.011151 0.008211 0.052830 -0.016750
# 6 -0.012697 -0.013699 -0.002491 0.004846 -0.016750 0.042513
#
#
# Mechanical properties :
#
#
# Convention : Reuss Voigt Hill
#
# Bulk Modulus (GPa) = 11.36797 39.28088 25.32443
# Shear Modulus (GPa) = 21.90042 34.69510 28.29776
#
# Velocity S-wave (km/s) = 3.16856 3.98813 3.60173
# Velocity P-wave (km/s) = 4.31251 6.26213 5.37643
#
# Compressibility (1/GPa) = 0.08796643
#
# Stress axis : x y z
#
# Youngs Moduli (GPa) = 51.71551 24.31091 104.46607
#
# Poissons Ratio (x) = -0.18167 -0.11772
# Poissons Ratio (y) = -0.38646 -0.03784
# Poissons Ratio (z) = -0.05828 -0.00881
#
# Static dielectric constant tensor:
#      x y z
#    x 1.837380 0.001410 -0.027480 
#    y 0.001410 1.905930 0.103540 
#    z -0.027480 0.103540 1.898230 
# 
# From -- ./inp_files/505250.got.cif
#   From: 2010.05.17/outbox.cif.g08.bks.cpg/sg2_253_cif.got.tgz:505250.got - 2010.06.03 11:33:40.
