data_PCOD9059086
_publ_section_title
;
Structure prediction by ZEFSAII (Michael W. Deem and Ramdas Pophale) SiO2 
 PCOD9059086
Probable space group: P -1
;
_chemical_formula_sum "Si O2"
_cell_formula_units_Z 14
_cell_length_a 11.495129
_cell_length_b 20.779322
_cell_length_c 14.876875
_cell_angle_alpha 149.877516
_cell_angle_beta 137.852540
_cell_angle_gamma 21.134685
_cell_volume 599.595948
_symmetry_space_group_name_H-M "P -1"
_symmetry_group_IT_number 2
_symmetry_cell_setting 'triclinic'
loop_
_space_group_symop_operation_xyz
x,y,z
-x,-y,-z
loop_
_atom_site_type_symbol
_atom_site_label
_atom_site_fract_x
_atom_site_fract_y
_atom_site_fract_z
Si Si1 0.108589 0.006116 0.924530
Si Si2 0.650315 0.558931 0.568765
Si Si3 0.650859 0.839865 0.131008
Si Si4 0.804443 0.613588 0.228017
Si Si5 0.314087 0.518543 0.851048
Si Si6 0.592145 0.728152 0.548550
Si Si7 0.749076 0.001907 0.751018
O O1 0.306404 0.780862 0.699238
O O2 0.804743 0.120305 0.935333
O O3 0.964112 0.216784 0.038951
O O4 0.390477 0.896449 0.013711
O O5 0.555428 0.693328 0.584947
O O6 0.940596 0.442383 0.656039
O O7 0.872308 0.290280 0.353062
O O8 0.587852 0.021042 0.272687
O O9 0.528625 0.908837 0.246681
O O10 0.025191 0.557065 0.970091
O O11 0.822836 0.499365 0.180426
O O12 0.414310 0.900102 0.324857
O O13 0.501830 0.317397 0.636330
O O14 0.500000 0.500000 0.000000
O O15 0.000000 0.500000 0.500000
#
# Coordination Sequence:
#
# PCOD9059086 Si02
#       7
#     2   2   2   2   2   2   2
#     4  11  23  40  66  93 129 170 208 266 313 374
#     4  11  23  41  66  96 123 168 224 252 309 382
#     4  11  23  41  66  96 123 168 224 252 309 382
#     4  11  23  40  66  93 129 170 208 266 313 374
#     4  12  23  43  67  94 130 162 209 269 331 365
#     4  12  21  41  71  92 120 170 217 267 304 380
#     4  12  22  40  62  92 138 168 204 262 320 372
#
# _framework density 23.349056999999998
#
# number of rings (size 3 to 8) (size 9 to 14) (size 15 to 20)
#    0.000    0.571    5.714    2.571    0.000    2.286 
#    0.000    2.857    0.000    0.000    0.000    0.000 
#    0.000    0.000    0.000    0.000    0.000    0.000 
#
# Total GULP energy -78080.827891 kJ/mol
# GULP energy per Si atom -5577.201992 kJ/mol
# Density = 2.329591 g / cm^3
# Si number density = 23.349057 Si / 1000 Ang^3
#
#
#
# Elastic Constant Matrix: (Units=GPa)
#
#
# Indices 1 2 3 4 5 6 
#
# 1 107.3525 23.3291 25.5574 23.0842 11.5208 23.5161
# 2 23.3291 63.0894 23.1881 -5.9842 10.1242 2.7652
# 3 25.5574 23.1881 79.4260 -0.0672 -6.7399 5.5611
# 4 23.0842 -5.9842 -0.0672 40.4893 4.6926 12.0276
# 5 11.5208 10.1242 -6.7399 4.6926 27.8164 7.3583
# 6 23.5161 2.7652 5.5611 12.0276 7.3583 25.3766
#
#
#
# Elastic Compliance Matrix: (Units=1/GPa)
#
#
# Indices 1 2 3 4 5 6 
#
# 1 0.014313 -0.004092 -0.002952 -0.005936 -0.001816 -0.008831
# 2 -0.004092 0.021446 -0.005911 0.005762 -0.009228 0.002696
# 3 -0.002952 -0.005911 0.016133 0.000753 0.007897 -0.002803
# 4 -0.005936 0.005762 0.000753 0.032127 -0.002267 -0.009862
# 5 -0.001816 -0.009228 0.007897 -0.002267 0.045293 -0.011101
# 6 -0.008831 0.002696 -0.002803 -0.009862 -0.011101 0.055803
#
#
# Mechanical properties :
#
#
# Convention : Reuss Voigt Hill
#
# Bulk Modulus (GPa) = 38.48934 43.77967 41.13451
# Shear Modulus (GPa) = 22.75981 30.58934 26.67457
#
# Velocity S-wave (km/s) = 3.12551 3.62344 3.38365
# Velocity P-wave (km/s) = 5.43555 6.02466 5.73767
#
# Compressibility (1/GPa) = 0.02598122
#
# Stress axis : x y z
#
# Youngs Moduli (GPa) = 69.86696 46.62977 61.98522
#
# Poissons Ratio (x) = 0.19082 0.18296
# Poissons Ratio (y) = 0.28592 0.36640
# Poissons Ratio (z) = 0.20623 0.27563
#
# Static dielectric constant tensor:
#      x y z
#    x 2.226910 0.295670 -1.217870 
#    y 0.295670 2.121080 -0.977600 
#    z -1.217870 -0.977600 5.531070 
# 
# From -- ./inp_files/184910.got.cif
#   From: 2010.05.17/outbox.cif.g08.bks.cpg/sg2_93_cif.got.tgz:184910.got - 2010.06.03 11:33:40.
