data_PCOD9059304
_publ_section_title
;
Structure prediction by ZEFSAII (Michael W. Deem and Ramdas Pophale) SiO2 
 PCOD9059304
Probable space group: P -1
;
_chemical_formula_sum "Si O2"
_cell_formula_units_Z 16
_cell_length_a 10.070062
_cell_length_b 9.193307
_cell_length_c 12.097183
_cell_angle_alpha 99.485821
_cell_angle_beta 104.340026
_cell_angle_gamma 45.736162
_cell_volume 776.973346
_symmetry_space_group_name_H-M "P -1"
_symmetry_group_IT_number 2
_symmetry_cell_setting 'triclinic'
loop_
_space_group_symop_operation_xyz
x,y,z
-x,-y,-z
loop_
_atom_site_type_symbol
_atom_site_label
_atom_site_fract_x
_atom_site_fract_y
_atom_site_fract_z
Si Si1 0.821155 0.727421 0.303196
Si Si2 0.955477 0.595778 0.881868
Si Si3 0.322187 0.458241 0.640459
Si Si4 0.653796 0.272389 0.958737
Si Si5 0.456712 0.986371 0.114665
Si Si6 0.109111 0.768789 0.828843
Si Si7 0.752398 0.190935 0.727116
Si Si8 0.921465 0.212546 0.556730
O O1 0.772616 0.628734 0.362964
O O2 0.630572 0.899030 0.217467
O O3 0.972171 0.561881 0.221520
O O4 0.905780 0.803667 0.392643
O O5 0.066518 0.666087 0.890096
O O6 0.734710 0.795722 0.857309
O O7 0.000000 0.500000 0.000000
O O8 0.263558 0.603275 0.751294
O O9 0.548334 0.280656 0.660026
O O10 0.229123 0.602461 0.533312
O O11 0.573919 0.167815 0.910278
O O12 0.727405 0.272145 0.855513
O O13 0.500000 0.500000 0.000000
O O14 0.814989 0.153829 0.071155
O O15 0.500000 0.000000 0.000000
O O16 0.917561 0.948151 0.746911
O O17 0.824781 0.250962 0.658990
O O18 0.000000 0.000000 0.500000
#
# Coordination Sequence:
#
# PCOD9059304 Si02
#       8
#     2   2   2   2   2   2   2   2
#     4  11  25  48  71  97 140 190 231 292 357 413
#     4  11  23  41  65 103 143 185 230 277 349 429
#     4  11  23  51  70  98 136 188 240 286 346 419
#     4  12  24  42  70 108 143 188 227 285 356 430
#     4  12  25  41  67 101 147 184 230 284 345 430
#     4  11  23  41  71  99 145 180 228 288 352 414
#     4  12  24  44  72 100 142 181 231 289 359 403
#     4  12  28  48  74 103 138 182 242 306 346 412
#
# _framework density 20.592727
#
# number of rings (size 3 to 8) (size 9 to 14) (size 15 to 20)
#    0.000    0.500    6.250    1.875    3.500    0.000 
#    4.500    0.625    0.000    0.000    0.000    0.000 
#    0.000    0.000    0.000    0.000    0.000    0.000 
#
# Total GULP energy -89510.014605 kJ/mol
# GULP energy per Si atom -5594.375913 kJ/mol
# Density = 2.054586 g / cm^3
# Si number density = 20.592727 Si / 1000 Ang^3
#
#
#
# Elastic Constant Matrix: (Units=GPa)
#
#
# Indices 1 2 3 4 5 6 
#
# 1 92.1468 38.6085 54.8975 -14.7960 9.5489 -4.6643
# 2 38.6085 117.3472 29.1612 -17.7431 11.5073 -18.7325
# 3 54.8975 29.1612 78.1042 -29.3145 2.2685 11.7425
# 4 -14.7960 -17.7431 -29.3145 37.7108 5.2325 -7.5010
# 5 9.5489 11.5073 2.2685 5.2325 52.3052 -3.7000
# 6 -4.6643 -18.7325 11.7425 -7.5010 -3.7000 32.2578
#
#
#
# Elastic Compliance Matrix: (Units=1/GPa)
#
#
# Indices 1 2 3 4 5 6 
#
# 1 0.021819 -0.002307 -0.016995 -0.004121 -0.001843 0.006832
# 2 -0.002307 0.012155 -0.002237 0.005047 -0.002061 0.008476
# 3 -0.016995 -0.002237 0.033377 0.015828 -0.000304 -0.012260
# 4 -0.004121 0.005047 0.015828 0.041366 -0.004783 0.005643
# 5 -0.001843 -0.002061 -0.000304 -0.004783 0.020391 -0.000126
# 6 0.006832 0.008476 -0.012260 0.005643 -0.000126 0.042671
#
#
# Mechanical properties :
#
#
# Convention : Reuss Voigt Hill
#
# Bulk Modulus (GPa) = 41.19832 59.21472 50.20652
# Shear Modulus (GPa) = 22.42679 35.45017 28.93848
#
# Velocity S-wave (km/s) = 3.30368 4.15358 3.75277
# Velocity P-wave (km/s) = 5.88235 7.19865 6.57353
#
# Compressibility (1/GPa) = 0.02427283
#
# Stress axis : x y z
#
# Youngs Moduli (GPa) = 45.83175 82.27057 29.96097
#
# Poissons Ratio (x) = 0.18981 0.50919
# Poissons Ratio (y) = 0.10574 0.06702
# Poissons Ratio (z) = 0.77891 0.18403
#
# Static dielectric constant tensor:
#      x y z
#    x 1.736510 -0.003150 0.008430 
#    y -0.003150 1.787020 -0.003300 
#    z 0.008430 -0.003300 1.724210 
# 
# From -- ./inp_files/206527.got.cif
#   From: 2010.05.17/outbox.cif.g08.bks.cpg/sg2_104_cif.got.tgz:206527.got - 2010.06.03 11:33:40.
