data_PCOD9059951
_publ_section_title
;
Structure prediction by ZEFSAII (Michael W. Deem and Ramdas Pophale) SiO2 
 PCOD9059951
Probable space group: P -1
;
_chemical_formula_sum "Si O2"
_cell_formula_units_Z 16
_cell_length_a 20.175766
_cell_length_b 9.076554
_cell_length_c 5.089209
_cell_angle_alpha 59.925153
_cell_angle_beta 104.452821
_cell_angle_gamma 121.479186
_cell_volume 687.714104
_symmetry_space_group_name_H-M "P -1"
_symmetry_group_IT_number 2
_symmetry_cell_setting 'triclinic'
loop_
_space_group_symop_operation_xyz
x,y,z
-x,-y,-z
loop_
_atom_site_type_symbol
_atom_site_label
_atom_site_fract_x
_atom_site_fract_y
_atom_site_fract_z
Si Si1 0.288993 0.077853 0.821577
Si Si2 0.553101 0.529290 0.276211
Si Si3 0.054438 0.963449 0.885490
Si Si4 0.910383 0.364867 0.620340
Si Si5 0.764964 0.666672 0.774792
Si Si6 0.319021 0.563108 0.605655
Si Si7 0.254210 0.831305 0.524027
Si Si8 0.094467 0.318198 0.303979
O O1 0.371861 0.261530 0.796565
O O2 0.238104 0.153245 0.531581
O O3 0.292409 0.931651 0.743756
O O4 0.258986 0.972350 0.163164
O O5 0.500000 0.500000 0.500000
O O6 0.593093 0.391946 0.398924
O O7 0.500000 0.500000 0.000000
O O8 0.995257 0.813613 0.745836
O O9 0.108746 0.176358 0.641619
O O10 0.093608 0.841065 0.142707
O O11 0.000000 0.000000 0.000000
O O12 0.838129 0.311974 0.402061
O O13 0.896146 0.486872 0.729193
O O14 0.000000 0.500000 0.500000
O O15 0.722799 0.503607 0.656268
O O16 0.848469 0.675021 0.877050
O O17 0.718572 0.605367 0.056913
O O18 0.300275 0.723710 0.558307
#
# Coordination Sequence:
#
# PCOD9059951 Si02
#       8
#     2   2   2   2   2   2   2   2
#     4  11  25  45  72 108 145 187 236 297 363 432
#     4  11  23  47  79 110 144 187 235 284 357 452
#     4  11  25  42  62  95 134 175 252 310 382 434
#     4  12  26  44  69  98 142 196 247 317 375 420
#     4  11  23  42  71  95 135 189 243 282 352 433
#     4  11  24  44  70 108 140 187 234 283 354 443
#     4  12  26  45  69 105 151 187 248 300 366 430
#     4  11  25  43  65  93 130 188 241 312 374 435
#
# _framework density 23.265481000000001
#
# number of rings (size 3 to 8) (size 9 to 14) (size 15 to 20)
#    0.000    0.750    2.500    5.625    5.250    1.000 
#    0.000    3.750    0.000    0.000    0.000    0.000 
#    0.000    0.000    0.000    0.000    0.000    0.000 
#
# Total GULP energy -89427.187507 kJ/mol
# GULP energy per Si atom -5589.199219 kJ/mol
# Density = 2.321253 g / cm^3
# Si number density = 23.265481 Si / 1000 Ang^3
#
#
#
# Elastic Constant Matrix: (Units=GPa)
#
#
# Indices 1 2 3 4 5 6 
#
# 1 167.1734 43.6770 37.3083 -4.7172 -1.6554 -1.2787
# 2 43.6770 103.7413 19.3796 24.7374 11.8654 -14.2944
# 3 37.3083 19.3796 118.1239 -2.7148 -7.7177 -0.7449
# 4 -4.7172 24.7374 -2.7148 40.8039 -11.5209 6.9874
# 5 -1.6554 11.8654 -7.7177 -11.5209 40.5192 -3.0791
# 6 -1.2787 -14.2944 -0.7449 6.9874 -3.0791 36.1623
#
#
#
# Elastic Compliance Matrix: (Units=1/GPa)
#
#
# Indices 1 2 3 4 5 6 
#
# 1 0.007673 -0.004745 -0.001377 0.004816 0.002632 -0.002339
# 2 -0.004745 0.018424 -0.002492 -0.016308 -0.009989 0.009364
# 3 -0.001377 -0.002492 0.009589 0.003120 0.003299 -0.001158
# 4 0.004816 -0.016308 0.003120 0.042041 0.016538 -0.012927
# 5 0.002632 -0.009989 0.003299 0.016538 0.032724 -0.004197
# 6 -0.002339 0.009364 -0.001158 -0.012927 -0.004197 0.033388
#
#
# Mechanical properties :
#
#
# Convention : Reuss Voigt Hill
#
# Bulk Modulus (GPa) = 54.17787 65.52981 59.85384
# Shear Modulus (GPa) = 29.90044 42.74199 36.32122
#
# Velocity S-wave (km/s) = 3.58884 4.29084 3.95544
# Velocity P-wave (km/s) = 6.36477 7.26469 6.82957
#
# Compressibility (1/GPa) = 0.01845772
#
# Stress axis : x y z
#
# Youngs Moduli (GPa) = 130.32945 54.27690 104.28090
#
# Poissons Ratio (x) = 0.25753 0.14360
# Poissons Ratio (y) = 0.61839 0.25992
# Poissons Ratio (z) = 0.17947 0.13528
#
# Static dielectric constant tensor:
#      x y z
#    x -0.009600 -0.067640 -1.820500 
#    y -0.067640 1.895610 -0.111310 
#    z -1.820500 -0.111310 0.223740 
# 
# From -- ./inp_files/106306.got.cif
#   From: 2010.05.17/outbox.cif.g08.bks.cpg/sg2_54_cif.got.tgz:106306.got - 2010.06.03 11:33:40.
