data_PCOD9059989
_publ_section_title
;
Structure prediction by ZEFSAII (Michael W. Deem and Ramdas Pophale) SiO2 
 PCOD9059989
Probable space group: P -1
;
_chemical_formula_sum "Si O2"
_cell_formula_units_Z 14
_cell_length_a 14.153011
_cell_length_b 7.785544
_cell_length_c 6.890806
_cell_angle_alpha 82.756434
_cell_angle_beta 62.010324
_cell_angle_gamma 60.330436
_cell_volume 576.964645
_symmetry_space_group_name_H-M "P -1"
_symmetry_group_IT_number 2
_symmetry_cell_setting 'triclinic'
loop_
_space_group_symop_operation_xyz
x,y,z
-x,-y,-z
loop_
_atom_site_type_symbol
_atom_site_label
_atom_site_fract_x
_atom_site_fract_y
_atom_site_fract_z
Si Si1 0.444337 0.791370 0.545694
Si Si2 0.045156 0.815870 0.745394
Si Si3 0.617681 0.358151 0.030024
Si Si4 0.130481 0.316070 0.263113
Si Si5 0.588690 0.901847 0.120122
Si Si6 0.121155 0.704931 0.128627
Si Si7 0.239598 0.920251 0.407672
O O1 0.545896 0.765011 0.297162
O O2 0.320842 0.881047 0.525046
O O3 0.437815 0.934572 0.710277
O O4 0.442298 0.626885 0.705129
O O5 0.967639 0.716040 0.759349
O O6 0.952526 0.056811 0.788760
O O7 0.093270 0.721056 0.923666
O O8 0.838196 0.194392 0.477024
O O9 0.735740 0.381344 0.950226
O O10 0.681034 0.162514 0.854179
O O11 0.500000 0.500000 0.000000
O O12 0.912043 0.450383 0.713444
O O13 0.161244 0.159286 0.431194
O O14 0.266657 0.224399 0.047371
O O15 0.500000 0.000000 0.000000
#
# Coordination Sequence:
#
# PCOD9059989 Si02
#       7
#     2   2   2   2   2   2   2
#     4  11  23  44  74 105 148 211 240 309 392 439
#     4  11  25  52  73 108 158 197 256 312 387 453
#     4  12  27  47  74 112 154 199 259 312 382 461
#     4  12  25  45  76 113 149 194 262 315 374 461
#     4  11  23  42  72 110 150 195 251 309 376 455
#     4  11  26  45  79 109 149 205 251 318 381 454
#     4  12  25  48  80 105 157 203 246 321 386 452
#
# _framework density 24.264917000000001
#
# number of rings (size 3 to 8) (size 9 to 14) (size 15 to 20)
#    0.000    0.571    5.714    0.857    6.000    2.286 
#    0.000    0.000    0.000    0.000    0.000    0.000 
#    0.000    0.000    0.000    0.000    0.000    0.000 
#
# Total GULP energy -78152.606447 kJ/mol
# GULP energy per Si atom -5582.329032 kJ/mol
# Density = 2.420969 g / cm^3
# Si number density = 24.264917 Si / 1000 Ang^3
#
#
#
# Elastic Constant Matrix: (Units=GPa)
#
#
# Indices 1 2 3 4 5 6 
#
# 1 200.1131 69.4223 64.8898 -15.5578 -0.7571 -13.9469
# 2 69.4223 120.0119 42.1076 -3.9218 3.9615 4.7533
# 3 64.8898 42.1076 128.2859 -4.3522 6.7330 -12.4859
# 4 -15.5578 -3.9218 -4.3522 43.3972 -12.2441 -4.1267
# 5 -0.7571 3.9615 6.7330 -12.2441 42.0260 -12.4954
# 6 -13.9469 4.7533 -12.4859 -4.1267 -12.4954 43.6619
#
#
#
# Elastic Compliance Matrix: (Units=1/GPa)
#
#
# Indices 1 2 3 4 5 6 
#
# 1 0.007493 -0.003633 -0.002320 0.003203 0.002737 0.003212
# 2 -0.003633 0.011388 -0.002203 -0.001532 -0.002379 -0.003856
# 3 -0.002320 -0.002203 0.009937 -0.000066 -0.000821 0.002099
# 4 0.003203 -0.001532 -0.000066 0.027573 0.010241 0.006708
# 5 0.002737 -0.002379 -0.000821 0.010241 0.030318 0.010543
# 6 0.003212 -0.003856 0.002099 0.006708 0.010543 0.028600
#
#
# Mechanical properties :
#
#
# Convention : Reuss Voigt Hill
#
# Bulk Modulus (GPa) = 79.96040 89.02778 84.49409
# Shear Modulus (GPa) = 36.82137 43.94975 40.38556
#
# Velocity S-wave (km/s) = 3.89970 4.26049 4.08408
# Velocity P-wave (km/s) = 7.30079 7.80845 7.55888
#
# Compressibility (1/GPa) = 0.01250619
#
# Stress axis : x y z
#
# Youngs Moduli (GPa) = 133.45473 87.80968 100.63707
#
# Poissons Ratio (x) = 0.31905 0.23348
# Poissons Ratio (y) = 0.48490 0.22166
# Poissons Ratio (z) = 0.30962 0.19341
#
# Static dielectric constant tensor:
#      x y z
#    x 1.678020 0.099920 0.131240 
#    y 0.099920 2.046600 0.056210 
#    z 0.131240 0.056210 1.875150 
# 
# From -- ./inp_files/93496.got.cif
#   From: 2010.05.17/outbox.cif.g08.bks.cpg/sg2_47_cif.got.tgz:93496.got - 2010.06.03 11:33:40.
