data_PCOD9059129
_publ_section_title
;
Structure prediction by ZEFSAII (Michael W. Deem and Ramdas Pophale) SiO2 
 PCOD9059129
Probable space group: P -1
;
_chemical_formula_sum "Si O2"
_cell_formula_units_Z 16
_cell_length_a 11.557758
_cell_length_b 12.173402
_cell_length_c 12.440810
_cell_angle_alpha 71.285390
_cell_angle_beta 40.381904
_cell_angle_gamma 102.453457
_cell_volume 710.762753
_symmetry_space_group_name_H-M "P -1"
_symmetry_group_IT_number 2
_symmetry_cell_setting 'triclinic'
loop_
_space_group_symop_operation_xyz
x,y,z
-x,-y,-z
loop_
_atom_site_type_symbol
_atom_site_label
_atom_site_fract_x
_atom_site_fract_y
_atom_site_fract_z
Si Si1 0.941643 0.667144 0.158217
Si Si2 0.592538 0.687392 0.444446
Si Si3 0.813691 0.928652 0.551286
Si Si4 0.238999 0.707729 0.127161
Si Si5 0.037104 0.661741 0.495007
Si Si6 0.391280 0.400639 0.305257
Si Si7 0.655069 0.193087 0.358016
Si Si8 0.006999 0.743029 0.712954
O O1 0.860829 0.764542 0.174171
O O2 0.658572 0.463098 0.407879
O O3 0.086298 0.720974 0.152504
O O4 0.132301 0.698520 0.924704
O O5 0.570036 0.596196 0.596056
O O6 0.541373 0.793099 0.488999
O O7 0.771328 0.792048 0.556866
O O8 0.517563 0.814376 0.840376
O O9 0.000000 0.000000 0.500000
O O10 0.936528 0.096345 0.346551
O O11 0.051355 0.502583 0.337796
O O12 0.270167 0.765079 0.209437
O O13 0.781620 0.580244 0.630483
O O14 0.101029 0.775260 0.513362
O O15 0.692662 0.557834 0.996072
O O16 0.826409 0.256359 0.325064
O O17 0.500000 0.000000 0.500000
#
# Coordination Sequence:
#
# PCOD9059129 Si02
#       8
#     2   2   2   2   2   2   2   2
#     4  11  23  45  71 102 137 182 238 283 350 415
#     4  11  24  42  72 100 135 185 233 290 342 415
#     4  12  25  43  68 100 138 178 232 278 349 419
#     4  11  23  42  67 100 138 179 223 289 343 417
#     4  11  23  40  68 100 136 177 226 281 351 409
#     4  12  22  46  68  98 137 178 230 285 343 416
#     4  12  26  45  69 104 141 183 235 289 347 415
#     4  12  24  43  70 100 136 183 225 283 349 414
#
# _framework density 22.511026999999999
#
# number of rings (size 3 to 8) (size 9 to 14) (size 15 to 20)
#    0.000    0.500    5.000    4.500    0.000    1.000 
#    0.000    0.000    0.000    0.000    0.000    0.000 
#    0.000    0.000    0.000    0.000    0.000    0.000 
#
# Total GULP energy -89417.149880 kJ/mol
# GULP energy per Si atom -5588.571868 kJ/mol
# Density = 2.245979 g / cm^3
# Si number density = 22.511027 Si / 1000 Ang^3
#
#
#
# Elastic Constant Matrix: (Units=GPa)
#
#
# Indices 1 2 3 4 5 6 
#
# 1 82.8917 11.0797 15.3070 7.2239 -6.1371 -13.0996
# 2 11.0797 114.7767 16.2168 7.4826 -2.9437 -15.2833
# 3 15.3070 16.2168 17.6161 3.4140 -6.6667 -1.7555
# 4 7.2239 7.4826 3.4140 29.1327 -3.1526 0.3886
# 5 -6.1371 -2.9437 -6.6667 -3.1526 26.1920 11.7236
# 6 -13.0996 -15.2833 -1.7555 0.3886 11.7236 41.6831
#
#
#
# Elastic Compliance Matrix: (Units=1/GPa)
#
#
# Indices 1 2 3 4 5 6 
#
# 1 0.015527 0.001451 -0.014778 -0.002871 -0.002816 0.005608
# 2 0.001451 0.010991 -0.011954 -0.002288 -0.004044 0.005141
# 3 -0.014778 -0.011954 0.088256 -0.000987 0.022780 -0.011708
# 4 -0.002871 -0.002288 -0.000987 0.036299 0.004734 -0.003452
# 5 -0.002816 -0.004044 0.022780 0.004734 0.050432 -0.015637
# 6 0.005608 0.005141 -0.011708 -0.003452 -0.015637 0.031575
#
#
# Mechanical properties :
#
#
# Convention : Reuss Voigt Hill
#
# Bulk Modulus (GPa) = 15.57300 33.38794 24.48047
# Shear Modulus (GPa) = 16.39096 30.91363 23.65230
#
# Velocity S-wave (km/s) = 2.70132 3.70978 3.24496
# Velocity P-wave (km/s) = 4.08197 5.76316 4.99382
#
# Compressibility (1/GPa) = 0.06421372
#
# Stress axis : x y z
#
# Youngs Moduli (GPa) = 64.40480 90.97945 11.33064
#
# Poissons Ratio (x) = -0.13198 0.16744
# Poissons Ratio (y) = -0.09343 0.13544
# Poissons Ratio (z) = 0.95175 1.08753
#
# Static dielectric constant tensor:
#      x y z
#    x 1.800600 -0.020910 -0.096870 
#    y -0.020910 1.892820 0.131420 
#    z -0.096870 0.131420 1.411570 
# 
# From -- ./inp_files/428082.got.cif
#   From: 2010.05.17/outbox.cif.g08.bks.cpg/sg2_215_cif.got.tgz:428082.got - 2010.06.03 11:33:40.
