data_PCOD9059988
_publ_section_title
;
Structure prediction by ZEFSAII (Michael W. Deem and Ramdas Pophale) SiO2 
 PCOD9059988
Probable space group: P -1
;
_chemical_formula_sum "Si O2"
_cell_formula_units_Z 14
_cell_length_a 8.837368
_cell_length_b 11.658774
_cell_length_c 16.210376
_cell_angle_alpha 32.488073
_cell_angle_beta 56.306514
_cell_angle_gamma 77.825950
_cell_volume 610.574866
_symmetry_space_group_name_H-M "P -1"
_symmetry_group_IT_number 2
_symmetry_cell_setting 'triclinic'
loop_
_space_group_symop_operation_xyz
x,y,z
-x,-y,-z
loop_
_atom_site_type_symbol
_atom_site_label
_atom_site_fract_x
_atom_site_fract_y
_atom_site_fract_z
Si Si1 0.404337 0.027905 0.596540
Si Si2 0.439128 0.666482 0.477400
Si Si3 0.986097 0.633185 0.655412
Si Si4 0.629875 0.091938 0.031518
Si Si5 0.689649 0.477813 0.993140
Si Si6 0.842445 0.187759 0.747798
Si Si7 0.047300 0.072535 0.253944
O O1 0.498704 0.280318 0.475711
O O2 0.169835 0.941056 0.685601
O O3 0.500000 0.000000 0.500000
O O4 0.398272 0.816192 0.785134
O O5 0.500000 0.500000 0.500000
O O6 0.184804 0.595155 0.599678
O O7 0.594499 0.941639 0.216481
O O8 0.909195 0.612761 0.785848
O O9 0.048837 0.898520 0.432697
O O10 0.755285 0.397088 0.826894
O O11 0.390209 0.936459 0.154770
O O12 0.790273 0.097106 0.912387
O O13 0.500000 0.500000 0.000000
O O14 0.756691 0.632941 0.964579
O O15 0.000000 0.500000 0.500000
O O16 0.942644 0.054750 0.754443
#
# Coordination Sequence:
#
# PCOD9059988 Si02
#       7
#     2   2   2   2   2   2   2
#     4  12  28  48  70 110 154 191 251 317 371 444
#     4  12  28  47  75 110 153 201 252 308 377 451
#     4  12  24  48  76 107 145 191 257 306 367 456
#     4  11  23  43  73 102 149 188 246 297 374 437
#     4  12  25  48  78 106 145 199 254 306 380 452
#     4  11  23  42  72 109 146 185 245 310 370 442
#     4  12  25  43  76 105 144 193 245 310 377 438
#
# _framework density 22.929212
#
# number of rings (size 3 to 8) (size 9 to 14) (size 15 to 20)
#    0.000    0.286    4.286    4.286    4.000    2.857 
#    0.000    0.000    0.000    0.000    0.000    0.000 
#    0.000    0.000    0.000    0.000    0.000    0.000 
#
# Total GULP energy -78082.121706 kJ/mol
# GULP energy per Si atom -5577.294408 kJ/mol
# Density = 2.287702 g / cm^3
# Si number density = 22.929212 Si / 1000 Ang^3
#
#
#
# Elastic Constant Matrix: (Units=GPa)
#
#
# Indices 1 2 3 4 5 6 
#
# 1 94.9706 49.6082 6.6626 1.4962 -19.6642 -8.6798
# 2 49.6082 165.3713 49.2630 0.8679 -2.9059 -9.1789
# 3 6.6626 49.2630 63.3923 2.7999 -9.4681 -1.2697
# 4 1.4962 0.8679 2.7999 47.0523 14.7062 -7.9453
# 5 -19.6642 -2.9059 -9.4681 14.7062 35.1436 -0.3549
# 6 -8.6798 -9.1789 -1.2697 -7.9453 -0.3549 44.7931
#
#
#
# Elastic Compliance Matrix: (Units=1/GPa)
#
#
# Indices 1 2 3 4 5 6 
#
# 1 0.015793 -0.005870 0.004797 -0.003987 0.011326 0.001376
# 2 -0.005870 0.010217 -0.008257 0.002452 -0.005679 0.001112
# 3 0.004797 -0.008257 0.023417 -0.004756 0.010292 -0.000861
# 4 -0.003987 0.002452 -0.004756 0.026870 -0.014510 0.004246
# 5 0.011326 -0.005679 0.010292 -0.014510 0.043158 -0.000909
# 6 0.001376 0.001112 -0.000861 0.004246 -0.000909 0.023541
#
#
# Mechanical properties :
#
#
# Convention : Reuss Voigt Hill
#
# Bulk Modulus (GPa) = 32.50209 59.42241 45.96225
# Shear Modulus (GPa) = 29.08472 39.94448 34.51460
#
# Velocity S-wave (km/s) = 3.56540 4.17835 3.88399
# Velocity P-wave (km/s) = 5.58169 7.01783 6.34055
#
# Compressibility (1/GPa) = 0.03076725
#
# Stress axis : x y z
#
# Youngs Moduli (GPa) = 63.31833 97.87850 42.70386
#
# Poissons Ratio (x) = 0.57459 -0.20487
# Poissons Ratio (y) = 0.37171 0.35260
# Poissons Ratio (z) = -0.30377 0.80817
#
# Static dielectric constant tensor:
#      x y z
#    x 1.834360 0.060560 -0.007490 
#    y 0.060560 2.078680 0.049610 
#    z -0.007490 0.049610 1.848110 
# 
# From -- ./inp_files/364108.got.cif
#   From: 2010.05.17/outbox.cif.g08.bks.cpg/sg2_183_cif.got.tgz:364108.got - 2010.06.03 11:33:40.
