data_PCOD9059333
_publ_section_title
;
Structure prediction by ZEFSAII (Michael W. Deem and Ramdas Pophale) SiO2 
 PCOD9059333
Probable space group: P -1
;
_chemical_formula_sum "Si O2"
_cell_formula_units_Z 13
_cell_length_a 5.263733
_cell_length_b 20.502960
_cell_length_c 6.673179
_cell_angle_alpha 132.333932
_cell_angle_beta 103.178368
_cell_angle_gamma 76.271841
_cell_volume 514.839142
_symmetry_space_group_name_H-M "P -1"
_symmetry_group_IT_number 2
_symmetry_cell_setting 'triclinic'
loop_
_space_group_symop_operation_xyz
x,y,z
-x,-y,-z
loop_
_atom_site_type_symbol
_atom_site_label
_atom_site_fract_x
_atom_site_fract_y
_atom_site_fract_z
Si Si1 0.558284 0.187001 0.170168
Si Si2 0.794017 0.083615 0.684935
Si Si3 0.575388 0.382643 0.668254
Si Si4 0.890224 0.798644 0.228819
Si Si5 0.500000 0.500000 0.500000
Si Si6 0.383607 0.083559 0.284239
Si Si7 0.133740 0.389517 0.950201
O O1 0.662013 0.281436 0.403365
O O2 0.447309 0.162287 0.311902
O O3 0.762886 0.105601 0.957496
O O4 0.333817 0.192329 0.967239
O O5 0.544881 0.064305 0.476995
O O6 0.859805 0.177462 0.798993
O O7 0.000000 0.000000 0.500000
O O8 0.484364 0.439222 0.575449
O O9 0.343212 0.378897 0.782064
O O10 0.834886 0.417081 0.881902
O O11 0.878889 0.872262 0.559287
O O12 0.884184 0.704050 0.132618
O O13 0.748877 0.544912 0.738751
O O14 0.500000 0.000000 0.000000
#
# Coordination Sequence:
#
# PCOD9059333 Si02
#       7
#     2   2   2   2   1   2   2
#     4  11  24  43  68 101 144 196 246 312 378 446
#     4  11  25  41  66 105 143 195 254 312 379 447
#     4  12  28  49  79 115 150 205 257 311 389 468
#     4  11  24  43  68 100 146 193 249 311 376 452
#     4  12  28  54  80 114 160 194 254 330 388 448
#     4  11  23  41  65  97 139 187 246 306 371 449
#     4  12  28  49  78 115 151 202 260 309 391 465
#
# _framework density 25.250603999999999
#
# number of rings (size 3 to 8) (size 9 to 14) (size 15 to 20)
#    0.000    0.615    3.077    3.692    4.308    9.846 
#    0.000    0.000    0.000    0.000    0.000    0.000 
#    0.000    0.000    0.000    0.000    0.000    0.000 
#
# Total GULP energy -72382.297769 kJ/mol
# GULP energy per Si atom -5567.869059 kJ/mol
# Density = 2.519313 g / cm^3
# Si number density = 25.250604 Si / 1000 Ang^3
#
#
#
# Elastic Constant Matrix: (Units=GPa)
#
#
# Indices 1 2 3 4 5 6 
#
# 1 55.0926 27.8484 21.8372 -15.7589 1.2301 16.6488
# 2 27.8484 153.2737 29.8057 -31.0119 5.6793 17.0718
# 3 21.8372 29.8057 112.4138 -5.3011 18.2053 2.0463
# 4 -15.7589 -31.0119 -5.3011 49.0256 -0.5363 5.6963
# 5 1.2301 5.6793 18.2053 -0.5363 41.8986 -6.7414
# 6 16.6488 17.0718 2.0463 5.6963 -6.7414 40.1209
#
#
#
# Elastic Compliance Matrix: (Units=1/GPa)
#
#
# Indices 1 2 3 4 5 6 
#
# 1 0.026300 -0.000864 -0.004151 0.008810 -0.000619 -0.011689
# 2 -0.000864 0.008603 -0.001611 0.005463 -0.001042 -0.004171
# 3 -0.004151 -0.001611 0.010704 -0.001400 -0.004108 0.001371
# 4 0.008810 0.005463 -0.001400 0.027692 -0.001665 -0.010120
# 5 -0.000619 -0.001042 -0.004108 -0.001665 0.026696 0.005632
# 6 -0.011689 -0.004171 0.001371 -0.010120 0.005632 0.033863
#
#
# Mechanical properties :
#
#
# Convention : Reuss Voigt Hill
#
# Bulk Modulus (GPa) = 30.90795 53.30698 42.10746
# Shear Modulus (GPa) = 31.66678 42.29494 36.98086
#
# Velocity S-wave (km/s) = 3.54517 4.09713 3.83110
# Velocity P-wave (km/s) = 5.38746 6.59840 6.02344
#
# Compressibility (1/GPa) = 0.03235414
#
# Stress axis : x y z
#
# Youngs Moduli (GPa) = 38.02339 116.23797 93.42687
#
# Poissons Ratio (x) = 0.10039 0.38785
# Poissons Ratio (y) = 0.03284 0.15051
# Poissons Ratio (z) = 0.15785 0.18725
#
# Static dielectric constant tensor:
#      x y z
#    x 2.141630 -0.062060 -0.077980 
#    y -0.062060 1.990290 0.090710 
#    z -0.077980 0.090710 2.023490 
# 
# From -- ./inp_files/10130.got.cif
#   From: 2010.05.17/outbox.cif.g08.bks.cpg/sg2_6_cif.got.tgz:10130.got - 2010.06.03 11:33:40.
