data_PCOD9059848
_publ_section_title
;
Structure prediction by ZEFSAII (Michael W. Deem and Ramdas Pophale) SiO2 
 PCOD9059848
Probable space group: P -1
;
_chemical_formula_sum "Si O2"
_cell_formula_units_Z 15
_cell_length_a 11.989871
_cell_length_b 11.961697
_cell_length_c 12.776078
_cell_angle_alpha 130.675355
_cell_angle_beta 127.154276
_cell_angle_gamma 30.914959
_cell_volume 709.231885
_symmetry_space_group_name_H-M "P -1"
_symmetry_group_IT_number 2
_symmetry_cell_setting 'triclinic'
loop_
_space_group_symop_operation_xyz
x,y,z
-x,-y,-z
loop_
_atom_site_type_symbol
_atom_site_label
_atom_site_fract_x
_atom_site_fract_y
_atom_site_fract_z
Si Si1 0.717056 0.403444 0.425828
Si Si2 0.654430 0.737218 0.907220
Si Si3 0.068650 0.550664 0.919642
Si Si4 0.352057 0.814229 0.623570
Si Si5 0.445840 0.393812 0.765470
Si Si6 0.843750 0.230796 0.987195
Si Si7 0.500000 0.000000 0.500000
Si Si8 0.854277 0.772445 0.382339
O O1 0.494877 0.631950 0.498514
O O2 0.783767 0.199519 0.399506
O O3 0.661895 0.439931 0.294862
O O4 0.909941 0.365376 0.527319
O O5 0.528028 0.728887 0.755474
O O6 0.867042 0.629025 0.904615
O O7 0.733538 0.605945 0.981169
O O8 0.500000 0.000000 0.000000
O O9 0.016628 0.759550 0.988331
O O10 0.128478 0.402747 0.764424
O O11 0.217470 0.058377 0.648312
O O12 0.308752 0.553834 0.887434
O O13 0.450764 0.214807 0.638776
O O14 0.688376 0.260911 0.842575
O O15 0.000000 0.000000 0.000000
O O16 0.324041 0.083237 0.539387
#
# Coordination Sequence:
#
# PCOD9059848 Si02
#       8
#     2   2   2   2   2   2   1   2
#     4  11  25  43  68  98 140 179 230 292 349 422
#     4  11  23  42  69  99 135 178 228 289 350 408
#     4  11  24  44  69 101 137 182 238 286 348 431
#     4  11  23  43  67 101 137 181 228 287 353 417
#     4  11  26  48  68 104 137 183 239 291 352 419
#     4  11  27  47  70  97 143 190 233 287 355 421
#     4  12  26  46  76 102 142 180 242 300 348 424
#     4  12  24  45  70 103 137 183 233 294 355 415
#
# _framework density 21.149640999999999
#
# number of rings (size 3 to 8) (size 9 to 14) (size 15 to 20)
#    0.000    0.800    5.333    1.200    1.867    5.867 
#    0.000    0.000    0.000    0.000    0.000    0.000 
#    0.000    0.000    0.000    0.000    0.000    0.000 
#
# Total GULP energy -83606.994186 kJ/mol
# GULP energy per Si atom -5573.799612 kJ/mol
# Density = 2.110150 g / cm^3
# Si number density = 21.149641 Si / 1000 Ang^3
#
#
#
# Elastic Constant Matrix: (Units=GPa)
#
#
# Indices 1 2 3 4 5 6 
#
# 1 90.5476 12.0900 31.8715 -5.0213 10.3288 19.9710
# 2 12.0900 59.6423 19.1769 -7.4100 10.7752 17.2973
# 3 31.8715 19.1769 71.4162 -11.7502 1.8652 4.0408
# 4 -5.0213 -7.4100 -11.7502 43.2965 3.0542 -0.3763
# 5 10.3288 10.7752 1.8652 3.0542 25.4934 14.1685
# 6 19.9710 17.2973 4.0408 -0.3763 14.1685 30.5786
#
#
#
# Elastic Compliance Matrix: (Units=1/GPa)
#
#
# Indices 1 2 3 4 5 6 
#
# 1 0.015507 0.002194 -0.006866 0.000313 -0.001257 -0.009875
# 2 0.002194 0.022609 -0.005846 0.002711 -0.003887 -0.011616
# 3 -0.006866 -0.005846 0.018881 0.003323 0.000683 0.005021
# 4 0.000313 0.002711 0.003323 0.024829 -0.004647 0.000282
# 5 -0.001257 -0.003887 0.000683 -0.004647 0.054262 -0.022270
# 6 -0.009875 -0.011616 0.005021 0.000282 -0.022270 0.055381
#
#
# Mechanical properties :
#
#
# Convention : Reuss Voigt Hill
#
# Bulk Modulus (GPa) = 27.80741 38.65366 33.23054
# Shear Modulus (GPa) = 22.27259 30.43821 26.35540
#
# Velocity S-wave (km/s) = 3.24866 3.79777 3.53390
# Velocity P-wave (km/s) = 5.21998 6.12754 5.69188
#
# Compressibility (1/GPa) = 0.03596164
#
# Stress axis : x y z
#
# Youngs Moduli (GPa) = 64.48881 44.22998 52.96261
#
# Poissons Ratio (x) = -0.09706 0.36366
# Poissons Ratio (y) = -0.14151 0.30960
# Poissons Ratio (z) = 0.44280 0.25855
#
# Static dielectric constant tensor:
#      x y z
#    x 1.750520 0.002240 -0.025450 
#    y 0.002240 1.739400 0.007450 
#    z -0.025450 0.007450 1.725990 
# 
# From -- ./inp_files/69827.got.cif
#   From: 2010.05.17/outbox.cif.g08.bks.cpg/sg2_35_cif.got.tgz:69827.got - 2010.06.03 11:33:40.
