data_PCOD9059223
_publ_section_title
;
Structure prediction by ZEFSAII (Michael W. Deem and Ramdas Pophale) SiO2 
 PCOD9059223
Probable space group: P -1
;
_chemical_formula_sum "Si O2"
_cell_formula_units_Z 16
_cell_length_a 17.625065
_cell_length_b 8.089028
_cell_length_c 20.751744
_cell_angle_alpha 42.656076
_cell_angle_beta 20.100547
_cell_angle_gamma 39.114055
_cell_volume 641.128416
_symmetry_space_group_name_H-M "P -1"
_symmetry_group_IT_number 2
_symmetry_cell_setting 'triclinic'
loop_
_space_group_symop_operation_xyz
x,y,z
-x,-y,-z
loop_
_atom_site_type_symbol
_atom_site_label
_atom_site_fract_x
_atom_site_fract_y
_atom_site_fract_z
Si Si1 0.145512 0.632205 0.984058
Si Si2 0.288671 0.693920 0.182145
Si Si3 0.426689 0.058323 0.870564
Si Si4 0.837810 0.894770 0.411835
Si Si5 0.939847 0.053839 0.458407
Si Si6 0.394476 0.804252 0.850825
Si Si7 0.308552 0.876561 0.666331
Si Si8 0.755557 0.443071 0.392136
O O1 0.315806 0.339862 0.911744
O O2 0.235179 0.718564 0.953339
O O3 0.175719 0.810696 0.850955
O O4 0.888191 0.616094 0.203956
O O5 0.477672 0.432187 0.133902
O O6 0.068660 0.675643 0.321360
O O7 0.161900 0.868129 0.294436
O O8 0.399525 0.854656 0.002276
O O9 0.700744 0.996247 0.653650
O O10 0.300795 0.046278 0.906346
O O11 0.853479 0.934144 0.312441
O O12 0.815679 0.172309 0.382724
O O13 0.601860 0.842860 0.631566
O O14 0.868673 0.344394 0.401103
O O15 0.000000 0.000000 0.500000
O O16 0.477613 0.605008 0.575250
O O17 0.500000 0.000000 0.500000
#
# Coordination Sequence:
#
# PCOD9059223 Si02
#       8
#     2   2   2   2   2   2   2   2
#     4  12  26  49  75 109 145 191 244 299 362 433
#     4  11  25  45  71 109 144 192 243 291 365 434
#     4  12  24  47  71 108 148 191 242 291 364 431
#     4  11  23  49  72 100 146 192 237 301 359 430
#     4  11  23  40  72 104 146 192 237 294 359 432
#     4  12  25  46  76 106 153 188 240 304 357 434
#     4  12  26  47  73 105 144 185 247 305 362 426
#     4  11  25  48  72 106 142 191 249 292 367 434
#
# _framework density 24.955998000000001
#
# number of rings (size 3 to 8) (size 9 to 14) (size 15 to 20)
#    0.000    0.500    7.500    1.875    1.750    3.000 
#    2.250    0.000    0.000    0.000    0.000    0.000 
#    0.000    0.000    0.000    0.000    0.000    0.000 
#
# Total GULP energy -89722.607624 kJ/mol
# GULP energy per Si atom -5607.662976 kJ/mol
# Density = 2.489920 g / cm^3
# Si number density = 24.955998 Si / 1000 Ang^3
#
#
#
# Elastic Constant Matrix: (Units=GPa)
#
#
# Indices 1 2 3 4 5 6 
#
# 1 164.3682 37.6200 32.1390 -4.3491 27.9178 -6.7810
# 2 37.6200 90.7554 24.5337 1.9312 5.5487 4.9827
# 3 32.1390 24.5337 140.9544 -16.4354 28.1582 6.1563
# 4 -4.3491 1.9312 -16.4354 35.5588 -3.5698 4.8883
# 5 27.9178 5.5487 28.1582 -3.5698 44.0502 -6.8803
# 6 -6.7810 4.9827 6.1563 4.8883 -6.8803 36.7542
#
#
#
# Elastic Compliance Matrix: (Units=1/GPa)
#
#
# Indices 1 2 3 4 5 6 
#
# 1 0.007542 -0.002830 -0.000448 0.000326 -0.003944 0.001068
# 2 -0.002830 0.012761 -0.001903 -0.001605 0.001034 -0.001526
# 3 -0.000448 -0.001903 0.009245 0.004175 -0.005510 -0.002960
# 4 0.000326 -0.001605 0.004175 0.030731 -0.000914 -0.004680
# 5 -0.003944 0.001034 -0.005510 -0.000914 0.029406 0.005681
# 6 0.001068 -0.001526 -0.002960 -0.004680 0.005681 0.029794
#
#
# Mechanical properties :
#
#
# Convention : Reuss Voigt Hill
#
# Bulk Modulus (GPa) = 52.12065 64.96262 58.54164
# Shear Modulus (GPa) = 36.70169 43.39163 40.04666
#
# Velocity S-wave (km/s) = 3.83907 4.17433 4.01021
# Velocity P-wave (km/s) = 6.37037 7.02287 6.70457
#
# Compressibility (1/GPa) = 0.01918625
#
# Stress axis : x y z
#
# Youngs Moduli (GPa) = 132.59725 78.36558 108.17100
#
# Poissons Ratio (x) = 0.22174 0.04845
# Poissons Ratio (y) = 0.37519 0.20584
# Poissons Ratio (z) = 0.05939 0.14912
#
# Static dielectric constant tensor:
#      x y z
#    x 1.972140 0.018110 -0.008590 
#    y 0.018110 2.015340 0.005220 
#    z -0.008590 0.005220 1.951130 
# 
# From -- ./inp_files/599687.got.cif
#   From: 2010.05.17/outbox.cif.g08.bks.cpg/sg2_300_cif.got.tgz:599687.got - 2010.06.03 11:33:40.
