data_PCOD9059269
_publ_section_title
;
Structure prediction by ZEFSAII (Michael W. Deem and Ramdas Pophale) SiO2 
 PCOD9059269
Probable space group: P -1
;
_chemical_formula_sum "Si O2"
_cell_formula_units_Z 16
_cell_length_a 19.049173
_cell_length_b 25.020713
_cell_length_c 11.319711
_cell_angle_alpha 30.492382
_cell_angle_beta 30.183189
_cell_angle_gamma 15.371139
_cell_volume 702.739837
_symmetry_space_group_name_H-M "P -1"
_symmetry_group_IT_number 2
_symmetry_cell_setting 'triclinic'
loop_
_space_group_symop_operation_xyz
x,y,z
-x,-y,-z
loop_
_atom_site_type_symbol
_atom_site_label
_atom_site_fract_x
_atom_site_fract_y
_atom_site_fract_z
Si Si1 0.227010 0.074503 0.572053
Si Si2 0.620399 0.364061 0.196075
Si Si3 0.744555 0.353787 0.595002
Si Si4 0.963967 0.738561 0.248213
Si Si5 0.209564 0.366869 0.287042
Si Si6 0.419133 0.169508 0.103026
Si Si7 0.781045 0.411305 0.181708
Si Si8 0.180048 0.962640 0.389914
O O1 0.066154 0.203657 0.682717
O O2 0.259070 0.171244 0.283777
O O3 0.035356 0.133844 0.647910
O O4 0.511842 0.836313 0.655118
O O5 0.414891 0.489004 0.364871
O O6 0.728821 0.176453 0.373915
O O7 0.500000 0.500000 0.000000
O O8 0.847685 0.302793 0.016243
O O9 0.769454 0.416780 0.329894
O O10 0.530055 0.405432 0.760921
O O11 0.008189 0.585326 0.465858
O O12 0.668048 0.948968 0.225072
O O13 0.274187 0.315274 0.150088
O O14 0.112718 0.548101 0.101893
O O15 0.559665 0.156465 0.830193
O O16 0.981522 0.184148 0.296879
O O17 0.000000 0.000000 0.500000
#
# Coordination Sequence:
#
# PCOD9059269 Si02
#       8
#     2   2   2   2   2   2   2   2
#     4   9  19  38  64  97 130 164 212 262 304 373
#     4  12  23  41  67  97 123 159 220 270 306 371
#     4  11  23  41  62  96 131 165 212 257 318 369
#     4   9  17  36  67  97 126 163 212 259 312 367
#     4   9  20  39  67  96 129 164 208 260 317 379
#     4   9  18  38  69  94 121 171 214 254 310 373
#     4  11  25  42  63  94 131 172 207 255 326 380
#     4  12  23  42  68  87 123 170 218 263 306 381
#
# _framework density 22.768028999999999
#
# number of rings (size 3 to 8) (size 9 to 14) (size 15 to 20)
#    0.000    1.750    3.750    2.250    1.750    0.500 
#    4.500    8.125    0.000    0.000    0.000    0.000 
#    0.000    0.000    0.000    0.000    0.000    0.000 
#
# Total GULP energy -89220.758654 kJ/mol
# GULP energy per Si atom -5576.297416 kJ/mol
# Density = 2.271621 g / cm^3
# Si number density = 22.768029 Si / 1000 Ang^3
#
#
#
# Elastic Constant Matrix: (Units=GPa)
#
#
# Indices 1 2 3 4 5 6 
#
# 1 81.1037 27.5463 30.7104 -10.2248 13.8146 -9.0446
# 2 27.5463 51.9916 46.9784 -5.7254 -2.5732 8.2922
# 3 30.7104 46.9784 174.0538 -21.0771 5.8139 17.3347
# 4 -10.2248 -5.7254 -21.0771 37.3704 7.1707 -0.6441
# 5 13.8146 -2.5732 5.8139 7.1707 23.5470 -2.1075
# 6 -9.0446 8.2922 17.3347 -0.6441 -2.1075 19.6655
#
#
#
# Elastic Compliance Matrix: (Units=1/GPa)
#
#
# Indices 1 2 3 4 5 6 
#
# 1 0.022361 -0.013947 -0.000316 0.007008 -0.015354 0.015028
# 2 -0.013947 0.035020 -0.006692 -0.005148 0.013981 -0.013952
# 3 -0.000316 -0.006692 0.008879 0.004695 -0.004660 -0.005496
# 4 0.007008 -0.005148 0.004695 0.033620 -0.016014 0.000640
# 5 -0.015354 0.013981 -0.004660 -0.016014 0.058756 -0.003077
# 6 0.015028 -0.013952 -0.005496 0.000640 -0.003077 0.068181
#
#
# Mechanical properties :
#
#
# Convention : Reuss Voigt Hill
#
# Bulk Modulus (GPa) = 41.06759 57.51328 49.29043
# Shear Modulus (GPa) = 18.06063 29.57753 23.81908
#
# Velocity S-wave (km/s) = 2.81952 3.60819 3.23795
# Velocity P-wave (km/s) = 5.35501 6.53254 5.97286
#
# Compressibility (1/GPa) = 0.02435010
#
# Stress axis : x y z
#
# Youngs Moduli (GPa) = 44.72001 28.55478 112.62440
#
# Poissons Ratio (x) = 0.39824 0.03563
# Poissons Ratio (y) = 0.62370 0.75372
# Poissons Ratio (z) = 0.01415 0.19110
#
# Static dielectric constant tensor:
#      x y z
#    x 2.014220 -0.146740 -0.149510 
#    y -0.146740 2.020120 0.160010 
#    z -0.149510 0.160010 2.042630 
# 
# From -- ./inp_files/467422.got.cif
#   From: 2010.05.17/outbox.cif.g08.bks.cpg/sg2_234_cif.got.tgz:467422.got - 2010.06.03 11:33:40.
