data_PCOD9059442
_publ_section_title
;
Structure prediction by ZEFSAII (Michael W. Deem and Ramdas Pophale) SiO2 
 PCOD9059442
Probable space group: P -1
;
_chemical_formula_sum "Si O2"
_cell_formula_units_Z 16
_cell_length_a 11.159233
_cell_length_b 5.723735
_cell_length_c 11.977730
_cell_angle_alpha 106.060890
_cell_angle_beta 107.281882
_cell_angle_gamma 55.274017
_cell_volume 594.743017
_symmetry_space_group_name_H-M "P -1"
_symmetry_group_IT_number 2
_symmetry_cell_setting 'triclinic'
loop_
_space_group_symop_operation_xyz
x,y,z
-x,-y,-z
loop_
_atom_site_type_symbol
_atom_site_label
_atom_site_fract_x
_atom_site_fract_y
_atom_site_fract_z
Si Si1 0.042371 0.200180 0.144525
Si Si2 0.294271 0.702369 0.285121
Si Si3 0.129153 0.550546 0.358449
Si Si4 0.162834 0.997526 0.703085
Si Si5 0.719138 0.875710 0.470015
Si Si6 0.694084 0.494134 0.048704
Si Si7 0.418969 0.356250 0.727695
Si Si8 0.752605 0.905117 0.015916
O O1 0.047083 0.404502 0.264851
O O2 0.874480 0.293778 0.090376
O O3 0.157535 0.886906 0.186554
O O4 0.118143 0.226134 0.057443
O O5 0.268055 0.474594 0.308889
O O6 0.443248 0.608721 0.248391
O O7 0.299652 0.888999 0.414970
O O8 0.180220 0.422695 0.476440
O O9 0.009129 0.886106 0.352310
O O10 0.209033 0.098818 0.619766
O O11 0.185790 0.106210 0.843499
O O12 0.272922 0.660009 0.697932
O O13 0.576518 0.877262 0.385023
O O14 0.611965 0.686358 0.159816
O O15 0.677098 0.717052 0.978142
O O16 0.656745 0.244230 0.004300
#
# Coordination Sequence:
#
# PCOD9059442 Si02
#       8
#     2   2   2   2   2   2   2   2
#     4  11  24  42  70 101 137 176 224 288 339 411
#     4  11  26  43  64  97 136 181 227 282 345 414
#     4  11  24  42  65 101 133 176 223 285 351 404
#     4  11  23  41  68  98 134 172 229 287 344 412
#     4  11  23  42  67  94 130 175 232 285 348 406
#     4  11  23  43  71 107 136 181 234 283 345 407
#     4  11  24  44  66  94 136 181 228 281 346 416
#     4  11  23  41  74 108 137 182 228 291 346 407
#
# _framework density 26.902373000000001
#
# number of rings (size 3 to 8) (size 9 to 14) (size 15 to 20)
#    0.000    1.000    2.500    3.750    1.750    8.000 
#    0.000    3.125    0.000    0.000    0.000    0.000 
#    0.000    0.000    0.000    0.000    0.000    0.000 
#
# Total GULP energy -89610.826933 kJ/mol
# GULP energy per Si atom -5600.676683 kJ/mol
# Density = 2.684114 g / cm^3
# Si number density = 26.902373 Si / 1000 Ang^3
#
#
#
# Elastic Constant Matrix: (Units=GPa)
#
#
# Indices 1 2 3 4 5 6 
#
# 1 108.9393 27.2810 43.8076 -22.6074 -19.3286 22.7445
# 2 27.2810 81.4208 24.3512 -21.8919 2.7794 13.5769
# 3 43.8076 24.3512 147.6840 -17.8904 -19.7326 8.1470
# 4 -22.6074 -21.8919 -17.8904 37.8584 14.4248 -8.5680
# 5 -19.3286 2.7794 -19.7326 14.4248 55.2268 -4.0743
# 6 22.7445 13.5769 8.1470 -8.5680 -4.0743 39.5995
#
#
#
# Elastic Compliance Matrix: (Units=1/GPa)
#
#
# Indices 1 2 3 4 5 6 
#
# 1 0.012873 -0.001891 -0.002489 0.003286 0.002464 -0.005269
# 2 -0.001891 0.016321 -0.001527 0.008672 -0.004499 -0.002782
# 3 -0.002489 -0.001527 0.008086 0.000874 0.001916 0.000676
# 4 0.003286 0.008672 0.000874 0.037591 -0.008630 0.002205
# 5 0.002464 -0.004499 0.001916 -0.008630 0.022145 0.000144
# 6 -0.005269 -0.002782 0.000676 0.002205 0.000144 0.029586
#
#
# Mechanical properties :
#
#
# Convention : Reuss Voigt Hill
#
# Bulk Modulus (GPa) = 39.26772 58.76930 49.01851
# Shear Modulus (GPa) = 34.03541 42.71056 38.37298
#
# Velocity S-wave (km/s) = 3.56075 3.98881 3.78084
# Velocity P-wave (km/s) = 5.61545 6.56559 6.10902
#
# Compressibility (1/GPa) = 0.02546621
#
# Stress axis : x y z
#
# Youngs Moduli (GPa) = 77.68217 61.26957 123.67021
#
# Poissons Ratio (x) = 0.11585 0.30778
# Poissons Ratio (y) = 0.14688 0.18890
# Poissons Ratio (z) = 0.19333 0.09359
#
# Static dielectric constant tensor:
#      x y z
#    x 2.108810 0.002960 0.008520 
#    y 0.002960 2.173330 0.053780 
#    z 0.008520 0.053780 2.061810 
# 
# From -- ./inp_files/410842.got.cif
#   From: 2010.05.17/outbox.cif.g08.bks.cpg/sg2_206_cif.got.tgz:410842.got - 2010.06.03 11:33:40.
