data_PCOD9059802
_publ_section_title
;
Structure prediction by ZEFSAII (Michael W. Deem and Ramdas Pophale) SiO2 
 PCOD9059802
Probable space group: P -1
;
_chemical_formula_sum "Si O2"
_cell_formula_units_Z 13
_cell_length_a 10.013888
_cell_length_b 9.615681
_cell_length_c 16.231682
_cell_angle_alpha 31.904209
_cell_angle_beta 42.210774
_cell_angle_gamma 54.632237
_cell_volume 549.449746
_symmetry_space_group_name_H-M "P -1"
_symmetry_group_IT_number 2
_symmetry_cell_setting 'triclinic'
loop_
_space_group_symop_operation_xyz
x,y,z
-x,-y,-z
loop_
_atom_site_type_symbol
_atom_site_label
_atom_site_fract_x
_atom_site_fract_y
_atom_site_fract_z
Si Si1 0.153881 0.454303 0.575895
Si Si2 0.557684 0.906463 0.776086
Si Si3 0.806840 0.608727 0.939808
Si Si4 0.904035 0.269141 0.925825
Si Si5 0.439230 0.220287 0.354573
Si Si6 0.997027 0.869064 0.336226
Si Si7 0.500000 0.500000 0.500000
O O1 0.024171 0.209451 0.709543
O O2 0.363257 0.366924 0.551443
O O3 0.033320 0.483087 0.700991
O O4 0.155456 0.704969 0.389738
O O5 0.573268 0.217020 0.631019
O O6 0.711524 0.767233 0.830017
O O7 0.582004 0.861930 0.690199
O O8 0.329689 0.780718 0.965336
O O9 0.912912 0.386614 0.955187
O O10 0.619067 0.465493 0.149948
O O11 0.951063 0.824079 0.817794
O O12 0.000000 0.000000 0.000000
O O13 0.218051 0.258337 0.464947
O O14 0.500000 0.000000 0.500000
#
# Coordination Sequence:
#
# PCOD9059802 Si02
#       7
#     2   2   2   2   2   2   1
#     4  11  24  45  67 109 144 183 239 303 365 426
#     4  11  23  44  70 105 139 188 248 293 360 435
#     4  11  25  47  74 103 141 199 242 294 369 436
#     4  11  23  42  69 101 140 182 247 300 343 429
#     4  11  25  45  69 103 147 185 245 307 358 428
#     4  11  25  46  72 102 149 187 235 302 370 434
#     4  12  22  40  72 100 144 184 234 298 356 428
#
# _framework density 23.660035000000001
#
# number of rings (size 3 to 8) (size 9 to 14) (size 15 to 20)
#    0.000    0.923    3.077    4.615    4.308    1.846 
#    5.538    2.308    0.000    0.000    0.000    0.000 
#    0.000    0.000    0.000    0.000    0.000    0.000 
#
# Total GULP energy -72483.769509 kJ/mol
# GULP energy per Si atom -5575.674578 kJ/mol
# Density = 2.360618 g / cm^3
# Si number density = 23.660035 Si / 1000 Ang^3
#
#
#
# Elastic Constant Matrix: (Units=GPa)
#
#
# Indices 1 2 3 4 5 6 
#
# 1 135.8435 18.9839 16.4309 -7.1425 15.2381 -0.1534
# 2 18.9839 81.1384 27.1831 -27.3956 -12.3128 -1.9120
# 3 16.4309 27.1831 101.6482 -6.8012 -0.6617 12.6616
# 4 -7.1425 -27.3956 -6.8012 23.1226 -1.9239 4.8734
# 5 15.2381 -12.3128 -0.6617 -1.9239 38.1622 -18.5599
# 6 -0.1534 -1.9120 12.6616 4.8734 -18.5599 23.8217
#
#
#
# Elastic Compliance Matrix: (Units=1/GPa)
#
#
# Indices 1 2 3 4 5 6 
#
# 1 0.008669 -0.003815 0.000270 -0.001098 -0.007769 -0.006222
# 2 -0.003815 0.028708 -0.006863 0.029249 0.019505 0.015140
# 3 0.000270 -0.006863 0.013227 -0.001900 -0.009154 -0.014323
# 4 -0.001098 0.029249 -0.001900 0.078698 0.012251 -0.003204
# 5 -0.007769 0.019505 -0.009154 0.012251 0.061091 0.051472
# 6 -0.006222 0.015140 -0.014323 -0.003204 0.051472 0.091525
#
#
# Mechanical properties :
#
#
# Convention : Reuss Voigt Hill
#
# Bulk Modulus (GPa) = 33.56947 49.31400 41.44173
# Shear Modulus (GPa) = 15.99170 34.09011 25.04091
#
# Velocity S-wave (km/s) = 2.60262 3.79995 3.25678
# Velocity P-wave (km/s) = 4.82188 6.33567 5.62989
#
# Compressibility (1/GPa) = 0.02978898
#
# Stress axis : x y z
#
# Youngs Moduli (GPa) = 115.35855 34.83302 75.60392
#
# Poissons Ratio (x) = 0.13288 -0.02041
# Poissons Ratio (y) = 0.44008 0.51884
# Poissons Ratio (z) = -0.03115 0.23904
#
# Static dielectric constant tensor:
#      x y z
#    x 1.963210 -0.010910 -0.049380 
#    y -0.010910 1.916830 -0.021360 
#    z -0.049380 -0.021360 1.915840 
# 
# From -- ./inp_files/491799.got.cif
#   From: 2010.05.17/outbox.cif.g08.bks.cpg/sg2_246_cif.got.tgz:491799.got - 2010.06.03 11:33:40.
