data_PCOD9059287
_publ_section_title
;
Structure prediction by ZEFSAII (Michael W. Deem and Ramdas Pophale) SiO2 
 PCOD9059287
Probable space group: P -1
;
_chemical_formula_sum "Si O2"
_cell_formula_units_Z 16
_cell_length_a 14.888290
_cell_length_b 15.537100
_cell_length_c 9.999187
_cell_angle_alpha 89.537906
_cell_angle_beta 110.185780
_cell_angle_gamma 29.236959
_cell_volume 782.897670
_symmetry_space_group_name_H-M "P -1"
_symmetry_group_IT_number 2
_symmetry_cell_setting 'triclinic'
loop_
_space_group_symop_operation_xyz
x,y,z
-x,-y,-z
loop_
_atom_site_type_symbol
_atom_site_label
_atom_site_fract_x
_atom_site_fract_y
_atom_site_fract_z
Si Si1 0.350143 0.922656 0.276087
Si Si2 0.933237 0.989207 0.297028
Si Si3 0.693308 0.716154 0.931354
Si Si4 0.715434 0.998061 0.057225
Si Si5 0.261629 0.454009 0.291574
Si Si6 0.908186 0.147117 0.059480
Si Si7 0.564268 0.359649 0.332210
Si Si8 0.270838 0.182586 0.270245
O O1 0.217462 0.126096 0.233844
O O2 0.137947 0.025509 0.191939
O O3 0.596293 0.705010 0.504255
O O4 0.420350 0.865805 0.155999
O O5 0.848954 0.974062 0.178756
O O6 0.246802 0.733613 0.489232
O O7 0.864837 0.130579 0.172524
O O8 0.767438 0.135637 0.346361
O O9 0.694638 0.643217 0.814167
O O10 0.636913 0.852052 0.821870
O O11 0.484545 0.868774 0.935930
O O12 0.990583 0.465077 0.148370
O O13 0.954582 0.731217 0.156481
O O14 0.403442 0.426329 0.336060
O O15 0.645834 0.413512 0.868390
O O16 0.000000 0.000000 0.000000
O O17 0.500000 0.000000 0.500000
#
# Coordination Sequence:
#
# PCOD9059287 Si02
#       8
#     2   2   2   2   2   2   2   2
#     4  12  25  43  69 103 139 177 232 282 342 406
#     4  11  24  39  64 100 134 182 234 276 337 400
#     4  11  25  48  75 100 136 178 228 278 352 410
#     4  12  26  44  70 105 138 180 230 283 343 405
#     4  12  23  45  70  98 142 184 222 285 341 406
#     4  12  23  40  63  95 136 178 221 279 336 394
#     4  11  23  41  64  95 138 184 233 277 330 408
#     4  11  24  48  77 101 135 182 222 288 348 406
#
# _framework density 20.436896999999998
#
# number of rings (size 3 to 8) (size 9 to 14) (size 15 to 20)
#    0.000    0.500    7.500    0.375    1.750    2.500 
#    0.000    1.250    0.000    0.000    0.000    0.000 
#    0.000    0.000    0.000    0.000    0.000    0.000 
#
# Total GULP energy -89491.700218 kJ/mol
# GULP energy per Si atom -5593.231264 kJ/mol
# Density = 2.039038 g / cm^3
# Si number density = 20.436897 Si / 1000 Ang^3
#
#
#
# Elastic Constant Matrix: (Units=GPa)
#
#
# Indices 1 2 3 4 5 6 
#
# 1 106.3267 26.0838 26.8388 -6.5893 -10.1283 -15.1226
# 2 26.0838 68.3814 27.4242 -1.7447 -2.6790 -21.0457
# 3 26.8388 27.4242 147.3033 -18.0672 -10.6259 -15.7712
# 4 -6.5893 -1.7447 -18.0672 21.7421 1.9341 1.2499
# 5 -10.1283 -2.6790 -10.6259 1.9341 33.4175 6.9169
# 6 -15.1226 -21.0457 -15.7712 1.2499 6.9169 37.3525
#
#
#
# Elastic Compliance Matrix: (Units=1/GPa)
#
#
# Indices 1 2 3 4 5 6 
#
# 1 0.010994 -0.003168 -0.000791 0.002108 0.002326 0.001831
# 2 -0.003168 0.019484 -0.002435 -0.001769 -0.001951 0.009088
# 3 -0.000791 -0.002435 0.008425 0.006346 0.001596 0.001357
# 4 0.002108 -0.001769 0.006346 0.051770 -0.000674 0.000929
# 5 0.002326 -0.001951 0.001596 -0.000674 0.032140 -0.005413
# 6 0.001831 0.009088 0.001357 0.000929 -0.005413 0.034178
#
#
# Mechanical properties :
#
#
# Convention : Reuss Voigt Hill
#
# Bulk Modulus (GPa) = 38.29143 53.63389 45.96266
# Shear Modulus (GPa) = 28.01353 34.61339 31.31346
#
# Velocity S-wave (km/s) = 3.70636 4.11989 3.91858
# Velocity P-wave (km/s) = 6.09042 6.99514 6.55840
#
# Compressibility (1/GPa) = 0.02611550
#
# Stress axis : x y z
#
# Youngs Moduli (GPa) = 90.95494 51.32348 118.69559
#
# Poissons Ratio (x) = 0.16260 0.09388
# Poissons Ratio (y) = 0.28816 0.28902
# Poissons Ratio (z) = 0.07194 0.12497
#
# Static dielectric constant tensor:
#      x y z
#    x 1.727700 0.016860 0.008590 
#    y 0.016860 1.717650 0.023170 
#    z 0.008590 0.023170 1.742500 
# 
# From -- ./inp_files/315295.got.cif
#   From: 2010.05.17/outbox.cif.g08.bks.cpg/sg2_158_cif.got.tgz:315295.got - 2010.06.03 11:33:40.
