data_PCOD9059709
_publ_section_title
;
Structure prediction by ZEFSAII (Michael W. Deem and Ramdas Pophale) SiO2 
 PCOD9059709
Probable space group: P -1
;
_chemical_formula_sum "Si O2"
_cell_formula_units_Z 12
_cell_length_a 18.392753
_cell_length_b 5.371117
_cell_length_c 8.029087
_cell_angle_alpha 60.403923
_cell_angle_beta 132.706903
_cell_angle_gamma 113.594574
_cell_volume 504.163077
_symmetry_space_group_name_H-M "P -1"
_symmetry_group_IT_number 2
_symmetry_cell_setting 'triclinic'
loop_
_space_group_symop_operation_xyz
x,y,z
-x,-y,-z
loop_
_atom_site_type_symbol
_atom_site_label
_atom_site_fract_x
_atom_site_fract_y
_atom_site_fract_z
Si Si1 0.802898 0.588580 0.517597
Si Si2 0.600192 0.647004 0.332577
Si Si3 0.402309 0.876928 0.290817
Si Si4 0.223174 0.245916 0.926155
Si Si5 0.613917 0.248380 0.060352
Si Si6 0.118642 0.040620 0.162730
O O1 0.682092 0.554072 0.361279
O O2 0.841329 0.767145 0.680962
O O3 0.842928 0.277202 0.673380
O O4 0.829377 0.772951 0.330239
O O5 0.611644 0.461227 0.576375
O O6 0.484917 0.595620 0.117132
O O7 0.625992 0.987039 0.289161
O O8 0.414940 0.922029 0.100571
O O9 0.500000 0.000000 0.500000
O O10 0.304645 0.019725 0.143454
O O11 0.288083 0.553586 0.903686
O O12 0.154624 0.203055 0.994306
O O13 0.000000 0.000000 0.000000
#
# Coordination Sequence:
#
# PCOD9059709 Si02
#       6
#     2   2   2   2   2   2
#     4  12  27  49  80 115 152 201 255 319 390 463
#     4  11  23  42  67 104 155 201 246 302 365 448
#     4  12  24  40  66 107 153 209 252 308 363 448
#     4  12  27  47  77 109 155 201 259 311 383 459
#     4  11  25  42  64 108 157 205 252 303 370 449
#     4  12  30  54  82 113 149 195 259 335 404 462
#
# _framework density 23.801822000000001
#
# number of rings (size 3 to 8) (size 9 to 14) (size 15 to 20)
#    0.000    0.333    5.000    3.000    2.333    5.333 
#    0.000    0.000    0.000    0.000    0.000    0.000 
#    0.000    0.000    0.000    0.000    0.000    0.000 
#
# Total GULP energy -67220.602416 kJ/mol
# GULP energy per Si atom -5601.716868 kJ/mol
# Density = 2.374765 g / cm^3
# Si number density = 23.801822 Si / 1000 Ang^3
#
#
#
# Elastic Constant Matrix: (Units=GPa)
#
#
# Indices 1 2 3 4 5 6 
#
# 1 175.2887 59.9173 72.6991 11.4765 -1.6647 11.7766
# 2 59.9173 117.7919 53.7654 -17.7072 -1.9893 -0.6202
# 3 72.6991 53.7654 99.6553 -17.7667 -7.3335 7.8202
# 4 11.4765 -17.7072 -17.7667 51.4710 -6.3306 -8.4330
# 5 -1.6647 -1.9893 -7.3335 -6.3306 52.8579 -1.6827
# 6 11.7766 -0.6202 7.8202 -8.4330 -1.6827 39.7253
#
#
#
# Elastic Compliance Matrix: (Units=1/GPa)
#
#
# Indices 1 2 3 4 5 6 
#
# 1 0.010185 -0.003095 -0.006769 -0.006387 -0.001600 -0.003159
# 2 -0.003095 0.012506 -0.003940 0.004139 0.000411 0.002784
# 3 -0.006769 -0.003940 0.018564 0.006917 0.003039 -0.000112
# 4 -0.006387 0.004139 0.006917 0.026227 0.004257 0.006344
# 5 -0.001600 0.000411 0.003039 0.004257 0.019867 0.001628
# 6 -0.003159 0.002784 -0.000112 0.006344 0.001628 0.027591
#
#
# Mechanical properties :
#
#
# Convention : Reuss Voigt Hill
#
# Bulk Modulus (GPa) = 73.27179 85.05549 79.16364
# Shear Modulus (GPa) = 33.99135 42.56779 38.27957
#
# Velocity S-wave (km/s) = 3.78312 4.23357 4.01467
# Velocity P-wave (km/s) = 7.06637 7.72722 7.40417
#
# Compressibility (1/GPa) = 0.01364782
#
# Stress axis : x y z
#
# Youngs Moduli (GPa) = 98.18023 79.96184 53.86870
#
# Poissons Ratio (x) = 0.24749 0.36463
# Poissons Ratio (y) = 0.30388 0.21222
# Poissons Ratio (z) = 0.66458 0.31501
#
# Static dielectric constant tensor:
#      x y z
#    x 1.888010 -0.045550 -0.024130 
#    y -0.045550 2.004520 0.051770 
#    z -0.024130 0.051770 1.936580 
# 
# From -- ./inp_files/321600.got.cif
#   From: 2010.05.17/outbox.cif.g08.bks.cpg/sg2_161_cif.got.tgz:321600.got - 2010.06.03 11:33:40.
