data_PCOD9059924
_publ_section_title
;
Structure prediction by ZEFSAII (Michael W. Deem and Ramdas Pophale) SiO2 
 PCOD9059924
Probable space group: P -1
;
_chemical_formula_sum "Si O2"
_cell_formula_units_Z 16
_cell_length_a 5.054713
_cell_length_b 19.168800
_cell_length_c 8.997167
_cell_angle_alpha 122.261918
_cell_angle_beta 118.903973
_cell_angle_gamma 73.479033
_cell_volume 644.936848
_symmetry_space_group_name_H-M "P -1"
_symmetry_group_IT_number 2
_symmetry_cell_setting 'triclinic'
loop_
_space_group_symop_operation_xyz
x,y,z
-x,-y,-z
loop_
_atom_site_type_symbol
_atom_site_label
_atom_site_fract_x
_atom_site_fract_y
_atom_site_fract_z
Si Si1 0.795274 0.051930 0.110275
Si Si2 0.428943 0.231946 0.500301
Si Si3 0.986030 0.338181 0.685165
Si Si4 0.806400 0.942835 0.489247
Si Si5 0.342762 0.182868 0.086438
Si Si6 0.502640 0.309103 0.023921
Si Si7 0.784681 0.442634 0.468080
Si Si8 0.886595 0.177154 0.770428
O O1 0.655100 0.134286 0.093321
O O2 0.999788 0.071100 0.326738
O O3 0.500000 0.000000 0.000000
O O4 0.000000 0.000000 0.000000
O O5 0.139259 0.265783 0.545873
O O6 0.341364 0.207420 0.284127
O O7 0.679285 0.303337 0.631630
O O8 0.604445 0.162626 0.567722
O O9 0.918278 0.407584 0.621139
O O10 0.234093 0.351681 0.897660
O O11 0.839768 0.854180 0.309828
O O12 0.500000 0.000000 0.500000
O O13 0.000000 0.000000 0.500000
O O14 0.336619 0.256729 0.048538
O O15 0.047616 0.133115 0.904852
O O16 0.691951 0.371054 0.246461
O O17 0.719689 0.255230 0.908681
O O18 0.500000 0.500000 0.500000
O O19 0.000000 0.500000 0.500000
#
# Coordination Sequence:
#
# PCOD9059924 Si02
#       8
#     2   2   2   2   2   2   2   2
#     4  12  28  48  69 106 147 197 247 307 378 450
#     4  11  23  42  71 104 139 185 237 306 355 424
#     4  11  24  46  72 106 146 182 243 295 363 434
#     4  12  27  48  70 101 149 195 245 307 377 445
#     4  12  24  44  75 102 144 190 250 302 368 431
#     4  11  27  45  78 107 147 191 253 302 367 440
#     4  12  28  48  76 109 152 194 237 300 372 440
#     4  11  25  45  71 108 142 190 247 308 366 429
#
# _framework density 24.808630999999998
#
# number of rings (size 3 to 8) (size 9 to 14) (size 15 to 20)
#    0.000    0.500    3.750    3.750    7.000    1.000 
#    0.000    0.000    0.000    0.000    0.000    0.000 
#    0.000    0.000    0.000    0.000    0.000    0.000 
#
# Total GULP energy -89302.124854 kJ/mol
# GULP energy per Si atom -5581.382803 kJ/mol
# Density = 2.475217 g / cm^3
# Si number density = 24.808631 Si / 1000 Ang^3
#
#
#
# Elastic Constant Matrix: (Units=GPa)
#
#
# Indices 1 2 3 4 5 6 
#
# 1 141.4240 42.3664 22.3418 -0.0742 -13.4363 -5.2143
# 2 42.3664 151.0960 44.3650 -50.0175 0.8754 -15.7375
# 3 22.3418 44.3650 161.5857 -38.5664 -9.3020 -3.8877
# 4 -0.0742 -50.0175 -38.5664 58.5772 -8.8500 3.4581
# 5 -13.4363 0.8754 -9.3020 -8.8500 41.4617 2.0072
# 6 -5.2143 -15.7375 -3.8877 3.4581 2.0072 42.1802
#
#
#
# Elastic Compliance Matrix: (Units=1/GPa)
#
#
# Indices 1 2 3 4 5 6 
#
# 1 0.008301 -0.003031 -0.000889 -0.002867 0.001945 -0.000044
# 2 -0.003031 0.010812 -0.000324 0.008918 0.000481 0.002875
# 3 -0.000889 -0.000324 0.007803 0.005255 0.002594 -0.000066
# 4 -0.002867 0.008918 0.005255 0.029036 0.006222 0.000781
# 5 0.001945 0.000481 0.002594 0.006222 0.026703 -0.001122
# 6 -0.000044 0.002875 -0.000066 0.000781 -0.001122 0.024758
#
#
# Mechanical properties :
#
#
# Convention : Reuss Voigt Hill
#
# Bulk Modulus (GPa) = 54.26702 74.69466 64.48084
# Shear Modulus (GPa) = 40.96844 51.44599 46.20722
#
# Velocity S-wave (km/s) = 4.06812 4.55874 4.32040
# Velocity P-wave (km/s) = 6.63234 7.60810 7.13692
#
# Compressibility (1/GPa) = 0.01842740
#
# Stress axis : x y z
#
# Youngs Moduli (GPa) = 120.46571 92.48698 128.16341
#
# Poissons Ratio (x) = 0.28037 0.11390
# Poissons Ratio (y) = 0.36519 0.04154
# Poissons Ratio (z) = 0.10706 0.02998
#
# Static dielectric constant tensor:
#      x y z
#    x 2.525720 0.251260 0.815480 
#    y 0.251260 2.093020 0.364070 
#    z 0.815480 0.364070 3.250760 
# 
# From -- ./inp_files/141633.got.cif
#   From: 2010.05.17/outbox.cif.g08.bks.cpg/sg2_71_cif.got.tgz:141633.got - 2010.06.03 11:33:40.
