data_PCOD9059648
_publ_section_title
;
Structure prediction by ZEFSAII (Michael W. Deem and Ramdas Pophale) SiO2 
 PCOD9059648
Probable space group: P -1
;
_chemical_formula_sum "Si O2"
_cell_formula_units_Z 12
_cell_length_a 6.097263
_cell_length_b 20.233804
_cell_length_c 5.011322
_cell_angle_alpha 126.557271
_cell_angle_beta 89.366450
_cell_angle_gamma 69.642249
_cell_volume 445.614426
_symmetry_space_group_name_H-M "P -1"
_symmetry_group_IT_number 2
_symmetry_cell_setting 'triclinic'
loop_
_space_group_symop_operation_xyz
x,y,z
-x,-y,-z
loop_
_atom_site_type_symbol
_atom_site_label
_atom_site_fract_x
_atom_site_fract_y
_atom_site_fract_z
Si Si1 0.365667 0.291961 0.940440
Si Si2 0.197256 0.854424 0.753346
Si Si3 0.292169 0.626854 0.753660
Si Si4 0.105983 0.197058 0.967533
Si Si5 0.715873 0.983280 0.746422
Si Si6 0.082679 0.577214 0.104149
O O1 0.568474 0.209945 0.572603
O O2 0.284243 0.245686 0.071027
O O3 0.153978 0.348446 0.868842
O O4 0.462479 0.361088 0.227128
O O5 0.976947 0.920516 0.728319
O O6 0.076993 0.801461 0.797213
O O7 0.268500 0.922938 0.093581
O O8 0.188423 0.603578 0.430184
O O9 0.286310 0.562316 0.838132
O O10 0.093353 0.733625 0.073297
O O11 0.272788 0.089157 0.652343
O O12 0.500000 0.000000 0.000000
O O13 0.000000 0.500000 0.000000
#
# Coordination Sequence:
#
# PCOD9059648 Si02
#       6
#     2   2   2   2   2   2
#     4  11  25  48  76 110 153 201 251 316 380 455
#     4  11  24  43  68 100 150 198 260 309 377 443
#     4  11  25  46  77 113 152 199 253 309 385 465
#     4  11  24  42  69 105 145 202 251 311 376 446
#     4  11  23  42  65 104 148 193 260 318 365 442
#     4  11  27  50  78 117 153 193 254 316 384 469
#
# _framework density 26.929110000000001
#
# number of rings (size 3 to 8) (size 9 to 14) (size 15 to 20)
#    0.000    1.000    3.333    2.000    2.333    8.667 
#    0.000    0.000    0.000    3.000    0.000    0.000 
#    0.000    0.000    0.000    0.000    0.000    0.000 
#
# Total GULP energy -67152.026116 kJ/mol
# GULP energy per Si atom -5596.002176 kJ/mol
# Density = 2.686782 g / cm^3
# Si number density = 26.929110 Si / 1000 Ang^3
#
#
#
# Elastic Constant Matrix: (Units=GPa)
#
#
# Indices 1 2 3 4 5 6 
#
# 1 159.3375 73.5188 65.4042 -3.2868 25.6764 38.1440
# 2 73.5188 164.1795 52.2701 7.6516 24.2155 45.3745
# 3 65.4042 52.2701 115.8400 -1.4556 38.6736 27.7065
# 4 -3.2868 7.6516 -1.4556 35.0292 -2.1998 -1.1843
# 5 25.6764 24.2155 38.6736 -2.1998 56.8517 6.2436
# 6 38.1440 45.3745 27.7065 -1.1843 6.2436 75.7742
#
#
#
# Elastic Compliance Matrix: (Units=1/GPa)
#
#
# Indices 1 2 3 4 5 6 
#
# 1 0.009479 -0.002577 -0.003556 0.001209 -0.000512 -0.001867
# 2 -0.002577 0.008959 -0.001280 -0.002464 -0.001491 -0.003515
# 3 -0.003556 -0.001280 0.014111 0.000011 -0.007227 -0.002007
# 4 0.001209 -0.002464 0.000011 0.029335 0.001500 0.001198
# 5 -0.000512 -0.001491 -0.007227 0.001500 0.023221 0.001903
# 6 -0.001867 -0.003515 -0.002007 0.001198 0.001903 0.016838
#
#
# Mechanical properties :
#
#
# Convention : Reuss Voigt Hill
#
# Bulk Modulus (GPa) = 56.42751 91.30482 73.86617
# Shear Modulus (GPa) = 40.75752 50.07526 45.41639
#
# Velocity S-wave (km/s) = 3.89461 4.31690 4.11118
# Velocity P-wave (km/s) = 6.42056 7.66986 7.07284
#
# Compressibility (1/GPa) = 0.01772185
#
# Stress axis : x y z
#
# Youngs Moduli (GPa) = 105.49100 111.62476 70.86665
#
# Poissons Ratio (x) = 0.28770 0.25203
# Poissons Ratio (y) = 0.27189 0.09070
# Poissons Ratio (z) = 0.37517 0.14286
#
# Static dielectric constant tensor:
#      x y z
#    x 2.200240 -0.019620 0.051560 
#    y -0.019620 2.100240 0.012860 
#    z 0.051560 0.012860 2.234830 
# 
# From -- ./inp_files/10123.got.cif
#   From: 2010.05.17/outbox.cif.g08.bks.cpg/sg2_6_cif.got.tgz:10123.got - 2010.06.03 11:33:40.
