data_PCOD9059681
_publ_section_title
;
Structure prediction by ZEFSAII (Michael W. Deem and Ramdas Pophale) SiO2 
 PCOD9059681
Probable space group: P -1
;
_chemical_formula_sum "Si O2"
_cell_formula_units_Z 12
_cell_length_a 7.149992
_cell_length_b 5.206163
_cell_length_c 15.081962
_cell_angle_alpha 67.348682
_cell_angle_beta 110.289282
_cell_angle_gamma 111.086349
_cell_volume 469.070100
_symmetry_space_group_name_H-M "P -1"
_symmetry_group_IT_number 2
_symmetry_cell_setting 'triclinic'
loop_
_space_group_symop_operation_xyz
x,y,z
-x,-y,-z
loop_
_atom_site_type_symbol
_atom_site_label
_atom_site_fract_x
_atom_site_fract_y
_atom_site_fract_z
Si Si1 0.358507 0.081688 0.293219
Si Si2 0.888420 0.892329 0.302218
Si Si3 0.852817 0.415493 0.127078
Si Si4 0.435743 0.430209 0.599381
Si Si5 0.181618 0.838694 0.043770
Si Si6 0.454816 0.385388 0.855723
O O1 0.481362 0.282269 0.366630
O O2 0.390607 0.306822 0.186059
O O3 0.453293 0.817418 0.321675
O O4 0.124896 0.950704 0.305313
O O5 0.806342 0.729670 0.401530
O O6 0.733037 0.693595 0.233538
O O7 0.837481 0.197320 0.234732
O O8 0.673666 0.581885 0.082195
O O9 0.083964 0.614869 0.136637
O O10 0.838984 0.269545 0.047582
O O11 0.500000 0.500000 0.500000
O O12 0.423559 0.860799 0.093862
O O13 0.000000 0.000000 0.000000
#
# Coordination Sequence:
#
# PCOD9059681 Si02
#       6
#     2   2   2   2   2   2
#     4  11  25  45  76 105 146 187 236 295 357 435
#     4  11  25  42  73 101 140 189 237 292 364 425
#     4  11  23  42  66  99 138 188 243 294 366 415
#     4  11  26  47  75 111 145 184 235 293 360 436
#     4  11  25  42  67 100 141 189 247 304 355 423
#     4  11  24  44  70  99 142 191 246 298 358 430
#
# _framework density 25.582532
#
# number of rings (size 3 to 8) (size 9 to 14) (size 15 to 20)
#    0.000    1.000    3.333    2.000    2.333    9.333 
#    0.000    0.000    0.000    0.000    0.000    0.000 
#    0.000    0.000    0.000    0.000    0.000    0.000 
#
# Total GULP energy -66989.830505 kJ/mol
# GULP energy per Si atom -5582.485875 kJ/mol
# Density = 2.552431 g / cm^3
# Si number density = 25.582532 Si / 1000 Ang^3
#
#
#
# Elastic Constant Matrix: (Units=GPa)
#
#
# Indices 1 2 3 4 5 6 
#
# 1 207.1190 45.4450 22.0227 -16.3958 -23.7239 13.9360
# 2 45.4450 64.6652 1.8886 -9.3877 -1.4662 -3.6831
# 3 22.0227 1.8886 50.1629 -12.4166 -29.1144 6.6469
# 4 -16.3958 -9.3877 -12.4166 29.1227 -0.2605 -10.8543
# 5 -23.7239 -1.4662 -29.1144 -0.2605 43.2668 -16.6197
# 6 13.9360 -3.6831 6.6469 -10.8543 -16.6197 72.2576
#
#
#
# Elastic Compliance Matrix: (Units=1/GPa)
#
#
# Indices 1 2 3 4 5 6 
#
# 1 0.006276 -0.004081 -0.000400 0.001912 0.002879 -0.000432
# 2 -0.004081 0.019372 0.003310 0.006435 0.001778 0.002846
# 3 -0.000400 0.003310 0.042714 0.021877 0.031388 0.006822
# 4 0.001912 0.006435 0.021877 0.050809 0.020223 0.010231
# 5 0.002879 0.001778 0.031388 0.020223 0.050319 0.011259
# 6 -0.000432 0.002846 0.006822 0.010231 0.011259 0.017567
#
#
# Mechanical properties :
#
#
# Convention : Reuss Voigt Hill
#
# Bulk Modulus (GPa) = 15.14682 51.18441 33.16562
# Shear Modulus (GPa) = 23.65108 45.76883 34.70995
#
# Velocity S-wave (km/s) = 3.04386 4.23432 3.68745
# Velocity P-wave (km/s) = 4.27634 6.63001 5.57871
#
# Compressibility (1/GPa) = 0.06602044
#
# Stress axis : x y z
#
# Youngs Moduli (GPa) = 159.32808 51.62066 23.41138
#
# Poissons Ratio (x) = 0.21066 0.00936
# Poissons Ratio (y) = 0.65020 -0.07749
# Poissons Ratio (z) = 0.06373 -0.17085
#
# Static dielectric constant tensor:
#      x y z
#    x 2.021090 -0.031390 -0.032040 
#    y -0.031390 2.182180 -0.076510 
#    z -0.032040 -0.076510 2.097260 
# 
# From -- ./inp_files/4581.got.cif
#   From: 2010.05.17/outbox.cif.g08.bks.cpg/sg2_3_cif.got.tgz:4581.got - 2010.06.03 11:33:40.
