data_PCOD9059087
_publ_section_title
;
Structure prediction by ZEFSAII (Michael W. Deem and Ramdas Pophale) SiO2 
 PCOD9059087
Probable space group: P -1
;
_chemical_formula_sum "Si O2"
_cell_formula_units_Z 16
_cell_length_a 22.230152
_cell_length_b 6.450896
_cell_length_c 7.649900
_cell_angle_alpha 115.830321
_cell_angle_beta 53.821631
_cell_angle_gamma 84.477802
_cell_volume 696.369214
_symmetry_space_group_name_H-M "P -1"
_symmetry_group_IT_number 2
_symmetry_cell_setting 'triclinic'
loop_
_space_group_symop_operation_xyz
x,y,z
-x,-y,-z
loop_
_atom_site_type_symbol
_atom_site_label
_atom_site_fract_x
_atom_site_fract_y
_atom_site_fract_z
Si Si1 0.405191 0.576341 0.747295
Si Si2 0.489972 0.277213 0.829241
Si Si3 0.637834 0.876001 0.860960
Si Si4 0.657348 0.799472 0.396535
Si Si5 0.080698 0.191888 0.996467
Si Si6 0.152878 0.558127 0.046716
Si Si7 0.805701 0.357874 0.388509
Si Si8 0.064131 0.879318 0.628980
O O1 0.500000 0.500000 0.500000
O O2 0.422576 0.430440 0.849659
O O3 0.364306 0.441068 0.649520
O O4 0.355679 0.889025 0.968824
O O5 0.582169 0.050160 0.518417
O O6 0.500000 0.500000 0.000000
O O7 0.450058 0.125145 0.950120
O O8 0.647853 0.906641 0.649014
O O9 0.713438 0.589291 0.674856
O O10 0.754932 0.659860 0.116690
O O11 0.086686 0.447804 0.116051
O O12 0.176668 0.942036 0.750451
O O13 0.050556 0.149296 0.840873
O O14 0.021688 0.139167 0.212851
O O15 0.171213 0.596181 0.829194
O O16 0.109979 0.809617 0.339382
O O17 0.871571 0.335742 0.418516
#
# Coordination Sequence:
#
# PCOD9059087 Si02
#       8
#     2   2   2   2   2   2   2   2
#     4  12  25  42  63  90 125 165 221 260 304 390
#     4  12  24  40  68  87 124 174 202 262 324 357
#     4  11  24  44  61  89 132 161 208 271 307 371
#     4  11  25  43  61  97 121 166 220 252 320 376
#     4   9  21  45  63  94 132 162 208 267 311 390
#     4  11  23  40  66  93 131 164 209 267 318 377
#     4   9  23  41  61  99 122 165 216 251 321 379
#     4   9  21  44  64  94 130 162 213 259 314 391
#
# _framework density 22.976317000000002
#
# number of rings (size 3 to 8) (size 9 to 14) (size 15 to 20)
#    0.750    0.750    2.500    1.875    3.500    3.000 
#    6.750    0.000    0.000    0.000    0.000    0.000 
#    0.000    0.000    0.000    0.000    0.000    0.000 
#
# Total GULP energy -89300.981576 kJ/mol
# GULP energy per Si atom -5581.311349 kJ/mol
# Density = 2.292402 g / cm^3
# Si number density = 22.976317 Si / 1000 Ang^3
#
#
#
# Elastic Constant Matrix: (Units=GPa)
#
#
# Indices 1 2 3 4 5 6 
#
# 1 50.7506 8.0540 28.7338 6.3119 -9.8085 8.7201
# 2 8.0540 28.5383 15.8952 2.5553 6.5717 2.9849
# 3 28.7338 15.8952 104.0183 -0.7189 6.6433 8.3136
# 4 6.3119 2.5553 -0.7189 29.4413 5.1439 3.4890
# 5 -9.8085 6.5717 6.6433 5.1439 25.6350 8.4286
# 6 8.7201 2.9849 8.3136 3.4890 8.4286 38.1382
#
#
#
# Elastic Compliance Matrix: (Units=1/GPa)
#
#
# Indices 1 2 3 4 5 6 
#
# 1 0.032554 -0.007596 -0.008553 -0.009214 0.021384 -0.008868
# 2 -0.007596 0.042091 -0.003651 -0.000022 -0.013475 0.002218
# 3 -0.008553 -0.003651 0.012935 0.003551 -0.006583 0.000551
# 4 -0.009214 -0.000022 0.003551 0.038108 -0.012271 0.000560
# 5 0.021384 -0.013475 -0.006583 -0.012271 0.059562 -0.014440
# 6 -0.008868 0.002218 0.000551 0.000560 -0.014440 0.031094
#
#
# Mechanical properties :
#
#
# Convention : Reuss Voigt Hill
#
# Bulk Modulus (GPa) = 20.84104 32.07479 26.45792
# Shear Modulus (GPa) = 18.38675 27.35119 22.86897
#
# Velocity S-wave (km/s) = 2.83193 3.45397 3.15830
# Velocity P-wave (km/s) = 4.44786 5.46780 4.98399
#
# Compressibility (1/GPa) = 0.04798225
#
# Stress axis : x y z
#
# Youngs Moduli (GPa) = 30.71783 23.75831 77.30961
#
# Poissons Ratio (x) = 0.18046 0.66121
# Poissons Ratio (y) = 0.23332 0.28222
# Poissons Ratio (z) = 0.26272 0.08673
#
# Static dielectric constant tensor:
#      x y z
#    x 1.913200 -0.051830 -0.020800 
#    y -0.051830 1.929850 -0.018790 
#    z -0.020800 -0.018790 1.863280 
# 
# From -- ./inp_files/355926.got.cif
#   From: 2010.05.17/outbox.cif.g08.bks.cpg/sg2_178_cif.got.tgz:355926.got - 2010.06.03 11:33:40.
