data_PCOD9059348
_publ_section_title
;
Structure prediction by ZEFSAII (Michael W. Deem and Ramdas Pophale) SiO2 
 PCOD9059348
Probable space group: P -1
;
_chemical_formula_sum "Si O2"
_cell_formula_units_Z 12
_cell_length_a 8.695786
_cell_length_b 17.440088
_cell_length_c 7.119961
_cell_angle_alpha 67.666049
_cell_angle_beta 69.579932
_cell_angle_gamma 31.119405
_cell_volume 515.564187
_symmetry_space_group_name_H-M "P -1"
_symmetry_group_IT_number 2
_symmetry_cell_setting 'triclinic'
loop_
_space_group_symop_operation_xyz
x,y,z
-x,-y,-z
loop_
_atom_site_type_symbol
_atom_site_label
_atom_site_fract_x
_atom_site_fract_y
_atom_site_fract_z
Si Si1 0.340117 0.257089 0.168357
Si Si2 0.748820 0.338539 0.721256
Si Si3 0.255098 0.425541 0.749779
Si Si4 0.342395 0.005049 0.921697
Si Si5 0.917443 0.091672 0.271346
Si Si6 0.413358 0.633089 0.639729
O O1 0.642498 0.166697 0.209778
O O2 0.062485 0.395771 0.289225
O O3 0.242123 0.343960 0.935118
O O4 0.422814 0.128726 0.203372
O O5 0.480654 0.385638 0.819270
O O6 0.654835 0.462232 0.751729
O O7 0.747559 0.345434 0.486968
O O8 0.062213 0.169248 0.798718
O O9 0.409448 0.366020 0.537346
O O10 0.197095 0.988587 0.111764
O O11 0.500000 0.000000 0.000000
O O12 0.809676 0.229046 0.253580
O O13 0.000000 0.000000 0.500000
#
# Coordination Sequence:
#
# PCOD9059348 Si02
#       6
#     2   2   2   2   2   2
#     4  11  23  41  66  90 127 163 212 255 311 371
#     4   9  20  42  63  89 128 161 201 260 311 364
#     4   9  20  41  67  89 120 167 205 258 305 370
#     4  12  27  41  63  94 128 169 209 254 314 376
#     4  12  24  41  65  95 129 167 204 262 311 370
#     4   9  20  38  68  90 124 159 209 251 321 358
#
# _framework density 23.275472000000001
#
# number of rings (size 3 to 8) (size 9 to 14) (size 15 to 20)
#    1.000    0.667    1.667    2.500    2.333    5.333 
#    0.000    2.500    0.000    0.000    0.000    0.000 
#    0.000    0.000    0.000    0.000    0.000    0.000 
#
# Total GULP energy -67004.888271 kJ/mol
# GULP energy per Si atom -5583.740689 kJ/mol
# Density = 2.322250 g / cm^3
# Si number density = 23.275472 Si / 1000 Ang^3
#
#
#
# Elastic Constant Matrix: (Units=GPa)
#
#
# Indices 1 2 3 4 5 6 
#
# 1 63.2433 22.6177 -8.5811 -14.1044 25.7001 -3.4219
# 2 22.6177 137.8587 18.7961 -15.0027 15.3297 10.0995
# 3 -8.5811 18.7961 44.3922 -16.3487 -0.3108 -0.1956
# 4 -14.1044 -15.0027 -16.3487 39.5222 0.6364 -3.5945
# 5 25.7001 15.3297 -0.3108 0.6364 22.2349 -1.1438
# 6 -3.4219 10.0995 -0.1956 -3.5945 -1.1438 47.4440
#
#
#
# Elastic Compliance Matrix: (Units=1/GPa)
#
#
# Indices 1 2 3 4 5 6 
#
# 1 0.045602 -0.001901 0.018236 0.024324 -0.051614 0.004368
# 2 -0.001901 0.008785 -0.003764 0.000978 -0.004045 -0.002046
# 3 0.018236 -0.003764 0.034947 0.020135 -0.018398 0.003343
# 4 0.024324 0.000978 0.020135 0.043542 -0.029537 0.004216
# 5 -0.051614 -0.004045 -0.018398 -0.029537 0.107877 -0.002575
# 6 0.004368 -0.002046 0.003343 0.004216 -0.002575 0.022099
#
#
# Mechanical properties :
#
#
# Convention : Reuss Voigt Hill
#
# Bulk Modulus (GPa) = 8.73563 34.57328 21.65445
# Shear Modulus (GPa) = 18.12451 36.01766 27.07108
#
# Velocity S-wave (km/s) = 2.79354 3.93803 3.41409
# Velocity P-wave (km/s) = 3.76383 5.96353 4.98649
#
# Compressibility (1/GPa) = 0.11447375
#
# Stress axis : x y z
#
# Youngs Moduli (GPa) = 21.92899 113.82844 28.61506
#
# Poissons Ratio (x) = 0.21643 -0.52182
# Poissons Ratio (y) = 0.04170 0.10772
# Poissons Ratio (z) = -0.39989 0.42849
#
# Static dielectric constant tensor:
#      x y z
#    x 1.869240 0.012760 -0.049790 
#    y 0.012760 1.844200 -0.020750 
#    z -0.049790 -0.020750 1.912060 
# 
# From -- ./inp_files/212461.got.cif
#   From: 2010.05.17/outbox.cif.g08.bks.cpg/sg2_107_cif.got.tgz:212461.got - 2010.06.03 11:33:40.
