data_PCOD9059033
_publ_section_title
;
Structure prediction by ZEFSAII (Michael W. Deem and Ramdas Pophale) SiO2 
 PCOD9059033
Probable space group: P -1
;
_chemical_formula_sum "Si O2"
_cell_formula_units_Z 12
_cell_length_a 9.201537
_cell_length_b 14.622654
_cell_length_c 9.347150
_cell_angle_alpha 105.472655
_cell_angle_beta 133.118740
_cell_angle_gamma 41.067831
_cell_volume 515.765650
_symmetry_space_group_name_H-M "P -1"
_symmetry_group_IT_number 2
_symmetry_cell_setting 'triclinic'
loop_
_space_group_symop_operation_xyz
x,y,z
-x,-y,-z
loop_
_atom_site_type_symbol
_atom_site_label
_atom_site_fract_x
_atom_site_fract_y
_atom_site_fract_z
Si Si1 0.768474 0.997216 0.325079
Si Si2 0.820513 0.476788 0.930226
Si Si3 0.694326 0.326653 0.105074
Si Si4 0.303474 0.315076 0.682015
Si Si5 0.327821 0.183552 0.375761
Si Si6 0.896220 0.741532 0.213944
O O1 0.601334 0.044000 0.386991
O O2 0.940628 0.834546 0.317483
O O3 0.459804 0.133838 0.061867
O O4 0.000000 0.000000 0.500000
O O5 0.452279 0.634021 0.818801
O O6 0.823957 0.401959 0.771266
O O7 0.000000 0.500000 0.000000
O O8 0.070487 0.345726 0.171082
O O9 0.086597 0.195821 0.283640
O O10 0.500000 0.500000 0.000000
O O11 0.575839 0.281587 0.917599
O O12 0.445853 0.200974 0.595837
O O13 0.148186 0.305004 0.693732
O O14 0.000000 0.500000 0.500000
#
# Coordination Sequence:
#
# PCOD9059033 Si02
#       6
#     2   2   2   2   2   2
#     4  10  24  48  66  88 126 180 231 268 308 380
#     4  10  17  37  64  91 128 168 205 264 326 386
#     4  10  20  36  61  93 135 166 198 266 328 383
#     4  12  21  39  64 102 133 163 210 263 336 399
#     4  10  23  39  62  90 131 167 218 264 326 380
#     4  10  23  41  68  95 131 169 222 265 323 383
#
# _framework density 23.266382
#
# number of rings (size 3 to 8) (size 9 to 14) (size 15 to 20)
#    0.000    1.667    5.000    0.000    0.000    7.333 
#    0.000    2.500    0.000    0.000    0.000    0.000 
#    0.000    0.000    0.000    0.000    0.000    0.000 
#
# Total GULP energy -67154.589381 kJ/mol
# GULP energy per Si atom -5596.215782 kJ/mol
# Density = 2.321343 g / cm^3
# Si number density = 23.266382 Si / 1000 Ang^3
#
#
#
# Elastic Constant Matrix: (Units=GPa)
#
#
# Indices 1 2 3 4 5 6 
#
# 1 167.8241 60.9677 55.6813 16.7592 1.9007 -9.3830
# 2 60.9677 114.8275 56.0446 58.6245 7.8860 -21.8962
# 3 55.6813 56.0446 117.2538 34.1193 1.6073 4.6142
# 4 16.7592 58.6245 34.1193 47.4486 8.8343 -10.2693
# 5 1.9007 7.8860 1.6073 8.8343 55.5128 1.8170
# 6 -9.3830 -21.8962 4.6142 -10.2693 1.8170 48.7683
#
#
#
# Elastic Compliance Matrix: (Units=1/GPa)
#
#
# Indices 1 2 3 4 5 6 
#
# 1 0.008861 -0.007304 -0.003168 0.008380 -0.000524 0.000510
# 2 -0.007304 0.032621 -0.002175 -0.035054 0.001060 0.006026
# 3 -0.003168 -0.002175 0.013228 -0.006880 0.001271 -0.004334
# 4 0.008380 -0.035054 -0.006880 0.067690 -0.005913 0.000999
# 5 -0.000524 0.001060 0.001271 -0.005913 0.018841 -0.001692
# 6 0.000510 0.006026 -0.004334 0.000999 -0.001692 0.023992
#
#
# Mechanical properties :
#
#
# Convention : Reuss Voigt Hill
#
# Bulk Modulus (GPa) = 33.99582 82.81028 58.40305
# Shear Modulus (GPa) = 24.95868 45.49339 35.22603
#
# Velocity S-wave (km/s) = 3.27882 4.42671 3.89528
# Velocity P-wave (km/s) = 5.38307 7.86112 6.73701
#
# Compressibility (1/GPa) = 0.02941538
#
# Stress axis : x y z
#
# Youngs Moduli (GPa) = 112.85936 30.65514 75.59829
#
# Poissons Ratio (x) = 0.22389 0.23951
# Poissons Ratio (y) = 0.82427 0.16445
# Poissons Ratio (z) = 0.35756 0.06668
#
# Static dielectric constant tensor:
#      x y z
#    x 1.837110 0.008180 -0.026500 
#    y 0.008180 1.893160 -0.038920 
#    z -0.026500 -0.038920 1.906250 
# 
# From -- ./inp_files/184579.got.cif
#   From: 2010.05.17/outbox.cif.g08.bks.cpg/sg2_93_cif.got.tgz:184579.got - 2010.06.03 11:33:40.
