data_PCOD9059127
_publ_section_title
;
Structure prediction by ZEFSAII (Michael W. Deem and Ramdas Pophale) SiO2 
 PCOD9059127
Probable space group: P -1
;
_chemical_formula_sum "Si O2"
_cell_formula_units_Z 14
_cell_length_a 12.329518
_cell_length_b 11.246493
_cell_length_c 11.752437
_cell_angle_alpha 84.630057
_cell_angle_beta 38.828293
_cell_angle_gamma 114.761699
_cell_volume 626.621265
_symmetry_space_group_name_H-M "P -1"
_symmetry_group_IT_number 2
_symmetry_cell_setting 'triclinic'
loop_
_space_group_symop_operation_xyz
x,y,z
-x,-y,-z
loop_
_atom_site_type_symbol
_atom_site_label
_atom_site_fract_x
_atom_site_fract_y
_atom_site_fract_z
Si Si1 0.993327 0.131336 0.671190
Si Si2 0.171162 0.307032 0.009534
Si Si3 0.817106 0.499208 0.213328
Si Si4 0.442548 0.620675 0.942874
Si Si5 0.190870 0.094061 0.724564
Si Si6 0.459548 0.675860 0.172688
Si Si7 0.065171 0.631720 0.247363
O O1 0.921974 0.231963 0.717405
O O2 0.240556 0.228734 0.373321
O O3 0.121709 0.160923 0.685584
O O4 0.703828 0.900965 0.920944
O O5 0.193294 0.388201 0.865802
O O6 0.227851 0.432176 0.053012
O O7 0.413962 0.342219 0.832407
O O8 0.889529 0.074240 0.257469
O O9 0.506608 0.277083 0.490402
O O10 0.951877 0.590982 0.217110
O O11 0.000000 0.500000 0.000000
O O12 0.410910 0.575581 0.105961
O O13 0.345284 0.706013 0.006181
O O14 0.000000 0.000000 0.000000
O O15 0.172372 0.569213 0.468616
#
# Coordination Sequence:
#
# PCOD9059127 Si02
#       7
#     2   2   2   2   2   2   2
#     4  11  24  45  67 101 132 181 225 274 340 395
#     4  11  23  43  69  97 132 181 218 273 340 391
#     4  12  23  44  65 100 139 171 220 279 335 399
#     4  12  24  48  68  99 140 178 226 275 337 401
#     4  11  23  40  67  99 131 178 228 269 334 404
#     4  11  25  46  70  99 134 178 229 278 332 400
#     4  12  25  44  70 100 138 175 224 280 336 398
#
# _framework density 22.342044000000001
#
# number of rings (size 3 to 8) (size 9 to 14) (size 15 to 20)
#    0.000    0.571    4.286    3.857    0.000    2.857 
#    7.714    0.000    0.000    0.000    0.000    0.000 
#    0.000    0.000    0.000    0.000    0.000    0.000 
#
# Total GULP energy -78317.889493 kJ/mol
# GULP energy per Si atom -5594.134964 kJ/mol
# Density = 2.229119 g / cm^3
# Si number density = 22.342044 Si / 1000 Ang^3
#
#
#
# Elastic Constant Matrix: (Units=GPa)
#
#
# Indices 1 2 3 4 5 6 
#
# 1 96.8675 25.6249 23.5541 -2.3442 3.9331 2.7547
# 2 25.6249 103.2469 58.5707 10.5704 -10.5514 -17.4902
# 3 23.5541 58.5707 90.7489 6.6518 0.2557 -25.3213
# 4 -2.3442 10.5704 6.6518 26.7562 1.6489 5.0392
# 5 3.9331 -10.5514 0.2557 1.6489 28.2588 5.8413
# 6 2.7547 -17.4902 -25.3213 5.0392 5.8413 30.6738
#
#
#
# Elastic Compliance Matrix: (Units=1/GPa)
#
#
# Indices 1 2 3 4 5 6 
#
# 1 0.012180 -0.002723 -0.003299 0.004147 -0.001742 -0.005719
# 2 -0.002723 0.017403 -0.009644 -0.005480 0.006914 0.001791
# 3 -0.003299 -0.009644 0.022816 -0.004702 -0.006299 0.015604
# 4 0.004147 -0.005480 -0.004702 0.043876 -0.002213 -0.014165
# 5 -0.001742 0.006914 -0.006299 -0.002213 0.040129 -0.008380
# 6 -0.005719 0.001791 0.015604 -0.014165 -0.008380 0.050940
#
#
# Mechanical properties :
#
#
# Convention : Reuss Voigt Hill
#
# Bulk Modulus (GPa) = 47.46507 56.26251 51.86379
# Shear Modulus (GPa) = 22.15360 29.34534 25.74947
#
# Velocity S-wave (km/s) = 3.15233 3.62810 3.39855
# Velocity P-wave (km/s) = 5.87711 6.54124 6.21805
#
# Compressibility (1/GPa) = 0.02106812
#
# Stress axis : x y z
#
# Youngs Moduli (GPa) = 82.10497 57.46175 43.82869
#
# Poissons Ratio (x) = 0.15647 0.14457
# Poissons Ratio (y) = 0.22357 0.42266
# Poissons Ratio (z) = 0.27083 0.55413
#
# Static dielectric constant tensor:
#      x y z
#    x 1.819950 -0.020030 -0.002330 
#    y -0.020030 1.857230 -0.003010 
#    z -0.002330 -0.003010 1.779800 
# 
# From -- ./inp_files/428073.got.cif
#   From: 2010.05.17/outbox.cif.g08.bks.cpg/sg2_215_cif.got.tgz:428073.got - 2010.06.03 11:33:40.
