data_PCOD9059755
_publ_section_title
;
Structure prediction by ZEFSAII (Michael W. Deem and Ramdas Pophale) SiO2 
 PCOD9059755
Probable space group: P -1
;
_chemical_formula_sum "Si O2"
_cell_formula_units_Z 16
_cell_length_a 14.801258
_cell_length_b 11.183493
_cell_length_c 14.006751
_cell_angle_alpha 43.153900
_cell_angle_beta 149.215738
_cell_angle_gamma 139.198421
_cell_volume 753.344290
_symmetry_space_group_name_H-M "P -1"
_symmetry_group_IT_number 2
_symmetry_cell_setting 'triclinic'
loop_
_space_group_symop_operation_xyz
x,y,z
-x,-y,-z
loop_
_atom_site_type_symbol
_atom_site_label
_atom_site_fract_x
_atom_site_fract_y
_atom_site_fract_z
Si Si1 0.424735 0.884954 0.596944
Si Si2 0.877099 0.830742 0.349013
Si Si3 0.085421 0.226161 0.946354
Si Si4 0.425407 0.147215 0.799561
Si Si5 0.409202 0.420005 0.280412
Si Si6 0.273922 0.108243 0.479037
Si Si7 0.807392 0.426063 0.564697
Si Si8 0.336965 0.294707 0.965603
O O1 0.276141 0.682966 0.545964
O O2 0.500000 0.000000 0.500000
O O3 0.326314 0.993604 0.509176
O O4 0.586213 0.849033 0.826277
O O5 0.776562 0.880748 0.319043
O O6 0.923814 0.646456 0.524713
O O7 0.722644 0.763954 0.162335
O O8 0.057417 0.999912 0.375677
O O9 0.157073 0.291385 0.866253
O O10 0.932068 0.315508 0.785105
O O11 0.268690 0.309878 0.132143
O O12 0.000000 0.000000 0.000000
O O13 0.559697 0.361954 0.818169
O O14 0.398970 0.118775 0.679483
O O15 0.500000 0.000000 0.000000
O O16 0.319592 0.314600 0.357617
O O17 0.618323 0.411760 0.459849
O O18 0.500000 0.500000 0.000000
#
# Coordination Sequence:
#
# PCOD9059755 Si02
#       8
#     2   2   2   2   2   2   2   2
#     4  12  22  40  68 101 142 182 223 282 353 416
#     4  11  25  43  68 103 138 178 239 293 345 416
#     4  12  25  40  69 107 149 181 226 284 354 423
#     4  11  26  50  72  95 134 190 237 290 349 405
#     4  11  24  49  70 103 141 184 234 286 348 421
#     4  12  25  43  73  97 138 181 234 289 346 410
#     4  11  23  42  68 102 147 183 222 285 359 415
#     4  12  22  39  63  99 141 183 229 277 345 424
#
# _framework density 21.238630000000001
#
# number of rings (size 3 to 8) (size 9 to 14) (size 15 to 20)
#    0.000    0.500    3.750    5.250    3.500    1.000 
#    2.250    0.625    0.000    0.000    0.000    0.000 
#    0.000    0.000    0.000    0.000    0.000    0.000 
#
# Total GULP energy -89553.141218 kJ/mol
# GULP energy per Si atom -5597.071326 kJ/mol
# Density = 2.119029 g / cm^3
# Si number density = 21.238630 Si / 1000 Ang^3
#
#
#
# Elastic Constant Matrix: (Units=GPa)
#
#
# Indices 1 2 3 4 5 6 
#
# 1 95.1691 48.4554 13.4765 -13.0868 -7.7999 6.0258
# 2 48.4554 128.3286 34.3519 -23.3521 13.5865 23.8043
# 3 13.4765 34.3519 88.4958 -25.1313 6.5751 7.7294
# 4 -13.0868 -23.3521 -25.1313 38.2628 -2.9807 -1.6087
# 5 -7.7999 13.5865 6.5751 -2.9807 30.9600 -0.4595
# 6 6.0258 23.8043 7.7294 -1.6087 -0.4595 29.8809
#
#
#
# Elastic Compliance Matrix: (Units=1/GPa)
#
#
# Indices 1 2 3 4 5 6 
#
# 1 0.014285 -0.006193 0.000043 0.001735 0.006508 0.002236
# 2 -0.006193 0.013836 -0.001939 0.004125 -0.006959 -0.009157
# 3 0.000043 -0.001939 0.014666 0.008271 -0.001484 -0.001835
# 4 0.001735 0.004125 0.008271 0.034524 0.000136 -0.003915
# 5 0.006508 -0.006959 -0.001484 0.000136 0.037399 0.005198
# 6 0.002236 -0.009157 -0.001835 -0.003915 0.005198 0.040654
#
#
# Mechanical properties :
#
#
# Convention : Reuss Voigt Hill
#
# Bulk Modulus (GPa) = 37.58464 56.06236 46.82350
# Shear Modulus (GPa) = 27.71420 34.20140 30.95780
#
# Velocity S-wave (km/s) = 3.61625 4.01726 3.82202
# Velocity P-wave (km/s) = 5.93053 6.92615 6.44758
#
# Compressibility (1/GPa) = 0.02660661
#
# Stress axis : x y z
#
# Youngs Moduli (GPa) = 70.00174 72.27434 68.18719
#
# Poissons Ratio (x) = 0.44762 -0.00290
# Poissons Ratio (y) = 0.43355 0.13224
# Poissons Ratio (z) = -0.00298 0.14017
#
# Static dielectric constant tensor:
#      x y z
#    x 1.762600 0.009800 0.009630 
#    y 0.009800 1.777360 -0.002890 
#    z 0.009630 -0.002890 1.783130 
# 
# From -- ./inp_files/455430.got.cif
#   From: 2010.05.17/outbox.cif.g08.bks.cpg/sg2_228_cif.got.tgz:455430.got - 2010.06.03 11:33:40.
