data_PCOD9059024
_publ_section_title
;
Structure prediction by ZEFSAII (Michael W. Deem and Ramdas Pophale) SiO2 
 PCOD9059024
Probable space group: P -1
;
_chemical_formula_sum "Si O2"
_cell_formula_units_Z 12
_cell_length_a 21.304941
_cell_length_b 7.653521
_cell_length_c 21.149625
_cell_angle_alpha 136.013907
_cell_angle_beta 13.421609
_cell_angle_gamma 133.391842
_cell_volume 554.140421
_symmetry_space_group_name_H-M "P -1"
_symmetry_group_IT_number 2
_symmetry_cell_setting 'triclinic'
loop_
_space_group_symop_operation_xyz
x,y,z
-x,-y,-z
loop_
_atom_site_type_symbol
_atom_site_label
_atom_site_fract_x
_atom_site_fract_y
_atom_site_fract_z
Si Si1 0.760787 0.078661 0.302087
Si Si2 0.483746 0.800695 0.102789
Si Si3 0.976571 0.363056 0.269083
Si Si4 0.523955 0.109869 0.721098
Si Si5 0.259802 0.329039 0.677503
Si Si6 0.060290 0.944787 0.352957
O O1 0.836325 0.333629 0.329545
O O2 0.500000 0.000000 0.500000
O O3 0.750125 0.906372 0.328532
O O4 0.000000 0.000000 0.000000
O O5 0.557659 0.849623 0.115874
O O6 0.182793 0.920585 0.414897
O O7 0.500000 0.500000 0.000000
O O8 0.673667 0.936087 0.902819
O O9 0.748895 0.297215 0.526484
O O10 0.067927 0.643402 0.259041
O O11 0.249073 0.172712 0.964676
O O12 0.665575 0.823697 0.499732
O O13 0.500000 0.500000 0.500000
O O14 0.000000 0.500000 0.000000
O O15 0.000000 0.000000 0.500000
#
# Coordination Sequence:
#
# PCOD9059024 Si02
#       6
#     2   2   2   2   2   2
#     4  11  23  40  62  90 125 167 212 266 322 377
#     4  12  25  43  68 100 133 173 216 268 326 392
#     4  11  23  43  65  92 130 174 218 270 326 385
#     4  11  23  43  65  92 130 174 218 270 326 385
#     4  11  23  40  62  90 125 167 212 266 322 377
#     4  12  25  43  68 100 133 173 216 268 326 392
#
# _framework density 21.655161
#
# number of rings (size 3 to 8) (size 9 to 14) (size 15 to 20)
#    0.000    0.667    0.000   10.000    0.000    4.000 
#    0.000    0.000    0.000    0.000    0.000    0.000 
#    0.000    0.000    0.000    0.000    0.000    0.000 
#
# Total GULP energy -66957.323424 kJ/mol
# GULP energy per Si atom -5579.776952 kJ/mol
# Density = 2.160587 g / cm^3
# Si number density = 21.655161 Si / 1000 Ang^3
#
#
#
# Elastic Constant Matrix: (Units=GPa)
#
#
# Indices 1 2 3 4 5 6 
#
# 1 88.1963 25.1022 4.7089 8.0014 17.0292 29.8801
# 2 25.1022 132.5256 17.2121 -1.7745 18.4606 28.0621
# 3 4.7089 17.2121 120.8233 -9.1812 1.4816 11.4522
# 4 8.0014 -1.7745 -9.1812 42.9523 -9.9033 6.2070
# 5 17.0292 18.4606 1.4816 -9.9033 50.3595 2.3096
# 6 29.8801 28.0621 11.4522 6.2070 2.3096 34.8993
#
#
#
# Elastic Compliance Matrix: (Units=1/GPa)
#
#
# Indices 1 2 3 4 5 6 
#
# 1 0.017531 0.000539 0.000537 -0.002355 -0.005926 -0.014809
# 2 0.000539 0.009653 -0.000561 0.000580 -0.003226 -0.007929
# 3 0.000537 -0.000561 0.008825 0.002333 0.000377 -0.003345
# 4 -0.002355 0.000580 0.002333 0.026212 0.005865 -0.004266
# 5 -0.005926 -0.003226 0.000377 0.005865 0.023961 0.004915
# 6 -0.014809 -0.007929 -0.003345 -0.004266 0.004915 0.049239
#
#
# Mechanical properties :
#
#
# Convention : Reuss Voigt Hill
#
# Bulk Modulus (GPa) = 26.99795 48.39908 37.69852
# Shear Modulus (GPa) = 34.07482 45.27700 39.67591
#
# Velocity S-wave (km/s) = 3.97106 4.57751 4.28503
# Velocity P-wave (km/s) = 5.78965 7.09482 6.47521
#
# Compressibility (1/GPa) = 0.03703984
#
# Stress axis : x y z
#
# Youngs Moduli (GPa) = 57.04197 103.59967 113.31118
#
# Poissons Ratio (x) = -0.05586 -0.06088
# Poissons Ratio (y) = -0.03076 0.06356
# Poissons Ratio (z) = -0.03065 0.05811
#
# Static dielectric constant tensor:
#      x y z
#    x 1.900850 0.143280 -0.018140 
#    y 0.143280 1.899800 0.087630 
#    z -0.018140 0.087630 1.740300 
# 
# From -- ./inp_files/201705.got.cif
#   From: 2010.05.17/outbox.cif.g08.bks.cpg/sg2_101_cif.got.tgz:201705.got - 2010.06.03 11:33:40.
