data_PCOD9059876
_publ_section_title
;
Structure prediction by ZEFSAII (Michael W. Deem and Ramdas Pophale) SiO2 
 PCOD9059876
Probable space group: P -1
;
_chemical_formula_sum "Si O2"
_cell_formula_units_Z 15
_cell_length_a 6.626912
_cell_length_b 14.990155
_cell_length_c 12.035072
_cell_angle_alpha 40.999749
_cell_angle_beta 114.043184
_cell_angle_gamma 98.622866
_cell_volume 691.081500
_symmetry_space_group_name_H-M "P -1"
_symmetry_group_IT_number 2
_symmetry_cell_setting 'triclinic'
loop_
_space_group_symop_operation_xyz
x,y,z
-x,-y,-z
loop_
_atom_site_type_symbol
_atom_site_label
_atom_site_fract_x
_atom_site_fract_y
_atom_site_fract_z
Si Si1 0.497022 0.839343 0.139495
Si Si2 0.842817 0.511064 0.781168
Si Si3 0.344809 0.396983 0.034926
Si Si4 0.382210 0.753742 0.434087
Si Si5 0.352436 0.748867 0.953937
Si Si6 0.416980 0.121522 0.459257
Si Si7 0.971138 0.610430 0.487445
Si Si8 0.000000 0.000000 0.500000
O O1 0.372742 0.796843 0.261546
O O2 0.754170 0.741266 0.295326
O O3 0.400956 0.812657 0.022856
O O4 0.500000 0.000000 0.000000
O O5 0.628408 0.645972 0.616985
O O6 0.911366 0.523344 0.657963
O O7 0.762044 0.375313 0.923073
O O8 0.089175 0.492182 0.908270
O O9 0.421784 0.326176 0.997801
O O10 0.388227 0.264858 0.250374
O O11 0.500000 0.500000 0.000000
O O12 0.393882 0.881501 0.399453
O O13 0.188441 0.674384 0.492615
O O14 0.182246 0.867139 0.730237
O O15 0.178813 0.099623 0.469948
O O16 0.500000 0.000000 0.500000
O O17 0.000000 0.500000 0.500000
#
# Coordination Sequence:
#
# PCOD9059876 Si02
#       8
#     2   2   2   2   2   2   2   1
#     4  11  26  46  72 108 146 190 246 301 372 443
#     4  11  23  42  70 104 144 184 242 300 362 432
#     4  12  26  43  70 109 146 190 246 303 366 439
#     4  11  26  46  75 109 143 193 249 305 372 443
#     4  12  25  45  72 106 146 193 242 301 369 440
#     4  12  26  46  70 104 147 196 245 304 369 440
#     4  11  23  46  74 106 148 194 244 310 371 443
#     4  12  26  46  72 102 148 198 244 294 370 442
#
# _framework density 21.705107999999999
#
# number of rings (size 3 to 8) (size 9 to 14) (size 15 to 20)
#    0.000    0.533    2.667    5.600    1.867    6.933 
#    0.000    0.000    0.000    0.000    0.000    0.000 
#    0.000    0.000    0.000    0.000    0.000    0.000 
#
# Total GULP energy -83570.364545 kJ/mol
# GULP energy per Si atom -5571.357636 kJ/mol
# Density = 2.165571 g / cm^3
# Si number density = 21.705108 Si / 1000 Ang^3
#
#
#
# Elastic Constant Matrix: (Units=GPa)
#
#
# Indices 1 2 3 4 5 6 
#
# 1 73.4627 15.0417 22.9216 9.4300 -21.4597 5.2969
# 2 15.0417 101.5460 10.0731 10.9419 -16.0501 -4.5722
# 3 22.9216 10.0731 119.4037 -13.8872 -9.6159 -10.2335
# 4 9.4300 10.9419 -13.8872 33.1309 9.5130 -6.8189
# 5 -21.4597 -16.0501 -9.6159 9.5130 39.6131 -4.0838
# 6 5.2969 -4.5722 -10.2335 -6.8189 -4.0838 36.6200
#
#
#
# Elastic Compliance Matrix: (Units=1/GPa)
#
#
# Indices 1 2 3 4 5 6 
#
# 1 0.020882 0.000612 -0.004993 -0.013048 0.012933 -0.005327
# 2 0.000612 0.011565 -0.001265 -0.006209 0.006258 0.000544
# 3 -0.004993 -0.001265 0.010596 0.007845 -0.002038 0.004759
# 4 -0.013048 -0.006209 0.007845 0.046396 -0.017795 0.009959
# 5 0.012933 0.006258 -0.002038 -0.017795 0.038494 -0.000680
# 6 -0.005327 0.000544 0.004759 0.009959 -0.000680 0.031254
#
#
# Mechanical properties :
#
#
# Convention : Reuss Voigt Hill
#
# Bulk Modulus (GPa) = 31.49347 43.38725 37.44036
# Shear Modulus (GPa) = 27.61482 38.29785 32.95634
#
# Velocity S-wave (km/s) = 3.57076 4.20511 3.90085
# Velocity P-wave (km/s) = 5.61620 6.60379 6.12992
#
# Compressibility (1/GPa) = 0.03175261
#
# Stress axis : x y z
#
# Youngs Moduli (GPa) = 47.88867 86.46715 94.37296
#
# Poissons Ratio (x) = -0.05296 0.47119
# Poissons Ratio (y) = -0.02933 0.11936
# Poissons Ratio (z) = 0.23910 0.10936
#
# Static dielectric constant tensor:
#      x y z
#    x 1.825870 -0.071810 0.006380 
#    y -0.071810 1.872340 0.072440 
#    z 0.006380 0.072440 1.863340 
# 
# From -- ./inp_files/94578.got.cif
#   From: 2010.05.17/outbox.cif.g08.bks.cpg/sg2_48_cif.got.tgz:94578.got - 2010.06.03 11:33:40.
