data_PCOD9059246
_publ_section_title
;
Structure prediction by ZEFSAII (Michael W. Deem and Ramdas Pophale) SiO2 
 PCOD9059246
Probable space group: P -1
;
_chemical_formula_sum "Si O2"
_cell_formula_units_Z 14
_cell_length_a 15.730149
_cell_length_b 28.972342
_cell_length_c 28.516611
_cell_angle_alpha 9.484110
_cell_angle_beta 164.055807
_cell_angle_gamma 163.519319
_cell_volume 572.116892
_symmetry_space_group_name_H-M "P -1"
_symmetry_group_IT_number 2
_symmetry_cell_setting 'triclinic'
loop_
_space_group_symop_operation_xyz
x,y,z
-x,-y,-z
loop_
_atom_site_type_symbol
_atom_site_label
_atom_site_fract_x
_atom_site_fract_y
_atom_site_fract_z
Si Si1 0.420882 0.903517 0.242953
Si Si2 0.973175 0.225976 0.146443
Si Si3 0.909942 0.641222 0.522673
Si Si4 0.298598 0.157391 0.700874
Si Si5 0.379396 0.813095 0.780246
Si Si6 0.311696 0.392316 0.758549
Si Si7 0.906989 0.784831 0.014113
O O1 0.517585 0.670697 0.561683
O O2 0.252278 0.121917 0.962622
O O3 0.717463 0.097201 0.179164
O O4 0.168049 0.733334 0.241770
O O5 0.854955 0.071345 0.189992
O O6 0.056442 0.568805 0.845344
O O7 0.295347 0.119544 0.434489
O O8 0.558860 0.428142 0.547364
O O9 0.945595 0.735177 0.501716
O O10 0.942653 0.918995 0.229401
O O11 0.145969 0.462065 0.805693
O O12 0.500000 0.000000 0.000000
O O13 0.529260 0.716480 0.003312
O O14 0.604832 0.809017 0.859727
O O15 0.000000 0.500000 0.500000
#
# Coordination Sequence:
#
# PCOD9059246 Si02
#       7
#     2   2   2   2   2   2   2
#     4  12  25  43  79 100 140 191 253 282 342 432
#     4  12  28  47  71 110 144 190 228 302 369 413
#     4  11  23  40  76 102 137 175 248 282 339 413
#     4  11  24  45  76 108 140 183 238 299 344 427
#     4  12  29  47  69 103 158 181 233 302 370 408
#     4  12  26  46  73 106 139 192 243 294 346 420
#     4  12  24  45  71 108 136 194 236 287 345 434
#
# _framework density 24.470523
#
# number of rings (size 3 to 8) (size 9 to 14) (size 15 to 20)
#    0.000    0.286    4.286    3.857    8.000    3.429 
#    0.000    4.286    0.000    0.000    0.000    0.000 
#    0.000    0.000    0.000    0.000    0.000    0.000 
#
# Total GULP energy -78517.044526 kJ/mol
# GULP energy per Si atom -5608.360323 kJ/mol
# Density = 2.441483 g / cm^3
# Si number density = 24.470523 Si / 1000 Ang^3
#
#
#
# Elastic Constant Matrix: (Units=GPa)
#
#
# Indices 1 2 3 4 5 6 
#
# 1 135.4017 22.9761 24.4995 -6.9799 7.7797 3.3499
# 2 22.9761 35.3967 -6.3996 -1.7807 -9.2178 -7.1144
# 3 24.4995 -6.3996 103.3598 -5.6954 1.2646 -11.3141
# 4 -6.9799 -1.7807 -5.6954 34.9033 1.2478 5.5893
# 5 7.7797 -9.2178 1.2646 1.2478 49.9883 -3.0707
# 6 3.3499 -7.1144 -11.3141 5.5893 -3.0707 34.5262
#
#
#
# Elastic Compliance Matrix: (Units=1/GPa)
#
#
# Indices 1 2 3 4 5 6 
#
# 1 0.009819 -0.008610 -0.003197 0.001822 -0.003349 -0.004367
# 2 -0.008610 0.039589 0.005617 -0.001009 0.009249 0.011820
# 3 -0.003197 0.005617 0.011368 0.000609 0.001552 0.005232
# 4 0.001822 -0.001009 0.000609 0.029946 -0.001550 -0.005171
# 5 -0.003349 0.009249 0.001552 -0.001550 0.022538 0.004995
# 6 -0.004367 0.011820 0.005232 -0.005171 0.004995 0.034819
#
#
# Mechanical properties :
#
#
# Convention : Reuss Voigt Hill
#
# Bulk Modulus (GPa) = 20.66289 39.59000 30.12644
# Shear Modulus (GPa) = 28.31396 39.42238 33.86817
#
# Velocity S-wave (km/s) = 3.40525 4.01810 3.72430
# Velocity P-wave (km/s) = 4.89115 6.14334 5.55265
#
# Compressibility (1/GPa) = 0.04839594
#
# Stress axis : x y z
#
# Youngs Moduli (GPa) = 101.83993 25.25946 87.96709
#
# Poissons Ratio (x) = 0.21748 0.28126
# Poissons Ratio (y) = 0.87684 -0.49412
# Poissons Ratio (z) = 0.32561 -0.14188
#
# Static dielectric constant tensor:
#      x y z
#    x 1.937280 -0.002680 0.014320 
#    y -0.002680 1.958740 0.038120 
#    z 0.014320 0.038120 1.923680 
# 
# From -- ./inp_files/587819.got.cif
#   From: 2010.05.17/outbox.cif.g08.bks.cpg/sg2_294_cif.got.tgz:587819.got - 2010.06.03 11:33:40.
