data_PCOD9059541
_publ_section_title
;
Structure prediction by ZEFSAII (Michael W. Deem and Ramdas Pophale) SiO2 
 PCOD9059541
Probable space group: P -1
;
_chemical_formula_sum "Si O2"
_cell_formula_units_Z 13
_cell_length_a 8.633770
_cell_length_b 9.092877
_cell_length_c 8.412490
_cell_angle_alpha 92.700386
_cell_angle_beta 128.667881
_cell_angle_gamma 106.169029
_cell_volume 473.237053
_symmetry_space_group_name_H-M "P -1"
_symmetry_group_IT_number 2
_symmetry_cell_setting 'triclinic'
loop_
_space_group_symop_operation_xyz
x,y,z
-x,-y,-z
loop_
_atom_site_type_symbol
_atom_site_label
_atom_site_fract_x
_atom_site_fract_y
_atom_site_fract_z
Si Si1 0.428932 0.368924 0.082404
Si Si2 0.166700 0.804729 0.841950
Si Si3 0.589925 0.369257 0.497146
Si Si4 0.023994 0.698731 0.217094
Si Si5 0.626543 0.894599 0.214431
Si Si6 0.191684 0.080355 0.332021
Si Si7 0.000000 0.500000 0.500000
O O1 0.629986 0.401947 0.333272
O O2 0.500000 0.500000 0.000000
O O3 0.361695 0.203226 0.938726
O O4 0.210287 0.366735 0.019256
O O5 0.003552 0.867135 0.826697
O O6 0.059193 0.627638 0.697418
O O7 0.272182 0.923361 0.766982
O O8 0.373685 0.832870 0.084940
O O9 0.500000 0.500000 0.500000
O O10 0.792889 0.363978 0.717440
O O11 0.400531 0.191884 0.373327
O O12 0.981313 0.640961 0.370362
O O13 0.126784 0.891514 0.276336
O O14 0.746931 0.868045 0.442162
#
# Coordination Sequence:
#
# PCOD9059541 Si02
#       7
#     2   2   2   2   2   2   1
#     4  12  26  46  76 107 141 190 247 301 360 433
#     4  11  23  41  71 106 147 188 242 300 354 431
#     4  12  29  48  70 106 146 192 238 299 370 438
#     4  12  25  45  72 104 146 190 241 299 363 430
#     4  11  23  43  73 108 141 188 246 296 357 426
#     4  12  25  46  73 106 148 191 237 300 367 429
#     4  12  22  42  72 106 144 186 238 302 360 416
#
# _framework density 27.470378
#
# number of rings (size 3 to 8) (size 9 to 14) (size 15 to 20)
#    0.000    0.308    3.077    6.462    2.154    2.462 
#    0.000    0.000    0.000    0.000    0.000    0.000 
#    0.000    0.000    0.000    0.000    0.000    0.000 
#
# Total GULP energy -72766.426092 kJ/mol
# GULP energy per Si atom -5597.417392 kJ/mol
# Density = 2.740785 g / cm^3
# Si number density = 27.470378 Si / 1000 Ang^3
#
#
#
# Elastic Constant Matrix: (Units=GPa)
#
#
# Indices 1 2 3 4 5 6 
#
# 1 82.0579 50.3049 21.1637 -13.2048 22.1707 -17.0683
# 2 50.3049 186.5284 36.0221 31.2313 5.3180 -0.1397
# 3 21.1637 36.0221 114.4305 -3.1844 18.1999 -12.2996
# 4 -13.2048 31.2313 -3.1844 44.2475 -0.0365 2.5575
# 5 22.1707 5.3180 18.1999 -0.0365 59.2038 -13.3445
# 6 -17.0683 -0.1397 -12.2996 2.5575 -13.3445 66.3140
#
#
#
# Elastic Compliance Matrix: (Units=1/GPa)
#
#
# Indices 1 2 3 4 5 6 
#
# 1 0.020993 -0.007399 0.000178 0.011282 -0.006412 0.003695
# 2 -0.007399 0.009205 -0.002303 -0.008782 0.002306 -0.001509
# 3 0.000178 -0.002303 0.010057 0.002326 -0.002661 0.001281
# 4 0.011282 -0.008782 0.002326 0.032254 -0.003838 0.001300
# 5 -0.006412 0.002306 -0.002661 -0.003838 0.020376 0.002109
# 6 0.003695 -0.001509 0.001281 0.001300 0.002109 0.016640
#
#
# Mechanical properties :
#
#
# Convention : Reuss Voigt Hill
#
# Bulk Modulus (GPa) = 47.15681 66.44423 56.80052
# Shear Modulus (GPa) = 36.86179 52.32146 44.59163
#
# Velocity S-wave (km/s) = 3.66713 4.36896 4.03334
# Velocity P-wave (km/s) = 5.92741 7.04915 6.51248
#
# Compressibility (1/GPa) = 0.02120585
#
# Stress axis : x y z
#
# Youngs Moduli (GPa) = 47.63439 108.63895 99.43769
#
# Poissons Ratio (x) = 0.80385 -0.01765
# Poissons Ratio (y) = 0.35246 0.22896
# Poissons Ratio (z) = -0.00846 0.25015
#
# Static dielectric constant tensor:
#      x y z
#    x 1.990780 -0.033980 0.019650 
#    y -0.033980 2.164470 0.055880 
#    z 0.019650 0.055880 2.109770 
# 
# From -- ./inp_files/159455.got.cif
#   From: 2010.05.17/outbox.cif.g08.bks.cpg/sg2_80_cif.got.tgz:159455.got - 2010.06.03 11:33:40.
