data_PCOD9059494
_publ_section_title
;
Structure prediction by ZEFSAII (Michael W. Deem and Ramdas Pophale) SiO2 
 PCOD9059494
Probable space group: P -1
;
_chemical_formula_sum "Si O2"
_cell_formula_units_Z 16
_cell_length_a 11.628198
_cell_length_b 14.028260
_cell_length_c 9.830105
_cell_angle_alpha 124.504569
_cell_angle_beta 120.154781
_cell_angle_gamma 31.052718
_cell_volume 681.080660
_symmetry_space_group_name_H-M "P -1"
_symmetry_group_IT_number 2
_symmetry_cell_setting 'triclinic'
loop_
_space_group_symop_operation_xyz
x,y,z
-x,-y,-z
loop_
_atom_site_type_symbol
_atom_site_label
_atom_site_fract_x
_atom_site_fract_y
_atom_site_fract_z
Si Si1 0.690879 0.579895 0.572935
Si Si2 0.159510 0.189623 0.636791
Si Si3 0.440125 0.197907 0.873254
Si Si4 0.963545 0.041990 0.173420
Si Si5 0.986227 0.216892 0.826066
Si Si6 0.292128 0.165607 0.114790
Si Si7 0.517572 0.606061 0.762141
Si Si8 0.572560 0.170753 0.638784
O O1 0.705474 0.704055 0.731352
O O2 0.551596 0.604183 0.620982
O O3 0.574652 0.661291 0.424122
O O4 0.942088 0.357753 0.552409
O O5 0.225039 0.266247 0.803276
O O6 0.109790 0.136875 0.688985
O O7 0.367768 0.996750 0.521110
O O8 0.454890 0.245108 0.773231
O O9 0.647328 0.966148 0.835162
O O10 0.452512 0.288233 0.065646
O O11 0.944357 0.936244 0.160739
O O12 0.182670 0.947971 0.287490
O O13 0.726091 0.268768 0.242354
O O14 0.000000 0.000000 0.000000
O O15 0.725833 0.392738 0.777160
O O16 0.067163 0.276414 0.000082
O O17 0.500000 0.000000 0.000000
#
# Coordination Sequence:
#
# PCOD9059494 Si02
#       8
#     2   2   2   2   2   2   2   2
#     4  11  24  41  67 101 132 167 214 269 328 389
#     4  11  24  42  66  99 134 167 214 265 331 390
#     4  12  22  42  67  98 133 172 212 265 328 387
#     4  12  25  47  66  93 130 175 220 268 323 385
#     4  11  23  41  70 100 127 172 219 270 318 380
#     4  12  18  37  70  98 132 170 211 264 327 382
#     4  11  23  43  69  98 127 171 225 267 315 384
#     4  12  26  44  63  92 136 175 212 268 327 384
#
# _framework density 23.492077999999999
#
# number of rings (size 3 to 8) (size 9 to 14) (size 15 to 20)
#    0.000    0.500    6.250    1.875    0.000    6.000 
#    4.500    2.500    0.000    0.000    0.000    0.000 
#    0.000    0.000    0.000    0.000    0.000    0.000 
#
# Total GULP energy -89580.944513 kJ/mol
# GULP energy per Si atom -5598.809032 kJ/mol
# Density = 2.343861 g / cm^3
# Si number density = 23.492078 Si / 1000 Ang^3
#
#
#
# Elastic Constant Matrix: (Units=GPa)
#
#
# Indices 1 2 3 4 5 6 
#
# 1 73.6499 29.2118 34.7616 -17.4218 -9.1741 -6.7618
# 2 29.2118 98.0139 32.4624 -38.6751 -24.9336 -1.6532
# 3 34.7616 32.4624 83.2635 -41.3647 -17.4729 7.2498
# 4 -17.4218 -38.6751 -41.3647 43.5005 6.6438 5.7853
# 5 -9.1741 -24.9336 -17.4729 6.6438 43.1676 -1.6734
# 6 -6.7618 -1.6532 7.2498 5.7853 -1.6734 27.2454
#
#
#
# Elastic Compliance Matrix: (Units=1/GPa)
#
#
# Indices 1 2 3 4 5 6 
#
# 1 0.020192 -0.006517 -0.012566 -0.010606 -0.002537 0.010056
# 2 -0.006517 0.021420 0.009736 0.025051 0.010779 -0.007566
# 3 -0.012566 0.009736 0.037708 0.040493 0.011190 -0.020473
# 4 -0.010606 0.025051 0.040493 0.080963 0.015054 -0.028154
# 5 -0.002537 0.010779 0.011190 0.015054 0.030900 -0.004252
# 6 0.010056 -0.007566 -0.020473 -0.028154 -0.004252 0.049905
#
#
# Mechanical properties :
#
#
# Convention : Reuss Voigt Hill
#
# Bulk Modulus (GPa) = 16.49486 49.75545 33.12515
# Shear Modulus (GPa) = 17.85771 33.34882 25.60327
#
# Velocity S-wave (km/s) = 2.76009 3.77182 3.30490
# Velocity P-wave (km/s) = 4.14658 6.33991 5.35671
#
# Compressibility (1/GPa) = 0.06062495
#
# Stress axis : x y z
#
# Youngs Moduli (GPa) = 49.52480 46.68583 26.51938
#
# Poissons Ratio (x) = 0.30425 0.33325
# Poissons Ratio (y) = 0.32275 -0.25818
# Poissons Ratio (z) = 0.62234 -0.45452
#
# Static dielectric constant tensor:
#      x y z
#    x 1.891160 0.008440 0.042530 
#    y 0.008440 1.885830 0.008020 
#    z 0.042530 0.008020 1.906530 
# 
# From -- ./inp_files/272764.got.cif
#   From: 2010.05.17/outbox.cif.g08.bks.cpg/sg2_137_cif.got.tgz:272764.got - 2010.06.03 11:33:40.
