data_PCOD9059900
_publ_section_title
;
Structure prediction by ZEFSAII (Michael W. Deem and Ramdas Pophale) SiO2 
 PCOD9059900
Probable space group: P -1
;
_chemical_formula_sum "Si O2"
_cell_formula_units_Z 12
_cell_length_a 10.235716
_cell_length_b 14.816455
_cell_length_c 9.315601
_cell_angle_alpha 117.732531
_cell_angle_beta 150.430947
_cell_angle_gamma 60.083169
_cell_volume 602.621653
_symmetry_space_group_name_H-M "P -1"
_symmetry_group_IT_number 2
_symmetry_cell_setting 'triclinic'
loop_
_space_group_symop_operation_xyz
x,y,z
-x,-y,-z
loop_
_atom_site_type_symbol
_atom_site_label
_atom_site_fract_x
_atom_site_fract_y
_atom_site_fract_z
Si Si1 0.251761 0.787623 0.549192
Si Si2 0.208153 0.558085 0.317842
Si Si3 0.320491 0.084795 0.995053
Si Si4 0.716661 0.034142 0.834300
Si Si5 0.437427 0.737212 0.018418
Si Si6 0.961499 0.403766 0.488389
O O1 0.192706 0.679179 0.355028
O O2 0.345616 0.768625 0.790213
O O3 0.966191 0.868248 0.318884
O O4 0.496754 0.829353 0.740832
O O5 0.500000 0.500000 0.500000
O O6 0.154532 0.557026 0.436637
O O7 0.000000 0.500000 0.000000
O O8 0.500000 0.000000 0.000000
O O9 0.270673 0.027990 0.050684
O O10 0.500000 0.000000 0.500000
O O11 0.628498 0.157129 0.875265
O O12 0.000000 0.000000 0.000000
O O13 0.253094 0.657045 0.829843
O O14 0.751374 0.678142 0.277678
O O15 0.000000 0.500000 0.500000
#
# Coordination Sequence:
#
# PCOD9059900 Si02
#       6
#     2   2   2   2   2   2
#     4  11  23  42  71 100 126 176 228 263 326 393
#     4  11  23  43  66  97 134 164 210 285 332 370
#     4  12  24  42  72  97 129 173 230 267 309 416
#     4  12  27  45  64 100 142 171 213 277 342 376
#     4  11  23  44  72  93 133 179 220 268 328 398
#     4  11  24  45  70  96 128 178 227 262 325 409
#
# _framework density 19.912993
#
# number of rings (size 3 to 8) (size 9 to 14) (size 15 to 20)
#    0.000    0.667    1.667    8.000    2.333    0.000 
#   18.000    0.000    0.000    0.000    0.000    0.000 
#    0.000    0.000    0.000    0.000    0.000    0.000 
#
# Total GULP energy -67129.358109 kJ/mol
# GULP energy per Si atom -5594.113176 kJ/mol
# Density = 1.986767 g / cm^3
# Si number density = 19.912993 Si / 1000 Ang^3
#
#
#
# Elastic Constant Matrix: (Units=GPa)
#
#
# Indices 1 2 3 4 5 6 
#
# 1 139.2117 73.6570 44.3255 -0.7082 25.2222 -5.7013
# 2 73.6570 121.3217 45.5871 9.2221 7.0099 -18.4778
# 3 44.3255 45.5871 123.7613 6.2612 26.0120 -25.4444
# 4 -0.7082 9.2221 6.2612 59.4243 -3.8422 8.9139
# 5 25.2222 7.0099 26.0120 -3.8422 34.8367 3.0677
# 6 -5.7013 -18.4778 -25.4444 8.9139 3.0677 38.8744
#
#
#
# Elastic Compliance Matrix: (Units=1/GPa)
#
#
# Indices 1 2 3 4 5 6 
#
# 1 0.012387 -0.007204 -0.000861 0.001221 -0.006571 -0.001933
# 2 -0.007204 0.014155 -0.002312 -0.002486 0.003427 0.004458
# 3 -0.000861 -0.002312 0.013349 -0.003056 -0.010009 0.009003
# 4 0.001221 -0.002486 -0.003056 0.019012 0.004675 -0.007731
# 5 -0.006571 0.003427 -0.010009 0.004675 0.041665 -0.010246
# 6 -0.001933 0.004458 0.009003 -0.007731 -0.010246 0.036033
#
#
# Mechanical properties :
#
#
# Convention : Reuss Voigt Hill
#
# Bulk Modulus (GPa) = 52.25387 79.04821 65.65104
# Shear Modulus (GPa) = 30.53738 41.34208 35.93973
#
# Velocity S-wave (km/s) = 3.92029 4.56141 4.25295
# Velocity P-wave (km/s) = 6.84030 8.21735 7.56024
#
# Compressibility (1/GPa) = 0.01913734
#
# Stress axis : x y z
#
# Youngs Moduli (GPa) = 80.73132 70.64611 74.91208
#
# Poissons Ratio (x) = 0.50896 0.06448
# Poissons Ratio (y) = 0.58162 0.17317
# Poissons Ratio (z) = 0.06949 0.16331
#
# Static dielectric constant tensor:
#      x y z
#    x 1.794170 -0.117990 0.135000 
#    y -0.117990 1.823800 -0.132200 
#    z 0.135000 -0.132200 1.821100 
# 
# From -- ./inp_files/49767.got.cif
#   From: 2010.05.17/outbox.cif.g08.bks.cpg/sg2_25_cif.got.tgz:49767.got - 2010.06.03 11:33:40.
