data_PCOD9059008
_publ_section_title
;
Structure prediction by ZEFSAII (Michael W. Deem and Ramdas Pophale) SiO2 
 PCOD9059008
Probable space group: P -1
;
_chemical_formula_sum "Si O2"
_cell_formula_units_Z 16
_cell_length_a 14.062953
_cell_length_b 8.599055
_cell_length_c 10.546431
_cell_angle_alpha 116.369947
_cell_angle_beta 43.339530
_cell_angle_gamma 113.363722
_cell_volume 778.598964
_symmetry_space_group_name_H-M "P -1"
_symmetry_group_IT_number 2
_symmetry_cell_setting 'triclinic'
loop_
_space_group_symop_operation_xyz
x,y,z
-x,-y,-z
loop_
_atom_site_type_symbol
_atom_site_label
_atom_site_fract_x
_atom_site_fract_y
_atom_site_fract_z
Si Si1 0.217225 0.591547 0.484027
Si Si2 0.034311 0.676854 0.315519
Si Si3 0.010811 0.848346 0.654748
Si Si4 0.422459 0.818186 0.560789
Si Si5 0.197626 0.714908 0.917656
Si Si6 0.952506 0.850595 0.092697
Si Si7 0.328207 0.384467 0.772184
Si Si8 0.760478 0.582015 0.860050
O O1 0.115114 0.725737 0.575851
O O2 0.326623 0.704960 0.508804
O O3 0.282601 0.500988 0.265321
O O4 0.117842 0.434918 0.594534
O O5 0.022124 0.822265 0.485217
O O6 0.126114 0.538894 0.241719
O O7 0.125249 0.744318 0.131831
O O8 0.852895 0.769232 0.816754
O O9 0.053578 0.041680 0.733035
O O10 0.317818 0.850382 0.788501
O O11 0.540124 0.696127 0.439519
O O12 0.500000 0.000000 0.500000
O O13 0.276570 0.545687 0.804511
O O14 0.065850 0.714375 0.949806
O O15 0.805525 0.758395 0.160589
O O16 0.000000 0.000000 0.000000
O O17 0.346040 0.419066 0.919480
#
# Coordination Sequence:
#
# PCOD9059008 Si02
#       8
#     2   2   2   2   2   2   2   2
#     4   9  18  35  62  92 120 156 197 243 301 359
#     4   8  18  35  61  92 118 155 196 253 301 351
#     4   9  16  33  59  94 126 148 194 254 302 345
#     4  12  26  40  60  88 125 162 203 250 304 360
#     4  11  25  41  62  87 122 160 206 250 304 363
#     4  12  22  35  64  94 122 155 199 256 300 353
#     4  11  23  40  59  89 125 163 202 243 302 359
#     4   8  16  33  61  88 120 153 200 245 292 362
#
# _framework density 20.549733
#
# number of rings (size 3 to 8) (size 9 to 14) (size 15 to 20)
#    0.000    2.000    1.250    4.500    5.250    1.000 
#    0.000    0.000    0.000   12.000    0.000    0.000 
#    0.000    0.000    0.000    0.000    0.000    0.000 
#
# Total GULP energy -89238.793083 kJ/mol
# GULP energy per Si atom -5577.424568 kJ/mol
# Density = 2.050296 g / cm^3
# Si number density = 20.549733 Si / 1000 Ang^3
#
#
#
# Elastic Constant Matrix: (Units=GPa)
#
#
# Indices 1 2 3 4 5 6 
#
# 1 79.9335 34.8673 50.3560 -8.5256 0.6780 1.0798
# 2 34.8673 74.5160 48.9609 -14.3575 17.2693 10.2796
# 3 50.3560 48.9609 98.9776 -9.9472 10.8509 6.7818
# 4 -8.5256 -14.3575 -9.9472 35.6637 -1.6987 -2.0434
# 5 0.6780 17.2693 10.8509 -1.6987 29.1758 6.2160
# 6 1.0798 10.2796 6.7818 -2.0434 6.2160 25.8459
#
#
#
# Elastic Compliance Matrix: (Units=1/GPa)
#
#
# Indices 1 2 3 4 5 6 
#
# 1 0.020020 -0.005401 -0.008181 0.000712 0.005340 0.002230
# 2 -0.005401 0.025236 -0.007647 0.005957 -0.010602 -0.004784
# 3 -0.008181 -0.007647 0.018315 -0.000072 -0.001892 -0.000973
# 4 0.000712 0.005957 -0.000072 0.030528 -0.001840 0.000476
# 5 0.005340 -0.010602 -0.001892 -0.001840 0.042263 -0.005820
# 6 0.002230 -0.004784 -0.000973 0.000476 -0.005820 0.042193
#
#
# Mechanical properties :
#
#
# Convention : Reuss Voigt Hill
#
# Bulk Modulus (GPa) = 47.36104 57.97728 52.66916
# Shear Modulus (GPa) = 21.92496 26.08659 24.00578
#
# Velocity S-wave (km/s) = 3.26992 3.56678 3.42157
# Velocity P-wave (km/s) = 6.11176 6.72584 6.42614
#
# Compressibility (1/GPa) = 0.02111440
#
# Stress axis : x y z
#
# Youngs Moduli (GPa) = 49.94904 39.62552 54.60003
#
# Poissons Ratio (x) = 0.21401 0.44667
# Poissons Ratio (y) = 0.26976 0.41753
# Poissons Ratio (z) = 0.40862 0.30302
#
# Static dielectric constant tensor:
#      x y z
#    x 1.759310 -0.034050 0.066990 
#    y -0.034050 1.746390 0.004000 
#    z 0.066990 0.004000 1.797460 
# 
# From -- ./inp_files/448005.got.cif
#   From: 2010.05.17/outbox.cif.g08.bks.cpg/sg2_225_cif.got.tgz:448005.got - 2010.06.03 11:33:40.
