data_PCOD9059549
_publ_section_title
;
Structure prediction by ZEFSAII (Michael W. Deem and Ramdas Pophale) SiO2 
 PCOD9059549
Probable space group: P -1
;
_chemical_formula_sum "Si O2"
_cell_formula_units_Z 14
_cell_length_a 20.741451
_cell_length_b 11.318013
_cell_length_c 14.303917
_cell_angle_alpha 149.403690
_cell_angle_beta 157.905783
_cell_angle_gamma 31.883055
_cell_volume 619.093648
_symmetry_space_group_name_H-M "P -1"
_symmetry_group_IT_number 2
_symmetry_cell_setting 'triclinic'
loop_
_space_group_symop_operation_xyz
x,y,z
-x,-y,-z
loop_
_atom_site_type_symbol
_atom_site_label
_atom_site_fract_x
_atom_site_fract_y
_atom_site_fract_z
Si Si1 0.610793 0.298677 0.298397
Si Si2 0.011929 0.727329 0.941967
Si Si3 0.415775 0.230399 0.323592
Si Si4 0.687062 0.995489 0.798590
Si Si5 0.216676 0.066921 0.402350
Si Si6 0.295716 0.229771 0.954866
Si Si7 0.418011 0.472808 0.973855
O O1 0.667392 0.496254 0.571029
O O2 0.737599 0.029115 0.285512
O O3 0.423627 0.280309 0.079998
O O4 0.568671 0.401262 0.207207
O O5 0.129533 0.455508 0.905405
O O6 0.927134 0.804219 0.778805
O O7 0.844856 0.786508 0.826077
O O8 0.127793 0.915411 0.249513
O O9 0.328498 0.059927 0.150856
O O10 0.623853 0.144417 0.572187
O O11 0.405647 0.198858 0.178544
O O12 0.500000 0.000000 0.500000
O O13 0.708323 0.261866 0.993770
O O14 0.312235 0.269375 0.698446
O O15 0.500000 0.500000 0.000000
#
# Coordination Sequence:
#
# PCOD9059549 Si02
#       7
#     2   2   2   2   2   2   2
#     4  11  23  41  72 101 135 189 229 271 354 419
#     4  11  25  44  65 103 143 176 230 300 340 399
#     4  12  22  45  74  98 137 189 230 277 347 430
#     4  12  23  43  72  96 135 188 229 285 360 401
#     4  11  23  42  69 100 141 174 229 296 334 396
#     4  11  25  43  68 102 143 179 233 281 344 422
#     4  12  22  41  72 107 133 179 242 282 333 427
#
# _framework density 22.613703000000001
#
# number of rings (size 3 to 8) (size 9 to 14) (size 15 to 20)
#    0.000    0.571    7.143    0.429    2.000    1.143 
#    2.571    0.714    0.000    0.000    0.000    0.000 
#    0.000    0.000    0.000    0.000    0.000    0.000 
#
# Total GULP energy -78244.579105 kJ/mol
# GULP energy per Si atom -5588.898508 kJ/mol
# Density = 2.256223 g / cm^3
# Si number density = 22.613703 Si / 1000 Ang^3
#
#
#
# Elastic Constant Matrix: (Units=GPa)
#
#
# Indices 1 2 3 4 5 6 
#
# 1 103.9076 31.3773 9.4530 -5.2906 1.0436 4.6129
# 2 31.3773 183.2906 33.7202 7.4278 10.3053 -9.8986
# 3 9.4530 33.7202 57.8920 22.4740 5.0666 -5.8064
# 4 -5.2906 7.4278 22.4740 37.7097 -7.8691 2.5379
# 5 1.0436 10.3053 5.0666 -7.8691 27.5166 -3.9043
# 6 4.6129 -9.8986 -5.8064 2.5379 -3.9043 30.0046
#
#
#
# Elastic Compliance Matrix: (Units=1/GPa)
#
#
# Indices 1 2 3 4 5 6 
#
# 1 0.010706 -0.001736 -0.002683 0.003941 0.001456 -0.002882
# 2 -0.001736 0.006518 -0.003189 -0.000064 -0.001579 0.001600
# 3 -0.002683 -0.003189 0.028047 -0.018578 -0.008434 0.005262
# 4 0.003941 -0.000064 -0.018578 0.041544 0.014343 -0.005870
# 5 0.001456 -0.001579 -0.008434 0.014343 0.042814 0.001981
# 6 -0.002882 0.001600 0.005262 -0.005870 0.001981 0.036072
#
#
# Mechanical properties :
#
#
# Convention : Reuss Voigt Hill
#
# Bulk Modulus (GPa) = 33.27431 54.91013 44.09222
# Shear Modulus (GPa) = 26.18673 37.08215 31.63444
#
# Velocity S-wave (km/s) = 3.40664 4.05385 3.74425
# Velocity P-wave (km/s) = 5.49725 6.80045 6.18328
#
# Compressibility (1/GPa) = 0.03005321
#
# Stress axis : x y z
#
# Youngs Moduli (GPa) = 93.40220 153.43131 35.65402
#
# Poissons Ratio (x) = 0.26642 0.09567
# Poissons Ratio (y) = 0.16218 0.11371
# Poissons Ratio (z) = 0.25063 0.48934
#
# Static dielectric constant tensor:
#      x y z
#    x 1.853990 -0.004620 0.004920 
#    y -0.004620 1.856050 0.031370 
#    z 0.004920 0.031370 1.859900 
# 
# From -- ./inp_files/261335.got.cif
#   From: 2010.05.17/outbox.cif.g08.bks.cpg/sg2_131_cif.got.tgz:261335.got - 2010.06.03 11:33:40.
