data_PCOD9059317
_publ_section_title
;
Structure prediction by ZEFSAII (Michael W. Deem and Ramdas Pophale) SiO2 
 PCOD9059317
Probable space group: P -1
;
_chemical_formula_sum "Si O2"
_cell_formula_units_Z 14
_cell_length_a 23.613285
_cell_length_b 11.458168
_cell_length_c 7.850735
_cell_angle_alpha 117.293618
_cell_angle_beta 137.834993
_cell_angle_gamma 29.888163
_cell_volume 593.249862
_symmetry_space_group_name_H-M "P -1"
_symmetry_group_IT_number 2
_symmetry_cell_setting 'triclinic'
loop_
_space_group_symop_operation_xyz
x,y,z
-x,-y,-z
loop_
_atom_site_type_symbol
_atom_site_label
_atom_site_fract_x
_atom_site_fract_y
_atom_site_fract_z
Si Si1 0.987011 0.332916 0.888865
Si Si2 0.674598 0.610677 0.883830
Si Si3 0.389930 0.488151 0.633701
Si Si4 0.009992 0.974936 0.214903
Si Si5 0.075760 0.527674 0.767579
Si Si6 0.283786 0.111852 0.490006
Si Si7 0.702457 0.108709 0.325062
O O1 0.013991 0.141097 0.846917
O O2 0.841191 0.586587 0.598659
O O3 0.912897 0.484849 0.010897
O O4 0.173034 0.157083 0.157626
O O5 0.630754 0.604310 0.599306
O O6 0.486999 0.864768 0.731246
O O7 0.746689 0.656983 0.040534
O O8 0.841610 0.294038 0.117302
O O9 0.222034 0.714932 0.543966
O O10 0.371974 0.652463 0.606656
O O11 0.578920 0.236228 0.980022
O O12 0.000000 0.000000 0.000000
O O13 0.000000 0.500000 0.500000
O O14 0.909382 0.853259 0.571547
O O15 0.293823 0.015655 0.620269
#
# Coordination Sequence:
#
# PCOD9059317 Si02
#       7
#     2   2   2   2   2   2   2
#     4  10  21  41  61  89 131 172 201 251 328 372
#     4  11  21  39  69  96 118 164 220 260 303 375
#     4  10  20  38  72  91 121 166 218 255 305 377
#     4  10  17  37  66  92 118 162 214 257 296 373
#     4  11  22  38  64  91 125 163 215 263 301 375
#     4  10  23  39  61  95 134 162 202 259 328 372
#     4  10  22  42  61  95 130 164 204 260 319 366
#
# _framework density 23.598825000000001
#
# number of rings (size 3 to 8) (size 9 to 14) (size 15 to 20)
#    0.000    1.714    4.286    2.571    2.000    4.000 
#    0.000    8.571    0.000    0.000    0.000    0.000 
#    0.000    0.000    0.000    0.000    0.000    0.000 
#
# Total GULP energy -78154.621769 kJ/mol
# GULP energy per Si atom -5582.472983 kJ/mol
# Density = 2.354511 g / cm^3
# Si number density = 23.598825 Si / 1000 Ang^3
#
#
#
# Elastic Constant Matrix: (Units=GPa)
#
#
# Indices 1 2 3 4 5 6 
#
# 1 106.0709 40.4949 52.0954 -16.9155 37.5890 20.8816
# 2 40.4949 62.6965 24.0279 -2.5774 -0.6987 25.4387
# 3 52.0954 24.0279 80.7889 -12.6123 11.9331 3.5461
# 4 -16.9155 -2.5774 -12.6123 43.1154 4.2330 8.6907
# 5 37.5890 -0.6987 11.9331 4.2330 36.4469 -11.0631
# 6 20.8816 25.4387 3.5461 8.6907 -11.0631 41.3942
#
#
#
# Elastic Compliance Matrix: (Units=1/GPa)
#
#
# Indices 1 2 3 4 5 6 
#
# 1 0.108085 -0.021489 -0.029254 0.063869 -0.136662 -0.088746
# 2 -0.021489 0.029129 0.000112 -0.009300 0.024172 0.001342
# 3 -0.029254 0.000112 0.023671 -0.012333 0.030998 0.023534
# 4 0.063869 -0.009300 -0.012333 0.065476 -0.088708 -0.062902
# 5 -0.136662 0.024172 0.030998 -0.088708 0.207060 0.125393
# 6 -0.088746 0.001342 0.023534 -0.062902 0.125393 0.112804
#
#
# Mechanical properties :
#
#
# Convention : Reuss Voigt Hill
#
# Bulk Modulus (GPa) = 16.77168 53.64364 35.20766
# Shear Modulus (GPa) = 7.49221 33.05385 20.27303
#
# Velocity S-wave (km/s) = 1.78374 3.74659 2.93417
# Velocity P-wave (km/s) = 3.37116 6.44180 5.14108
#
# Compressibility (1/GPa) = 0.05962432
#
# Stress axis : x y z
#
# Youngs Moduli (GPa) = 9.25199 34.33060 42.24543
#
# Poissons Ratio (x) = 0.73773 1.23583
# Poissons Ratio (y) = 0.19881 -0.00474
# Poissons Ratio (z) = 0.27065 -0.00386
#
# Static dielectric constant tensor:
#      x y z
#    x 1.918320 -0.026780 0.002220 
#    y -0.026780 2.046040 0.015800 
#    z 0.002220 0.015800 1.926670 
# 
# From -- ./inp_files/356880.got.cif
#   From: 2010.05.17/outbox.cif.g08.bks.cpg/sg2_179_cif.got.tgz:356880.got - 2010.06.03 11:33:40.
