data_PCOD9059645
_publ_section_title
;
Structure prediction by ZEFSAII (Michael W. Deem and Ramdas Pophale) SiO2 
 PCOD9059645
Probable space group: P -1
;
_chemical_formula_sum "Si O2"
_cell_formula_units_Z 14
_cell_length_a 11.448910
_cell_length_b 15.311882
_cell_length_c 15.858849
_cell_angle_alpha 18.460055
_cell_angle_beta 130.924436
_cell_angle_gamma 131.260806
_cell_volume 656.636186
_symmetry_space_group_name_H-M "P -1"
_symmetry_group_IT_number 2
_symmetry_cell_setting 'triclinic'
loop_
_space_group_symop_operation_xyz
x,y,z
-x,-y,-z
loop_
_atom_site_type_symbol
_atom_site_label
_atom_site_fract_x
_atom_site_fract_y
_atom_site_fract_z
Si Si1 0.742573 0.889685 0.447944
Si Si2 0.602861 0.378180 0.730688
Si Si3 0.541866 0.868306 0.954373
Si Si4 0.958078 0.746067 0.814090
Si Si5 0.259323 0.600139 0.521474
Si Si6 0.952412 0.355405 0.865666
Si Si7 0.014638 0.778234 0.365646
O O1 0.659197 0.620442 0.604753
O O2 0.802132 0.829156 0.624172
O O3 0.622019 0.107271 0.190180
O O4 0.897517 0.005864 0.361307
O O5 0.500000 0.500000 0.500000
O O6 0.765801 0.304118 0.841475
O O7 0.497689 0.147136 0.950255
O O8 0.659723 0.144374 0.731316
O O9 0.616078 0.597117 0.213296
O O10 0.000000 0.500000 0.000000
O O11 0.960872 0.653551 0.996059
O O12 0.129090 0.397518 0.592510
O O13 0.171441 0.723823 0.443328
O O14 0.000642 0.643711 0.574990
O O15 0.996081 0.100554 0.064442
#
# Coordination Sequence:
#
# PCOD9059645 Si02
#       7
#     2   2   2   2   2   2   2
#     4  11  23  42  65 102 135 189 221 265 347 405
#     4  12  26  41  65 110 149 173 213 280 362 426
#     4  12  23  43  67 101 133 186 214 280 340 411
#     4  11  23  42  68  98 143 184 231 272 334 418
#     4  11  25  45  70  92 142 181 240 272 337 413
#     4  12  24  43  69 100 142 172 229 283 339 406
#     4  11  26  45  66 101 129 192 232 284 331 396
#
# _framework density 21.320786999999999
#
# number of rings (size 3 to 8) (size 9 to 14) (size 15 to 20)
#    0.000    0.571    4.286    3.429    4.000    4.000 
#    0.000    0.714    0.000    5.143    0.000    0.000 
#    0.000    0.000    0.000    0.000    0.000    0.000 
#
# Total GULP energy -78420.999351 kJ/mol
# GULP energy per Si atom -5601.499954 kJ/mol
# Density = 2.127226 g / cm^3
# Si number density = 21.320787 Si / 1000 Ang^3
#
#
#
# Elastic Constant Matrix: (Units=GPa)
#
#
# Indices 1 2 3 4 5 6 
#
# 1 116.3847 26.0998 41.5902 14.7379 25.4070 6.1401
# 2 26.0998 80.4736 23.8108 26.8886 7.3926 8.7098
# 3 41.5902 23.8108 108.5007 18.7509 22.5412 15.0347
# 4 14.7379 26.8886 18.7509 51.8971 7.2567 4.2615
# 5 25.4070 7.3926 22.5412 7.2567 46.2134 -2.0547
# 6 6.1401 8.7098 15.0347 4.2615 -2.0547 21.0275
#
#
#
# Elastic Compliance Matrix: (Units=1/GPa)
#
#
# Indices 1 2 3 4 5 6 
#
# 1 0.011094 -0.002193 -0.002684 -0.000364 -0.004416 -0.000770
# 2 -0.002193 0.016223 -0.000943 -0.007118 0.000012 -0.003961
# 3 -0.002684 -0.000943 0.012913 -0.002092 -0.004703 -0.008094
# 4 -0.000364 -0.007118 -0.002092 0.024056 -0.001439 -0.000465
# 5 -0.004416 0.000012 -0.004703 -0.001439 0.026921 0.007569
# 6 -0.000770 -0.003961 -0.008094 -0.000465 0.007569 0.056043
#
#
# Mechanical properties :
#
#
# Convention : Reuss Voigt Hill
#
# Bulk Modulus (GPa) = 34.97943 54.26231 44.62087
# Shear Modulus (GPa) = 29.68775 38.08481 33.88628
#
# Velocity S-wave (km/s) = 3.73558 4.23102 3.99100
# Velocity P-wave (km/s) = 5.92013 7.02669 6.49701
#
# Compressibility (1/GPa) = 0.02858823
#
# Stress axis : x y z
#
# Youngs Moduli (GPa) = 90.13896 61.64173 77.44407
#
# Poissons Ratio (x) = 0.13521 0.20788
# Poissons Ratio (y) = 0.19771 0.07302
# Poissons Ratio (z) = 0.24195 0.05812
#
# Static dielectric constant tensor:
#      x y z
#    x 1.762140 0.005740 -0.005440 
#    y 0.005740 1.796880 -0.028240 
#    z -0.005440 -0.028240 1.824320 
# 
# From -- ./inp_files/521229.got.cif
#   From: 2010.05.17/outbox.cif.g08.bks.cpg/sg2_261_cif.got.tgz:521229.got - 2010.06.03 11:33:40.
