data_PCOD9059791
_publ_section_title
;
Structure prediction by ZEFSAII (Michael W. Deem and Ramdas Pophale) SiO2 
 PCOD9059791
Probable space group: P -1
;
_chemical_formula_sum "Si O2"
_cell_formula_units_Z 16
_cell_length_a 12.694303
_cell_length_b 19.598246
_cell_length_c 8.834687
_cell_angle_alpha 140.287425
_cell_angle_beta 76.684549
_cell_angle_gamma 135.227309
_cell_volume 704.636909
_symmetry_space_group_name_H-M "P -1"
_symmetry_group_IT_number 2
_symmetry_cell_setting 'triclinic'
loop_
_space_group_symop_operation_xyz
x,y,z
-x,-y,-z
loop_
_atom_site_type_symbol
_atom_site_label
_atom_site_fract_x
_atom_site_fract_y
_atom_site_fract_z
Si Si1 0.917142 0.324972 0.141089
Si Si2 0.595973 0.811464 0.680760
Si Si3 0.496871 0.052077 0.923518
Si Si4 0.071513 0.676032 0.225081
Si Si5 0.839849 0.910925 0.236244
Si Si6 0.449213 0.455030 0.619408
Si Si7 0.996418 0.166820 0.344304
Si Si8 0.886694 0.067498 0.779652
O O1 0.000000 0.500000 0.500000
O O2 0.669476 0.134361 0.914611
O O3 0.953587 0.347511 0.988195
O O4 0.974382 0.262060 0.097115
O O5 0.523273 0.634891 0.460305
O O6 0.646448 0.861149 0.570625
O O7 0.463216 0.790894 0.772104
O O8 0.838709 0.042414 0.044028
O O9 0.295352 0.881463 0.588294
O O10 0.500000 0.000000 0.000000
O O11 0.947344 0.671879 0.327229
O O12 0.000000 0.500000 0.000000
O O13 0.987808 0.932212 0.206836
O O14 0.908986 0.062448 0.584512
O O15 0.628137 0.689438 0.006800
O O16 0.849681 0.975393 0.181296
O O17 0.500000 0.500000 0.500000
O O18 0.212303 0.290695 0.447785
#
# Coordination Sequence:
#
# PCOD9059791 Si02
#       8
#     2   2   2   2   2   2   2   2
#     4  12  26  45  71 104 141 191 240 292 357 425
#     4  11  23  42  68  98 138 179 227 293 353 418
#     4  11  24  45  70 101 138 183 238 293 358 417
#     4  11  26  47  71 101 140 188 237 296 357 429
#     4  11  24  45  68 102 138 185 228 287 358 414
#     4  12  24  40  72 106 135 180 237 282 351 428
#     4  11  23  46  70  98 142 182 231 290 354 419
#     4  11  24  45  68  95 145 180 226 298 353 413
#
# _framework density 22.706731999999999
#
# number of rings (size 3 to 8) (size 9 to 14) (size 15 to 20)
#    0.000    0.750    5.000    2.250    3.500    2.500 
#    2.250    0.000    0.000    0.000    0.000    0.000 
#    0.000    0.000    0.000    0.000    0.000    0.000 
#
# Total GULP energy -89204.211991 kJ/mol
# GULP energy per Si atom -5575.263249 kJ/mol
# Density = 2.265505 g / cm^3
# Si number density = 22.706732 Si / 1000 Ang^3
#
#
#
# Elastic Constant Matrix: (Units=GPa)
#
#
# Indices 1 2 3 4 5 6 
#
# 1 77.3865 18.0448 24.0911 7.4460 -39.5099 -5.3800
# 2 18.0448 84.4802 15.0860 -2.0146 -23.9492 -15.5587
# 3 24.0911 15.0860 73.2065 -4.9619 -36.5854 -5.1123
# 4 7.4460 -2.0146 -4.9619 35.8446 -2.4964 -6.9958
# 5 -39.5099 -23.9492 -36.5854 -2.4964 44.9630 2.7182
# 6 -5.3800 -15.5587 -5.1123 -6.9958 2.7182 39.4399
#
#
#
# Elastic Compliance Matrix: (Units=1/GPa)
#
#
# Indices 1 2 3 4 5 6 
#
# 1 0.024862 0.001712 0.004610 -0.002119 0.026242 0.002480
# 2 0.001712 0.015598 0.002812 0.002999 0.011877 0.006465
# 3 0.004610 0.002812 0.025299 0.005338 0.026178 0.004160
# 4 -0.002119 0.002999 0.005338 0.030929 0.005391 0.006701
# 5 0.026242 0.011877 0.026178 0.005391 0.072766 0.007599
# 6 0.002480 0.006465 0.004160 0.006701 0.007599 0.029448
#
#
# Mechanical properties :
#
#
# Convention : Reuss Voigt Hill
#
# Bulk Modulus (GPa) = 11.90102 38.83523 25.36812
# Shear Modulus (GPa) = 23.96438 35.90625 29.93532
#
# Velocity S-wave (km/s) = 3.25220 3.98088 3.63484
# Velocity P-wave (km/s) = 4.39942 6.18627 5.36772
#
# Compressibility (1/GPa) = 0.08402644
#
# Stress axis : x y z
#
# Youngs Moduli (GPa) = 40.22203 64.10960 39.52797
#
# Poissons Ratio (x) = -0.10974 -0.18221
# Poissons Ratio (y) = -0.06885 -0.11117
# Poissons Ratio (z) = -0.18541 -0.18031
#
# Static dielectric constant tensor:
#      x y z
#    x 1.848600 0.016760 0.027800 
#    y 0.016760 1.846720 0.013020 
#    z 0.027800 0.013020 1.965270 
# 
# From -- ./inp_files/280106.got.cif
#   From: 2010.05.17/outbox.cif.g08.bks.cpg/sg2_141_cif.got.tgz:280106.got - 2010.06.03 11:33:40.
