data_PCOD9059119
_publ_section_title
;
Structure prediction by ZEFSAII (Michael W. Deem and Ramdas Pophale) SiO2 
 PCOD9059119
Probable space group: P -1
;
_chemical_formula_sum "Si O2"
_cell_formula_units_Z 16
_cell_length_a 19.848154
_cell_length_b 17.285167
_cell_length_c 7.770777
_cell_angle_alpha 123.322478
_cell_angle_beta 133.248923
_cell_angle_gamma 21.020780
_cell_volume 653.712800
_symmetry_space_group_name_H-M "P -1"
_symmetry_group_IT_number 2
_symmetry_cell_setting 'triclinic'
loop_
_space_group_symop_operation_xyz
x,y,z
-x,-y,-z
loop_
_atom_site_type_symbol
_atom_site_label
_atom_site_fract_x
_atom_site_fract_y
_atom_site_fract_z
Si Si1 0.969357 0.632356 0.663376
Si Si2 0.458456 0.749619 0.062290
Si Si3 0.763925 0.239383 0.710460
Si Si4 0.255268 0.777117 0.947782
Si Si5 0.506687 0.931449 0.757517
Si Si6 0.275485 0.522626 0.120659
Si Si7 0.213050 0.510344 0.377827
Si Si8 0.247437 0.134773 0.083709
O O1 0.906125 0.682533 0.812497
O O2 0.000000 0.500000 0.500000
O O3 0.167743 0.525073 0.867360
O O4 0.747849 0.872868 0.473163
O O5 0.281533 0.843517 0.957703
O O6 0.494572 0.687924 0.850790
O O7 0.674623 0.549717 0.328076
O O8 0.379899 0.926985 0.138996
O O9 0.500000 0.500000 0.500000
O O10 0.738325 0.218790 0.828907
O O11 0.844707 0.273400 0.902213
O O12 0.989826 0.984877 0.706204
O O13 0.500000 0.500000 0.000000
O O14 0.666639 0.697007 0.718853
O O15 0.583884 0.940464 0.772652
O O16 0.500000 0.000000 0.000000
O O17 0.256808 0.532122 0.307432
O O18 0.946039 0.731108 0.215703
#
# Coordination Sequence:
#
# PCOD9059119 Si02
#       8
#     2   2   2   2   2   2   2   2
#     4  11  23  40  67  93 137 189 234 295 360 420
#     4  12  24  46  74  99 147 184 238 306 373 440
#     4  11  25  49  78 107 155 189 240 317 375 449
#     4  11  24  47  75 113 140 189 245 299 380 457
#     4  12  24  40  64  97 136 183 247 295 352 429
#     4  11  25  47  69 107 146 191 242 301 369 443
#     4  11  25  42  66 101 137 187 241 293 363 435
#     4  11  24  44  63  97 139 187 239 301 358 433
#
# _framework density 24.475577999999999
#
# number of rings (size 3 to 8) (size 9 to 14) (size 15 to 20)
#    0.000    0.750    2.500    6.000    3.500    0.500 
#    2.250    0.000    0.000    0.000    0.000    0.000 
#    0.000    0.000    0.000    0.000    0.000    0.000 
#
# Total GULP energy -89228.150821 kJ/mol
# GULP energy per Si atom -5576.759426 kJ/mol
# Density = 2.441987 g / cm^3
# Si number density = 24.475578 Si / 1000 Ang^3
#
#
#
# Elastic Constant Matrix: (Units=GPa)
#
#
# Indices 1 2 3 4 5 6 
#
# 1 143.0925 28.7507 -10.0694 -4.8702 7.0766 -1.9928
# 2 28.7507 84.0376 2.7457 -10.0300 0.9166 -5.3607
# 3 -10.0694 2.7457 70.9976 -29.5292 1.7302 -14.2591
# 4 -4.8702 -10.0300 -29.5292 39.4403 2.0425 6.3591
# 5 7.0766 0.9166 1.7302 2.0425 27.6098 -2.9865
# 6 -1.9928 -5.3607 -14.2591 6.3591 -2.9865 40.1645
#
#
#
# Elastic Compliance Matrix: (Units=1/GPa)
#
#
# Indices 1 2 3 4 5 6 
#
# 1 0.007815 -0.002458 0.002165 0.002017 -0.002169 0.000348
# 2 -0.002458 0.013216 0.000869 0.003480 0.000031 0.001402
# 3 0.002165 0.000869 0.022362 0.016504 -0.002627 0.005354
# 4 0.002017 0.003480 0.016504 0.039099 -0.004571 -0.000107
# 5 -0.002169 0.000031 -0.002627 -0.004571 0.037545 0.002479
# 6 0.000348 0.001402 0.005354 -0.000107 0.002479 0.027204
#
#
# Mechanical properties :
#
#
# Convention : Reuss Voigt Hill
#
# Bulk Modulus (GPa) = 22.44893 37.88687 30.16790
# Shear Modulus (GPa) = 31.06775 39.88963 35.47869
#
# Velocity S-wave (km/s) = 3.56664 4.04142 3.81143
# Velocity P-wave (km/s) = 5.11401 6.10660 5.63221
#
# Compressibility (1/GPa) = 0.04454556
#
# Stress axis : x y z
#
# Youngs Moduli (GPa) = 127.95109 75.66354 44.71882
#
# Poissons Ratio (x) = 0.18598 -0.09683
# Poissons Ratio (y) = 0.31450 -0.03884
# Poissons Ratio (z) = -0.27705 -0.06571
#
# Static dielectric constant tensor:
#      x y z
#    x 2.204920 -0.020380 0.204560 
#    y -0.020380 1.969200 -0.164030 
#    z 0.204560 -0.164030 2.010550 
# 
# From -- ./inp_files/348542.got.cif
#   From: 2010.05.17/outbox.cif.g08.bks.cpg/sg2_175_cif.got.tgz:348542.got - 2010.06.03 11:33:40.
