data_PCOD9059328
_publ_section_title
;
Structure prediction by ZEFSAII (Michael W. Deem and Ramdas Pophale) SiO2 
 PCOD9059328
Probable space group: P -1
;
_chemical_formula_sum "Si O2"
_cell_formula_units_Z 14
_cell_length_a 8.511249
_cell_length_b 5.921181
_cell_length_c 21.043348
_cell_angle_alpha 55.651319
_cell_angle_beta 135.901255
_cell_angle_gamma 122.209917
_cell_volume 594.042487
_symmetry_space_group_name_H-M "P -1"
_symmetry_group_IT_number 2
_symmetry_cell_setting 'triclinic'
loop_
_space_group_symop_operation_xyz
x,y,z
-x,-y,-z
loop_
_atom_site_type_symbol
_atom_site_label
_atom_site_fract_x
_atom_site_fract_y
_atom_site_fract_z
Si Si1 0.502271 0.374228 0.711384
Si Si2 0.087059 0.363680 0.686733
Si Si3 0.737005 0.057158 0.023777
Si Si4 0.268898 0.555975 0.838959
Si Si5 0.943222 0.795260 0.801858
Si Si6 0.732806 0.983525 0.904919
Si Si7 0.403160 0.654212 0.508094
O O1 0.278507 0.301720 0.703157
O O2 0.656085 0.137261 0.797671
O O3 0.446640 0.472699 0.610251
O O4 0.680698 0.642439 0.748157
O O5 0.208464 0.576798 0.743311
O O6 0.871270 0.406625 0.575981
O O7 0.970472 0.114484 0.740026
O O8 0.784784 0.746552 0.094247
O O9 0.943141 0.250814 0.090696
O O10 0.500000 0.000000 0.000000
O O11 0.676788 0.156580 0.922233
O O12 0.104889 0.705826 0.808800
O O13 0.544638 0.691592 0.902740
O O14 0.000000 0.000000 0.000000
O O15 0.500000 0.500000 0.500000
O O16 0.500000 0.000000 0.500000
#
# Coordination Sequence:
#
# PCOD9059328 Si02
#       7
#     2   2   2   2   2   2   2
#     4  12  26  48  76 112 153 198 260 323 390 469
#     4  11  25  48  76 114 148 195 253 325 387 468
#     4  11  23  41  65  96 140 203 254 304 383 448
#     4  11  23  45  69 101 153 201 251 319 381 464
#     4  11  23  45  71 100 151 195 250 309 384 458
#     4  12  26  41  68 111 151 201 261 315 385 458
#     4  12  28  54  88 118 156 206 258 326 411 476
#
# _framework density 23.567336999999998
#
# number of rings (size 3 to 8) (size 9 to 14) (size 15 to 20)
#    0.000    0.571    4.286    3.429    4.000    2.857 
#    0.000    2.143    0.000    0.000    0.000    0.000 
#    0.000    0.000    0.000    0.000    0.000    0.000 
#
# Total GULP energy -78010.436409 kJ/mol
# GULP energy per Si atom -5572.174029 kJ/mol
# Density = 2.351370 g / cm^3
# Si number density = 23.567337 Si / 1000 Ang^3
#
#
#
# Elastic Constant Matrix: (Units=GPa)
#
#
# Indices 1 2 3 4 5 6 
#
# 1 60.3285 41.5551 46.1063 2.7718 12.3192 18.8209
# 2 41.5551 66.3585 44.8601 14.6776 -6.2737 13.2123
# 3 46.1063 44.8601 192.8084 19.1600 -2.4050 4.5793
# 4 2.7718 14.6776 19.1600 40.4128 7.2500 0.9418
# 5 12.3192 -6.2737 -2.4050 7.2500 50.0557 7.5600
# 6 18.8209 13.2123 4.5793 0.9418 7.5600 32.7517
#
#
#
# Elastic Compliance Matrix: (Units=1/GPa)
#
#
# Indices 1 2 3 4 5 6 
#
# 1 0.044866 -0.025909 -0.005798 0.011962 -0.014563 -0.011502
# 2 -0.025909 0.036494 -0.000737 -0.013444 0.013224 -0.002396
# 3 -0.005798 -0.000737 0.007012 -0.003029 0.001758 0.002330
# 4 0.011962 -0.013444 -0.003029 0.031930 -0.009434 0.000232
# 5 -0.014563 0.013224 0.001758 -0.009434 0.027155 -0.003208
# 6 -0.011502 -0.002396 0.002330 0.000232 -0.003208 0.038517
#
#
# Mechanical properties :
#
#
# Convention : Reuss Voigt Hill
#
# Bulk Modulus (GPa) = 42.58338 64.94872 53.76605
# Shear Modulus (GPa) = 19.32804 37.10898 28.21851
#
# Velocity S-wave (km/s) = 2.86688 3.97242 3.46404
# Velocity P-wave (km/s) = 5.39135 6.97558 6.23400
#
# Compressibility (1/GPa) = 0.02348334
#
# Stress axis : x y z
#
# Youngs Moduli (GPa) = 22.28844 27.40173 142.61118
#
# Poissons Ratio (x) = 0.70996 0.82684
# Poissons Ratio (y) = 0.57748 0.10516
# Poissons Ratio (z) = 0.12923 0.02021
#
# Static dielectric constant tensor:
#      x y z
#    x 1.987890 -0.185380 0.079870 
#    y -0.185380 2.277680 -0.104080 
#    z 0.079870 -0.104080 2.049760 
# 
# From -- ./inp_files/38342.got.cif
#   From: 2010.05.17/outbox.cif.g08.bks.cpg/sg2_20_cif.got.tgz:38342.got - 2010.06.03 11:33:40.
