data_PCOD9059718
_publ_section_title
;
Structure prediction by ZEFSAII (Michael W. Deem and Ramdas Pophale) SiO2 
 PCOD9059718
Probable space group: P -1
;
_chemical_formula_sum "Si O2"
_cell_formula_units_Z 14
_cell_length_a 13.574423
_cell_length_b 10.565120
_cell_length_c 13.614308
_cell_angle_alpha 38.930480
_cell_angle_beta 31.098020
_cell_angle_gamma 58.514325
_cell_volume 568.082522
_symmetry_space_group_name_H-M "P -1"
_symmetry_group_IT_number 2
_symmetry_cell_setting 'triclinic'
loop_
_space_group_symop_operation_xyz
x,y,z
-x,-y,-z
loop_
_atom_site_type_symbol
_atom_site_label
_atom_site_fract_x
_atom_site_fract_y
_atom_site_fract_z
Si Si1 0.592064 0.793740 0.729064
Si Si2 0.672908 0.940093 0.775731
Si Si3 0.690835 0.679514 0.295878
Si Si4 0.237906 0.990558 0.133783
Si Si5 0.860402 0.576994 0.641105
Si Si6 0.427655 0.815094 0.586344
Si Si7 0.985196 0.451119 0.159851
O O1 0.746616 0.706294 0.599277
O O2 0.641353 0.775427 0.812570
O O3 0.642755 0.048395 0.514869
O O4 0.344101 0.640426 0.014396
O O5 0.718464 0.873646 0.884181
O O6 0.860774 0.186241 0.444587
O O7 0.450667 0.959265 0.955842
O O8 0.500000 0.500000 0.500000
O O9 0.602526 0.757917 0.418224
O O10 0.843984 0.566003 0.256500
O O11 0.797453 0.886457 0.004334
O O12 0.034216 0.752152 0.459840
O O13 0.000000 0.500000 0.500000
O O14 0.500000 0.000000 0.500000
O O15 0.221116 0.584329 0.921159
O O16 0.000000 0.500000 0.000000
#
# Coordination Sequence:
#
# PCOD9059718 Si02
#       7
#     2   2   2   2   2   2   2
#     4  11  23  46  64  98 137 175 226 275 337 416
#     4  11  23  43  68 107 131 173 237 276 339 411
#     4  12  22  47  74 100 136 186 232 285 351 409
#     4  11  23  42  71  98 137 172 226 289 334 402
#     4  11  23  42  67  91 134 183 213 273 348 396
#     4  12  27  46  69 103 142 179 234 288 345 415
#     4  12  23  45  75  99 138 186 230 288 344 412
#
# _framework density 24.644307000000001
#
# number of rings (size 3 to 8) (size 9 to 14) (size 15 to 20)
#    0.000    0.571    7.143    0.857    2.000    1.143 
#    7.714    0.000    0.000    0.000    0.000    0.000 
#    0.000    0.000    0.000    0.000    0.000    0.000 
#
# Total GULP energy -78342.018493 kJ/mol
# GULP energy per Si atom -5595.858464 kJ/mol
# Density = 2.458822 g / cm^3
# Si number density = 24.644307 Si / 1000 Ang^3
#
#
#
# Elastic Constant Matrix: (Units=GPa)
#
#
# Indices 1 2 3 4 5 6 
#
# 1 62.6644 16.2364 30.9126 7.1204 -13.2215 34.7538
# 2 16.2364 134.7536 32.0578 24.8562 -7.6850 5.8591
# 3 30.9126 32.0578 145.6204 -8.1824 -28.4304 5.0656
# 4 7.1204 24.8562 -8.1824 40.2370 6.2199 -10.2530
# 5 -13.2215 -7.6850 -28.4304 6.2199 23.2467 -5.2140
# 6 34.7538 5.8591 5.0656 -10.2530 -5.2140 45.4642
#
#
#
# Elastic Compliance Matrix: (Units=1/GPa)
#
#
# Indices 1 2 3 4 5 6 
#
# 1 0.046237 0.003195 -0.007382 -0.023954 0.016102 -0.038490
# 2 0.003195 0.009657 -0.002504 -0.008814 0.003177 -0.005032
# 3 -0.007382 -0.002504 0.010626 0.005543 0.008046 0.006955
# 4 -0.023954 -0.008814 0.005543 0.045017 -0.015707 0.027180
# 5 0.016102 0.003177 0.008046 -0.015707 0.065094 -0.009691
# 6 -0.038490 -0.005032 0.006955 0.027180 -0.009691 0.056309
#
#
# Mechanical properties :
#
#
# Convention : Reuss Voigt Hill
#
# Bulk Modulus (GPa) = 18.81883 55.71689 37.26786
# Shear Modulus (GPa) = 18.93680 39.37835 29.15758
#
# Velocity S-wave (km/s) = 2.77502 4.00167 3.44341
# Velocity P-wave (km/s) = 4.23325 6.63390 5.56458
#
# Compressibility (1/GPa) = 0.05313826
#
# Stress axis : x y z
#
# Youngs Moduli (GPa) = 21.62758 103.54727 94.10922
#
# Poissons Ratio (x) = -0.33088 0.69474
# Poissons Ratio (y) = -0.06911 0.23568
# Poissons Ratio (z) = 0.15966 0.25932
#
# Static dielectric constant tensor:
#      x y z
#    x 2.093630 -0.028740 0.076170 
#    y -0.028740 2.009580 -0.004320 
#    z 0.076170 -0.004320 1.980490 
# 
# From -- ./inp_files/532319.got.cif
#   From: 2010.05.17/outbox.cif.g08.bks.cpg/sg2_267_cif.got.tgz:532319.got - 2010.06.03 11:33:40.
