data_PCOD9059930
_publ_section_title
;
Structure prediction by ZEFSAII (Michael W. Deem and Ramdas Pophale) SiO2 
 PCOD9059930
Probable space group: P -1
;
_chemical_formula_sum "Si O2"
_cell_formula_units_Z 16
_cell_length_a 13.902047
_cell_length_b 5.741070
_cell_length_c 14.868901
_cell_angle_alpha 58.681009
_cell_angle_beta 124.778741
_cell_angle_gamma 126.526709
_cell_volume 753.483366
_symmetry_space_group_name_H-M "P -1"
_symmetry_group_IT_number 2
_symmetry_cell_setting 'triclinic'
loop_
_space_group_symop_operation_xyz
x,y,z
-x,-y,-z
loop_
_atom_site_type_symbol
_atom_site_label
_atom_site_fract_x
_atom_site_fract_y
_atom_site_fract_z
Si Si1 0.635495 0.836073 0.853243
Si Si2 0.922857 0.188348 0.888154
Si Si3 0.389780 0.849726 0.044798
Si Si4 0.902172 0.138151 0.391497
Si Si5 0.951694 0.180617 0.697377
Si Si6 0.716870 0.800915 0.514735
Si Si7 0.876769 0.148784 0.161308
Si Si8 0.456297 0.862703 0.407700
O O1 0.627535 0.500158 0.897361
O O2 0.787376 0.060491 0.891943
O O3 0.577946 0.944045 0.887947
O O4 0.574208 0.920839 0.717505
O O5 0.897660 0.164432 0.772163
O O6 0.013696 0.537930 0.879133
O O7 0.000000 0.000000 0.000000
O O8 0.258790 0.866380 0.938667
O O9 0.500000 0.000000 0.000000
O O10 0.875569 0.124803 0.273810
O O11 0.980756 0.493761 0.377951
O O12 0.776323 0.946627 0.421492
O O13 0.000000 0.000000 0.500000
O O14 0.832687 0.973959 0.612356
O O15 0.071410 0.092002 0.792929
O O16 0.581460 0.825344 0.446086
O O17 0.670636 0.448294 0.581550
O O18 0.500000 0.000000 0.500000
#
# Coordination Sequence:
#
# PCOD9059930 Si02
#       8
#     2   2   2   2   2   2   2   2
#     4  12  28  49  77 106 146 195 245 306 369 426
#     4  11  23  42  71 105 140 181 238 300 362 426
#     4  12  30  51  74 107 148 197 250 297 361 444
#     4  11  25  42  68 106 139 189 232 302 370 429
#     4  11  24  42  70 105 145 181 238 304 361 440
#     4  11  25  44  68 103 143 183 243 293 369 436
#     4  11  25  43  72 103 144 187 244 295 365 434
#     4  11  28  45  72 103 144 194 243 301 363 440
#
# _framework density 21.23471
#
# number of rings (size 3 to 8) (size 9 to 14) (size 15 to 20)
#    0.000    0.750    2.500    3.000   14.000    2.000 
#    0.000    0.000    0.000    0.000    0.000    0.000 
#    0.000    0.000    0.000    0.000    0.000    0.000 
#
# Total GULP energy -89349.090660 kJ/mol
# GULP energy per Si atom -5584.318166 kJ/mol
# Density = 2.118638 g / cm^3
# Si number density = 21.234710 Si / 1000 Ang^3
#
#
#
# Elastic Constant Matrix: (Units=GPa)
#
#
# Indices 1 2 3 4 5 6 
#
# 1 118.4736 52.9935 37.4516 -17.9893 -10.4570 13.0140
# 2 52.9935 90.9224 54.3051 -27.4731 11.2264 -2.3695
# 3 37.4516 54.3051 143.7177 -22.0018 15.6715 -6.8412
# 4 -17.9893 -27.4731 -22.0018 40.0665 -3.9005 -1.1512
# 5 -10.4570 11.2264 15.6715 -3.9005 36.3604 -5.5652
# 6 13.0140 -2.3695 -6.8412 -1.1512 -5.5652 28.3180
#
#
#
# Elastic Compliance Matrix: (Units=1/GPa)
#
#
# Indices 1 2 3 4 5 6 
#
# 1 0.013718 -0.007922 -0.001490 0.000330 0.006134 -0.006108
# 2 -0.007922 0.021296 -0.003889 0.008461 -0.005702 0.003706
# 3 -0.001490 -0.003889 0.009479 0.001659 -0.002804 0.002166
# 4 0.000330 0.008461 0.001659 0.031941 0.000556 0.002365
# 5 0.006134 -0.005702 -0.002804 0.000556 0.032673 0.002470
# 6 -0.006108 0.003706 0.002166 0.002365 0.002470 0.039535
#
#
# Mechanical properties :
#
#
# Convention : Reuss Voigt Hill
#
# Bulk Modulus (GPa) = 55.89771 71.40156 63.64963
# Shear Modulus (GPa) = 27.59260 34.83988 31.21624
#
# Velocity S-wave (km/s) = 3.60864 4.05496 3.83829
# Velocity P-wave (km/s) = 6.61392 7.45798 7.04860
#
# Compressibility (1/GPa) = 0.01788982
#
# Stress axis : x y z
#
# Youngs Moduli (GPa) = 72.89752 46.95802 105.50005
#
# Poissons Ratio (x) = 0.37200 0.15724
# Poissons Ratio (y) = 0.57749 0.41027
# Poissons Ratio (z) = 0.10865 0.18261
#
# Static dielectric constant tensor:
#      x y z
#    x 1.784760 -0.081260 0.008490 
#    y -0.081260 1.787760 0.003570 
#    z 0.008490 0.003570 1.737130 
# 
# From -- ./inp_files/110674.got.cif
#   From: 2010.05.17/outbox.cif.g08.bks.cpg/sg2_56_cif.got.tgz:110674.got - 2010.06.03 11:33:40.
