data_PCOD9059267
_publ_section_title
;
Structure prediction by ZEFSAII (Michael W. Deem and Ramdas Pophale) SiO2 
 PCOD9059267
Probable space group: P -1
;
_chemical_formula_sum "Si O2"
_cell_formula_units_Z 14
_cell_length_a 20.204882
_cell_length_b 5.334149
_cell_length_c 4.850949
_cell_angle_alpha 83.292848
_cell_angle_beta 106.649555
_cell_angle_gamma 97.211373
_cell_volume 495.133977
_symmetry_space_group_name_H-M "P -1"
_symmetry_group_IT_number 2
_symmetry_cell_setting 'triclinic'
loop_
_space_group_symop_operation_xyz
x,y,z
-x,-y,-z
loop_
_atom_site_type_symbol
_atom_site_label
_atom_site_fract_x
_atom_site_fract_y
_atom_site_fract_z
Si Si1 0.230565 0.671474 0.854542
Si Si2 0.787293 0.032918 0.702932
Si Si3 0.486948 0.264380 0.300482
Si Si4 0.076224 0.415182 0.679821
Si Si5 0.068490 0.134090 0.194677
Si Si6 0.653730 0.772538 0.674667
Si Si7 0.370749 0.688652 0.714802
O O1 0.227410 0.932306 0.640015
O O2 0.155127 0.534031 0.693018
O O3 0.308717 0.616995 0.867202
O O4 0.227332 0.724339 0.167149
O O5 0.866399 0.991990 0.825247
O O6 0.736449 0.810718 0.807132
O O7 0.500000 0.500000 0.500000
O O8 0.403950 0.237111 0.151179
O O9 0.545912 0.291192 0.129185
O O10 0.500000 0.000000 0.500000
O O11 0.072343 0.160528 0.521135
O O12 0.000000 0.500000 0.500000
O O13 0.075376 0.402786 0.011357
O O14 0.000000 0.000000 0.000000
O O15 0.638145 0.530610 0.495433
O O16 0.641766 0.037265 0.466605
#
# Coordination Sequence:
#
# PCOD9059267 Si02
#       7
#     2   2   2   2   2   2   2
#     4  11  23  41  62  91 125 166 214 270 326 389
#     4  11  23  41  62  91 125 166 214 270 326 389
#     4   8  14  28  53  84 120 162 210 262 320 382
#     4  12  24  41  64  92 126 168 214 270 326 390
#     4  12  24  41  64  92 126 168 214 270 326 390
#     4   9  18  34  58  89 125 167 214 267 324 386
#     4   9  18  34  58  89 125 167 214 267 324 386
#
# _framework density 28.275178
#
# number of rings (size 3 to 8) (size 9 to 14) (size 15 to 20)
#    0.000    1.714    0.000    5.143    0.000    2.286 
#    0.000    0.714    0.000    0.000    0.000   31.000 
#    0.000    0.000    0.000    0.000    0.000    0.000 
#
# Total GULP energy -78228.510765 kJ/mol
# GULP energy per Si atom -5587.750769 kJ/mol
# Density = 2.821082 g / cm^3
# Si number density = 28.275178 Si / 1000 Ang^3
#
#
#
# Elastic Constant Matrix: (Units=GPa)
#
#
# Indices 1 2 3 4 5 6 
#
# 1 310.4712 32.5556 29.9147 10.7208 4.4740 6.2538
# 2 32.5556 103.6259 18.0219 14.4246 -9.5526 1.4021
# 3 29.9147 18.0219 104.8930 4.7118 -7.5148 -2.0068
# 4 10.7208 14.4246 4.7118 37.1760 4.2409 -5.3340
# 5 4.4740 -9.5526 -7.5148 4.2409 41.1356 -3.8396
# 6 6.2538 1.4021 -2.0068 -5.3340 -3.8396 59.3027
#
#
#
# Elastic Compliance Matrix: (Units=1/GPa)
#
#
# Indices 1 2 3 4 5 6 
#
# 1 0.003438 -0.000921 -0.000861 -0.000507 -0.000736 -0.000463
# 2 -0.000921 0.011011 -0.001244 -0.004229 0.002828 -0.000403
# 3 -0.000861 -0.001244 0.010161 -0.000686 0.001780 0.000518
# 4 -0.000507 -0.004229 -0.000686 0.029579 -0.003865 0.002541
# 5 -0.000736 0.002828 0.001780 -0.003865 0.025901 0.001400
# 6 -0.000463 -0.000403 0.000518 0.002541 0.001400 0.017258
#
#
# Mechanical properties :
#
#
# Convention : Reuss Voigt Hill
#
# Bulk Modulus (GPa) = 53.88825 75.55272 64.72049
# Shear Modulus (GPa) = 45.62643 56.75606 51.19125
#
# Velocity S-wave (km/s) = 4.02139 4.48512 4.25957
# Velocity P-wave (km/s) = 6.37668 7.32122 6.86521
#
# Compressibility (1/GPa) = 0.01855692
#
# Stress axis : x y z
#
# Youngs Moduli (GPa) = 290.87258 90.81994 98.41504
#
# Poissons Ratio (x) = 0.08367 0.08473
# Poissons Ratio (y) = 0.26798 0.12244
# Poissons Ratio (z) = 0.25044 0.11299
#
# Static dielectric constant tensor:
#      x y z
#    x 2.276690 0.000270 0.072570 
#    y 0.000270 2.320590 -0.143050 
#    z 0.072570 -0.143050 2.125570 
# 
# From -- ./inp_files/13429.got.cif
#   From: 2010.05.17/outbox.cif.g08.bks.cpg/sg2_7_cif.got.tgz:13429.got - 2010.06.03 11:33:40.
