data_PCOD9059760
_publ_section_title
;
Structure prediction by ZEFSAII (Michael W. Deem and Ramdas Pophale) SiO2 
 PCOD9059760
Probable space group: P -1
;
_chemical_formula_sum "Si O2"
_cell_formula_units_Z 16
_cell_length_a 15.805409
_cell_length_b 10.850191
_cell_length_c 6.791459
_cell_angle_alpha 108.150489
_cell_angle_beta 136.202913
_cell_angle_gamma 88.832057
_cell_volume 728.013956
_symmetry_space_group_name_H-M "P -1"
_symmetry_group_IT_number 2
_symmetry_cell_setting 'triclinic'
loop_
_space_group_symop_operation_xyz
x,y,z
-x,-y,-z
loop_
_atom_site_type_symbol
_atom_site_label
_atom_site_fract_x
_atom_site_fract_y
_atom_site_fract_z
Si Si1 0.334190 0.031990 0.283612
Si Si2 0.043583 0.579239 0.410527
Si Si3 0.811449 0.559236 0.713629
Si Si4 0.478209 0.903876 0.725298
Si Si5 0.685862 0.747842 0.385131
Si Si6 0.917199 0.127051 0.378039
Si Si7 0.904568 0.957496 0.633763
Si Si8 0.530760 0.402720 0.336248
O O1 0.407636 0.031387 0.204902
O O2 0.383502 0.179456 0.541573
O O3 0.355260 0.921505 0.414443
O O4 0.186237 0.997859 0.965384
O O5 0.131980 0.513815 0.398385
O O6 0.118176 0.737213 0.650245
O O7 0.000000 0.500000 0.500000
O O8 0.918221 0.582246 0.075356
O O9 0.786825 0.691278 0.641488
O O10 0.671718 0.473786 0.518672
O O11 0.471162 0.748391 0.672688
O O12 0.500000 0.000000 0.000000
O O13 0.765757 0.868566 0.434247
O O14 0.582612 0.630323 0.033622
O O15 0.047912 0.135282 0.489118
O O16 0.911166 0.089134 0.578442
O O17 0.000000 0.000000 0.000000
O O18 0.500000 0.500000 0.500000
#
# Coordination Sequence:
#
# PCOD9059760 Si02
#       8
#     2   2   2   2   2   2   2   2
#     4  11  25  42  72 105 141 183 238 306 358 431
#     4  11  27  49  70 100 146 193 237 303 357 441
#     4  11  28  47  71 103 144 193 246 290 362 444
#     4  11  25  47  69 104 146 189 238 296 364 431
#     4  12  24  48  73 106 151 185 242 306 366 427
#     4  11  25  39  71 103 133 183 238 288 365 427
#     4  11  23  42  68 105 141 178 231 301 357 427
#     4  12  28  46  77 107 148 199 244 299 369 439
#
# _framework density 21.977601
#
# number of rings (size 3 to 8) (size 9 to 14) (size 15 to 20)
#    0.000    0.750    2.500    3.375    8.750    1.000 
#    0.000    0.000    0.000    0.000    0.000    0.000 
#    0.000    0.000    0.000    0.000    0.000    0.000 
#
# Total GULP energy -89476.310893 kJ/mol
# GULP energy per Si atom -5592.269431 kJ/mol
# Density = 2.192758 g / cm^3
# Si number density = 21.977601 Si / 1000 Ang^3
#
#
#
# Elastic Constant Matrix: (Units=GPa)
#
#
# Indices 1 2 3 4 5 6 
#
# 1 139.9317 38.0727 57.5103 0.0009 -18.7598 1.2400
# 2 38.0727 138.0674 35.8703 -12.8140 -27.0399 -9.3039
# 3 57.5103 35.8703 110.5317 1.3074 -15.8735 -3.1482
# 4 0.0009 -12.8140 1.3074 37.2267 -1.9154 -1.3610
# 5 -18.7598 -27.0399 -15.8735 -1.9154 36.2950 -0.0855
# 6 1.2400 -9.3039 -3.1482 -1.3610 -0.0855 36.4374
#
#
#
# Elastic Compliance Matrix: (Units=1/GPa)
#
#
# Indices 1 2 3 4 5 6 
#
# 1 0.009528 -0.001172 -0.004293 -0.000178 0.002162 -0.000996
# 2 -0.001172 0.009715 -0.001636 0.003809 0.006123 0.002536
# 3 -0.004293 -0.001636 0.012103 -0.000868 0.001811 0.000746
# 4 -0.000178 0.003809 -0.000868 0.028476 0.003874 0.001976
# 5 0.002162 0.006123 0.001811 0.003874 0.034232 0.001871
# 6 -0.000996 0.002536 0.000746 0.001976 0.001871 0.028268
#
#
# Mechanical properties :
#
#
# Convention : Reuss Voigt Hill
#
# Bulk Modulus (GPa) = 58.33080 72.38193 65.35637
# Shear Modulus (GPa) = 35.15170 39.13033 37.14102
#
# Velocity S-wave (km/s) = 4.00363 4.22413 4.11536
# Velocity P-wave (km/s) = 6.92609 7.53638 7.23767
#
# Compressibility (1/GPa) = 0.01714360
#
# Stress axis : x y z
#
# Youngs Moduli (GPa) = 104.94958 102.93587 82.62089
#
# Poissons Ratio (x) = 0.12068 0.35469
# Poissons Ratio (y) = 0.12304 0.13519
# Poissons Ratio (z) = 0.45054 0.16842
#
# Static dielectric constant tensor:
#      x y z
#    x 1.810140 -0.024480 0.002250 
#    y -0.024480 1.815580 -0.012810 
#    z 0.002250 -0.012810 1.840750 
# 
# From -- ./inp_files/95432.got.cif
#   From: 2010.05.17/outbox.cif.g08.bks.cpg/sg2_48_cif.got.tgz:95432.got - 2010.06.03 11:33:40.
