data_PCOD9059484
_publ_section_title
;
Structure prediction by ZEFSAII (Michael W. Deem and Ramdas Pophale) SiO2 
 PCOD9059484
Probable space group: P -1
;
_chemical_formula_sum "Si O2"
_cell_formula_units_Z 14
_cell_length_a 18.050169
_cell_length_b 6.989754
_cell_length_c 6.734939
_cell_angle_alpha 41.264232
_cell_angle_beta 69.043847
_cell_angle_gamma 84.730396
_cell_volume 501.273941
_symmetry_space_group_name_H-M "P -1"
_symmetry_group_IT_number 2
_symmetry_cell_setting 'triclinic'
loop_
_space_group_symop_operation_xyz
x,y,z
-x,-y,-z
loop_
_atom_site_type_symbol
_atom_site_label
_atom_site_fract_x
_atom_site_fract_y
_atom_site_fract_z
Si Si1 0.173184 0.476099 0.815563
Si Si2 0.654239 0.939558 0.477208
Si Si3 0.427151 0.457028 0.447449
Si Si4 0.957286 0.705087 0.397590
Si Si5 0.231987 0.464880 0.217280
Si Si6 0.338984 0.921173 0.181888
Si Si7 0.941972 0.139163 0.505752
O O1 0.248147 0.681100 0.452625
O O2 0.104182 0.660693 0.739737
O O3 0.213606 0.461556 0.002293
O O4 0.126010 0.124111 0.099756
O O5 0.574877 0.726431 0.609472
O O6 0.729758 0.791164 0.542321
O O7 0.637858 0.007769 0.664551
O O8 0.693324 0.230671 0.078330
O O9 0.500000 0.500000 0.500000
O O10 0.407797 0.764143 0.172362
O O11 0.348731 0.234957 0.815592
O O12 0.858856 0.579477 0.576313
O O13 0.974842 0.421301 0.436899
O O14 0.963074 0.911920 0.470878
O O15 0.000000 0.000000 0.000000
#
# Coordination Sequence:
#
# PCOD9059484 Si02
#       7
#     2   2   2   2   2   2   2
#     4  11  23  41  69  95 128 179 230 284 327 402
#     4  11  25  45  74 102 135 187 226 284 354 405
#     4  12  27  47  74 109 145 176 223 289 349 426
#     4  12  27  39  57  92 132 173 223 282 342 395
#     4  11  23  43  67  93 137 178 227 286 342 407
#     4  11  25  45  72 106 139 184 239 275 344 430
#     4  12  24  39  65  91 127 177 225 275 337 383
#
# _framework density 27.928840999999998
#
# number of rings (size 3 to 8) (size 9 to 14) (size 15 to 20)
#    0.000    0.571    1.429    7.714    2.000    8.000 
#    0.000    0.000    0.000    0.000    0.000    0.000 
#    0.000    0.000    0.000    0.000    0.000    0.000 
#
# Total GULP energy -78403.355295 kJ/mol
# GULP energy per Si atom -5600.239664 kJ/mol
# Density = 2.786527 g / cm^3
# Si number density = 27.928841 Si / 1000 Ang^3
#
#
#
# Elastic Constant Matrix: (Units=GPa)
#
#
# Indices 1 2 3 4 5 6 
#
# 1 127.7829 41.7097 2.9057 -21.6335 15.5526 42.6384
# 2 41.7097 116.7741 24.3229 -20.9479 -2.3219 32.5870
# 3 2.9057 24.3229 127.5852 -5.7403 8.9616 -7.7310
# 4 -21.6335 -20.9479 -5.7403 53.7138 -2.2726 5.1186
# 5 15.5526 -2.3219 8.9616 -2.2726 53.5970 -8.3420
# 6 42.6384 32.5870 -7.7310 5.1186 -8.3420 56.8397
#
#
#
# Elastic Compliance Matrix: (Units=1/GPa)
#
#
# Indices 1 2 3 4 5 6 
#
# 1 0.013370 -0.000728 -0.000189 0.005899 -0.005334 -0.010952
# 2 -0.000728 0.012263 -0.002556 0.004916 0.000252 -0.007238
# 3 -0.000189 -0.002556 0.008546 -0.000459 -0.001092 0.002651
# 4 0.005899 0.004916 -0.000459 0.023706 -0.001930 -0.009724
# 5 -0.005334 0.000252 -0.001092 -0.001930 0.021410 0.007025
# 6 -0.010952 -0.007238 0.002651 -0.009724 0.007025 0.032226
#
#
# Mechanical properties :
#
#
# Convention : Reuss Voigt Hill
#
# Bulk Modulus (GPa) = 36.72106 56.66874 46.69490
# Shear Modulus (GPa) = 39.20166 53.04369 46.12267
#
# Velocity S-wave (km/s) = 3.75056 4.36276 4.06819
# Velocity P-wave (km/s) = 5.65086 6.76112 6.23077
#
# Compressibility (1/GPa) = 0.02723233
#
# Stress axis : x y z
#
# Youngs Moduli (GPa) = 74.79462 81.54810 117.01086
#
# Poissons Ratio (x) = 0.05934 0.02216
# Poissons Ratio (y) = 0.05443 0.29911
# Poissons Ratio (z) = 0.01416 0.20846
#
# Static dielectric constant tensor:
#      x y z
#    x 2.116820 0.154570 -0.063510 
#    y 0.154570 2.842350 -0.031950 
#    z -0.063510 -0.031950 2.039310 
# 
# From -- ./inp_files/325473.got.cif
#   From: 2010.05.17/outbox.cif.g08.bks.cpg/sg2_163_cif.got.tgz:325473.got - 2010.06.03 11:33:40.
