data_PCOD9059686
_publ_section_title
;
Structure prediction by ZEFSAII (Michael W. Deem and Ramdas Pophale) SiO2 
 PCOD9059686
Probable space group: P -1
;
_chemical_formula_sum "Si O2"
_cell_formula_units_Z 16
_cell_length_a 5.858876
_cell_length_b 28.251385
_cell_length_c 25.478684
_cell_angle_alpha 10.685650
_cell_angle_beta 119.990189
_cell_angle_gamma 120.361457
_cell_volume 674.591978
_symmetry_space_group_name_H-M "P -1"
_symmetry_group_IT_number 2
_symmetry_cell_setting 'triclinic'
loop_
_space_group_symop_operation_xyz
x,y,z
-x,-y,-z
loop_
_atom_site_type_symbol
_atom_site_label
_atom_site_fract_x
_atom_site_fract_y
_atom_site_fract_z
Si Si1 0.117219 0.706315 0.615462
Si Si2 0.707219 0.867630 0.740212
Si Si3 0.834561 0.677196 0.253820
Si Si4 0.852311 0.219084 0.273684
Si Si5 0.911363 0.563838 0.275124
Si Si6 0.281405 0.129307 0.799141
Si Si7 0.476111 0.736236 0.518762
Si Si8 0.619550 0.059632 0.088470
O O1 0.310036 0.763293 0.523790
O O2 0.793120 0.701965 0.590032
O O3 0.224561 0.943564 0.407966
O O4 0.151470 0.397103 0.963164
O O5 0.401140 0.756571 0.819129
O O6 0.765327 0.073827 0.475605
O O7 0.760215 0.570052 0.305336
O O8 0.000000 0.500000 0.500000
O O9 0.569778 0.754469 0.165097
O O10 0.032259 0.923456 0.998931
O O11 0.000000 0.000000 0.500000
O O12 0.000000 0.500000 0.000000
O O13 0.708279 0.479704 0.298128
O O14 0.141782 0.385102 0.514065
O O15 0.087146 0.818158 0.000787
O O16 0.359967 0.153281 0.720994
O O17 0.500000 0.000000 0.000000
O O18 0.478614 0.971988 0.221312
#
# Coordination Sequence:
#
# PCOD9059686 Si02
#       8
#     2   2   2   2   2   2   2   2
#     4  12  31  52  84 116 168 219 284 340 394 460
#     4  11  28  52  78 130 166 218 275 340 392 478
#     4  11  24  39  68 103 132 178 239 314 401 499
#     4  11  24  47  88 123 175 220 266 325 418 465
#     4  11  26  46  69  97 141 188 245 319 396 481
#     4  11  23  42  67 100 136 178 235 310 401 491
#     4  12  30  52  75 110 148 219 271 334 398 475
#     4  11  26  46  68  99 140 185 253 311 401 480
#
# _framework density 23.718040999999999
#
# number of rings (size 3 to 8) (size 9 to 14) (size 15 to 20)
#    0.000    0.750    1.250    3.750   14.000    5.000 
#    0.000    0.000    0.000    0.000    0.000    0.000 
#    0.000    0.000    0.000    0.000    0.000    0.000 
#
# Total GULP energy -89077.591708 kJ/mol
# GULP energy per Si atom -5567.349482 kJ/mol
# Density = 2.366406 g / cm^3
# Si number density = 23.718041 Si / 1000 Ang^3
#
#
#
# Elastic Constant Matrix: (Units=GPa)
#
#
# Indices 1 2 3 4 5 6 
#
# 1 136.0336 79.0315 58.0078 -13.8834 1.4392 26.7891
# 2 79.0315 149.4165 42.4900 -30.9248 4.2711 20.6944
# 3 58.0078 42.4900 120.1871 -17.8361 3.3548 22.2829
# 4 -13.8834 -30.9248 -17.8361 42.2233 14.0967 -5.1190
# 5 1.4392 4.2711 3.3548 14.0967 63.1476 -0.3068
# 6 26.7891 20.6944 22.2829 -5.1190 -0.3068 49.2467
#
#
#
# Elastic Compliance Matrix: (Units=1/GPa)
#
#
# Indices 1 2 3 4 5 6 
#
# 1 0.012653 -0.005660 -0.003914 -0.002263 0.000793 -0.002964
# 2 -0.005660 0.011346 0.000014 0.007079 -0.002224 -0.000973
# 3 -0.003914 0.000014 0.011260 0.003607 -0.001328 -0.002605
# 4 -0.002263 0.007079 0.003607 0.032250 -0.007818 -0.000073
# 5 0.000793 -0.002224 -0.001328 -0.007818 0.017786 0.000402
# 6 -0.002964 -0.000973 -0.002605 -0.000073 0.000402 0.023500
#
#
# Mechanical properties :
#
#
# Convention : Reuss Voigt Hill
#
# Bulk Modulus (GPa) = 61.96664 84.96621 73.46642
# Shear Modulus (GPa) = 37.51059 45.99738 41.75398
#
# Velocity S-wave (km/s) = 3.98115 4.40857 4.20030
# Velocity P-wave (km/s) = 6.87865 7.86227 7.38685
#
# Compressibility (1/GPa) = 0.01613771
#
# Stress axis : x y z
#
# Youngs Moduli (GPa) = 79.03379 88.13598 88.80977
#
# Poissons Ratio (x) = 0.49884 0.34763
# Poissons Ratio (y) = 0.44732 -0.00121
# Poissons Ratio (z) = 0.30936 -0.00120
#
# Static dielectric constant tensor:
#      x y z
#    x 1.954940 -0.017700 0.018360 
#    y -0.017700 1.935550 0.030990 
#    z 0.018360 0.030990 2.035270 
# 
# From -- ./inp_files/616081.got.cif
#   From: 2010.05.17/outbox.cif.g08.bks.cpg/sg2_309_cif.got.tgz:616081.got - 2010.06.03 11:33:40.
