data_PCOD9059457
_publ_section_title
;
Structure prediction by ZEFSAII (Michael W. Deem and Ramdas Pophale) SiO2 
 PCOD9059457
Probable space group: P -1
;
_chemical_formula_sum "Si O2"
_cell_formula_units_Z 16
_cell_length_a 12.363500
_cell_length_b 13.023793
_cell_length_c 13.131913
_cell_angle_alpha 115.975314
_cell_angle_beta 126.668496
_cell_angle_gamma 28.041667
_cell_volume 774.758778
_symmetry_space_group_name_H-M "P -1"
_symmetry_group_IT_number 2
_symmetry_cell_setting 'triclinic'
loop_
_space_group_symop_operation_xyz
x,y,z
-x,-y,-z
loop_
_atom_site_type_symbol
_atom_site_label
_atom_site_fract_x
_atom_site_fract_y
_atom_site_fract_z
Si Si1 0.191942 0.275505 0.934621
Si Si2 0.259441 0.819715 0.499359
Si Si3 0.255384 0.586977 0.270773
Si Si4 0.165442 0.299126 0.434146
Si Si5 0.212717 0.681194 0.053659
Si Si6 0.199918 0.448534 0.835455
Si Si7 0.727549 0.015867 0.607929
Si Si8 0.313675 0.852125 0.140541
O O1 0.221427 0.334640 0.879950
O O2 0.006658 0.300072 0.823650
O O3 0.000000 0.500000 0.000000
O O4 0.500000 0.000000 0.000000
O O5 0.256100 0.703859 0.384690
O O6 0.504007 0.654952 0.643800
O O7 0.263734 0.914459 0.457119
O O8 0.000000 0.000000 0.500000
O O9 0.287338 0.598957 0.175988
O O10 0.452566 0.148656 0.528362
O O11 0.000000 0.500000 0.500000
O O12 0.078811 0.356276 0.292977
O O13 0.089774 0.228151 0.402247
O O14 0.371431 0.674693 0.098423
O O15 0.237019 0.544680 0.949204
O O16 0.912009 0.946660 0.979889
O O17 0.424514 0.272867 0.799667
O O18 0.779850 0.047306 0.754542
#
# Coordination Sequence:
#
# PCOD9059457 Si02
#       8
#     2   2   2   2   2   2   2   2
#     4  12  28  48  76 109 152 202 249 309 374 453
#     4  11  27  46  74 101 139 198 248 310 369 449
#     4  11  25  49  70 103 144 191 249 304 371 440
#     4  11  24  42  68 100 135 181 229 298 365 441
#     4  11  23  43  68 100 141 177 235 298 363 438
#     4  12  24  42  70 101 139 185 238 289 378 434
#     4  11  23  45  68  99 139 178 240 297 366 439
#     4  11  23  41  69 101 136 180 231 300 370 429
#
# _framework density 20.651589000000001
#
# number of rings (size 3 to 8) (size 9 to 14) (size 15 to 20)
#    0.000    0.750    5.000    1.875    1.750    5.000 
#    0.000    0.000    0.000    0.000    0.000    0.000 
#    0.000    0.000    0.000    0.000    0.000    0.000 
#
# Total GULP energy -89147.006660 kJ/mol
# GULP energy per Si atom -5571.687916 kJ/mol
# Density = 2.060459 g / cm^3
# Si number density = 20.651589 Si / 1000 Ang^3
#
#
#
# Elastic Constant Matrix: (Units=GPa)
#
#
# Indices 1 2 3 4 5 6 
#
# 1 111.5798 30.8079 28.1312 -7.5835 -5.9304 26.9971
# 2 30.8079 61.1631 35.1113 -0.8752 -11.3753 22.7609
# 3 28.1312 35.1113 124.1082 -5.8969 -8.2495 10.9803
# 4 -7.5835 -0.8752 -5.8969 30.2319 -1.6952 -1.2972
# 5 -5.9304 -11.3753 -8.2495 -1.6952 37.1243 -8.4752
# 6 26.9971 22.7609 10.9803 -1.2972 -8.4752 40.4810
#
#
#
# Elastic Compliance Matrix: (Units=1/GPa)
#
#
# Indices 1 2 3 4 5 6 
#
# 1 0.011635 -0.003128 -0.001173 0.002322 -0.000561 -0.005726
# 2 -0.003128 0.025435 -0.005416 -0.001324 0.003746 -0.010004
# 3 -0.001173 -0.005416 0.009858 0.001571 0.000725 0.001355
# 4 0.002322 -0.001324 0.001571 0.034048 0.001929 0.000265
# 5 -0.000561 0.003746 0.000725 0.001929 0.029214 0.004250
# 6 -0.005726 -0.010004 0.001355 0.000265 0.004250 0.034677
#
#
# Mechanical properties :
#
#
# Convention : Reuss Voigt Hill
#
# Bulk Modulus (GPa) = 36.36907 53.88352 45.12629
# Shear Modulus (GPa) = 28.82443 35.08749 31.95596
#
# Velocity S-wave (km/s) = 3.74003 4.12639 3.93795
# Velocity P-wave (km/s) = 6.02490 6.98936 6.52497
#
# Compressibility (1/GPa) = 0.02749589
#
# Stress axis : x y z
#
# Youngs Moduli (GPa) = 85.94914 39.31643 101.43683
#
# Poissons Ratio (x) = 0.12297 0.11896
# Poissons Ratio (y) = 0.26882 0.54933
# Poissons Ratio (z) = 0.10080 0.21292
#
# Static dielectric constant tensor:
#      x y z
#    x 1.761380 -0.030120 0.038890 
#    y -0.030120 1.993480 -0.024620 
#    z 0.038890 -0.024620 1.705630 
# 
# From -- ./inp_files/70453.got.cif
#   From: 2010.05.17/outbox.cif.g08.bks.cpg/sg2_36_cif.got.tgz:70453.got - 2010.06.03 11:33:40.
