data_PCOD9059702
_publ_section_title
;
Structure prediction by ZEFSAII (Michael W. Deem and Ramdas Pophale) SiO2 
 PCOD9059702
Probable space group: P -1
;
_chemical_formula_sum "Si O2"
_cell_formula_units_Z 16
_cell_length_a 14.771468
_cell_length_b 9.368850
_cell_length_c 8.073224
_cell_angle_alpha 97.949169
_cell_angle_beta 98.705756
_cell_angle_gamma 132.251814
_cell_volume 772.213967
_symmetry_space_group_name_H-M "P -1"
_symmetry_group_IT_number 2
_symmetry_cell_setting 'triclinic'
loop_
_space_group_symop_operation_xyz
x,y,z
-x,-y,-z
loop_
_atom_site_type_symbol
_atom_site_label
_atom_site_fract_x
_atom_site_fract_y
_atom_site_fract_z
Si Si1 0.285966 0.108873 0.728066
Si Si2 0.782009 0.452723 0.188915
Si Si3 0.028651 0.869154 0.437472
Si Si4 0.745355 0.100454 0.997542
Si Si5 0.107264 0.004715 0.103303
Si Si6 0.499923 0.211512 0.652157
Si Si7 0.473341 0.850996 0.704173
Si Si8 0.693654 0.607013 0.981491
O O1 0.364357 0.144599 0.596019
O O2 0.137339 0.942958 0.608334
O O3 0.326659 0.304005 0.858358
O O4 0.306231 0.013058 0.858899
O O5 0.643172 0.299393 0.220981
O O6 0.903234 0.626374 0.367019
O O7 0.794975 0.316990 0.075713
O O8 0.783616 0.583441 0.078113
O O9 0.082171 0.943841 0.277622
O O10 0.000000 0.000000 0.500000
O O11 0.860605 0.117969 0.984268
O O12 0.616009 0.961359 0.824969
O O13 0.239239 0.232972 0.123641
O O14 0.000000 0.000000 0.000000
O O15 0.559806 0.267295 0.495405
O O16 0.574945 0.389971 0.836068
O O17 0.485433 0.033125 0.687796
#
# Coordination Sequence:
#
# PCOD9059702 Si02
#       8
#     2   2   2   2   2   2   2   2
#     4  11  23  44  66 101 136 179 227 279 332 403
#     4  12  23  44  71 100 133 191 219 273 343 400
#     4  12  25  45  68  97 142 177 227 279 334 401
#     4  11  23  45  72  99 136 179 227 279 338 400
#     4  11  24  47  67 100 136 175 225 284 332 398
#     4  11  23  42  67 104 135 175 223 283 341 398
#     4  11  24  42  68 102 144 167 225 288 332 402
#     4  11  23  42  72  98 132 177 226 275 347 396
#
# _framework density 20.719646000000001
#
# number of rings (size 3 to 8) (size 9 to 14) (size 15 to 20)
#    0.000    0.750    5.000    3.000    1.750    2.000 
#    0.000    3.750    0.000    0.000    0.000    0.000 
#    0.000    0.000    0.000    0.000    0.000    0.000 
#
# Total GULP energy -89243.518856 kJ/mol
# GULP energy per Si atom -5577.719928 kJ/mol
# Density = 2.067249 g / cm^3
# Si number density = 20.719646 Si / 1000 Ang^3
#
#
#
# Elastic Constant Matrix: (Units=GPa)
#
#
# Indices 1 2 3 4 5 6 
#
# 1 110.6601 17.0730 37.6648 5.2858 -7.4315 -8.1154
# 2 17.0730 61.3989 22.9269 -2.7084 -10.7042 -11.6679
# 3 37.6648 22.9269 87.9554 6.6195 8.5020 -0.3520
# 4 5.2858 -2.7084 6.6195 22.3662 15.5139 -0.3093
# 5 -7.4315 -10.7042 8.5020 15.5139 31.9152 -1.4302
# 6 -8.1154 -11.6679 -0.3520 -0.3093 -1.4302 30.1422
#
#
#
# Elastic Compliance Matrix: (Units=1/GPa)
#
#
# Indices 1 2 3 4 5 6 
#
# 1 0.011912 0.000472 -0.005468 -0.006406 0.007665 0.003624
# 2 0.000472 0.022293 -0.006837 -0.003127 0.011340 0.009183
# 3 -0.005468 -0.006837 0.016205 0.001827 -0.008966 -0.004336
# 4 -0.006406 -0.003127 0.001827 0.071622 -0.038021 -0.003983
# 5 0.007665 0.011340 -0.008966 -0.038021 0.058182 0.008719
# 6 0.003624 0.009183 -0.004336 -0.003983 0.008719 0.038028
#
#
# Mechanical properties :
#
#
# Convention : Reuss Voigt Hill
#
# Bulk Modulus (GPa) = 37.39324 46.14929 41.77127
# Shear Modulus (GPa) = 19.93437 29.04139 24.48788
#
# Velocity S-wave (km/s) = 3.10514 3.74790 3.44156
# Velocity P-wave (km/s) = 5.56258 6.40707 5.99970
#
# Compressibility (1/GPa) = 0.02674280
#
# Stress axis : x y z
#
# Youngs Moduli (GPa) = 83.95233 44.85764 61.70945
#
# Poissons Ratio (x) = -0.02117 0.33744
# Poissons Ratio (y) = -0.03963 0.42191
# Poissons Ratio (z) = 0.45906 0.30670
#
# Static dielectric constant tensor:
#      x y z
#    x 1.854350 0.059690 0.024980 
#    y 0.059690 1.758540 0.030700 
#    z 0.024980 0.030700 1.788410 
# 
# From -- ./inp_files/274378.got.cif
#   From: 2010.05.17/outbox.cif.g08.bks.cpg/sg2_138_cif.got.tgz:274378.got - 2010.06.03 11:33:40.
