data_PCOD9059911
_publ_section_title
;
Structure prediction by ZEFSAII (Michael W. Deem and Ramdas Pophale) SiO2 
 PCOD9059911
Probable space group: P -1
;
_chemical_formula_sum "Si O2"
_cell_formula_units_Z 15
_cell_length_a 9.288710
_cell_length_b 9.304271
_cell_length_c 12.906344
_cell_angle_alpha 141.553716
_cell_angle_beta 81.422064
_cell_angle_gamma 103.155190
_cell_volume 674.569934
_symmetry_space_group_name_H-M "P -1"
_symmetry_group_IT_number 2
_symmetry_cell_setting 'triclinic'
loop_
_space_group_symop_operation_xyz
x,y,z
-x,-y,-z
loop_
_atom_site_type_symbol
_atom_site_label
_atom_site_fract_x
_atom_site_fract_y
_atom_site_fract_z
Si Si1 0.983564 0.753921 0.302664
Si Si2 0.795497 0.805668 0.784022
Si Si3 0.471762 0.760461 0.429653
Si Si4 0.782855 0.548693 0.839966
Si Si5 0.078320 0.067119 0.814023
Si Si6 0.301252 0.557765 0.753317
Si Si7 0.500000 0.000000 0.000000
Si Si8 0.743842 0.330939 0.409056
O O1 0.938433 0.815527 0.227520
O O2 0.859306 0.551643 0.250762
O O3 0.132137 0.646868 0.233671
O O4 0.000000 0.000000 0.500000
O O5 0.858756 0.674943 0.799739
O O6 0.776535 0.609768 0.585013
O O7 0.918771 0.025837 0.863508
O O8 0.638037 0.863940 0.868699
O O9 0.372055 0.581814 0.260916
O O10 0.617573 0.663562 0.389270
O O11 0.381665 0.769851 0.551109
O O12 0.500000 0.000000 0.500000
O O13 0.796015 0.760427 0.038859
O O14 0.125737 0.811991 0.661550
O O15 0.301421 0.697121 0.722282
O O16 0.405402 0.754394 0.919369
#
# Coordination Sequence:
#
# PCOD9059911 Si02
#       8
#     2   2   2   2   2   2   1   2
#     4  12  25  45  73 101 140 187 237 293 354 415
#     4  11  23  43  69 101 140 181 235 287 348 417
#     4  11  24  45  67  99 145 185 231 286 351 424
#     4  11  23  44  65 101 137 179 235 284 351 412
#     4  12  24  43  70 106 138 182 233 297 351 413
#     4  12  24  45  69 104 139 186 234 287 350 421
#     4  12  24  42  68 100 144 180 232 284 350 404
#     4  11  23  42  71 102 136 182 243 277 351 419
#
# _framework density 22.236391999999999
#
# number of rings (size 3 to 8) (size 9 to 14) (size 15 to 20)
#    0.000    0.533    2.667    8.000    0.000    0.000 
#    2.400    1.333    0.000    0.000    0.000    0.000 
#    0.000    0.000    0.000    0.000    0.000    0.000 
#
# Total GULP energy -83588.378458 kJ/mol
# GULP energy per Si atom -5572.558564 kJ/mol
# Density = 2.218578 g / cm^3
# Si number density = 22.236392 Si / 1000 Ang^3
#
#
#
# Elastic Constant Matrix: (Units=GPa)
#
#
# Indices 1 2 3 4 5 6 
#
# 1 80.1858 24.9113 10.7123 6.9791 -20.1215 -10.9760
# 2 24.9113 102.5031 17.7232 20.5812 20.7444 -13.6087
# 3 10.7123 17.7232 63.4971 20.5625 -7.0446 1.6235
# 4 6.9791 20.5812 20.5625 29.1752 -17.8616 12.2824
# 5 -20.1215 20.7444 -7.0446 -17.8616 23.5323 20.0380
# 6 -10.9760 -13.6087 1.6235 12.2824 20.0380 30.4287
#
#
#
# Elastic Compliance Matrix: (Units=1/GPa)
#
#
# Indices 1 2 3 4 5 6 
#
# 1 0.014134 -0.000277 -0.000153 -0.007918 -0.001571 0.009213
# 2 -0.000277 0.004360 -0.003099 0.010900 0.012055 -0.010323
# 3 -0.000153 -0.003099 0.019740 -0.007765 0.004716 -0.002466
# 4 -0.007918 0.010900 -0.007765 0.006514 -0.030942 0.020180
# 5 -0.001571 0.012055 0.004716 -0.030942 -0.013837 0.026174
# 6 0.009213 -0.010323 -0.002466 0.020180 0.026174 0.006320
#
#
# Mechanical properties :
#
#
# Convention : Reuss Voigt Hill
#
# Bulk Modulus (GPa) = 32.07545 39.20884 35.64214
# Shear Modulus (GPa) = 91.43838 29.48320 60.46079
#
# Velocity S-wave (km/s) = 6.41953 3.64524 5.22006
# Velocity P-wave (km/s) = 8.33086 5.94878 7.23848
#
# Compressibility (1/GPa) = 0.03117649
#
# Stress axis : x y z
#
# Youngs Moduli (GPa) = 70.75318 229.33760 50.65797
#
# Poissons Ratio (x) = 0.06363 0.00773
# Poissons Ratio (y) = 0.01963 0.15698
# Poissons Ratio (z) = 0.01080 0.71066
#
# Static dielectric constant tensor:
#      x y z
#    x 1.940080 -0.000430 0.100280 
#    y -0.000430 1.779870 -0.005380 
#    z 0.100280 -0.005380 1.925050 
# 
# From -- ./inp_files/244629.got.cif
#   From: 2010.05.17/outbox.cif.g08.bks.cpg/sg2_123_cif.got.tgz:244629.got - 2010.06.03 11:33:40.
