data_PCOD9059859
_publ_section_title
;
Structure prediction by ZEFSAII (Michael W. Deem and Ramdas Pophale) SiO2 
 PCOD9059859
Probable space group: P -1
;
_chemical_formula_sum "Si O2"
_cell_formula_units_Z 16
_cell_length_a 13.983311
_cell_length_b 9.068097
_cell_length_c 9.097489
_cell_angle_alpha 64.974980
_cell_angle_beta 82.198715
_cell_angle_gamma 127.944761
_cell_volume 686.274970
_symmetry_space_group_name_H-M "P -1"
_symmetry_group_IT_number 2
_symmetry_cell_setting 'triclinic'
loop_
_space_group_symop_operation_xyz
x,y,z
-x,-y,-z
loop_
_atom_site_type_symbol
_atom_site_label
_atom_site_fract_x
_atom_site_fract_y
_atom_site_fract_z
Si Si1 0.225886 0.803429 0.909195
Si Si2 0.208595 0.305650 0.980007
Si Si3 0.227574 0.585604 0.606438
Si Si4 0.190289 0.903474 0.483635
Si Si5 0.119702 0.836709 0.189948
Si Si6 0.390074 0.450034 0.154611
Si Si7 0.463010 0.820601 0.208616
Si Si8 0.990240 0.238890 0.170386
O O1 0.156819 0.875839 0.819035
O O2 0.397549 0.004896 0.785691
O O3 0.181026 0.773794 0.100401
O O4 0.125385 0.530126 0.987206
O O5 0.262708 0.491539 0.760655
O O6 0.291740 0.427317 0.067873
O O7 0.041707 0.139146 0.128979
O O8 0.204799 0.111716 0.021365
O O9 0.248842 0.800665 0.564190
O O10 0.322365 0.676138 0.401230
O O11 0.052619 0.358462 0.714899
O O12 0.153677 0.837008 0.349140
O O13 0.045730 0.789649 0.640207
O O14 0.303115 0.191756 0.353500
O O15 0.447965 0.637624 0.192296
O O16 0.500000 0.500000 0.000000
O O17 0.500000 0.000000 0.000000
#
# Coordination Sequence:
#
# PCOD9059859 Si02
#       8
#     2   2   2   2   2   2   2   2
#     4  11  23  45  66  98 141 181 222 292 348 409
#     4  11  25  43  72 102 142 180 235 295 340 413
#     4  12  24  44  70 107 137 187 233 286 353 414
#     4  11  25  41  72 101 139 185 236 287 347 413
#     4  11  23  42  71 102 142 180 233 288 348 408
#     4  11  26  49  68 100 147 187 226 287 355 415
#     4  12  27  44  72 103 143 185 235 283 347 425
#     4  11  23  42  70 102 134 178 235 289 345 404
#
# _framework density 23.314268999999999
#
# number of rings (size 3 to 8) (size 9 to 14) (size 15 to 20)
#    0.000    0.750    2.500    5.250    5.250    2.000 
#    0.000    5.625    0.000    0.000    0.000    0.000 
#    0.000    0.000    0.000    0.000    0.000    0.000 
#
# Total GULP energy -89455.700365 kJ/mol
# GULP energy per Si atom -5590.981273 kJ/mol
# Density = 2.326120 g / cm^3
# Si number density = 23.314269 Si / 1000 Ang^3
#
#
#
# Elastic Constant Matrix: (Units=GPa)
#
#
# Indices 1 2 3 4 5 6 
#
# 1 77.7079 10.6361 28.6368 -12.9834 2.2464 1.4245
# 2 10.6361 84.1118 16.9230 -9.4138 9.0789 -7.4361
# 3 28.6368 16.9230 126.8670 -0.0109 3.8791 -20.9732
# 4 -12.9834 -9.4138 -0.0109 30.8672 -8.3450 -7.6598
# 5 2.2464 9.0789 3.8791 -8.3450 48.8270 4.3956
# 6 1.4245 -7.4361 -20.9732 -7.6598 4.3956 35.8251
#
#
#
# Elastic Compliance Matrix: (Units=1/GPa)
#
#
# Indices 1 2 3 4 5 6 
#
# 1 0.015343 -0.000779 -0.003676 0.006029 0.000919 -0.001747
# 2 -0.000779 0.013126 -0.000974 0.003961 -0.001945 0.003270
# 3 -0.003676 -0.000974 0.009811 -0.000722 -0.001062 0.005663
# 4 0.006029 0.003961 -0.000722 0.039493 0.005075 0.007981
# 5 0.000919 -0.001945 -0.001062 0.005075 0.021992 -0.002676
# 6 -0.001747 0.003270 0.005663 0.007981 -0.002676 0.034012
#
#
# Mechanical properties :
#
#
# Convention : Reuss Voigt Hill
#
# Bulk Modulus (GPa) = 36.46963 44.56429 40.51696
# Shear Modulus (GPa) = 32.51480 38.60323 35.55902
#
# Velocity S-wave (km/s) = 3.73853 4.07354 3.90962
# Velocity P-wave (km/s) = 5.85765 6.42503 6.14789
#
# Compressibility (1/GPa) = 0.02742008
#
# Stress axis : x y z
#
# Youngs Moduli (GPa) = 65.17716 76.18522 101.93041
#
# Poissons Ratio (x) = 0.05938 0.37467
# Poissons Ratio (y) = 0.05080 0.09933
# Poissons Ratio (z) = 0.23957 0.07424
#
# Static dielectric constant tensor:
#      x y z
#    x 1.940340 0.015040 0.014580 
#    y 0.015040 1.907360 0.037050 
#    z 0.014580 0.037050 1.973300 
# 
# From -- ./inp_files/297882.got.cif
#   From: 2010.05.17/outbox.cif.g08.bks.cpg/sg2_149_cif.got.tgz:297882.got - 2010.06.03 11:33:40.
