data_PCOD9059111
_publ_section_title
;
Structure prediction by ZEFSAII (Michael W. Deem and Ramdas Pophale) SiO2 
 PCOD9059111
Probable space group: P -1
;
_chemical_formula_sum "Si O2"
_cell_formula_units_Z 16
_cell_length_a 11.257771
_cell_length_b 11.571858
_cell_length_c 8.836218
_cell_angle_alpha 50.549321
_cell_angle_beta 114.238433
_cell_angle_gamma 128.581242
_cell_volume 694.653494
_symmetry_space_group_name_H-M "P -1"
_symmetry_group_IT_number 2
_symmetry_cell_setting 'triclinic'
loop_
_space_group_symop_operation_xyz
x,y,z
-x,-y,-z
loop_
_atom_site_type_symbol
_atom_site_label
_atom_site_fract_x
_atom_site_fract_y
_atom_site_fract_z
Si Si1 0.880232 0.896819 0.215454
Si Si2 0.354909 0.749276 0.068457
Si Si3 0.132878 0.221442 0.218233
Si Si4 0.883864 0.626678 0.219853
Si Si5 0.077775 0.686540 0.796657
Si Si6 0.664182 0.600338 0.580939
Si Si7 0.661587 0.015495 0.883275
Si Si8 0.824113 0.284104 0.523107
O O1 0.877191 0.778869 0.175572
O O2 0.773744 0.755408 0.399044
O O3 0.802933 0.004998 0.031709
O O4 0.047244 0.031376 0.255336
O O5 0.294843 0.549613 0.245555
O O6 0.367248 0.852673 0.141842
O O7 0.245219 0.778635 0.878341
O O8 0.513864 0.828698 0.996843
O O9 0.294561 0.298622 0.320226
O O10 0.012352 0.219702 0.276053
O O11 0.144694 0.354007 0.984468
O O12 0.773874 0.427842 0.380421
O O13 0.049432 0.662070 0.323613
O O14 0.097867 0.690202 0.622408
O O15 0.000000 0.500000 0.000000
O O16 0.500000 0.500000 0.500000
O O17 0.697106 0.091124 0.669189
#
# Coordination Sequence:
#
# PCOD9059111 Si02
#       8
#     2   2   2   2   2   2   2   2
#     4  12  24  43  66 104 140 182 233 291 348 404
#     4  11  23  45  69  95 139 184 232 286 345 417
#     4  12  24  44  69 106 138 176 237 290 346 413
#     4  11  23  41  69 100 141 182 229 291 349 410
#     4  12  22  41  73 102 130 176 238 295 337 414
#     4  12  25  43  70  98 139 186 228 280 353 420
#     4  11  24  42  68  98 139 183 231 286 348 418
#     4  11  23  40  67 104 136 183 231 284 356 408
#
# _framework density 23.033066999999999
#
# number of rings (size 3 to 8) (size 9 to 14) (size 15 to 20)
#    0.000    0.500    6.250    2.250    1.750    0.500 
#    0.000    0.625    2.750    0.000    0.000    0.000 
#    0.000    0.000    0.000    0.000    0.000    0.000 
#
# Total GULP energy -89395.396959 kJ/mol
# GULP energy per Si atom -5587.212310 kJ/mol
# Density = 2.298064 g / cm^3
# Si number density = 23.033067 Si / 1000 Ang^3
#
#
#
# Elastic Constant Matrix: (Units=GPa)
#
#
# Indices 1 2 3 4 5 6 
#
# 1 39.9866 13.4548 41.8878 6.1073 -6.9260 -6.6993
# 2 13.4548 61.3256 58.8049 4.3638 -7.0637 -2.6067
# 3 41.8878 58.8049 154.9137 -5.3698 -28.1841 11.6840
# 4 6.1073 4.3638 -5.3698 54.4380 5.7754 6.8763
# 5 -6.9260 -7.0637 -28.1841 5.7754 34.5862 4.6945
# 6 -6.6993 -2.6067 11.6840 6.8763 4.6945 34.4280
#
#
#
# Elastic Compliance Matrix: (Units=1/GPa)
#
#
# Indices 1 2 3 4 5 6 
#
# 1 0.044055 0.007822 -0.017345 -0.009001 -0.004584 0.017474
# 2 0.007822 0.029493 -0.015303 -0.005540 -0.005420 0.010794
# 3 -0.017345 -0.015303 0.020171 0.005788 0.010773 -0.014004
# 4 -0.009001 -0.005540 0.005788 0.021520 -0.000678 -0.008341
# 5 -0.004584 -0.005420 0.010773 -0.000678 0.037122 -0.009885
# 6 0.017474 0.010794 -0.014004 -0.008341 -0.009885 0.041030
#
#
# Mechanical properties :
#
#
# Convention : Reuss Voigt Hill
#
# Bulk Modulus (GPa) = 22.69291 53.83567 38.26429
# Shear Modulus (GPa) = 19.40007 34.16233 26.78120
#
# Velocity S-wave (km/s) = 2.90534 3.85539 3.41358
# Velocity P-wave (km/s) = 4.59656 6.57592 5.67323
#
# Compressibility (1/GPa) = 0.04406662
#
# Stress axis : x y z
#
# Youngs Moduli (GPa) = 22.69893 33.90690 49.57631
#
# Poissons Ratio (x) = -0.26522 0.85992
# Poissons Ratio (y) = -0.17755 0.75865
# Poissons Ratio (z) = 0.39372 0.51886
#
# Static dielectric constant tensor:
#      x y z
#    x 1.894380 0.022030 -0.014640 
#    y 0.022030 1.923170 -0.000060 
#    z -0.014640 -0.000060 1.872760 
# 
# From -- ./inp_files/261759.got.cif
#   From: 2010.05.17/outbox.cif.g08.bks.cpg/sg2_131_cif.got.tgz:261759.got - 2010.06.03 11:33:40.
