data_PCOD9059921
_publ_section_title
;
Structure prediction by ZEFSAII (Michael W. Deem and Ramdas Pophale) SiO2 
 PCOD9059921
Probable space group: P -1
;
_chemical_formula_sum "Si O2"
_cell_formula_units_Z 16
_cell_length_a 16.599523
_cell_length_b 5.310442
_cell_length_c 11.737431
_cell_angle_alpha 74.694877
_cell_angle_beta 134.357898
_cell_angle_gamma 85.115144
_cell_volume 656.706904
_symmetry_space_group_name_H-M "P -1"
_symmetry_group_IT_number 2
_symmetry_cell_setting 'triclinic'
loop_
_space_group_symop_operation_xyz
x,y,z
-x,-y,-z
loop_
_atom_site_type_symbol
_atom_site_label
_atom_site_fract_x
_atom_site_fract_y
_atom_site_fract_z
Si Si1 0.139196 0.514553 0.516444
Si Si2 0.894946 0.938242 0.311642
Si Si3 0.689698 0.481523 0.123803
Si Si4 0.716450 0.713361 0.523143
Si Si5 0.200765 0.036303 0.024198
Si Si6 0.126036 0.503629 0.076586
Si Si7 0.519644 0.194530 0.599077
Si Si8 0.552504 0.125752 0.141478
O O1 0.098501 0.262593 0.549498
O O2 0.260898 0.442387 0.719368
O O3 0.179083 0.511037 0.425844
O O4 0.032855 0.811677 0.413472
O O5 0.814534 0.269345 0.213886
O O6 0.820444 0.886906 0.138514
O O7 0.612703 0.300107 0.106471
O O8 0.573768 0.735517 0.924751
O O9 0.774747 0.682366 0.709056
O O10 0.583857 0.714290 0.416235
O O11 0.666204 0.984241 0.358501
O O12 0.146734 0.797111 0.037319
O O13 0.342464 0.927971 0.206376
O O14 0.141204 0.328205 0.997619
O O15 0.000000 0.500000 0.000000
O O16 0.500000 0.500000 0.500000
O O17 0.500000 0.000000 0.500000
O O18 0.500000 0.000000 0.000000
#
# Coordination Sequence:
#
# PCOD9059921 Si02
#       8
#     2   2   2   2   2   2   2   2
#     4  11  25  47  70 113 148 200 253 315 394 463
#     4  11  26  46  74 107 158 196 256 318 384 467
#     4  11  23  42  71 103 149 196 249 304 378 469
#     4  12  25  47  79 109 156 197 257 325 395 466
#     4  12  27  51  75 114 153 206 263 317 392 462
#     4  12  28  52  80 113 154 205 268 322 389 465
#     4  12  26  49  74 110 155 200 255 320 382 460
#     4  11  24  43  65 110 148 188 250 310 381 457
#
# _framework density 24.363990999999999
#
# number of rings (size 3 to 8) (size 9 to 14) (size 15 to 20)
#    0.000    0.500    5.000    1.500    5.250    4.000 
#    0.000    0.000    0.000    0.000    0.000    0.000 
#    0.000    0.000    0.000    0.000    0.000    0.000 
#
# Total GULP energy -89119.036523 kJ/mol
# GULP energy per Si atom -5569.939783 kJ/mol
# Density = 2.430854 g / cm^3
# Si number density = 24.363991 Si / 1000 Ang^3
#
#
#
# Elastic Constant Matrix: (Units=GPa)
#
#
# Indices 1 2 3 4 5 6 
#
# 1 127.5127 30.4931 1.2371 -9.4679 13.1047 -2.1461
# 2 30.4931 95.6482 12.1986 2.5050 -5.0715 6.8794
# 3 1.2371 12.1986 86.3387 -5.2174 17.6972 1.7352
# 4 -9.4679 2.5050 -5.2174 34.4485 -8.2627 5.2968
# 5 13.1047 -5.0715 17.6972 -8.2627 54.9761 -0.9915
# 6 -2.1461 6.8794 1.7352 5.2968 -0.9915 41.7898
#
#
#
# Elastic Compliance Matrix: (Units=1/GPa)
#
#
# Indices 1 2 3 4 5 6 
#
# 1 0.009025 -0.003227 0.000941 0.002183 -0.002413 0.000622
# 2 -0.003227 0.012052 -0.002179 -0.001243 0.002362 -0.001846
# 3 0.000941 -0.002179 0.012863 0.001380 -0.004366 -0.000406
# 4 0.002183 -0.001243 0.001380 0.031341 0.003566 -0.003628
# 5 -0.002413 0.002362 -0.004366 0.003566 0.020919 -0.000287
# 6 0.000622 -0.001846 -0.000406 -0.003628 -0.000287 0.024735
#
#
# Mechanical properties :
#
#
# Convention : Reuss Voigt Hill
#
# Bulk Modulus (GPa) = 39.98392 44.15081 42.06736
# Shear Modulus (GPa) = 39.00046 43.94760 41.47403
#
# Velocity S-wave (km/s) = 4.00527 4.25172 4.13033
# Velocity P-wave (km/s) = 6.15112 6.50104 6.32850
#
# Compressibility (1/GPa) = 0.02501006
#
# Stress axis : x y z
#
# Youngs Moduli (GPa) = 110.79724 82.97202 77.74173
#
# Poissons Ratio (x) = 0.26776 -0.07312
# Poissons Ratio (y) = 0.35756 0.16939
# Poissons Ratio (z) = -0.10422 0.18078
#
# Static dielectric constant tensor:
#      x y z
#    x 2.109130 0.187620 -0.322740 
#    y 0.187620 2.901270 -1.211140 
#    z -0.322740 -1.211140 3.558120 
# 
# From -- ./inp_files/441766.got.cif
#   From: 2010.05.17/outbox.cif.g08.bks.cpg/sg2_221_cif.got.tgz:441766.got - 2010.06.03 11:33:40.
