data_PCOD9059441
_publ_section_title
;
Structure prediction by ZEFSAII (Michael W. Deem and Ramdas Pophale) SiO2 
 PCOD9059441
Probable space group: P -1
;
_chemical_formula_sum "Si O2"
_cell_formula_units_Z 14
_cell_length_a 9.525643
_cell_length_b 19.026150
_cell_length_c 8.584817
_cell_angle_alpha 148.303832
_cell_angle_beta 131.879438
_cell_angle_gamma 52.430486
_cell_volume 605.185099
_symmetry_space_group_name_H-M "P -1"
_symmetry_group_IT_number 2
_symmetry_cell_setting 'triclinic'
loop_
_space_group_symop_operation_xyz
x,y,z
-x,-y,-z
loop_
_atom_site_type_symbol
_atom_site_label
_atom_site_fract_x
_atom_site_fract_y
_atom_site_fract_z
Si Si1 0.002388 0.627359 0.346214
Si Si2 0.001189 0.655954 0.856203
Si Si3 0.228731 0.237188 0.817729
Si Si4 0.411301 0.638096 0.274553
Si Si5 0.225210 0.006646 0.184261
Si Si6 0.616653 0.302568 0.272813
Si Si7 0.256149 0.222320 0.347613
O O1 0.944833 0.740242 0.388330
O O2 0.825880 0.645828 0.364849
O O3 0.211965 0.640870 0.587634
O O4 0.000000 0.500000 0.000000
O O5 0.000000 0.500000 0.500000
O O6 0.923957 0.769257 0.886321
O O7 0.205896 0.672137 0.108736
O O8 0.849452 0.694071 0.952750
O O9 0.279865 0.078778 0.522916
O O10 0.413412 0.312177 0.057428
O O11 0.397391 0.633905 0.444379
O O12 0.554496 0.748247 0.543548
O O13 0.500000 0.500000 0.000000
O O14 0.277812 0.098032 0.247826
O O15 0.325448 0.856463 0.963286
O O16 0.000000 0.000000 0.000000
#
# Coordination Sequence:
#
# PCOD9059441 Si02
#       7
#     2   2   2   2   2   2   2
#     4  11  23  41  68  98 134 172 226 276 333 403
#     4  12  22  42  68 100 139 175 217 278 341 398
#     4  11  23  42  69  97 129 182 221 270 343 391
#     4  12  23  42  68 100 137 172 217 280 340 397
#     4  11  23  48  68  92 140 177 227 281 323 397
#     4  12  23  44  71  92 135 185 215 279 339 390
#     4  11  24  40  67 101 131 171 226 269 336 391
#
# _framework density 23.133417000000001
#
# number of rings (size 3 to 8) (size 9 to 14) (size 15 to 20)
#    0.000    0.571    7.143    2.143    0.000    3.429 
#    2.571    1.429    0.000    0.000    0.000    0.000 
#    0.000    0.000    0.000    0.000    0.000    0.000 
#
# Total GULP energy -78082.306644 kJ/mol
# GULP energy per Si atom -5577.307617 kJ/mol
# Density = 2.308076 g / cm^3
# Si number density = 23.133417 Si / 1000 Ang^3
#
#
#
# Elastic Constant Matrix: (Units=GPa)
#
#
# Indices 1 2 3 4 5 6 
#
# 1 87.2697 7.2258 20.5823 -4.5161 9.7127 -12.5139
# 2 7.2258 67.1260 18.7987 -0.6315 6.6144 -11.0635
# 3 20.5823 18.7987 102.5812 -10.3691 4.5916 -18.0679
# 4 -4.5161 -0.6315 -10.3691 41.2930 -11.1976 7.6309
# 5 9.7127 6.6144 4.5916 -11.1976 49.7810 -3.6112
# 6 -12.5139 -11.0635 -18.0679 7.6309 -3.6112 29.1028
#
#
#
# Elastic Compliance Matrix: (Units=1/GPa)
#
#
# Indices 1 2 3 4 5 6 
#
# 1 0.012689 0.000024 -0.001753 -0.000402 -0.002101 0.004221
# 2 0.000024 0.016548 -0.002223 -0.001803 -0.002031 0.005142
# 3 -0.001753 -0.002223 0.011585 0.001826 0.000354 0.005158
# 4 -0.000402 -0.001803 0.001826 0.027330 0.005850 -0.006165
# 5 -0.002101 -0.002031 0.000354 0.005850 0.022033 -0.000256
# 6 0.004221 0.005142 0.005158 -0.006165 -0.000256 0.042918
#
#
# Mechanical properties :
#
#
# Convention : Reuss Voigt Hill
#
# Bulk Modulus (GPa) = 30.37967 38.91006 34.64487
# Shear Modulus (GPa) = 32.89940 38.06005 35.47972
#
# Velocity S-wave (km/s) = 3.77524 4.06056 3.92050
# Velocity P-wave (km/s) = 5.67135 6.23222 5.95839
#
# Compressibility (1/GPa) = 0.03291675
#
# Stress axis : x y z
#
# Youngs Moduli (GPa) = 78.81067 60.43041 86.31951
#
# Poissons Ratio (x) = -0.00146 0.15135
# Poissons Ratio (y) = -0.00191 0.19190
# Poissons Ratio (z) = 0.13819 0.13434
#
# Static dielectric constant tensor:
#      x y z
#    x 2.035760 -0.281650 -0.257360 
#    y -0.281650 2.632660 0.487600 
#    z -0.257360 0.487600 2.210310 
# 
# From -- ./inp_files/178390.got.cif
#   From: 2010.05.17/outbox.cif.g08.bks.cpg/sg2_90_cif.got.tgz:178390.got - 2010.06.03 11:33:40.
