data_PCOD9059376
_publ_section_title
;
Structure prediction by ZEFSAII (Michael W. Deem and Ramdas Pophale) SiO2 
 PCOD9059376
Probable space group: P -1
;
_chemical_formula_sum "Si O2"
_cell_formula_units_Z 14
_cell_length_a 12.924612
_cell_length_b 9.133772
_cell_length_c 8.559633
_cell_angle_alpha 51.907625
_cell_angle_beta 96.589199
_cell_angle_gamma 123.811220
_cell_volume 619.087499
_symmetry_space_group_name_H-M "P -1"
_symmetry_group_IT_number 2
_symmetry_cell_setting 'triclinic'
loop_
_space_group_symop_operation_xyz
x,y,z
-x,-y,-z
loop_
_atom_site_type_symbol
_atom_site_label
_atom_site_fract_x
_atom_site_fract_y
_atom_site_fract_z
Si Si1 0.312074 0.209224 0.020276
Si Si2 0.286000 0.612872 0.802961
Si Si3 0.842160 0.279454 0.569286
Si Si4 0.553053 0.208637 0.997083
Si Si5 0.888093 0.916955 0.169222
Si Si6 0.798923 0.512294 0.637677
Si Si7 0.968474 0.677716 0.843001
O O1 0.210751 0.993129 0.268022
O O2 0.335673 0.458999 0.870144
O O3 0.447648 0.246941 0.004283
O O4 0.226893 0.096833 0.922578
O O5 0.224889 0.684277 0.613303
O O6 0.390140 0.813827 0.814607
O O7 0.159213 0.422350 0.010057
O O8 0.771616 0.280984 0.712160
O O9 0.000000 0.500000 0.500000
O O10 0.677157 0.437023 0.773908
O O11 0.500000 0.000000 0.000000
O O12 0.828694 0.662162 0.391109
O O13 0.927212 0.069147 0.231660
O O14 0.000000 0.000000 0.000000
O O15 0.930742 0.657621 0.670645
O O16 0.000000 0.500000 0.000000
#
# Coordination Sequence:
#
# PCOD9059376 Si02
#       7
#     2   2   2   2   2   2   2
#     4  12  24  45  74  98 143 191 235 296 347 421
#     4  11  25  47  70 104 141 185 243 289 348 432
#     4  12  24  43  74 108 139 186 235 289 363 428
#     4  11  26  49  70 100 143 187 245 296 349 416
#     4  12  23  43  72 102 142 182 230 293 355 429
#     4  11  23  44  67 102 141 180 237 293 349 421
#     4  11  23  41  67 104 143 180 226 294 363 420
#
# _framework density 22.613928000000001
#
# number of rings (size 3 to 8) (size 9 to 14) (size 15 to 20)
#    0.000    0.571    4.286    4.286    2.000    1.143 
#    5.143    0.000    0.000    0.000    0.000    0.000 
#    0.000    0.000    0.000    0.000    0.000    0.000 
#
# Total GULP energy -77993.339796 kJ/mol
# GULP energy per Si atom -5570.952843 kJ/mol
# Density = 2.256246 g / cm^3
# Si number density = 22.613928 Si / 1000 Ang^3
#
#
#
# Elastic Constant Matrix: (Units=GPa)
#
#
# Indices 1 2 3 4 5 6 
#
# 1 97.8004 16.5397 32.6724 8.5701 9.2357 15.9964
# 2 16.5397 118.3425 40.6471 19.1465 25.9465 10.1869
# 3 32.6724 40.6471 126.7107 16.0314 27.6020 13.1006
# 4 8.5701 19.1465 16.0314 37.6141 3.5246 12.0363
# 5 9.2357 25.9465 27.6020 3.5246 41.2752 4.9067
# 6 15.9964 10.1869 13.1006 12.0363 4.9067 33.6842
#
#
#
# Elastic Compliance Matrix: (Units=1/GPa)
#
#
# Indices 1 2 3 4 5 6 
#
# 1 0.011862 -0.000381 -0.002409 -0.000004 -0.000264 -0.004541
# 2 -0.000381 0.010942 -0.001714 -0.004197 -0.005266 -0.000195
# 3 -0.002409 -0.001714 0.010568 -0.002323 -0.005149 -0.000868
# 4 -0.000004 -0.004197 -0.002323 0.032626 0.002578 -0.009859
# 5 -0.000264 -0.005266 -0.005149 0.002578 0.031025 -0.001720
# 6 -0.004541 -0.000195 -0.000868 -0.009859 -0.001720 0.036014
#
#
# Mechanical properties :
#
#
# Convention : Reuss Voigt Hill
#
# Bulk Modulus (GPa) = 41.04226 58.06354 49.55290
# Shear Modulus (GPa) = 33.29630 39.38100 36.33865
#
# Velocity S-wave (km/s) = 3.84132 4.17759 4.01298
# Velocity P-wave (km/s) = 6.15328 7.00011 6.59031
#
# Compressibility (1/GPa) = 0.02436513
#
# Stress axis : x y z
#
# Youngs Moduli (GPa) = 84.30179 91.38940 94.62338
#
# Poissons Ratio (x) = 0.03483 0.22794
# Poissons Ratio (y) = 0.03213 0.16215
# Poissons Ratio (z) = 0.20308 0.15661
#
# Static dielectric constant tensor:
#      x y z
#    x 1.931760 -0.026430 0.036400 
#    y -0.026430 2.001120 -0.056320 
#    z 0.036400 -0.056320 1.881740 
# 
# From -- ./inp_files/242195.got.cif
#   From: 2010.05.17/outbox.cif.g08.bks.cpg/sg2_122_cif.got.tgz:242195.got - 2010.06.03 11:33:40.
