data_PCOD9059358
_publ_section_title
;
Structure prediction by ZEFSAII (Michael W. Deem and Ramdas Pophale) SiO2 
 PCOD9059358
Probable space group: P -1
;
_chemical_formula_sum "Si O2"
_cell_formula_units_Z 16
_cell_length_a 10.880648
_cell_length_b 12.885888
_cell_length_c 8.218730
_cell_angle_alpha 54.046401
_cell_angle_beta 51.804096
_cell_angle_gamma 72.478275
_cell_volume 729.597567
_symmetry_space_group_name_H-M "P -1"
_symmetry_group_IT_number 2
_symmetry_cell_setting 'triclinic'
loop_
_space_group_symop_operation_xyz
x,y,z
-x,-y,-z
loop_
_atom_site_type_symbol
_atom_site_label
_atom_site_fract_x
_atom_site_fract_y
_atom_site_fract_z
Si Si1 0.378804 0.624771 0.301146
Si Si2 0.973853 0.373146 0.532200
Si Si3 0.601044 0.914042 0.317558
Si Si4 0.055279 0.130972 0.415204
Si Si5 0.603299 0.648637 0.376466
Si Si6 0.097087 0.892604 0.094387
Si Si7 0.410739 0.134148 0.248230
Si Si8 0.106711 0.389493 0.062119
O O1 0.196130 0.632020 0.410681
O O2 0.439443 0.647870 0.414887
O O3 0.408288 0.474940 0.379764
O O4 0.478608 0.741424 0.018480
O O5 0.957046 0.252348 0.784400
O O6 0.000000 0.500000 0.500000
O O7 0.103729 0.382410 0.270535
O O8 0.640133 0.791147 0.291771
O O9 0.582653 0.863076 0.563668
O O10 0.458797 0.990585 0.296967
O O11 0.729597 0.037961 0.115356
O O12 0.237223 0.141351 0.310833
O O13 0.023909 0.248583 0.217627
O O14 0.950550 0.131086 0.659601
O O15 0.000000 0.000000 0.500000
O O16 0.732017 0.611943 0.169749
O O17 0.000000 0.000000 0.000000
O O18 0.000000 0.500000 0.000000
#
# Coordination Sequence:
#
# PCOD9059358 Si02
#       8
#     2   2   2   2   2   2   2   2
#     4  11  24  47  66 101 140 175 234 279 337 417
#     4  11  26  45  70 100 137 183 223 280 343 400
#     4  11  25  45  72 100 137 182 228 284 347 398
#     4  11  24  42  68 100 136 181 224 278 344 400
#     4  11  25  45  71  99 135 186 223 287 342 400
#     4  11  23  41  66  98 140 172 229 280 327 411
#     4  11  24  47  67 103 142 174 230 289 331 419
#     4  11  23  46  67  99 139 173 233 279 327 413
#
# _framework density 21.929898000000001
#
# number of rings (size 3 to 8) (size 9 to 14) (size 15 to 20)
#    0.000    1.000    5.000    0.750    1.750    4.000 
#    4.500    0.000    0.000    0.000    0.000    0.000 
#    0.000    0.000    0.000    0.000    0.000    0.000 
#
# Total GULP energy -89166.055204 kJ/mol
# GULP energy per Si atom -5572.878450 kJ/mol
# Density = 2.187998 g / cm^3
# Si number density = 21.929898 Si / 1000 Ang^3
#
#
#
# Elastic Constant Matrix: (Units=GPa)
#
#
# Indices 1 2 3 4 5 6 
#
# 1 71.0498 47.2440 33.9077 -9.0887 2.0552 -23.6188
# 2 47.2440 159.6662 67.4653 -37.0648 -4.1890 -10.9268
# 3 33.9077 67.4653 149.0395 -32.0861 4.7574 -2.1395
# 4 -9.0887 -37.0648 -32.0861 47.7241 -11.0332 3.2947
# 5 2.0552 -4.1890 4.7574 -11.0332 25.8397 -13.8842
# 6 -23.6188 -10.9268 -2.1395 3.2947 -13.8842 27.6422
#
#
#
# Elastic Compliance Matrix: (Units=1/GPa)
#
#
# Indices 1 2 3 4 5 6 
#
# 1 0.028181 -0.003989 -0.004546 0.000374 0.013678 0.028977
# 2 -0.003989 0.010643 -0.002528 0.007301 0.007508 0.003504
# 3 -0.004546 -0.002528 0.009601 0.003159 -0.003964 -0.006508
# 4 0.000374 0.007301 0.003159 0.032697 0.019576 0.009386
# 5 0.013678 0.007508 -0.003964 0.019576 0.074473 0.049422
# 6 0.028977 0.003504 -0.006508 0.009386 0.049422 0.085522
#
#
# Mechanical properties :
#
#
# Convention : Reuss Voigt Hill
#
# Bulk Modulus (GPa) = 38.02252 75.22108 56.62180
# Shear Modulus (GPa) = 18.38166 35.65043 27.01605
#
# Velocity S-wave (km/s) = 2.89831 4.03631 3.51369
# Velocity P-wave (km/s) = 5.34566 7.48983 6.50668
#
# Compressibility (1/GPa) = 0.02630020
#
# Stress axis : x y z
#
# Youngs Moduli (GPa) = 35.48446 93.95801 104.15194
#
# Poissons Ratio (x) = 0.37481 0.47346
# Poissons Ratio (y) = 0.14155 0.26328
# Poissons Ratio (z) = 0.16131 0.23751
#
# Static dielectric constant tensor:
#      x y z
#    x 1.860010 0.002840 -0.010340 
#    y 0.002840 2.272310 -0.107220 
#    z -0.010340 -0.107220 1.853540 
# 
# From -- ./inp_files/261426.got.cif
#   From: 2010.05.17/outbox.cif.g08.bks.cpg/sg2_131_cif.got.tgz:261426.got - 2010.06.03 11:33:40.
