data_PCOD9059143
_publ_section_title
;
Structure prediction by ZEFSAII (Michael W. Deem and Ramdas Pophale) SiO2 
 PCOD9059143
Probable space group: P -1
;
_chemical_formula_sum "Si O2"
_cell_formula_units_Z 12
_cell_length_a 8.919099
_cell_length_b 15.677286
_cell_length_c 9.426401
_cell_angle_alpha 129.807813
_cell_angle_beta 55.034947
_cell_angle_gamma 146.725293
_cell_volume 553.289305
_symmetry_space_group_name_H-M "P -1"
_symmetry_group_IT_number 2
_symmetry_cell_setting 'triclinic'
loop_
_space_group_symop_operation_xyz
x,y,z
-x,-y,-z
loop_
_atom_site_type_symbol
_atom_site_label
_atom_site_fract_x
_atom_site_fract_y
_atom_site_fract_z
Si Si1 0.247824 0.024475 0.235987
Si Si2 0.779597 0.575908 0.373987
Si Si3 0.601344 0.862584 0.025980
Si Si4 0.149245 0.610056 0.675853
Si Si5 0.029044 0.691284 0.081760
Si Si6 0.007952 0.899249 0.688963
O O1 0.302244 0.016934 0.031512
O O2 0.543747 0.202612 0.317787
O O3 0.041483 0.035630 0.342502
O O4 0.127725 0.863125 0.203804
O O5 0.500000 0.500000 0.500000
O O6 0.826457 0.484521 0.334710
O O7 0.785512 0.568533 0.193616
O O8 0.999639 0.770175 0.504679
O O9 0.747956 0.814694 0.843544
O O10 0.277479 0.730641 0.056547
O O11 0.730071 0.954763 0.202697
O O12 0.000000 0.500000 0.500000
O O13 0.988781 0.627952 0.877320
#
# Coordination Sequence:
#
# PCOD9059143 Si02
#       6
#     2   2   2   2   2   2
#     4   9  19  40  64  92 125 160 212 254 313 367
#     4  12  24  43  61  88 135 168 209 258 321 361
#     4   8  17  37  61  95 119 159 209 257 307 364
#     4  11  24  41  65  94 130 165 204 260 321 374
#     4  11  23  40  68  92 124 170 213 255 305 380
#     4   9  19  35  64  91 126 161 197 262 313 366
#
# _framework density 21.688472999999998
#
# number of rings (size 3 to 8) (size 9 to 14) (size 15 to 20)
#    1.000    1.000    1.667    2.500    4.667    1.333 
#    0.000    0.833    0.000    0.000    0.000    0.000 
#    0.000    0.000    0.000    0.000    0.000    0.000 
#
# Total GULP energy -66921.843097 kJ/mol
# GULP energy per Si atom -5576.820258 kJ/mol
# Density = 2.163911 g / cm^3
# Si number density = 21.688473 Si / 1000 Ang^3
#
#
#
# Elastic Constant Matrix: (Units=GPa)
#
#
# Indices 1 2 3 4 5 6 
#
# 1 54.6841 42.4374 38.2932 13.7220 9.1316 -5.8988
# 2 42.4374 90.7257 52.0937 -1.0710 4.9255 -25.5350
# 3 38.2932 52.0937 120.5163 20.2441 16.3163 -4.1760
# 4 13.7220 -1.0710 20.2441 35.3078 0.4605 -10.9045
# 5 9.1316 4.9255 16.3163 0.4605 36.6596 10.1607
# 6 -5.8988 -25.5350 -4.1760 -10.9045 10.1607 27.2039
#
#
#
# Elastic Compliance Matrix: (Units=1/GPa)
#
#
# Indices 1 2 3 4 5 6 
#
# 1 0.045850 -0.034005 0.004114 -0.031923 0.001317 -0.034633
# 2 -0.034005 0.056022 -0.017415 0.044824 -0.009637 0.064106
# 3 0.004114 -0.017415 0.016910 -0.017955 -0.000476 -0.019878
# 4 -0.031923 0.044824 -0.017955 0.072515 -0.008952 0.064807
# 5 0.001317 -0.009637 -0.000476 -0.008952 0.035708 -0.025759
# 6 -0.034633 0.064106 -0.019878 0.064807 -0.025759 0.121969
#
#
# Mechanical properties :
#
#
# Convention : Reuss Voigt Hill
#
# Bulk Modulus (GPa) = 41.37074 59.06384 50.21729
# Shear Modulus (GPa) = 11.07071 28.70771 19.88921
#
# Velocity S-wave (km/s) = 2.26175 3.64213 3.03155
# Velocity P-wave (km/s) = 5.09284 6.70662 5.95466
#
# Compressibility (1/GPa) = 0.02417167
#
# Stress axis : x y z
#
# Youngs Moduli (GPa) = 21.81038 17.85001 59.13766
#
# Poissons Ratio (x) = 0.60698 -0.24330
# Poissons Ratio (y) = 0.74166 1.02986
# Poissons Ratio (z) = -0.08973 0.31085
#
# Static dielectric constant tensor:
#      x y z
#    x 1.830670 0.010700 -0.005110 
#    y 0.010700 1.802450 0.006840 
#    z -0.005110 0.006840 1.893790 
# 
# From -- ./inp_files/197867.got.cif
#   From: 2010.05.17/outbox.cif.g08.bks.cpg/sg2_99_cif.got.tgz:197867.got - 2010.06.03 11:33:40.
