data_PCOD9059149
_publ_section_title
;
Structure prediction by ZEFSAII (Michael W. Deem and Ramdas Pophale) SiO2 
 PCOD9059149
Probable space group: P -1
;
_chemical_formula_sum "Si O2"
_cell_formula_units_Z 16
_cell_length_a 17.001705
_cell_length_b 8.444689
_cell_length_c 12.085449
_cell_angle_alpha 53.513890
_cell_angle_beta 147.584841
_cell_angle_gamma 137.497340
_cell_volume 626.572847
_symmetry_space_group_name_H-M "P -1"
_symmetry_group_IT_number 2
_symmetry_cell_setting 'triclinic'
loop_
_space_group_symop_operation_xyz
x,y,z
-x,-y,-z
loop_
_atom_site_type_symbol
_atom_site_label
_atom_site_fract_x
_atom_site_fract_y
_atom_site_fract_z
Si Si1 0.191020 0.558864 0.092346
Si Si2 0.516483 0.283465 0.792717
Si Si3 0.247236 0.820161 0.774774
Si Si4 0.944906 0.157012 0.806166
Si Si5 0.036423 0.162798 0.656719
Si Si6 0.385171 0.854975 0.532756
Si Si7 0.227824 0.375440 0.439100
Si Si8 0.304197 0.047464 0.988438
O O1 0.382281 0.654152 0.228099
O O2 0.173037 0.414261 0.238059
O O3 0.187205 0.789242 0.015735
O O4 0.055305 0.401649 0.901971
O O5 0.419312 0.415332 0.641408
O O6 0.362196 0.010014 0.737980
O O7 0.664783 0.327183 0.039714
O O8 0.293753 0.972442 0.879748
O O9 0.043581 0.705209 0.554788
O O10 0.740023 0.057546 0.616388
O O11 0.999544 0.170398 0.738726
O O12 0.000000 0.000000 0.000000
O O13 0.908773 0.891019 0.576152
O O14 0.226035 0.207547 0.843564
O O15 0.254787 0.582962 0.459770
O O16 0.500000 0.000000 0.500000
O O17 0.511127 0.856041 0.775022
#
# Coordination Sequence:
#
# PCOD9059149 Si02
#       8
#     2   2   2   2   2   2   2   2
#     4  11  23  40  68  97 139 173 222 265 341 398
#     4   9  21  38  68 100 125 173 218 284 316 394
#     4   9  21  42  70  94 132 174 232 268 336 382
#     4  12  27  41  65 102 137 171 217 276 333 398
#     4  11  24  44  71  96 134 181 221 274 330 397
#     4  12  27  41  65 102 137 171 217 276 333 398
#     4  11  23  40  68  97 139 173 222 265 341 398
#     4  11  24  44  71  96 134 181 221 274 330 397
#
# _framework density 25.535737000000001
#
# number of rings (size 3 to 8) (size 9 to 14) (size 15 to 20)
#    0.000    1.250    2.500    2.250   12.250    1.000 
#    0.000    5.000    5.500    0.000    0.000    0.000 
#    0.000    0.000    0.000    0.000    0.000    0.000 
#
# Total GULP energy -89575.352942 kJ/mol
# GULP energy per Si atom -5598.459559 kJ/mol
# Density = 2.547762 g / cm^3
# Si number density = 25.535737 Si / 1000 Ang^3
#
#
#
# Elastic Constant Matrix: (Units=GPa)
#
#
# Indices 1 2 3 4 5 6 
#
# 1 115.2449 -0.8582 72.2905 -1.6465 23.9768 -8.8587
# 2 -0.8582 61.7763 12.3524 9.4520 0.3869 -9.0360
# 3 72.2905 12.3524 185.9726 -8.0856 17.9081 -19.5272
# 4 -1.6465 9.4520 -8.0856 32.3065 -8.0173 -1.8708
# 5 23.9768 0.3869 17.9081 -8.0173 56.8640 -3.4442
# 6 -8.8587 -9.0360 -19.5272 -1.8708 -3.4442 33.3308
#
#
#
# Elastic Compliance Matrix: (Units=1/GPa)
#
#
# Indices 1 2 3 4 5 6 
#
# 1 0.012401 0.001475 -0.004560 -0.001915 -0.004043 0.000499
# 2 0.001475 0.017942 -0.001510 -0.005522 -0.000806 0.003978
# 3 -0.004560 -0.001510 0.007663 0.002308 0.000027 0.003000
# 4 -0.001915 -0.005522 0.002308 0.034414 0.005080 0.001802
# 5 -0.004043 -0.000806 0.000027 0.005080 0.020069 0.001082
# 6 0.000499 0.003978 0.003000 0.001802 0.001082 0.033184
#
#
# Mechanical properties :
#
#
# Convention : Reuss Voigt Hill
#
# Bulk Modulus (GPa) = 34.70287 58.95147 46.82717
# Shear Modulus (GPa) = 34.61020 43.11420 38.86220
#
# Velocity S-wave (km/s) = 3.68552 4.11346 3.90535
# Velocity P-wave (km/s) = 5.63295 6.75993 6.22201
#
# Compressibility (1/GPa) = 0.02881606
#
# Stress axis : x y z
#
# Youngs Moduli (GPa) = 80.64184 55.73627 130.50238
#
# Poissons Ratio (x) = -0.08223 0.59507
# Poissons Ratio (y) = -0.11898 0.19705
# Poissons Ratio (z) = 0.36772 0.08416
#
# Static dielectric constant tensor:
#      x y z
#    x 2.024650 0.015590 0.040060 
#    y 0.015590 2.054950 0.023030 
#    z 0.040060 0.023030 2.051130 
# 
# From -- ./inp_files/320286.got.cif
#   From: 2010.05.17/outbox.cif.g08.bks.cpg/sg2_161_cif.got.tgz:320286.got - 2010.06.03 11:33:40.
