data_PCOD9059492
_publ_section_title
;
Structure prediction by ZEFSAII (Michael W. Deem and Ramdas Pophale) SiO2 
 PCOD9059492
Probable space group: P -1
;
_chemical_formula_sum "Si O2"
_cell_formula_units_Z 16
_cell_length_a 8.501999
_cell_length_b 22.324093
_cell_length_c 13.497841
_cell_angle_alpha 29.176585
_cell_angle_beta 73.800517
_cell_angle_gamma 50.583633
_cell_volume 658.132891
_symmetry_space_group_name_H-M "P -1"
_symmetry_group_IT_number 2
_symmetry_cell_setting 'triclinic'
loop_
_space_group_symop_operation_xyz
x,y,z
-x,-y,-z
loop_
_atom_site_type_symbol
_atom_site_label
_atom_site_fract_x
_atom_site_fract_y
_atom_site_fract_z
Si Si1 0.095336 0.748552 0.440244
Si Si2 0.845168 0.559379 0.043806
Si Si3 0.831816 0.205620 0.437429
Si Si4 0.480730 0.838229 0.169026
Si Si5 0.338696 0.011992 0.153967
Si Si6 0.123683 0.623921 0.972420
Si Si7 0.271166 0.947947 0.458806
Si Si8 0.358281 0.535094 0.374335
O O1 0.066809 0.625577 0.657135
O O2 0.023563 0.881545 0.354381
O O3 0.430151 0.551351 0.626437
O O4 0.867678 0.930522 0.132231
O O5 0.945574 0.608102 0.026574
O O6 0.498301 0.775068 0.757792
O O7 0.000000 0.500000 0.000000
O O8 0.879053 0.076901 0.528793
O O9 0.910110 0.286791 0.257045
O O10 0.480501 0.406402 0.232724
O O11 0.616644 0.628248 0.406152
O O12 0.494001 0.844793 0.276135
O O13 0.621700 0.869574 0.047740
O O14 0.445635 0.902011 0.401915
O O15 0.984664 0.209802 0.934492
O O16 0.970974 0.804782 0.818784
O O17 0.500000 0.500000 0.500000
#
# Coordination Sequence:
#
# PCOD9059492 Si02
#       8
#     2   2   2   2   2   2   2   2
#     4  12  25  46  78 105 145 198 233 296 368 421
#     4  12  23  47  71 102 151 186 239 288 356 435
#     4  11  23  41  69  99 146 186 231 293 348 427
#     4  11  26  50  76 103 143 193 242 297 364 424
#     4  11  26  48  75 105 143 193 240 297 364 422
#     4  11  24  44  67 100 145 191 234 288 352 420
#     4  12  25  43  72 106 144 186 236 292 354 434
#     4  12  26  47  72 109 145 181 244 305 352 422
#
# _framework density 24.311198999999998
#
# number of rings (size 3 to 8) (size 9 to 14) (size 15 to 20)
#    0.000    0.500    3.750    4.500    1.750    2.000 
#    2.250    0.000    0.000    0.000    0.000    0.000 
#    0.000    0.000    0.000    0.000    0.000    0.000 
#
# Total GULP energy -89572.815711 kJ/mol
# GULP energy per Si atom -5598.300982 kJ/mol
# Density = 2.425587 g / cm^3
# Si number density = 24.311199 Si / 1000 Ang^3
#
#
#
# Elastic Constant Matrix: (Units=GPa)
#
#
# Indices 1 2 3 4 5 6 
#
# 1 136.2349 33.1837 18.7096 -1.5670 -18.6863 19.9323
# 2 33.1837 59.5834 6.6608 4.9488 1.0977 17.8763
# 3 18.7096 6.6608 66.7946 5.3347 3.9034 11.0175
# 4 -1.5670 4.9488 5.3347 39.5444 -3.1082 -7.0693
# 5 -18.6863 1.0977 3.9034 -3.1082 40.1564 -4.4633
# 6 19.9323 17.8763 11.0175 -7.0693 -4.4633 50.4496
#
#
#
# Elastic Compliance Matrix: (Units=1/GPa)
#
#
# Indices 1 2 3 4 5 6 
#
# 1 0.009752 -0.005128 -0.002502 0.001607 0.004954 -0.000826
# 2 -0.005128 0.022114 0.001020 -0.004705 -0.004240 -0.007067
# 3 -0.002502 0.001020 0.016677 -0.003432 -0.003502 -0.003806
# 4 0.001607 -0.004705 -0.003432 0.027799 0.004033 0.006034
# 5 0.004954 -0.004240 -0.003502 0.004033 0.028352 0.003383
# 6 -0.000826 -0.007067 -0.003806 0.006034 0.003383 0.024628
#
#
# Mechanical properties :
#
#
# Convention : Reuss Voigt Hill
#
# Bulk Modulus (GPa) = 28.30972 42.19123 35.25048
# Shear Modulus (GPa) = 32.40090 39.63400 36.01745
#
# Velocity S-wave (km/s) = 3.65465 4.04205 3.85322
# Velocity P-wave (km/s) = 5.42943 6.25912 5.85898
#
# Compressibility (1/GPa) = 0.03532355
#
# Stress axis : x y z
#
# Youngs Moduli (GPa) = 102.54521 45.21929 59.96350
#
# Poissons Ratio (x) = 0.23190 0.15002
# Poissons Ratio (y) = 0.52589 -0.06119
# Poissons Ratio (z) = 0.25655 -0.04614
#
# Static dielectric constant tensor:
#      x y z
#    x 1.983220 0.009690 -0.001510 
#    y 0.009690 1.936530 -0.000930 
#    z -0.001510 -0.000930 1.955110 
# 
# From -- ./inp_files/405406.got.cif
#   From: 2010.05.17/outbox.cif.g08.bks.cpg/sg2_203_cif.got.tgz:405406.got - 2010.06.03 11:33:40.
