data_PCOD9059586
_publ_section_title
;
Structure prediction by ZEFSAII (Michael W. Deem and Ramdas Pophale) SiO2 
 PCOD9059586
Probable space group: P -1
;
_chemical_formula_sum "Si O2"
_cell_formula_units_Z 16
_cell_length_a 13.693813
_cell_length_b 21.420034
_cell_length_c 13.539766
_cell_angle_alpha 149.892184
_cell_angle_beta 29.956423
_cell_angle_gamma 160.490885
_cell_volume 633.750690
_symmetry_space_group_name_H-M "P -1"
_symmetry_group_IT_number 2
_symmetry_cell_setting 'triclinic'
loop_
_space_group_symop_operation_xyz
x,y,z
-x,-y,-z
loop_
_atom_site_type_symbol
_atom_site_label
_atom_site_fract_x
_atom_site_fract_y
_atom_site_fract_z
Si Si1 0.358003 0.359827 0.067106
Si Si2 0.330600 0.721362 0.407235
Si Si3 0.774109 0.708926 0.688289
Si Si4 0.602695 0.349978 0.539616
Si Si5 0.565395 0.170124 0.136768
Si Si6 0.061864 0.399396 0.865906
Si Si7 0.297955 0.861541 0.343702
Si Si8 0.795176 0.974186 0.948213
O O1 0.219016 0.264938 0.166322
O O2 0.522557 0.573583 0.223320
O O3 0.575622 0.355919 0.838265
O O4 0.065466 0.207024 0.041066
O O5 0.438108 0.755198 0.472790
O O6 0.967139 0.553637 0.493615
O O7 0.497693 0.926367 0.504326
O O8 0.413124 0.527634 0.730170
O O9 0.908833 0.891909 0.760376
O O10 0.992448 0.700300 0.457057
O O11 0.505425 0.237740 0.369976
O O12 0.359496 0.096899 0.120311
O O13 0.914123 0.343938 0.026875
O O14 0.500000 0.000000 0.000000
O O15 0.857502 0.199287 0.711688
O O16 0.000000 0.500000 0.000000
O O17 0.544265 0.876418 0.121268
#
# Coordination Sequence:
#
# PCOD9059586 Si02
#       8
#     2   2   2   2   2   2   2   2
#     4  12  26  44  70 107 141 186 244 291 355 427
#     4  11  24  46  71 101 143 187 239 301 355 422
#     4  12  25  43  71 104 144 189 241 285 362 430
#     4  11  25  45  75 101 139 190 243 292 358 423
#     4  11  25  47  78 105 141 194 237 287 368 429
#     4  11  23  44  71 104 148 186 233 300 354 415
#     4  11  23  41  73  99 143 190 230 289 367 413
#     4  11  24  47  70 104 150 183 234 306 352 420
#
# _framework density 25.246521000000001
#
# number of rings (size 3 to 8) (size 9 to 14) (size 15 to 20)
#    0.000    0.750    5.000    3.375    3.500    2.500 
#    2.250    0.625    0.000    0.000    0.000    0.000 
#    0.000    0.000    0.000    0.000    0.000    0.000 
#
# Total GULP energy -89573.519337 kJ/mol
# GULP energy per Si atom -5598.344959 kJ/mol
# Density = 2.518906 g / cm^3
# Si number density = 25.246521 Si / 1000 Ang^3
#
#
#
# Elastic Constant Matrix: (Units=GPa)
#
#
# Indices 1 2 3 4 5 6 
#
# 1 114.3476 20.5094 26.4062 6.6196 16.3013 -10.1642
# 2 20.5094 66.8279 30.1173 11.3040 -0.6176 -1.3781
# 3 26.4062 30.1173 132.6320 4.4601 15.6314 1.2846
# 4 6.6196 11.3040 4.4601 42.1468 -4.2175 5.0488
# 5 16.3013 -0.6176 15.6314 -4.2175 32.7731 2.6305
# 6 -10.1642 -1.3781 1.2846 5.0488 2.6305 38.4778
#
#
#
# Elastic Compliance Matrix: (Units=1/GPa)
#
#
# Indices 1 2 3 4 5 6 
#
# 1 0.010570 -0.002525 -0.000866 -0.001831 -0.005396 0.003340
# 2 -0.002525 0.018150 -0.003836 -0.003825 0.002902 0.000415
# 3 -0.000866 -0.003836 0.009057 -0.000143 -0.003949 -0.000380
# 4 -0.001831 -0.003825 -0.000143 0.026037 0.004607 -0.004347
# 5 -0.005396 0.002902 -0.003949 0.004607 0.036070 -0.004260
# 6 0.003340 0.000415 -0.000380 -0.004347 -0.004260 0.027760
#
#
# Mechanical properties :
#
#
# Convention : Reuss Voigt Hill
#
# Bulk Modulus (GPa) = 42.87577 51.98592 47.43085
# Shear Modulus (GPa) = 33.36161 38.46451 35.91306
#
# Velocity S-wave (km/s) = 3.63910 3.90751 3.77569
# Velocity P-wave (km/s) = 5.88873 6.40267 6.15107
#
# Compressibility (1/GPa) = 0.02332319
#
# Stress axis : x y z
#
# Youngs Moduli (GPa) = 94.60518 55.09691 110.41071
#
# Poissons Ratio (x) = 0.13912 0.09561
# Poissons Ratio (y) = 0.23887 0.42355
# Poissons Ratio (z) = 0.08192 0.21136
#
# Static dielectric constant tensor:
#      x y z
#    x 1.970520 0.012230 -0.000130 
#    y 0.012230 2.031340 -0.005700 
#    z -0.000130 -0.005700 1.998290 
# 
# From -- ./inp_files/535412.got.cif
#   From: 2010.05.17/outbox.cif.g08.bks.cpg/sg2_268_cif.got.tgz:535412.got - 2010.06.03 11:33:40.
