data_PCOD9059231
_publ_section_title
;
Structure prediction by ZEFSAII (Michael W. Deem and Ramdas Pophale) SiO2 
 PCOD9059231
Probable space group: P -1
;
_chemical_formula_sum "Si O2"
_cell_formula_units_Z 14
_cell_length_a 7.546721
_cell_length_b 16.232771
_cell_length_c 21.728849
_cell_angle_alpha 23.296002
_cell_angle_beta 143.397044
_cell_angle_gamma 132.798057
_cell_volume 608.472398
_symmetry_space_group_name_H-M "P -1"
_symmetry_group_IT_number 2
_symmetry_cell_setting 'triclinic'
loop_
_space_group_symop_operation_xyz
x,y,z
-x,-y,-z
loop_
_atom_site_type_symbol
_atom_site_label
_atom_site_fract_x
_atom_site_fract_y
_atom_site_fract_z
Si Si1 0.172455 0.042666 0.117191
Si Si2 0.085547 0.522324 0.181903
Si Si3 0.682574 0.426630 0.462772
Si Si4 0.784424 0.036652 0.225922
Si Si5 0.881914 0.137716 0.435967
Si Si6 0.162300 0.356913 0.087402
Si Si7 0.526605 0.126949 0.855390
O O1 0.445611 0.102804 0.114950
O O2 0.279518 0.812324 0.338482
O O3 0.052555 0.237009 0.998034
O O4 0.878052 0.023454 0.009254
O O5 0.454345 0.463759 0.314773
O O6 0.022184 0.346016 0.331849
O O7 0.888864 0.488998 0.091161
O O8 0.489217 0.620001 0.317762
O O9 0.000000 0.500000 0.500000
O O10 0.932591 0.204963 0.117596
O O11 0.726932 0.887410 0.255852
O O12 0.996578 0.973053 0.389174
O O13 0.512520 0.221725 0.279795
O O14 0.000000 0.000000 0.500000
O O15 0.000000 0.500000 0.000000
O O16 0.500000 0.000000 0.000000
#
# Coordination Sequence:
#
# PCOD9059231 Si02
#       7
#     2   2   2   2   2   2   2
#     4  11  23  46  70 105 143 188 238 296 366 448
#     4  11  25  47  75 101 144 195 240 298 372 434
#     4  11  23  40  73 102 139 185 241 293 361 445
#     4  12  25  45  72 105 147 186 238 308 368 429
#     4  12  26  49  77 107 142 195 257 307 360 431
#     4  12  27  46  70 107 148 190 247 310 365 432
#     4  11  24  44  69 106 144 187 241 293 369 449
#
# _framework density 23.008438999999999
#
# number of rings (size 3 to 8) (size 9 to 14) (size 15 to 20)
#    0.000    0.571    2.857    5.571    0.000    1.714 
#    2.571    0.000    0.000    0.000    0.000    0.000 
#    0.000    0.000    0.000    0.000    0.000    0.000 
#
# Total GULP energy -78006.727610 kJ/mol
# GULP energy per Si atom -5571.909115 kJ/mol
# Density = 2.295607 g / cm^3
# Si number density = 23.008439 Si / 1000 Ang^3
#
#
#
# Elastic Constant Matrix: (Units=GPa)
#
#
# Indices 1 2 3 4 5 6 
#
# 1 104.5469 25.2820 33.5224 5.6452 18.1852 10.4606
# 2 25.2820 96.6954 39.5786 2.0010 15.9098 2.6663
# 3 33.5224 39.5786 112.6724 -1.6304 20.0581 -2.7077
# 4 5.6452 2.0010 -1.6304 50.1102 11.6277 8.4061
# 5 18.1852 15.9098 20.0581 11.6277 28.5825 12.0935
# 6 10.4606 2.6663 -2.7077 8.4061 12.0935 52.4604
#
#
#
# Elastic Compliance Matrix: (Units=1/GPa)
#
#
# Indices 1 2 3 4 5 6 
#
# 1 0.011500 -0.001340 -0.002189 -0.000060 -0.004460 -0.001300
# 2 -0.001340 0.012722 -0.003298 0.000463 -0.004254 0.000357
# 3 -0.002189 -0.003298 0.012040 0.001993 -0.007109 0.002545
# 4 -0.000060 0.000463 0.001993 0.022598 -0.010324 -0.001150
# 5 -0.004460 -0.004254 -0.007109 -0.010324 0.053596 -0.009962
# 6 -0.001300 0.000357 0.002545 -0.001150 -0.009962 0.021915
#
#
# Mechanical properties :
#
#
# Convention : Reuss Voigt Hill
#
# Bulk Modulus (GPa) = 44.22866 56.74230 50.48548
# Shear Modulus (GPa) = 32.14163 40.59941 36.37052
#
# Velocity S-wave (km/s) = 3.74163 4.20520 3.98017
# Velocity P-wave (km/s) = 6.15881 6.94934 6.56599
#
# Compressibility (1/GPa) = 0.02260977
#
# Stress axis : x y z
#
# Youngs Moduli (GPa) = 86.95534 78.60118 83.05350
#
# Poissons Ratio (x) = 0.10532 0.18180
# Poissons Ratio (y) = 0.11651 0.27389
# Poissons Ratio (z) = 0.19034 0.25921
#
# Static dielectric constant tensor:
#      x y z
#    x 1.937760 -0.097050 0.048520 
#    y -0.097050 2.145800 0.032680 
#    z 0.048520 0.032680 1.892070 
# 
# From -- ./inp_files/608443.got.cif
#   From: 2010.05.17/outbox.cif.g08.bks.cpg/sg2_305_cif.got.tgz:608443.got - 2010.06.03 11:33:40.
