data_PCOD9059440
_publ_section_title
;
Structure prediction by ZEFSAII (Michael W. Deem and Ramdas Pophale) SiO2 
 PCOD9059440
Probable space group: P -1
;
_chemical_formula_sum "Si O2"
_cell_formula_units_Z 16
_cell_length_a 15.022009
_cell_length_b 8.445002
_cell_length_c 10.627174
_cell_angle_alpha 134.513107
_cell_angle_beta 84.488699
_cell_angle_gamma 120.636610
_cell_volume 748.465640
_symmetry_space_group_name_H-M "P -1"
_symmetry_group_IT_number 2
_symmetry_cell_setting 'triclinic'
loop_
_space_group_symop_operation_xyz
x,y,z
-x,-y,-z
loop_
_atom_site_type_symbol
_atom_site_label
_atom_site_fract_x
_atom_site_fract_y
_atom_site_fract_z
Si Si1 0.057692 0.811986 0.721680
Si Si2 0.710883 0.919114 0.474471
Si Si3 0.691770 0.427721 0.194945
Si Si4 0.440501 0.062792 0.902206
Si Si5 0.922083 0.715649 0.172831
Si Si6 0.673506 0.715286 0.081831
Si Si7 0.440685 0.925387 0.331578
Si Si8 0.045041 0.536011 0.214656
O O1 0.000000 0.500000 0.500000
O O2 0.018304 0.726386 0.825349
O O3 0.029434 0.978574 0.724643
O O4 0.195132 0.035324 0.831186
O O5 0.719569 0.694358 0.415102
O O6 0.665617 0.783385 0.266408
O O7 0.634680 0.971014 0.591287
O O8 0.835131 0.211040 0.599815
O O9 0.793556 0.559626 0.154806
O O10 0.673224 0.186451 0.148479
O O11 0.560795 0.247239 0.062282
O O12 0.412913 0.261925 0.967802
O O13 0.464011 0.932541 0.710705
O O14 0.984058 0.671967 0.252633
O O15 0.924848 0.552611 0.964558
O O16 0.636848 0.408966 0.878546
O O17 0.500000 0.000000 0.500000
#
# Coordination Sequence:
#
# PCOD9059440 Si02
#       8
#     2   2   2   2   2   2   2   2
#     4  12  23  42  70  99 134 185 230 277 344 418
#     4  12  23  43  68  97 136 178 224 277 341 404
#     4  11  23  43  67  93 135 176 224 281 337 411
#     4  11  23  41  68  98 130 179 223 276 346 401
#     4  11  24  46  67  98 142 178 224 298 340 399
#     4  12  23  44  68 100 139 174 225 282 337 401
#     4  12  24  41  71 100 135 176 225 280 340 402
#     4  11  25  43  70 102 135 182 233 282 348 411
#
# _framework density 21.377065999999999
#
# number of rings (size 3 to 8) (size 9 to 14) (size 15 to 20)
#    0.000    0.500    5.000    3.750    0.000    3.500 
#    0.000    3.750    0.000    0.000    0.000    0.000 
#    0.000    0.000    0.000    0.000    0.000    0.000 
#
# Total GULP energy -89212.123631 kJ/mol
# GULP energy per Si atom -5575.757727 kJ/mol
# Density = 2.132841 g / cm^3
# Si number density = 21.377066 Si / 1000 Ang^3
#
#
#
# Elastic Constant Matrix: (Units=GPa)
#
#
# Indices 1 2 3 4 5 6 
#
# 1 80.7171 25.0531 22.2103 10.8497 -23.2166 -2.5837
# 2 25.0531 136.5461 32.5558 26.6855 -11.8894 3.9403
# 3 22.2103 32.5558 99.7024 11.3075 -12.1199 4.2421
# 4 10.8497 26.6855 11.3075 29.2642 -1.2814 -5.8873
# 5 -23.2166 -11.8894 -12.1199 -1.2814 34.3824 3.3126
# 6 -2.5837 3.9403 4.2421 -5.8873 3.3126 29.0748
#
#
#
# Elastic Compliance Matrix: (Units=1/GPa)
#
#
# Indices 1 2 3 4 5 6 
#
# 1 0.016633 -0.000928 -0.001674 -0.004263 0.010178 -0.000175
# 2 -0.000928 0.009832 -0.001637 -0.008527 0.002182 -0.003151
# 3 -0.001674 -0.001637 0.011669 -0.002783 0.002552 -0.002484
# 4 -0.004263 -0.008527 -0.002783 0.046611 -0.006162 0.011323
# 5 0.010178 0.002182 0.002552 -0.006162 0.037895 -0.005329
# 6 -0.000175 -0.003151 -0.002484 0.011323 -0.005329 0.038068
#
#
# Mechanical properties :
#
#
# Convention : Reuss Voigt Hill
#
# Bulk Modulus (GPa) = 33.72200 52.95602 43.33901
# Shear Modulus (GPa) = 27.92197 34.35403 31.13800
#
# Velocity S-wave (km/s) = 3.61801 4.01315 3.82069
# Velocity P-wave (km/s) = 5.76736 6.80441 6.30723
#
# Compressibility (1/GPa) = 0.02965424
#
# Stress axis : x y z
#
# Youngs Moduli (GPa) = 60.12312 101.71375 85.69761
#
# Poissons Ratio (x) = 0.09442 0.14345
# Poissons Ratio (y) = 0.05581 0.14030
# Poissons Ratio (z) = 0.10064 0.16652
#
# Static dielectric constant tensor:
#      x y z
#    x 1.832210 -0.078600 -0.003490 
#    y -0.078600 1.915270 0.008370 
#    z -0.003490 0.008370 1.793280 
# 
# From -- ./inp_files/446479.got.cif
#   From: 2010.05.17/outbox.cif.g08.bks.cpg/sg2_224_cif.got.tgz:446479.got - 2010.06.03 11:33:40.
