data_PCOD9059153
_publ_section_title
;
Structure prediction by ZEFSAII (Michael W. Deem and Ramdas Pophale) SiO2 
 PCOD9059153
Probable space group: P -1
;
_chemical_formula_sum "Si O2"
_cell_formula_units_Z 16
_cell_length_a 24.568309
_cell_length_b 9.706331
_cell_length_c 9.396294
_cell_angle_alpha 120.363564
_cell_angle_beta 150.596260
_cell_angle_gamma 48.716928
_cell_volume 811.966913
_symmetry_space_group_name_H-M "P -1"
_symmetry_group_IT_number 2
_symmetry_cell_setting 'triclinic'
loop_
_space_group_symop_operation_xyz
x,y,z
-x,-y,-z
loop_
_atom_site_type_symbol
_atom_site_label
_atom_site_fract_x
_atom_site_fract_y
_atom_site_fract_z
Si Si1 0.026648 0.316405 0.873603
Si Si2 0.062466 0.796272 0.964924
Si Si3 0.505812 0.673240 0.661752
Si Si4 0.386741 0.177277 0.258669
Si Si5 0.750138 0.575717 0.347314
Si Si6 0.798221 0.842200 0.388971
Si Si7 0.776814 0.071299 0.723819
Si Si8 0.788719 0.592212 0.768084
O O1 0.881222 0.370010 0.533283
O O2 0.114466 0.328215 0.956505
O O3 0.000000 0.500000 0.000000
O O4 0.115157 0.122392 0.055911
O O5 0.942851 0.776604 0.632134
O O6 0.162887 0.795849 0.081020
O O7 0.135053 0.630838 0.157298
O O8 0.000000 0.000000 0.000000
O O9 0.500000 0.500000 0.500000
O O10 0.553533 0.750880 0.684759
O O11 0.362406 0.829213 0.467628
O O12 0.617044 0.603922 0.999634
O O13 0.309510 0.326182 0.283545
O O14 0.500000 0.000000 0.500000
O O15 0.293362 0.126479 0.934572
O O16 0.788214 0.696258 0.394860
O O17 0.730807 0.642268 0.502815
O O18 0.757126 0.017188 0.491007
#
# Coordination Sequence:
#
# PCOD9059153 Si02
#       8
#     2   2   2   2   2   2   2   2
#     4  10  17  37  65  97 120 150 212 258 296 371
#     4  10  20  37  62  96 124 152 208 260 302 362
#     4  11  26  47  60  88 131 170 206 249 311 377
#     4  11  26  41  60  93 132 154 209 266 297 363
#     4  10  20  39  71  90 122 163 211 250 307 376
#     4  10  20  39  65  94 120 162 206 253 310 367
#     4  11  21  39  69  90 125 169 203 250 315 373
#     4  11  20  38  66  94 121 159 205 259 310 355
#
# _framework density 19.705235999999999
#
# number of rings (size 3 to 8) (size 9 to 14) (size 15 to 20)
#    0.000    1.500    3.750    3.750    1.750    1.500 
#    9.000    1.875    0.000    0.000    0.000    0.000 
#    0.000    0.000    0.000    0.000    0.000    0.000 
#
# Total GULP energy -89220.486416 kJ/mol
# GULP energy per Si atom -5576.280401 kJ/mol
# Density = 1.966039 g / cm^3
# Si number density = 19.705236 Si / 1000 Ang^3
#
#
#
# Elastic Constant Matrix: (Units=GPa)
#
#
# Indices 1 2 3 4 5 6 
#
# 1 118.5949 27.3206 76.1615 -6.9372 15.4261 -1.5586
# 2 27.3206 69.5076 56.2777 -11.9503 -2.9596 6.8141
# 3 76.1615 56.2777 154.6267 -14.1600 8.9307 -1.6874
# 4 -6.9372 -11.9503 -14.1600 27.2300 5.9569 5.6657
# 5 15.4261 -2.9596 8.9307 5.9569 33.5044 -1.5501
# 6 -1.5586 6.8141 -1.6874 5.6657 -1.5501 30.0928
#
#
#
# Elastic Compliance Matrix: (Units=1/GPa)
#
#
# Indices 1 2 3 4 5 6 
#
# 1 0.012960 -0.000321 -0.005898 0.001112 -0.004622 -0.000034
# 2 -0.000321 0.022677 -0.007716 0.006658 0.002714 -0.006698
# 3 -0.005898 -0.007716 0.012424 0.001523 -0.001466 0.001776
# 4 0.001112 0.006658 0.001523 0.044771 -0.008764 -0.010245
# 5 -0.004622 0.002714 -0.001466 -0.008764 0.034278 0.002480
# 6 -0.000034 -0.006698 0.001776 -0.010245 0.002480 0.036902
#
#
# Mechanical properties :
#
#
# Convention : Reuss Voigt Hill
#
# Bulk Modulus (GPa) = 49.52522 73.58319 61.55421
# Shear Modulus (GPa) = 25.17493 30.36339 27.76916
#
# Velocity S-wave (km/s) = 3.57820 3.92966 3.75804
# Velocity P-wave (km/s) = 6.50069 7.61661 7.08066
#
# Compressibility (1/GPa) = 0.02019173
#
# Stress axis : x y z
#
# Youngs Moduli (GPa) = 77.16335 44.09776 80.48929
#
# Poissons Ratio (x) = 0.01414 0.47473
# Poissons Ratio (y) = 0.02474 0.62102
# Poissons Ratio (z) = 0.45512 0.34024
#
# Static dielectric constant tensor:
#      x y z
#    x 1.733200 -0.000010 0.037850 
#    y -0.000010 1.688490 -0.003390 
#    z 0.037850 -0.003390 1.727310 
# 
# From -- ./inp_files/352356.got.cif
#   From: 2010.05.17/outbox.cif.g08.bks.cpg/sg2_177_cif.got.tgz:352356.got - 2010.06.03 11:33:40.
