data_PCOD9059752
_publ_section_title
;
Structure prediction by ZEFSAII (Michael W. Deem and Ramdas Pophale) SiO2 
 PCOD9059752
Probable space group: P -1
;
_chemical_formula_sum "Si O2"
_cell_formula_units_Z 16
_cell_length_a 14.663879
_cell_length_b 13.587441
_cell_length_c 14.454930
_cell_angle_alpha 149.543373
_cell_angle_beta 150.305870
_cell_angle_gamma 42.048826
_cell_volume 722.949591
_symmetry_space_group_name_H-M "P -1"
_symmetry_group_IT_number 2
_symmetry_cell_setting 'triclinic'
loop_
_space_group_symop_operation_xyz
x,y,z
-x,-y,-z
loop_
_atom_site_type_symbol
_atom_site_label
_atom_site_fract_x
_atom_site_fract_y
_atom_site_fract_z
Si Si1 0.878850 0.305874 0.752438
Si Si2 0.898082 0.802428 0.880683
Si Si3 0.535142 0.297508 0.316417
Si Si4 0.526534 0.625502 0.031160
Si Si5 0.435763 0.029737 0.363413
Si Si6 0.277967 0.617901 0.633456
Si Si7 0.730631 0.342404 0.858496
Si Si8 0.811575 0.955759 0.130741
O O1 0.727860 0.250224 0.497135
O O2 0.797920 0.351813 0.819994
O O3 0.000000 0.500000 0.000000
O O4 0.017248 0.130420 0.736070
O O5 0.839926 0.575723 0.642762
O O6 0.825730 0.873847 0.973357
O O7 0.781061 0.932391 0.812142
O O8 0.119581 0.793848 0.069064
O O9 0.500000 0.500000 0.500000
O O10 0.559097 0.351987 0.274148
O O11 0.377235 0.135395 0.066268
O O12 0.522600 0.852031 0.239181
O O13 0.500000 0.500000 0.000000
O O14 0.354100 0.608813 0.796469
O O15 0.691896 0.531955 0.040967
O O16 0.500000 0.000000 0.500000
O O17 0.535202 0.231041 0.586457
O O18 0.173025 0.814729 0.681066
#
# Coordination Sequence:
#
# PCOD9059752 Si02
#       8
#     2   2   2   2   2   2   2   2
#     4  11  23  42  68 101 146 185 232 280 343 419
#     4  11  23  45  68  99 140 181 227 289 347 417
#     4  12  21  40  67  95 137 187 228 284 345 411
#     4  12  25  47  74 103 138 182 235 297 354 416
#     4  12  24  47  74  99 138 181 238 298 353 415
#     4  12  24  43  69  98 143 180 237 290 347 418
#     4  11  25  44  74 103 136 193 230 283 360 405
#     4  11  24  41  64 100 138 185 230 284 346 411
#
# _framework density 22.131557000000001
#
# number of rings (size 3 to 8) (size 9 to 14) (size 15 to 20)
#    0.000    0.500    6.250    2.625    0.000    3.000 
#    0.000    1.250    0.000    0.000    0.000    0.000 
#    0.000    0.000    0.000    0.000    0.000    0.000 
#
# Total GULP energy -89353.587185 kJ/mol
# GULP energy per Si atom -5584.599199 kJ/mol
# Density = 2.208118 g / cm^3
# Si number density = 22.131557 Si / 1000 Ang^3
#
#
#
# Elastic Constant Matrix: (Units=GPa)
#
#
# Indices 1 2 3 4 5 6 
#
# 1 64.0306 22.0726 20.3055 -1.2419 -12.7167 0.9867
# 2 22.0726 134.4857 37.1306 -10.3706 -7.5371 2.9414
# 3 20.3055 37.1306 50.4137 3.4360 -10.1568 -11.1043
# 4 -1.2419 -10.3706 3.4360 51.0512 -5.9882 -6.8610
# 5 -12.7167 -7.5371 -10.1568 -5.9882 29.1359 3.4735
# 6 0.9867 2.9414 -11.1043 -6.8610 3.4735 33.6546
#
#
#
# Elastic Compliance Matrix: (Units=1/GPa)
#
#
# Indices 1 2 3 4 5 6 
#
# 1 0.019376 -0.000826 -0.006647 0.001094 0.006525 -0.003139
# 2 -0.000826 0.009960 -0.007746 0.002159 0.000316 -0.002994
# 3 -0.006647 -0.007746 0.031543 -0.001935 0.004450 0.010426
# 4 0.001094 0.002159 -0.001935 0.021095 0.004340 0.002993
# 5 0.006525 0.000316 0.004450 0.004340 0.039932 -0.001987
# 6 -0.003139 -0.002994 0.010426 0.002993 -0.001987 0.034323
#
#
# Mechanical properties :
#
#
# Convention : Reuss Voigt Hill
#
# Bulk Modulus (GPa) = 32.85107 45.32749 39.08928
# Shear Modulus (GPa) = 25.40488 34.06311 29.73399
#
# Velocity S-wave (km/s) = 3.39175 3.92742 3.66937
# Velocity P-wave (km/s) = 5.49676 6.41027 5.97101
#
# Compressibility (1/GPa) = 0.03044041
#
# Stress axis : x y z
#
# Youngs Moduli (GPa) = 51.61088 100.40606 31.70285
#
# Poissons Ratio (x) = 0.08294 0.21074
# Poissons Ratio (y) = 0.04263 0.24556
# Poissons Ratio (z) = 0.34307 0.77771
#
# Static dielectric constant tensor:
#      x y z
#    x 1.797040 -0.039370 -0.016920 
#    y -0.039370 1.986180 -0.024830 
#    z -0.016920 -0.024830 1.795900 
# 
# From -- ./inp_files/534646.got.cif
#   From: 2010.05.17/outbox.cif.g08.bks.cpg/sg2_268_cif.got.tgz:534646.got - 2010.06.03 11:33:40.
