data_PCOD9059606
_publ_section_title
;
Structure prediction by ZEFSAII (Michael W. Deem and Ramdas Pophale) SiO2 
 PCOD9059606
Probable space group: P -1
;
_chemical_formula_sum "Si O2"
_cell_formula_units_Z 14
_cell_length_a 18.139945
_cell_length_b 5.855108
_cell_length_c 11.479110
_cell_angle_alpha 110.564386
_cell_angle_beta 30.431456
_cell_angle_gamma 96.626981
_cell_volume 531.096385
_symmetry_space_group_name_H-M "P -1"
_symmetry_group_IT_number 2
_symmetry_cell_setting 'triclinic'
loop_
_space_group_symop_operation_xyz
x,y,z
-x,-y,-z
loop_
_atom_site_type_symbol
_atom_site_label
_atom_site_fract_x
_atom_site_fract_y
_atom_site_fract_z
Si Si1 0.581118 0.256471 0.759626
Si Si2 0.683408 0.749869 0.166244
Si Si3 0.915645 0.301659 0.614560
Si Si4 0.619041 0.371197 0.481074
Si Si5 0.100289 0.521215 0.981079
Si Si6 0.631925 0.027813 0.068384
Si Si7 0.814966 0.959577 0.565603
O O1 0.664538 0.314558 0.544787
O O2 0.447317 0.182736 0.871609
O O3 0.691788 0.007158 0.638472
O O4 0.500000 0.500000 0.000000
O O5 0.500753 0.766340 0.425727
O O6 0.777206 0.731718 0.156989
O O7 0.715384 0.944848 0.064206
O O8 0.779184 0.462533 0.921212
O O9 0.000000 0.500000 0.500000
O O10 0.145867 0.777605 0.435909
O O11 0.000000 0.000000 0.500000
O O12 0.779753 0.340963 0.192748
O O13 0.501882 0.680890 0.691008
O O14 0.000000 0.500000 0.000000
O O15 0.966095 0.698241 0.285704
O O16 0.729947 0.973758 0.806678
#
# Coordination Sequence:
#
# PCOD9059606 Si02
#       7
#     2   2   2   2   2   2   2
#     4  11  23  41  75 112 146 203 262 331 401 478
#     4  11  25  48  79 111 149 210 274 326 400 483
#     4  12  25  46  78 124 156 203 274 351 411 465
#     4  11  25  49  73 109 153 207 269 317 403 492
#     4  12  29  47  73 115 168 210 255 330 419 493
#     4  11  23  45  81 111 147 200 278 336 390 471
#     4  12  24  47  78 117 159 203 264 346 408 476
#
# _framework density 26.360564
#
# number of rings (size 3 to 8) (size 9 to 14) (size 15 to 20)
#    0.000    0.571    4.286    3.429    2.000    2.286 
#    0.000    4.286    0.000    0.000    0.000    0.000 
#    0.000    0.000    0.000    0.000    0.000    0.000 
#
# Total GULP energy -78282.582724 kJ/mol
# GULP energy per Si atom -5591.613052 kJ/mol
# Density = 2.630057 g / cm^3
# Si number density = 26.360564 Si / 1000 Ang^3
#
#
#
# Elastic Constant Matrix: (Units=GPa)
#
#
# Indices 1 2 3 4 5 6 
#
# 1 157.8119 48.1140 31.6824 -7.8609 -4.9454 -28.0535
# 2 48.1140 100.0116 39.0419 -17.1665 7.0027 -20.1842
# 3 31.6824 39.0419 134.5975 -11.0549 0.9361 -22.2014
# 4 -7.8609 -17.1665 -11.0549 34.2705 -4.7330 2.7594
# 5 -4.9454 7.0027 0.9361 -4.7330 41.9010 3.7183
# 6 -28.0535 -20.1842 -22.2014 2.7594 3.7183 63.5272
#
#
#
# Elastic Compliance Matrix: (Units=1/GPa)
#
#
# Indices 1 2 3 4 5 6 
#
# 1 0.007856 -0.003206 -0.000568 0.000015 0.001284 0.002176
# 2 -0.003206 0.013954 -0.002532 0.004958 -0.002276 0.002051
# 3 -0.000568 -0.002532 0.008720 0.001278 0.000134 0.001929
# 4 0.000015 0.004958 0.001278 0.032424 0.002766 0.000458
# 5 0.001284 -0.002276 0.000134 0.002766 0.024857 -0.001684
# 6 0.002176 0.002051 0.001929 0.000458 -0.001684 0.018107
#
#
# Mechanical properties :
#
#
# Convention : Reuss Voigt Hill
#
# Bulk Modulus (GPa) = 55.80763 70.01086 62.90924
# Shear Modulus (GPa) = 40.16065 46.17859 43.16962
#
# Velocity S-wave (km/s) = 3.90745 4.19000 4.05119
# Velocity P-wave (km/s) = 6.44782 7.07282 6.76754
#
# Compressibility (1/GPa) = 0.01791870
#
# Stress axis : x y z
#
# Youngs Moduli (GPa) = 127.29239 71.66613 114.68248
#
# Poissons Ratio (x) = 0.22974 0.06514
# Poissons Ratio (y) = 0.40807 0.29032
# Poissons Ratio (z) = 0.07231 0.18142
#
# Static dielectric constant tensor:
#      x y z
#    x 2.213590 0.005270 -0.069160 
#    y 0.005270 2.118670 0.005620 
#    z -0.069160 0.005620 2.150720 
# 
# From -- ./inp_files/468091.got.cif
#   From: 2010.05.17/outbox.cif.g08.bks.cpg/sg2_235_cif.got.tgz:468091.got - 2010.06.03 11:33:40.
