data_PCOD9059147
_publ_section_title
;
Structure prediction by ZEFSAII (Michael W. Deem and Ramdas Pophale) SiO2 
 PCOD9059147
Probable space group: P -1
;
_chemical_formula_sum "Si O2"
_cell_formula_units_Z 16
_cell_length_a 10.053223
_cell_length_b 16.566124
_cell_length_c 11.636636
_cell_angle_alpha 45.270886
_cell_angle_beta 127.784577
_cell_angle_gamma 90.879731
_cell_volume 731.163470
_symmetry_space_group_name_H-M "P -1"
_symmetry_group_IT_number 2
_symmetry_cell_setting 'triclinic'
loop_
_space_group_symop_operation_xyz
x,y,z
-x,-y,-z
loop_
_atom_site_type_symbol
_atom_site_label
_atom_site_fract_x
_atom_site_fract_y
_atom_site_fract_z
Si Si1 0.162973 0.253046 0.157214
Si Si2 0.373622 0.551213 0.564160
Si Si3 0.623880 0.259961 0.810329
Si Si4 0.562719 0.110900 0.348144
Si Si5 0.889674 0.681246 0.276335
Si Si6 0.132739 0.399217 0.411780
Si Si7 0.058788 0.910568 0.499698
Si Si8 0.874224 0.379243 0.114118
O O1 0.430873 0.168533 0.344374
O O2 0.038989 0.327440 0.141038
O O3 0.213580 0.093294 0.330575
O O4 0.980712 0.416574 0.813107
O O5 0.514594 0.371938 0.758598
O O6 0.315300 0.666603 0.314181
O O7 0.122179 0.646580 0.404096
O O8 0.586693 0.505636 0.799043
O O9 0.401169 0.294743 0.606492
O O10 0.854648 0.063954 0.152896
O O11 0.670682 0.179668 0.306868
O O12 0.356038 0.180436 0.072022
O O13 0.000000 0.500000 0.500000
O O14 0.826047 0.703840 0.355089
O O15 0.936690 0.439756 0.182407
O O16 0.041277 0.785889 0.630077
O O17 0.000000 0.000000 0.500000
#
# Coordination Sequence:
#
# PCOD9059147 Si02
#       8
#     2   2   2   2   2   2   2   2
#     4  11  23  42  67  97 130 175 216 271 326 390
#     4  11  23  40  68  97 128 169 226 272 315 390
#     4  11  23  40  68  97 128 169 226 272 315 390
#     4  11  24  42  70 101 128 170 225 278 324 378
#     4  12  23  41  66  99 134 172 220 274 323 388
#     4  12  26  45  67  97 137 178 215 266 339 397
#     4  12  23  41  66  99 134 172 220 274 323 388
#     4  12  26  45  67  97 137 178 215 266 339 397
#
# _framework density 21.882933000000001
#
# number of rings (size 3 to 8) (size 9 to 14) (size 15 to 20)
#    0.000    0.500    6.250    1.875    7.000    1.000 
#    0.000    0.000    0.000    2.250    0.000    0.000 
#    0.000    0.000    0.000    0.000    0.000    0.000 
#
# Total GULP energy -89375.408011 kJ/mol
# GULP energy per Si atom -5585.963001 kJ/mol
# Density = 2.183313 g / cm^3
# Si number density = 21.882933 Si / 1000 Ang^3
#
#
#
# Elastic Constant Matrix: (Units=GPa)
#
#
# Indices 1 2 3 4 5 6 
#
# 1 145.8221 20.8090 35.4824 -0.3097 -8.9512 20.1939
# 2 20.8090 45.6743 29.3085 12.2203 1.3004 19.4483
# 3 35.4824 29.3085 138.5490 7.5560 -6.8911 12.1315
# 4 -0.3097 12.2203 7.5560 26.4503 12.3473 3.3688
# 5 -8.9512 1.3004 -6.8911 12.3473 31.7604 -1.3460
# 6 20.1939 19.4483 12.1315 3.3688 -1.3460 18.6330
#
#
#
# Elastic Compliance Matrix: (Units=1/GPa)
#
#
# Indices 1 2 3 4 5 6 
#
# 1 0.008445 0.000683 -0.001496 0.000705 0.001376 -0.008919
# 2 0.000683 0.048291 -0.005576 -0.015574 0.001169 -0.044613
# 3 -0.001496 -0.005576 0.008780 -0.001296 0.002306 0.002127
# 4 0.000705 -0.015574 -0.001296 0.054215 -0.020307 0.005066
# 5 0.001376 0.001169 0.002306 -0.020307 0.040321 0.002372
# 6 -0.008919 -0.044613 0.002127 0.005066 0.002372 0.107771
#
#
# Mechanical properties :
#
#
# Convention : Reuss Voigt Hill
#
# Bulk Modulus (GPa) = 18.96232 55.69390 37.32811
# Shear Modulus (GPa) = 16.76827 31.66512 24.21670
#
# Velocity S-wave (km/s) = 2.77116 3.80810 3.33024
# Velocity P-wave (km/s) = 4.35009 6.69639 5.64646
#
# Compressibility (1/GPa) = 0.05273616
#
# Stress axis : x y z
#
# Youngs Moduli (GPa) = 118.40669 20.70758 113.89972
#
# Poissons Ratio (x) = -0.01413 0.17043
# Poissons Ratio (y) = -0.08082 0.63516
# Poissons Ratio (z) = 0.17717 0.11547
#
# Static dielectric constant tensor:
#      x y z
#    x 1.830260 -0.029070 0.001150 
#    y -0.029070 1.824490 0.032420 
#    z 0.001150 0.032420 1.828120 
# 
# From -- ./inp_files/402885.got.cif
#   From: 2010.05.17/outbox.cif.g08.bks.cpg/sg2_202_cif.got.tgz:402885.got - 2010.06.03 11:33:40.
