data_PCOD9059373
_publ_section_title
;
Structure prediction by ZEFSAII (Michael W. Deem and Ramdas Pophale) SiO2 
 PCOD9059373
Probable space group: P -1
;
_chemical_formula_sum "Si O2"
_cell_formula_units_Z 15
_cell_length_a 12.727355
_cell_length_b 19.588343
_cell_length_c 16.123986
_cell_angle_alpha 154.676452
_cell_angle_beta 156.176151
_cell_angle_gamma 24.911858
_cell_volume 615.423059
_symmetry_space_group_name_H-M "P -1"
_symmetry_group_IT_number 2
_symmetry_cell_setting 'triclinic'
loop_
_space_group_symop_operation_xyz
x,y,z
-x,-y,-z
loop_
_atom_site_type_symbol
_atom_site_label
_atom_site_fract_x
_atom_site_fract_y
_atom_site_fract_z
Si Si1 0.313899 0.782733 0.333243
Si Si2 0.740442 0.006795 0.619842
Si Si3 0.215248 0.076464 0.706776
Si Si4 0.163838 0.858135 0.891548
Si Si5 0.500000 0.000000 0.000000
Si Si6 0.151193 0.339966 0.167012
Si Si7 0.855116 0.693906 0.231613
Si Si8 0.860368 0.495637 0.483997
O O1 0.515963 0.600131 0.325194
O O2 0.390777 0.808060 0.322863
O O3 0.372288 0.928403 0.585620
O O4 0.985315 0.800690 0.107899
O O5 0.856677 0.839454 0.457492
O O6 0.029301 0.977370 0.844566
O O7 0.500000 0.000000 0.500000
O O8 0.056213 0.266446 0.751804
O O9 0.419534 0.073964 0.925582
O O10 0.000000 0.000000 0.500000
O O11 0.061704 0.704285 0.652684
O O12 0.509753 0.757011 0.039833
O O13 0.000000 0.000000 0.000000
O O14 0.483807 0.196372 0.234348
O O15 0.025504 0.502599 0.189975
O O16 0.086690 0.410695 0.292780
O O17 0.000000 0.500000 0.500000
#
# Coordination Sequence:
#
# PCOD9059373 Si02
#       8
#     2   2   2   2   1   2   2   2
#     4  11  25  43  72 101 146 186 239 300 358 430
#     4  11  23  41  67 103 145 194 236 287 352 435
#     4  11  25  48  74 105 137 185 243 310 366 427
#     4  12  25  41  68 105 147 195 239 288 360 434
#     4  12  26  46  80 102 138 184 246 302 370 422
#     4  12  26  48  71 109 142 194 245 300 366 429
#     4  11  26  44  70 103 149 186 240 302 361 437
#     4  12  27  43  70 108 151 191 240 295 353 443
#
# _framework density 24.373477999999999
#
# number of rings (size 3 to 8) (size 9 to 14) (size 15 to 20)
#    0.000    0.533    6.667    0.800    5.600    1.067 
#    0.000    0.667    0.000    0.000    0.000    0.000 
#    0.000    0.000    0.000    0.000    0.000    0.000 
#
# Total GULP energy -83535.101712 kJ/mol
# GULP energy per Si atom -5569.006781 kJ/mol
# Density = 2.431800 g / cm^3
# Si number density = 24.373478 Si / 1000 Ang^3
#
#
#
# Elastic Constant Matrix: (Units=GPa)
#
#
# Indices 1 2 3 4 5 6 
#
# 1 124.2577 42.4656 38.9851 0.8948 -21.3200 37.0256
# 2 42.4656 133.6503 17.6310 -0.6401 -16.4030 38.5012
# 3 38.9851 17.6310 93.9301 -2.3363 -30.4819 4.2861
# 4 0.8948 -0.6401 -2.3363 40.7192 2.0909 -11.8190
# 5 -21.3200 -16.4030 -30.4819 2.0909 42.7917 -3.3551
# 6 37.0256 38.5012 4.2861 -11.8190 -3.3551 34.7881
#
#
#
# Elastic Compliance Matrix: (Units=1/GPa)
#
#
# Indices 1 2 3 4 5 6 
#
# 1 0.015541 0.001850 -0.004829 -0.006546 0.003776 -0.019854
# 2 0.001850 0.012325 -0.001242 -0.004982 0.003688 -0.016793
# 3 -0.004829 -0.001242 0.015405 0.002344 0.008465 0.006229
# 4 -0.006546 -0.004982 0.002344 0.031478 -0.003270 0.022571
# 5 0.003776 0.003688 0.008465 -0.003270 0.032294 -0.007140
# 6 -0.019854 -0.016793 0.006229 0.022571 -0.007140 0.074675
#
#
# Mechanical properties :
#
#
# Convention : Reuss Voigt Hill
#
# Bulk Modulus (GPa) = 28.71183 61.11127 44.91155
# Shear Modulus (GPa) = 24.78083 40.51023 32.64553
#
# Velocity S-wave (km/s) = 3.19205 4.08126 3.66373
# Velocity P-wave (km/s) = 5.03896 6.88013 6.03023
#
# Compressibility (1/GPa) = 0.03482885
#
# Stress axis : x y z
#
# Youngs Moduli (GPa) = 64.34386 81.13804 64.91472
#
# Poissons Ratio (x) = -0.15014 0.31350
# Poissons Ratio (y) = -0.11906 0.08063
# Poissons Ratio (z) = 0.31074 0.10078
#
# Static dielectric constant tensor:
#      x y z
#    x 1.889340 0.329030 -0.152320 
#    y 0.329030 1.361490 0.209180 
#    z -0.152320 0.209180 1.928380 
# 
# From -- ./inp_files/236849.got.cif
#   From: 2010.05.17/outbox.cif.g08.bks.cpg/sg2_119_cif.got.tgz:236849.got - 2010.06.03 11:33:40.
