data_PCOD9059972
_publ_section_title
;
Structure prediction by ZEFSAII (Michael W. Deem and Ramdas Pophale) SiO2 
 PCOD9059972
Probable space group: P -1
;
_chemical_formula_sum "Si O2"
_cell_formula_units_Z 14
_cell_length_a 19.053742
_cell_length_b 7.794117
_cell_length_c 10.207810
_cell_angle_alpha 136.010752
_cell_angle_beta 138.583752
_cell_angle_gamma 30.888866
_cell_volume 501.799132
_symmetry_space_group_name_H-M "P -1"
_symmetry_group_IT_number 2
_symmetry_cell_setting 'triclinic'
loop_
_space_group_symop_operation_xyz
x,y,z
-x,-y,-z
loop_
_atom_site_type_symbol
_atom_site_label
_atom_site_fract_x
_atom_site_fract_y
_atom_site_fract_z
Si Si1 0.883322 0.839115 0.670793
Si Si2 0.159076 0.931236 0.819660
Si Si3 0.638747 0.927533 0.781944
Si Si4 0.597928 0.411803 0.463143
Si Si5 0.549909 0.123977 0.030416
Si Si6 0.820445 0.397668 0.085573
Si Si7 0.159226 0.525594 0.394757
O O1 0.896701 0.571401 0.626020
O O2 0.028876 0.702815 0.732874
O O3 0.749743 0.023299 0.485905
O O4 0.843053 0.123121 0.873337
O O5 0.231689 0.637607 0.870332
O O6 0.174958 0.767984 0.614090
O O7 0.982767 0.234897 0.768996
O O8 0.238291 0.064224 0.008585
O O9 0.640842 0.626928 0.640563
O O10 0.685647 0.827106 0.636914
O O11 0.513365 0.190416 0.861477
O O12 0.500000 0.500000 0.500000
O O13 0.531119 0.415995 0.236912
O O14 0.718184 0.753091 0.060963
O O15 0.500000 0.000000 0.000000
#
# Coordination Sequence:
#
# PCOD9059972 Si02
#       7
#     2   2   2   2   2   2   2
#     4  11  23  42  72 103 137 179 229 281 337 406
#     4  11  24  41  66 103 144 179 220 278 347 409
#     4  12  23  42  68  96 134 180 221 280 337 404
#     4  12  25  46  73  97 134 181 234 285 340 404
#     4  12  25  46  73  97 134 181 234 285 340 404
#     4  11  23  42  72 103 137 179 229 281 337 406
#     4  11  24  41  66 103 144 179 220 278 347 409
#
# _framework density 27.899612000000001
#
# number of rings (size 3 to 8) (size 9 to 14) (size 15 to 20)
#    0.000    0.571    4.286    3.857    4.000    4.571 
#    0.000    1.429    0.000    0.000    0.000    0.000 
#    0.000    0.000    0.000    0.000    0.000    0.000 
#
# Total GULP energy -78323.315939 kJ/mol
# GULP energy per Si atom -5594.522567 kJ/mol
# Density = 2.783611 g / cm^3
# Si number density = 27.899612 Si / 1000 Ang^3
#
#
#
# Elastic Constant Matrix: (Units=GPa)
#
#
# Indices 1 2 3 4 5 6 
#
# 1 168.6909 10.1767 36.6388 6.3010 4.8757 -3.1345
# 2 10.1767 79.0015 15.5801 7.1458 4.6319 -0.8837
# 3 36.6388 15.5801 163.9418 30.4963 -2.6819 -2.4219
# 4 6.3010 7.1458 30.4963 50.9188 -3.7401 -5.1837
# 5 4.8757 4.6319 -2.6819 -3.7401 48.1682 15.8079
# 6 -3.1345 -0.8837 -2.4219 -5.1837 15.8079 40.7647
#
#
#
# Elastic Compliance Matrix: (Units=1/GPa)
#
#
# Indices 1 2 3 4 5 6 
#
# 1 0.006294 -0.000487 -0.001389 0.000132 -0.000907 0.000759
# 2 -0.000487 0.013117 -0.000915 -0.001283 -0.001572 0.000639
# 3 -0.001389 -0.000915 0.007252 -0.004049 0.000444 -0.000383
# 4 0.000132 -0.001283 -0.004049 0.022524 0.000892 0.002260
# 5 -0.000907 -0.001572 0.000444 0.000892 0.024160 -0.009333
# 6 0.000759 0.000639 -0.000383 0.002260 -0.009333 0.028487
#
#
# Mechanical properties :
#
#
# Convention : Reuss Voigt Hill
#
# Bulk Modulus (GPa) = 47.43680 59.60282 53.51981
# Shear Modulus (GPa) = 43.68980 51.25292 47.47136
#
# Velocity S-wave (km/s) = 3.96152 4.29073 4.12941
# Velocity P-wave (km/s) = 6.16153 6.77915 6.47770
#
# Compressibility (1/GPa) = 0.02108068
#
# Stress axis : x y z
#
# Youngs Moduli (GPa) = 158.87228 76.23912 137.89489
#
# Poissons Ratio (x) = 0.03715 0.19147
# Poissons Ratio (y) = 0.07741 0.12622
# Poissons Ratio (z) = 0.22060 0.06978
#
# Static dielectric constant tensor:
#      x y z
#    x 2.191310 -0.027130 -0.103260 
#    y -0.027130 2.322110 -0.087090 
#    z -0.103260 -0.087090 2.165120 
# 
# From -- ./inp_files/256096.got.cif
#   From: 2010.05.17/outbox.cif.g08.bks.cpg/sg2_129_cif.got.tgz:256096.got - 2010.06.03 11:33:40.
