data_PCOD9059682
_publ_section_title
;
Structure prediction by ZEFSAII (Michael W. Deem and Ramdas Pophale) SiO2 
 PCOD9059682
Probable space group: P -1
;
_chemical_formula_sum "Si O2"
_cell_formula_units_Z 16
_cell_length_a 18.900538
_cell_length_b 8.286384
_cell_length_c 9.572576
_cell_angle_alpha 47.789224
_cell_angle_beta 127.734292
_cell_angle_gamma 96.244124
_cell_volume 752.119373
_symmetry_space_group_name_H-M "P -1"
_symmetry_group_IT_number 2
_symmetry_cell_setting 'triclinic'
loop_
_space_group_symop_operation_xyz
x,y,z
-x,-y,-z
loop_
_atom_site_type_symbol
_atom_site_label
_atom_site_fract_x
_atom_site_fract_y
_atom_site_fract_z
Si Si1 0.243265 0.986112 0.667696
Si Si2 0.465160 0.161113 0.220192
Si Si3 0.243475 0.809938 0.237771
Si Si4 0.900241 0.425800 0.804183
Si Si5 0.597518 0.208317 0.789607
Si Si6 0.355331 0.725066 0.705466
Si Si7 0.981309 0.739899 0.252280
Si Si8 0.048739 0.000196 0.412438
O O1 0.167910 0.272317 0.458920
O O2 0.170760 0.868120 0.667858
O O3 0.265592 0.958728 0.546734
O O4 0.350478 0.858203 0.956056
O O5 0.554668 0.205057 0.237715
O O6 0.500000 0.000000 0.500000
O O7 0.433102 0.997951 0.177538
O O8 0.380310 0.462087 0.964600
O O9 0.187389 0.651432 0.233177
O O10 0.309435 0.823825 0.181246
O O11 0.322740 0.699079 0.526464
O O12 0.143674 0.075721 0.012341
O O13 0.961176 0.323711 0.789897
O O14 0.984743 0.288955 0.108796
O O15 0.500000 0.500000 0.500000
O O16 0.000000 0.500000 0.500000
O O17 0.028093 0.864000 0.338992
O O18 0.000000 0.000000 0.500000
#
# Coordination Sequence:
#
# PCOD9059682 Si02
#       8
#     2   2   2   2   2   2   2   2
#     4  12  25  42  67 104 135 180 227 282 357 410
#     4  11  24  49  69  97 137 182 237 298 339 408
#     4  11  23  44  68 100 135 184 234 273 352 423
#     4  11  23  43  68 100 142 177 226 290 346 422
#     4  12  27  45  70 101 145 182 233 294 348 412
#     4  11  25  43  74  99 133 185 237 281 352 410
#     4  11  23  43  71  99 137 185 226 284 349 422
#     4  11  23  42  66  99 140 172 228 285 342 419
#
# _framework density 21.273219000000001
#
# number of rings (size 3 to 8) (size 9 to 14) (size 15 to 20)
#    0.000    0.750    1.250    7.875    3.500    2.500 
#    4.500    0.000    0.000    0.000    0.000    0.000 
#    0.000    0.000    0.000    0.000    0.000    0.000 
#
# Total GULP energy -89289.945592 kJ/mol
# GULP energy per Si atom -5580.621600 kJ/mol
# Density = 2.122480 g / cm^3
# Si number density = 21.273219 Si / 1000 Ang^3
#
#
#
# Elastic Constant Matrix: (Units=GPa)
#
#
# Indices 1 2 3 4 5 6 
#
# 1 85.3012 36.8327 2.6039 -13.0974 1.1098 14.3673
# 2 36.8327 80.4101 38.1203 -6.1183 0.9046 8.4675
# 3 2.6039 38.1203 92.0730 -1.9242 -6.9601 15.8281
# 4 -13.0974 -6.1183 -1.9242 34.6581 -2.0590 7.0861
# 5 1.1098 0.9046 -6.9601 -2.0590 40.9042 4.1657
# 6 14.3673 8.4675 15.8281 7.0861 4.1657 40.8102
#
#
#
# Elastic Compliance Matrix: (Units=1/GPa)
#
#
# Indices 1 2 3 4 5 6 
#
# 1 0.017908 -0.009194 0.004900 0.007091 0.001693 -0.007701
# 2 -0.009194 0.020511 -0.008895 -0.001047 -0.002058 0.002823
# 3 0.004900 -0.008895 0.015925 0.002794 0.003618 -0.006910
# 4 0.007091 -0.001047 0.002794 0.033623 0.002966 -0.009504
# 5 0.001693 -0.002058 0.003618 0.002966 0.025691 -0.004710
# 6 -0.007701 0.002823 -0.006910 -0.009504 -0.004710 0.031440
#
#
# Mechanical properties :
#
#
# Convention : Reuss Voigt Hill
#
# Bulk Modulus (GPa) = 35.75792 45.87758 40.81775
# Shear Modulus (GPa) = 27.65535 35.28967 31.47251
#
# Velocity S-wave (km/s) = 3.60947 4.07735 3.85053
# Velocity P-wave (km/s) = 5.84948 6.61658 6.24482
#
# Compressibility (1/GPa) = 0.02796584
#
# Stress axis : x y z
#
# Youngs Moduli (GPa) = 55.84211 48.75501 62.79549
#
# Poissons Ratio (x) = 0.44827 -0.30772
# Poissons Ratio (y) = 0.51343 0.55854
# Poissons Ratio (z) = -0.27364 0.43365
#
# Static dielectric constant tensor:
#      x y z
#    x 0.932480 1.088030 -0.835180 
#    y 1.088030 0.455710 1.037130 
#    z -0.835180 1.037130 0.950290 
# 
# From -- ./inp_files/328482.got.cif
#   From: 2010.05.17/outbox.cif.g08.bks.cpg/sg2_165_cif.got.tgz:328482.got - 2010.06.03 11:33:40.
