data_PCOD9059531
_publ_section_title
;
Structure prediction by ZEFSAII (Michael W. Deem and Ramdas Pophale) SiO2 
 PCOD9059531
Probable space group: P -1
;
_chemical_formula_sum "Si O2"
_cell_formula_units_Z 16
_cell_length_a 18.133602
_cell_length_b 7.272750
_cell_length_c 9.499384
_cell_angle_alpha 77.270571
_cell_angle_beta 141.982390
_cell_angle_gamma 120.394971
_cell_volume 626.962992
_symmetry_space_group_name_H-M "P -1"
_symmetry_group_IT_number 2
_symmetry_cell_setting 'triclinic'
loop_
_space_group_symop_operation_xyz
x,y,z
-x,-y,-z
loop_
_atom_site_type_symbol
_atom_site_label
_atom_site_fract_x
_atom_site_fract_y
_atom_site_fract_z
Si Si1 0.432338 0.702325 0.796926
Si Si2 0.785651 0.795721 0.757273
Si Si3 0.433888 0.281827 0.738355
Si Si4 0.575168 0.326842 0.659421
Si Si5 0.032073 0.169453 0.228955
Si Si6 0.127114 0.513366 0.514569
Si Si7 0.104966 0.880995 0.583105
Si Si8 0.357407 0.011696 0.157093
O O1 0.434599 0.495976 0.764220
O O2 0.280935 0.597318 0.663498
O O3 0.498864 0.885687 0.743484
O O4 0.542610 0.817339 0.071868
O O5 0.714490 0.888944 0.533753
O O6 0.657142 0.561723 0.663002
O O7 0.881990 0.759013 0.800549
O O8 0.877284 0.959100 0.991459
O O9 0.552155 0.356301 0.783413
O O10 0.427630 0.162020 0.377501
O O11 0.677610 0.234016 0.820442
O O12 0.027393 0.370822 0.256030
O O13 0.097286 0.068203 0.451483
O O14 0.131255 0.724258 0.548374
O O15 0.050911 0.310843 0.551064
O O16 0.230998 0.993378 0.874583
#
# Coordination Sequence:
#
# PCOD9059531 Si02
#       8
#     2   2   2   2   2   2   2   2
#     4  11  24  44  74 104 144 184 244 301 354 430
#     4  11  24  44  68 107 140 190 239 293 360 438
#     4  11  23  41  71 101 139 188 234 296 355 420
#     4  11  25  43  72 103 151 183 236 303 361 432
#     4  11  25  46  74 100 145 195 241 292 363 435
#     4  11  25  47  69 109 145 182 240 308 354 422
#     4  11  27  45  76 106 143 191 248 296 360 432
#     4  11  25  46  71 108 142 191 238 300 369 423
#
# _framework density 25.519846999999999
#
# number of rings (size 3 to 8) (size 9 to 14) (size 15 to 20)
#    0.000    1.000    2.500    2.250    8.750    3.000 
#    0.000    2.500    0.000    0.000    0.000    0.000 
#    0.000    0.000    0.000    0.000    0.000    0.000 
#
# Total GULP energy -89466.046388 kJ/mol
# GULP energy per Si atom -5591.627899 kJ/mol
# Density = 2.546176 g / cm^3
# Si number density = 25.519847 Si / 1000 Ang^3
#
#
#
# Elastic Constant Matrix: (Units=GPa)
#
#
# Indices 1 2 3 4 5 6 
#
# 1 156.7167 43.3093 34.9751 16.3519 -22.6922 -1.3740
# 2 43.3093 65.6484 17.6407 2.9593 -6.1018 -8.0311
# 3 34.9751 17.6407 145.9998 0.8363 -28.6429 -17.5358
# 4 16.3519 2.9593 0.8363 25.0881 1.8065 -6.9863
# 5 -22.6922 -6.1018 -28.6429 1.8065 40.8788 9.1349
# 6 -1.3740 -8.0311 -17.5358 -6.9863 9.1349 38.7320
#
#
#
# Elastic Compliance Matrix: (Units=1/GPa)
#
#
# Indices 1 2 3 4 5 6 
#
# 1 0.009599 -0.005739 -0.001059 -0.006933 0.004869 -0.003728
# 2 -0.005739 0.019477 -0.000853 0.002849 -0.001993 0.004433
# 3 -0.001059 -0.000853 0.008414 0.000934 0.004538 0.002693
# 4 -0.006933 0.002849 0.000934 0.047629 -0.007353 0.011093
# 5 0.004869 -0.001993 0.004538 -0.007353 0.031947 -0.007047
# 6 -0.003728 0.004433 0.002693 0.011093 -0.007047 0.031488
#
#
# Mechanical properties :
#
#
# Convention : Reuss Voigt Hill
#
# Bulk Modulus (GPa) = 45.07018 62.24612 53.65815
# Shear Modulus (GPa) = 29.19660 39.10243 34.14951
#
# Velocity S-wave (km/s) = 3.38609 3.91863 3.66205
# Velocity P-wave (km/s) = 5.74340 6.70212 6.24119
#
# Compressibility (1/GPa) = 0.02218762
#
# Stress axis : x y z
#
# Youngs Moduli (GPa) = 104.17741 51.34343 118.84357
#
# Poissons Ratio (x) = 0.29466 0.12583
# Poissons Ratio (y) = 0.59788 0.10142
# Poissons Ratio (z) = 0.11030 0.04382
#
# Static dielectric constant tensor:
#      x y z
#    x 2.094210 -0.023060 0.080790 
#    y -0.023060 1.992570 0.009260 
#    z 0.080790 0.009260 2.053750 
# 
# From -- ./inp_files/328967.got.cif
#   From: 2010.05.17/outbox.cif.g08.bks.cpg/sg2_165_cif.got.tgz:328967.got - 2010.06.03 11:33:40.
