data_PCOD9059276
_publ_section_title
;
Structure prediction by ZEFSAII (Michael W. Deem and Ramdas Pophale) SiO2 
 PCOD9059276
Probable space group: P -1
;
_chemical_formula_sum "Si O2"
_cell_formula_units_Z 12
_cell_length_a 12.421163
_cell_length_b 5.228859
_cell_length_c 7.977398
_cell_angle_alpha 63.239305
_cell_angle_beta 114.582492
_cell_angle_gamma 89.508798
_cell_volume 408.270017
_symmetry_space_group_name_H-M "P -1"
_symmetry_group_IT_number 2
_symmetry_cell_setting 'triclinic'
loop_
_space_group_symop_operation_xyz
x,y,z
-x,-y,-z
loop_
_atom_site_type_symbol
_atom_site_label
_atom_site_fract_x
_atom_site_fract_y
_atom_site_fract_z
Si Si1 0.517457 0.120246 0.788026
Si Si2 0.111601 0.646920 0.020920
Si Si3 0.112455 0.218866 0.657939
Si Si4 0.692790 0.592309 0.051348
Si Si5 0.291138 0.969441 0.582661
Si Si6 0.339008 0.594169 0.383620
O O1 0.374015 0.218881 0.589422
O O2 0.640183 0.241678 0.830451
O O3 0.576983 0.811110 0.826585
O O4 0.500000 0.000000 0.000000
O O5 0.196183 0.588483 0.256326
O O6 0.199256 0.467552 0.990381
O O7 0.000000 0.500000 0.000000
O O8 0.080785 0.980771 0.835284
O O9 0.236111 0.302789 0.776261
O O10 0.000000 0.500000 0.500000
O O11 0.156669 0.074365 0.546306
O O12 0.654213 0.312348 0.183455
O O13 0.316549 0.830955 0.455907
O O14 0.500000 0.500000 0.500000
#
# Coordination Sequence:
#
# PCOD9059276 Si02
#       6
#     2   2   2   2   2   2
#     4   9  19  41  66  93 127 159 202 256 311 368
#     4  11  26  43  64  90 127 163 209 260 300 370
#     4  11  26  42  62  90 126 169 209 254 302 367
#     4  11  23  41  63  96 121 163 210 247 315 371
#     4   9  22  41  64  90 127 158 204 257 305 365
#     4   9  20  42  63  93 125 159 203 257 308 357
#
# _framework density 29.392310999999999
#
# number of rings (size 3 to 8) (size 9 to 14) (size 15 to 20)
#    1.000    1.000    1.667    0.500    4.667    4.667 
#    3.000    0.000    0.000    0.000    0.000    0.000 
#    0.000    0.000    0.000    0.000    0.000    0.000 
#
# Total GULP energy -67007.180358 kJ/mol
# GULP energy per Si atom -5583.931696 kJ/mol
# Density = 2.932541 g / cm^3
# Si number density = 29.392311 Si / 1000 Ang^3
#
#
#
# Elastic Constant Matrix: (Units=GPa)
#
#
# Indices 1 2 3 4 5 6 
#
# 1 227.1241 102.6701 114.8717 -19.2163 8.1484 38.7312
# 2 102.6701 149.7470 93.5349 -5.5272 2.2654 16.8332
# 3 114.8717 93.5349 181.9543 -19.5695 37.6258 7.0189
# 4 -19.2163 -5.5272 -19.5695 68.8237 -16.3757 0.7044
# 5 8.1484 2.2654 37.6258 -16.3757 59.3083 -8.2764
# 6 38.7312 16.8332 7.0189 0.7044 -8.2764 73.3026
#
#
#
# Elastic Compliance Matrix: (Units=1/GPa)
#
#
# Indices 1 2 3 4 5 6 
#
# 1 0.008189 -0.002955 -0.003637 0.001338 0.001222 -0.003175
# 2 -0.002955 0.011638 -0.004736 -0.000577 0.002759 -0.000341
# 3 -0.003637 -0.004736 0.011538 0.000356 -0.006376 0.001181
# 4 0.001338 -0.000577 0.000356 0.015904 0.003960 -0.000314
# 5 0.001222 0.002759 -0.006376 0.003960 0.021974 0.001774
# 6 -0.003175 -0.000341 0.001181 -0.000314 0.001774 0.015488
#
#
# Mechanical properties :
#
#
# Convention : Reuss Voigt Hill
#
# Bulk Modulus (GPa) = 114.84072 131.21984 123.03028
# Shear Modulus (GPa) = 45.33511 56.80350 51.06931
#
# Velocity S-wave (km/s) = 3.93162 4.40090 4.17286
# Velocity P-wave (km/s) = 7.73089 8.40030 8.07254
#
# Compressibility (1/GPa) = 0.00870771
#
# Stress axis : x y z
#
# Youngs Moduli (GPa) = 122.11557 85.92832 86.66985
#
# Poissons Ratio (x) = 0.25391 0.31523
# Poissons Ratio (y) = 0.36085 0.41050
# Poissons Ratio (z) = 0.44414 0.40699
#
# Static dielectric constant tensor:
#      x y z
#    x 2.183120 -0.220040 0.061450 
#    y -0.220040 3.040240 0.269220 
#    z 0.061450 0.269220 1.992150 
# 
# From -- ./inp_files/89188.got.cif
#   From: 2010.05.17/outbox.cif.g08.bks.cpg/sg2_45_cif.got.tgz:89188.got - 2010.06.03 11:33:40.
