data_PCOD9059133
_publ_section_title
;
Structure prediction by ZEFSAII (Michael W. Deem and Ramdas Pophale) SiO2 
 PCOD9059133
Probable space group: P -1
;
_chemical_formula_sum "Si O2"
_cell_formula_units_Z 14
_cell_length_a 8.916107
_cell_length_b 20.247125
_cell_length_c 13.712713
_cell_angle_alpha 163.791473
_cell_angle_beta 55.661599
_cell_angle_gamma 122.094663
_cell_volume 569.994202
_symmetry_space_group_name_H-M "P -1"
_symmetry_group_IT_number 2
_symmetry_cell_setting 'triclinic'
loop_
_space_group_symop_operation_xyz
x,y,z
-x,-y,-z
loop_
_atom_site_type_symbol
_atom_site_label
_atom_site_fract_x
_atom_site_fract_y
_atom_site_fract_z
Si Si1 0.692558 0.411689 0.259124
Si Si2 0.762003 0.269836 0.455405
Si Si3 0.591572 0.726896 0.333141
Si Si4 0.493552 0.866391 0.210721
Si Si5 0.124839 0.045446 0.344241
Si Si6 0.138828 0.326069 0.142040
Si Si7 0.075801 0.192141 0.356001
O O1 0.500000 0.500000 0.500000
O O2 0.824366 0.625353 0.492854
O O3 0.658139 0.311218 0.019578
O O4 0.767497 0.197487 0.999086
O O5 0.549151 0.223079 0.455324
O O6 0.795569 0.527203 0.766389
O O7 0.860657 0.241141 0.483833
O O8 0.872005 0.074292 0.074941
O O9 0.537876 0.930538 0.567257
O O10 0.800049 0.760438 0.333095
O O11 0.500000 0.500000 0.000000
O O12 0.500000 0.000000 0.500000
O O13 0.687182 0.729750 0.934573
O O14 0.142983 0.180517 0.425896
O O15 0.934421 0.921782 0.220993
O O16 0.000000 0.500000 0.500000
#
# Coordination Sequence:
#
# PCOD9059133 Si02
#       7
#     2   2   2   2   2   2   2
#     4  11  24  42  67 104 142 181 238 294 349 426
#     4  11  24  41  69 100 143 175 232 292 352 416
#     4  11  26  47  66  98 139 188 236 286 351 430
#     4  11  26  46  70 102 147 188 232 294 367 421
#     4  11  24  43  67 102 135 180 232 289 348 415
#     4  12  23  44  72 106 142 186 235 296 356 422
#     4  11  23  40  68 103 135 177 231 289 350 404
#
# _framework density 24.561654000000001
#
# number of rings (size 3 to 8) (size 9 to 14) (size 15 to 20)
#    0.000    0.857    2.857    4.286    6.000    1.143 
#    2.571    3.571    0.000    0.000    0.000    0.000 
#    0.000    0.000    0.000    0.000    0.000    0.000 
#
# Total GULP energy -78072.184627 kJ/mol
# GULP energy per Si atom -5576.584616 kJ/mol
# Density = 2.450575 g / cm^3
# Si number density = 24.561654 Si / 1000 Ang^3
#
#
#
# Elastic Constant Matrix: (Units=GPa)
#
#
# Indices 1 2 3 4 5 6 
#
# 1 113.4295 15.6814 20.0637 6.7325 25.6078 -20.7060
# 2 15.6814 79.9021 7.2470 24.6288 14.3525 -12.0276
# 3 20.0637 7.2470 78.5552 15.9623 24.1059 -1.7521
# 4 6.7325 24.6288 15.9623 37.5496 8.5011 4.4056
# 5 25.6078 14.3525 24.1059 8.5011 29.5839 6.4846
# 6 -20.7060 -12.0276 -1.7521 4.4056 6.4846 42.7728
#
#
#
# Elastic Compliance Matrix: (Units=1/GPa)
#
#
# Indices 1 2 3 4 5 6 
#
# 1 0.013778 0.002232 0.001906 -0.002276 -0.016111 0.010052
# 2 0.002232 0.019880 0.004852 -0.013571 -0.013904 0.010375
# 3 0.001906 0.004852 0.019453 -0.008300 -0.018963 0.006814
# 4 -0.002276 -0.013571 -0.008300 0.039249 0.006287 -0.010254
# 5 -0.016111 -0.013904 -0.018963 0.006287 0.073459 -0.024270
# 6 0.010052 0.010375 0.006814 -0.010254 -0.024270 0.036178
#
#
# Mechanical properties :
#
#
# Convention : Reuss Voigt Hill
#
# Bulk Modulus (GPa) = 14.06670 39.76345 26.91507
# Shear Modulus (GPa) = 24.07160 37.24092 30.65626
#
# Velocity S-wave (km/s) = 3.13397 3.89809 3.53673
# Velocity P-wave (km/s) = 4.33995 6.04025 5.25927
#
# Compressibility (1/GPa) = 0.07108989
#
# Stress axis : x y z
#
# Youngs Moduli (GPa) = 72.58083 50.30242 51.40564
#
# Poissons Ratio (x) = -0.11227 -0.09797
# Poissons Ratio (y) = -0.16200 -0.24941
# Poissons Ratio (z) = -0.13833 -0.24406
#
# Static dielectric constant tensor:
#      x y z
#    x 2.064240 0.033850 -0.003440 
#    y 0.033850 2.000060 -0.088110 
#    z -0.003440 -0.088110 2.023770 
# 
# From -- ./inp_files/177619.got.cif
#   From: 2010.05.17/outbox.cif.g08.bks.cpg/sg2_89_cif.got.tgz:177619.got - 2010.06.03 11:33:40.
