data_PCOD9059935
_publ_section_title
;
Structure prediction by ZEFSAII (Michael W. Deem and Ramdas Pophale) SiO2 
 PCOD9059935
Probable space group: P -1
;
_chemical_formula_sum "Si O2"
_cell_formula_units_Z 14
_cell_length_a 7.918091
_cell_length_b 8.697001
_cell_length_c 14.319884
_cell_angle_alpha 121.706616
_cell_angle_beta 89.888775
_cell_angle_gamma 52.400897
_cell_volume 583.617386
_symmetry_space_group_name_H-M "P -1"
_symmetry_group_IT_number 2
_symmetry_cell_setting 'triclinic'
loop_
_space_group_symop_operation_xyz
x,y,z
-x,-y,-z
loop_
_atom_site_type_symbol
_atom_site_label
_atom_site_fract_x
_atom_site_fract_y
_atom_site_fract_z
Si Si1 0.096030 0.638576 0.991603
Si Si2 0.793051 0.771137 0.770840
Si Si3 0.400263 0.818655 0.814848
Si Si4 0.984889 0.629516 0.190491
Si Si5 0.582793 0.303710 0.022200
Si Si6 0.748777 0.405121 0.376130
Si Si7 0.798389 0.118507 0.458016
O O1 0.138760 0.583582 0.085948
O O2 0.190737 0.383245 0.862636
O O3 0.184820 0.745803 0.972646
O O4 0.804579 0.878801 0.061714
O O5 0.597504 0.772816 0.737746
O O6 0.898830 0.587126 0.801434
O O7 0.020263 0.652069 0.669071
O O8 0.661908 0.054286 0.896315
O O9 0.512118 0.655619 0.859051
O O10 0.266338 0.763099 0.741837
O O11 0.876954 0.884994 0.323211
O O12 0.500000 0.500000 0.000000
O O13 0.783123 0.302810 0.447938
O O14 0.482065 0.695503 0.451951
O O15 0.000000 0.000000 0.500000
#
# Coordination Sequence:
#
# PCOD9059935 Si02
#       7
#     2   2   2   2   2   2   2
#     4  11  23  42  71 106 145 189 233 304 373 431
#     4  12  25  43  69 109 147 193 241 299 372 442
#     4  12  23  45  71 106 149 192 239 302 368 441
#     4  11  23  42  71 105 144 182 245 300 362 438
#     4  12  25  40  66 107 153 197 241 297 373 444
#     4  11  26  50  76 103 152 194 247 312 364 435
#     4  11  25  51  78 106 143 199 253 307 367 438
#
# _framework density 23.988320000000002
#
# number of rings (size 3 to 8) (size 9 to 14) (size 15 to 20)
#    0.000    0.571    4.286    3.429    4.000    1.714 
#    2.571    6.429    0.000    0.000    0.000    0.000 
#    0.000    0.000    0.000    0.000    0.000    0.000 
#
# Total GULP energy -78156.882344 kJ/mol
# GULP energy per Si atom -5582.634453 kJ/mol
# Density = 2.393372 g / cm^3
# Si number density = 23.988320 Si / 1000 Ang^3
#
#
#
# Elastic Constant Matrix: (Units=GPa)
#
#
# Indices 1 2 3 4 5 6 
#
# 1 123.7113 24.8799 21.0454 -15.3247 -22.3231 31.6811
# 2 24.8799 146.8915 21.0256 -1.2795 3.6543 1.6844
# 3 21.0454 21.0256 99.9451 11.4117 10.5349 9.7196
# 4 -15.3247 -1.2795 11.4117 29.2170 6.7689 11.7484
# 5 -22.3231 3.6543 10.5349 6.7689 41.7002 -6.3705
# 6 31.6811 1.6844 9.7196 11.7484 -6.3705 35.2130
#
#
#
# Elastic Compliance Matrix: (Units=1/GPa)
#
#
# Indices 1 2 3 4 5 6 
#
# 1 0.016799 -0.002075 -0.003656 0.016630 0.004537 -0.018733
# 2 -0.002075 0.007310 -0.001077 -0.000877 -0.001044 0.001919
# 3 -0.003656 -0.001077 0.011967 -0.006415 -0.003612 0.001525
# 4 0.016630 -0.000877 -0.006415 0.060088 -0.004345 -0.033983
# 5 0.004537 -0.001044 -0.003612 -0.004345 0.028669 0.003601
# 6 -0.018733 0.001919 0.001525 -0.033983 0.003601 0.056730
#
#
# Mechanical properties :
#
#
# Convention : Reuss Voigt Hill
#
# Bulk Modulus (GPa) = 44.52652 56.04998 50.28825
# Shear Modulus (GPa) = 24.67128 41.46582 33.06855
#
# Velocity S-wave (km/s) = 3.21046 4.16213 3.71688
# Velocity P-wave (km/s) = 5.68725 6.82012 6.27928
#
# Compressibility (1/GPa) = 0.02245852
#
# Stress axis : x y z
#
# Youngs Moduli (GPa) = 59.52879 136.80370 83.56410
#
# Poissons Ratio (x) = 0.28389 0.30551
# Poissons Ratio (y) = 0.12353 0.09001
# Poissons Ratio (z) = 0.21764 0.14736
#
# Static dielectric constant tensor:
#      x y z
#    x 3.083360 -0.471920 0.137650 
#    y -0.471920 2.114090 -0.029480 
#    z 0.137650 -0.029480 1.933270 
# 
# From -- ./inp_files/493624.got.cif
#   From: 2010.05.17/outbox.cif.g08.bks.cpg/sg2_247_cif.got.tgz:493624.got - 2010.06.03 11:33:40.
