data_PCOD9059627
_publ_section_title
;
Structure prediction by ZEFSAII (Michael W. Deem and Ramdas Pophale) SiO2 
 PCOD9059627
Probable space group: P -1
;
_chemical_formula_sum "Si O2"
_cell_formula_units_Z 16
_cell_length_a 8.249711
_cell_length_b 16.480492
_cell_length_c 6.784747
_cell_angle_alpha 86.995409
_cell_angle_beta 100.278920
_cell_angle_gamma 54.260630
_cell_volume 722.410200
_symmetry_space_group_name_H-M "P -1"
_symmetry_group_IT_number 2
_symmetry_cell_setting 'triclinic'
loop_
_space_group_symop_operation_xyz
x,y,z
-x,-y,-z
loop_
_atom_site_type_symbol
_atom_site_label
_atom_site_fract_x
_atom_site_fract_y
_atom_site_fract_z
Si Si1 0.005527 0.181026 0.077126
Si Si2 0.682315 0.618491 0.369529
Si Si3 0.871370 0.114599 0.377361
Si Si4 0.635032 0.415677 0.868333
Si Si5 0.593817 0.163430 0.632420
Si Si6 0.904191 0.490399 0.783660
Si Si7 0.239557 0.979364 0.948546
Si Si8 0.548868 0.920584 0.693123
O O1 0.232817 0.152041 0.139600
O O2 0.989791 0.152790 0.301937
O O3 0.808493 0.296527 0.982413
O O4 0.043285 0.095213 0.941286
O O5 0.543318 0.581091 0.289236
O O6 0.547528 0.737381 0.283483
O O7 0.742768 0.594389 0.615730
O O8 0.894151 0.570794 0.304276
O O9 0.742272 0.176556 0.531859
O O10 0.776056 0.100863 0.163605
O O11 0.000000 0.000000 0.500000
O O12 0.777717 0.444270 0.798522
O O13 0.500000 0.500000 0.000000
O O14 0.483164 0.151208 0.429865
O O15 0.686783 0.068212 0.811178
O O16 0.000000 0.500000 0.000000
O O17 0.384689 0.982888 0.825338
O O18 0.500000 0.000000 0.500000
#
# Coordination Sequence:
#
# PCOD9059627 Si02
#       8
#     2   2   2   2   2   2   2   2
#     4  12  25  42  72 104 141 198 239 300 376 437
#     4  11  27  49  78 109 143 199 248 309 385 447
#     4  11  23  42  64 100 141 180 233 290 356 442
#     4  12  28  49  75 109 152 191 255 318 373 444
#     4  11  25  42  70 101 142 187 232 296 364 439
#     4  11  26  51  80 103 145 192 256 315 382 438
#     4  11  23  43  68  97 146 184 240 287 357 448
#     4  11  24  44  66 106 151 190 238 301 356 439
#
# _framework density 22.148084000000001
#
# number of rings (size 3 to 8) (size 9 to 14) (size 15 to 20)
#    0.000    0.750    3.750    2.625    7.000    1.000 
#    2.250    0.000    0.000    0.000    0.000    0.000 
#    0.000    0.000    0.000    0.000    0.000    0.000 
#
# Total GULP energy -89097.056440 kJ/mol
# GULP energy per Si atom -5568.566027 kJ/mol
# Density = 2.209767 g / cm^3
# Si number density = 22.148084 Si / 1000 Ang^3
#
#
#
# Elastic Constant Matrix: (Units=GPa)
#
#
# Indices 1 2 3 4 5 6 
#
# 1 111.9324 23.4863 48.4371 2.3340 -14.7786 -11.0602
# 2 23.4863 113.8948 33.8750 -7.6208 -6.8504 -16.3563
# 3 48.4371 33.8750 110.3078 5.9340 -0.3423 -9.0819
# 4 2.3340 -7.6208 5.9340 30.1381 1.7888 1.1779
# 5 -14.7786 -6.8504 -0.3423 1.7888 47.6758 6.0133
# 6 -11.0602 -16.3563 -9.0819 1.1779 6.0133 30.9879
#
#
#
# Elastic Compliance Matrix: (Units=1/GPa)
#
#
# Indices 1 2 3 4 5 6 
#
# 1 0.011761 -0.000552 -0.004811 -0.000373 0.003310 0.001868
# 2 -0.000552 0.010599 -0.002820 0.003069 0.000671 0.004324
# 3 -0.004811 -0.002820 0.012251 -0.002678 -0.001814 0.000839
# 4 -0.000373 0.003069 -0.002678 0.034585 -0.000937 -0.000431
# 5 0.003310 0.000671 -0.001814 -0.000937 0.022540 -0.003334
# 6 0.001868 0.004324 0.000839 -0.000431 -0.003334 0.036129
#
#
# Mechanical properties :
#
#
# Convention : Reuss Voigt Hill
#
# Bulk Modulus (GPa) = 54.80347 60.85909 57.83128
# Shear Modulus (GPa) = 33.26392 37.11614 35.19003
#
# Velocity S-wave (km/s) = 3.87962 4.09812 3.99037
# Velocity P-wave (km/s) = 6.69824 7.06616 6.88466
#
# Compressibility (1/GPa) = 0.01824702
#
# Stress axis : x y z
#
# Youngs Moduli (GPa) = 85.02713 94.34679 81.62367
#
# Poissons Ratio (x) = 0.05208 0.39267
# Poissons Ratio (y) = 0.04693 0.23014
# Poissons Ratio (z) = 0.40904 0.26602
#
# Static dielectric constant tensor:
#      x y z
#    x 1.973280 -0.019950 0.043510 
#    y -0.019950 1.843860 0.007810 
#    z 0.043510 0.007810 1.840390 
# 
# From -- ./inp_files/47462.got.cif
#   From: 2010.05.17/outbox.cif.g08.bks.cpg/sg2_24_cif.got.tgz:47462.got - 2010.06.03 11:33:40.
