data_PCOD9059896
_publ_section_title
;
Structure prediction by ZEFSAII (Michael W. Deem and Ramdas Pophale) SiO2 
 PCOD9059896
Probable space group: P -1
;
_chemical_formula_sum "Si O2"
_cell_formula_units_Z 14
_cell_length_a 8.069007
_cell_length_b 9.140815
_cell_length_c 13.952966
_cell_angle_alpha 128.685100
_cell_angle_beta 62.434972
_cell_angle_gamma 91.313544
_cell_volume 657.291912
_symmetry_space_group_name_H-M "P -1"
_symmetry_group_IT_number 2
_symmetry_cell_setting 'triclinic'
loop_
_space_group_symop_operation_xyz
x,y,z
-x,-y,-z
loop_
_atom_site_type_symbol
_atom_site_label
_atom_site_fract_x
_atom_site_fract_y
_atom_site_fract_z
Si Si1 0.160822 0.821927 0.644138
Si Si2 0.061736 0.418570 0.068717
Si Si3 0.534773 0.899883 0.556793
Si Si4 0.109159 0.499065 0.661889
Si Si5 0.144951 0.746768 0.103856
Si Si6 0.541590 0.247716 0.826518
Si Si7 0.141442 0.773699 0.408951
O O1 0.335298 0.895371 0.658743
O O2 0.159092 0.628007 0.619804
O O3 0.201411 0.792755 0.508752
O O4 0.954953 0.015459 0.791139
O O5 0.022092 0.660659 0.177493
O O6 0.024521 0.358377 0.159708
O O7 0.298274 0.328861 0.935917
O O8 0.906278 0.364467 0.020233
O O9 0.689259 0.667742 0.414458
O O10 0.500000 0.000000 0.500000
O O11 0.604207 0.027255 0.668794
O O12 0.984212 0.368205 0.607791
O O13 0.354877 0.722609 0.089951
O O14 0.657006 0.333392 0.752714
O O15 0.000000 0.000000 0.500000
#
# Coordination Sequence:
#
# PCOD9059896 Si02
#       7
#     2   2   2   2   2   2   2
#     4  12  24  43  68 102 144 179 224 288 359 407
#     4  11  25  43  70  99 139 182 236 282 339 410
#     4  12  23  43  73 101 132 181 237 285 337 406
#     4  12  26  43  66 104 143 181 220 287 360 411
#     4  11  23  42  70  97 135 185 230 287 329 406
#     4  12  23  42  75 103 132 170 247 289 327 399
#     4  12  21  41  73  99 132 175 237 289 329 406
#
# _framework density 21.299517000000002
#
# number of rings (size 3 to 8) (size 9 to 14) (size 15 to 20)
#    0.000    0.286    7.143    2.143    2.000    0.571 
#    0.000    0.714    0.000    0.000    0.000    0.000 
#    0.000    0.000    0.000    0.000    0.000    0.000 
#
# Total GULP energy -77982.618130 kJ/mol
# GULP energy per Si atom -5570.187009 kJ/mol
# Density = 2.125104 g / cm^3
# Si number density = 21.299517 Si / 1000 Ang^3
#
#
#
# Elastic Constant Matrix: (Units=GPa)
#
#
# Indices 1 2 3 4 5 6 
#
# 1 128.2513 43.8284 44.2211 4.4066 9.7547 12.6329
# 2 43.8284 136.6912 38.1333 3.4504 -9.8221 2.6286
# 3 44.2211 38.1333 78.9685 2.1218 -2.5539 -5.4812
# 4 4.4066 3.4504 2.1218 23.2129 4.8996 -1.9575
# 5 9.7547 -9.8221 -2.5539 4.8996 37.0586 9.3262
# 6 12.6329 2.6286 -5.4812 -1.9575 9.3262 24.4444
#
#
#
# Elastic Compliance Matrix: (Units=1/GPa)
#
#
# Indices 1 2 3 4 5 6 
#
# 1 0.011320 -0.002001 -0.005837 -0.001387 -0.002161 -0.006230
# 2 -0.002001 0.009219 -0.003325 -0.001608 0.003499 -0.002166
# 3 -0.005837 -0.003325 0.018039 0.000599 -0.000066 0.007493
# 4 -0.001387 -0.001608 0.000599 0.045879 -0.008040 0.007765
# 5 -0.002161 0.003499 -0.000066 -0.008040 0.032653 -0.012376
# 6 -0.006230 -0.002166 0.007493 0.007765 -0.012376 0.051386
#
#
# Mechanical properties :
#
#
# Convention : Reuss Voigt Hill
#
# Bulk Modulus (GPa) = 61.53699 66.25295 63.89497
# Shear Modulus (GPa) = 25.47902 31.45839 28.46871
#
# Velocity S-wave (km/s) = 3.46240 3.84728 3.65991
# Velocity P-wave (km/s) = 6.70360 7.13501 6.92267
#
# Compressibility (1/GPa) = 0.01625039
#
# Stress axis : x y z
#
# Youngs Moduli (GPa) = 88.34212 108.47529 55.43401
#
# Poissons Ratio (x) = 0.21711 0.32359
# Poissons Ratio (y) = 0.17682 0.18431
# Poissons Ratio (z) = 0.51569 0.36066
#
# Static dielectric constant tensor:
#      x y z
#    x 1.897770 -0.030530 -0.036710 
#    y -0.030530 1.776950 0.020740 
#    z -0.036710 0.020740 1.862670 
# 
# From -- ./inp_files/491546.got.cif
#   From: 2010.05.17/outbox.cif.g08.bks.cpg/sg2_246_cif.got.tgz:491546.got - 2010.06.03 11:33:40.
