data_PCOD9059150
_publ_section_title
;
Structure prediction by ZEFSAII (Michael W. Deem and Ramdas Pophale) SiO2 
 PCOD9059150
Probable space group: P -1
;
_chemical_formula_sum "Si O2"
_cell_formula_units_Z 16
_cell_length_a 10.829581
_cell_length_b 7.711613
_cell_length_c 19.449330
_cell_angle_alpha 125.813594
_cell_angle_beta 42.619469
_cell_angle_gamma 141.570390
_cell_volume 683.465140
_symmetry_space_group_name_H-M "P -1"
_symmetry_group_IT_number 2
_symmetry_cell_setting 'triclinic'
loop_
_space_group_symop_operation_xyz
x,y,z
-x,-y,-z
loop_
_atom_site_type_symbol
_atom_site_label
_atom_site_fract_x
_atom_site_fract_y
_atom_site_fract_z
Si Si1 0.218109 0.562842 0.832884
Si Si2 0.718754 0.312921 0.562477
Si Si3 0.707480 0.977091 0.918693
Si Si4 0.193150 0.112937 0.887948
Si Si5 0.960341 0.419468 0.235664
Si Si6 0.478945 0.172159 0.904874
Si Si7 0.555235 0.582776 0.771688
Si Si8 0.591531 0.348870 0.467378
O O1 0.166753 0.593388 0.783546
O O2 0.462810 0.613684 0.746209
O O3 0.304779 0.835365 0.902232
O O4 0.966571 0.272323 0.889004
O O5 0.635077 0.407387 0.679672
O O6 0.645515 0.369710 0.532578
O O7 0.000000 0.500000 0.500000
O O8 0.596553 0.988018 0.544169
O O9 0.722451 0.843397 0.812879
O O10 0.613785 0.774394 0.976830
O O11 0.500000 0.000000 0.000000
O O12 0.100557 0.879443 0.814173
O O13 0.418515 0.209223 0.862930
O O14 0.301645 0.399060 0.873331
O O15 0.000000 0.000000 0.000000
O O16 0.836873 0.451077 0.355312
O O17 0.242012 0.661251 0.168205
O O18 0.500000 0.500000 0.500000
#
# Coordination Sequence:
#
# PCOD9059150 Si02
#       8
#     2   2   2   2   2   2   2   2
#     4  11  23  40  68  98 145 179 236 287 353 421
#     4  11  28  51  77 113 149 192 254 317 380 445
#     4  12  23  40  66 104 140 189 236 284 358 436
#     4  11  25  41  64  98 144 183 223 280 353 424
#     4  11  23  43  70 102 135 182 236 293 359 435
#     4  11  24  41  65  99 142 185 236 283 347 434
#     4  12  25  43  69 102 141 184 232 294 361 425
#     4  11  26  51  81 109 147 194 252 314 383 448
#
# _framework density 23.410118000000001
#
# number of rings (size 3 to 8) (size 9 to 14) (size 15 to 20)
#    0.000    0.750    3.750    2.625    3.500    7.500 
#    0.000    0.000    0.000    0.000    0.000    0.000 
#    0.000    0.000    0.000    0.000    0.000    0.000 
#
# Total GULP energy -89274.987591 kJ/mol
# GULP energy per Si atom -5579.686724 kJ/mol
# Density = 2.335684 g / cm^3
# Si number density = 23.410118 Si / 1000 Ang^3
#
#
#
# Elastic Constant Matrix: (Units=GPa)
#
#
# Indices 1 2 3 4 5 6 
#
# 1 112.2975 49.7475 27.3922 11.7779 -1.8602 15.8633
# 2 49.7475 154.0355 47.9795 5.0690 -5.8723 23.8630
# 3 27.3922 47.9795 104.1969 12.0985 2.3459 10.8591
# 4 11.7779 5.0690 12.0985 30.4282 -4.3658 0.6857
# 5 -1.8602 -5.8723 2.3459 -4.3658 24.1662 0.2349
# 6 15.8633 23.8630 10.8591 0.6857 0.2349 35.1536
#
#
#
# Elastic Compliance Matrix: (Units=1/GPa)
#
#
# Indices 1 2 3 4 5 6 
#
# 1 0.011108 -0.002759 -0.000953 -0.003444 -0.000318 -0.002776
# 2 -0.002759 0.009061 -0.003245 0.001308 0.002579 -0.003946
# 3 -0.000953 -0.003245 0.011998 -0.004238 -0.002783 -0.000972
# 4 -0.003444 0.001308 -0.004238 0.036652 0.007074 0.001213
# 5 -0.000318 0.002579 -0.002783 0.007074 0.043542 -0.001176
# 6 -0.002776 -0.003946 -0.000972 0.001213 -0.001176 0.032662
#
#
# Mechanical properties :
#
#
# Convention : Reuss Voigt Hill
#
# Bulk Modulus (GPa) = 54.79240 68.97425 61.88333
# Shear Modulus (GPa) = 30.29898 34.31033 32.30466
#
# Velocity S-wave (km/s) = 3.60150 3.83249 3.71879
# Velocity P-wave (km/s) = 6.38362 7.00795 6.70306
#
# Compressibility (1/GPa) = 0.01825071
#
# Stress axis : x y z
#
# Youngs Moduli (GPa) = 90.02679 110.36825 83.34501
#
# Poissons Ratio (x) = 0.30453 0.07945
# Poissons Ratio (y) = 0.24841 0.27049
# Poissons Ratio (z) = 0.08582 0.35820
#
# Static dielectric constant tensor:
#      x y z
#    x 2.099100 -0.062660 0.034270 
#    y -0.062660 1.908480 0.055820 
#    z 0.034270 0.055820 2.014330 
# 
# From -- ./inp_files/594191.got.cif
#   From: 2010.05.17/outbox.cif.g08.bks.cpg/sg2_298_cif.got.tgz:594191.got - 2010.06.03 11:33:40.
