data_PCOD9059118
_publ_section_title
;
Structure prediction by ZEFSAII (Michael W. Deem and Ramdas Pophale) SiO2 
 PCOD9059118
Probable space group: P -1
;
_chemical_formula_sum "Si O2"
_cell_formula_units_Z 16
_cell_length_a 9.060511
_cell_length_b 9.845454
_cell_length_c 25.038701
_cell_angle_alpha 135.319503
_cell_angle_beta 148.149852
_cell_angle_gamma 45.512795
_cell_volume 800.092846
_symmetry_space_group_name_H-M "P -1"
_symmetry_group_IT_number 2
_symmetry_cell_setting 'triclinic'
loop_
_space_group_symop_operation_xyz
x,y,z
-x,-y,-z
loop_
_atom_site_type_symbol
_atom_site_label
_atom_site_fract_x
_atom_site_fract_y
_atom_site_fract_z
Si Si1 0.329555 0.484788 0.997267
Si Si2 0.170451 0.619493 0.694677
Si Si3 0.242668 0.661579 0.218032
Si Si4 0.151798 0.017727 0.632371
Si Si5 0.300997 0.846345 0.902629
Si Si6 0.270000 0.834496 0.156896
Si Si7 0.195123 0.027147 0.384340
Si Si8 0.208154 0.669073 0.470239
O O1 0.537031 0.329647 0.057778
O O2 0.239470 0.694789 0.059235
O O3 0.500000 0.500000 0.000000
O O4 0.045343 0.407621 0.878787
O O5 0.471038 0.511518 0.728568
O O6 0.242920 0.753743 0.802384
O O7 0.038808 0.446005 0.628825
O O8 0.932525 0.758644 0.622390
O O9 0.259226 0.713847 0.174967
O O10 0.235613 0.859246 0.304445
O O11 0.224904 0.804866 0.564894
O O12 0.430671 0.104212 0.738921
O O13 0.040200 0.000045 0.652390
O O14 0.892577 0.171061 0.563498
O O15 0.995732 0.969906 0.866905
O O16 0.500000 0.000000 0.000000
O O17 0.500000 0.000000 0.500000
O O18 0.500000 0.500000 0.500000
#
# Coordination Sequence:
#
# PCOD9059118 Si02
#       8
#     2   2   2   2   2   2   2   2
#     4  12  26  44  70 107 138 170 223 284 335 398
#     4  12  24  42  69  99 131 184 228 270 337 409
#     4  12  24  44  71  98 137 180 222 276 337 404
#     4  11  25  42  63  97 132 170 222 285 328 389
#     4  12  23  41  71 100 134 180 225 268 338 411
#     4  12  23  43  72  96 136 178 225 271 334 406
#     4  12  27  44  67 100 141 174 227 288 338 383
#     4  11  23  40  67  92 129 175 227 270 338 397
#
# _framework density 19.997678000000001
#
# number of rings (size 3 to 8) (size 9 to 14) (size 15 to 20)
#    0.000    0.250    5.000    4.125    1.750    4.500 
#    0.000    0.000    0.000    0.000    0.000    0.000 
#    0.000    0.000    0.000    0.000    0.000    0.000 
#
# Total GULP energy -89573.255459 kJ/mol
# GULP energy per Si atom -5598.328466 kJ/mol
# Density = 1.995216 g / cm^3
# Si number density = 19.997678 Si / 1000 Ang^3
#
#
#
# Elastic Constant Matrix: (Units=GPa)
#
#
# Indices 1 2 3 4 5 6 
#
# 1 92.6390 16.2999 5.9276 2.0879 7.0311 1.2155
# 2 16.2999 100.4760 5.6458 -15.2862 0.2539 -20.5532
# 3 5.9276 5.6458 65.4685 2.9553 17.1752 2.9131
# 4 2.0879 -15.2862 2.9553 41.5276 -5.1165 8.3230
# 5 7.0311 0.2539 17.1752 -5.1165 36.1032 -0.9059
# 6 1.2155 -20.5532 2.9131 8.3230 -0.9059 38.4951
#
#
#
# Elastic Compliance Matrix: (Units=1/GPa)
#
#
# Indices 1 2 3 4 5 6 
#
# 1 0.011446 -0.002345 -0.000074 -0.001461 -0.002418 -0.001349
# 2 -0.002345 0.012223 -0.001777 0.003783 0.001902 0.005961
# 3 -0.000074 -0.001777 0.017990 -0.002644 -0.008955 -0.001947
# 4 -0.001461 0.003783 -0.002644 0.027078 0.005266 -0.003464
# 5 -0.002418 0.001902 -0.008955 0.005266 0.033198 0.001412
# 6 -0.001349 0.005961 -0.001947 -0.003464 0.001412 0.030132
#
#
# Mechanical properties :
#
#
# Convention : Reuss Voigt Hill
#
# Bulk Modulus (GPa) = 30.05860 34.92558 32.49209
# Shear Modulus (GPa) = 32.99322 38.60586 35.79954
#
# Velocity S-wave (km/s) = 4.06624 4.39853 4.23565
# Velocity P-wave (km/s) = 6.09175 6.58019 6.34067
#
# Compressibility (1/GPa) = 0.03326835
#
# Stress axis : x y z
#
# Youngs Moduli (GPa) = 87.36638 81.81272 55.58770
#
# Poissons Ratio (x) = 0.19183 0.00410
# Poissons Ratio (y) = 0.20486 0.09876
# Poissons Ratio (z) = 0.00644 0.14535
#
# Static dielectric constant tensor:
#      x y z
#    x 1.674770 -0.003020 0.001800 
#    y -0.003020 1.692720 -0.017240 
#    z 0.001800 -0.017240 1.689830 
# 
# From -- ./inp_files/307721.got.cif
#   From: 2010.05.17/outbox.cif.g08.bks.cpg/sg2_154_cif.got.tgz:307721.got - 2010.06.03 11:33:40.
