data_PCOD9059297
_publ_section_title
;
Structure prediction by ZEFSAII (Michael W. Deem and Ramdas Pophale) SiO2 
 PCOD9059297
Probable space group: P -1
;
_chemical_formula_sum "Si O2"
_cell_formula_units_Z 14
_cell_length_a 16.990666
_cell_length_b 22.784529
_cell_length_c 9.196821
_cell_angle_alpha 152.369921
_cell_angle_beta 40.526724
_cell_angle_gamma 156.520081
_cell_volume 630.745419
_symmetry_space_group_name_H-M "P -1"
_symmetry_group_IT_number 2
_symmetry_cell_setting 'triclinic'
loop_
_space_group_symop_operation_xyz
x,y,z
-x,-y,-z
loop_
_atom_site_type_symbol
_atom_site_label
_atom_site_fract_x
_atom_site_fract_y
_atom_site_fract_z
Si Si1 0.499465 0.670220 0.229362
Si Si2 0.505740 0.268381 0.309961
Si Si3 0.149351 0.524673 0.275570
Si Si4 0.663117 0.116674 0.398305
Si Si5 0.976419 0.630259 0.356003
Si Si6 0.943789 0.135002 0.525615
Si Si7 0.341879 0.331461 0.479319
O O1 0.533183 0.686820 0.390099
O O2 0.323203 0.627492 0.368215
O O3 0.714846 0.892154 0.341429
O O4 0.403399 0.475550 0.843096
O O5 0.745261 0.467651 0.369264
O O6 0.385050 0.230144 0.260966
O O7 0.432793 0.061646 0.973475
O O8 0.272726 0.695287 0.345498
O O9 0.000000 0.500000 0.500000
O O10 0.013716 0.295660 0.901852
O O11 0.867130 0.224461 0.411971
O O12 0.500000 0.000000 0.500000
O O13 0.037596 0.772815 0.449344
O O14 0.000000 0.500000 0.000000
O O15 0.114422 0.168766 0.380618
O O16 0.500000 0.500000 0.500000
#
# Coordination Sequence:
#
# PCOD9059297 Si02
#       7
#     2   2   2   2   2   2   2
#     4  11  27  43  72 101 134 181 227 282 343 395
#     4  12  26  46  68 101 138 180 224 283 336 398
#     4  11  23  41  64  99 143 174 216 272 340 407
#     4  12  24  38  66 100 136 176 221 269 329 407
#     4  12  23  41  68  99 139 178 222 273 338 400
#     4  11  24  44  69 100 135 177 227 281 334 404
#     4  11  26  49  71  97 135 177 236 282 332 404
#
# _framework density 22.195961
#
# number of rings (size 3 to 8) (size 9 to 14) (size 15 to 20)
#    0.000    0.571    4.286    3.000    4.000    4.571 
#    0.000    0.000    0.000    0.000    0.000    0.000 
#    0.000    0.000    0.000    0.000    0.000    0.000 
#
# Total GULP energy -78340.922672 kJ/mol
# GULP energy per Si atom -5595.780191 kJ/mol
# Density = 2.214544 g / cm^3
# Si number density = 22.195961 Si / 1000 Ang^3
#
#
#
# Elastic Constant Matrix: (Units=GPa)
#
#
# Indices 1 2 3 4 5 6 
#
# 1 98.3286 10.2407 -10.5923 8.0845 0.3445 5.3259
# 2 10.2407 82.3365 -3.1626 5.1870 -11.7452 8.1078
# 3 -10.5923 -3.1626 46.9675 4.1206 2.7266 0.3262
# 4 8.0845 5.1870 4.1206 31.4643 -0.9796 6.4198
# 5 0.3445 -11.7452 2.7266 -0.9796 27.8283 -4.0069
# 6 5.3259 8.1078 0.3262 6.4198 -4.0069 35.8613
#
#
#
# Elastic Compliance Matrix: (Units=1/GPa)
#
#
# Indices 1 2 3 4 5 6 
#
# 1 0.010865 -0.001133 0.002691 -0.002787 -0.001120 -0.001008
# 2 -0.001133 0.013341 0.000474 -0.001395 0.005259 -0.002015
# 3 0.002691 0.000474 0.022385 -0.003710 -0.002199 -0.000292
# 4 -0.002787 -0.001395 -0.003710 0.034314 0.000246 -0.005352
# 5 -0.001120 0.005259 -0.002199 0.000246 0.038867 0.003296
# 6 -0.001008 -0.002015 -0.000292 -0.005352 0.003296 0.029820
#
#
# Mechanical properties :
#
#
# Convention : Reuss Voigt Hill
#
# Bulk Modulus (GPa) = 19.74145 24.51156 22.12650
# Shear Modulus (GPa) = 30.78565 34.44056 32.61310
#
# Velocity S-wave (km/s) = 3.72828 3.94338 3.83734
# Velocity P-wave (km/s) = 5.23898 5.63923 5.44278
#
# Compressibility (1/GPa) = 0.05065484
#
# Stress axis : x y z
#
# Youngs Moduli (GPa) = 92.03477 74.95748 44.67231
#
# Poissons Ratio (x) = 0.08492 -0.12020
# Poissons Ratio (y) = 0.10427 -0.02117
# Poissons Ratio (z) = -0.24763 -0.03553
#
# Static dielectric constant tensor:
#      x y z
#    x 15.356800 -15.512860 6.845830 
#    y -15.512860 19.550030 -7.877110 
#    z 6.845830 -7.877110 5.340210 
# 
# From -- ./inp_files/27202.got.cif
#   From: 2010.05.17/outbox.cif.g08.bks.cpg/sg2_14_cif.got.tgz:27202.got - 2010.06.03 11:33:40.
