data_PCOD9059342
_publ_section_title
;
Structure prediction by ZEFSAII (Michael W. Deem and Ramdas Pophale) SiO2 
 PCOD9059342
Probable space group: P -1
;
_chemical_formula_sum "Si O2"
_cell_formula_units_Z 14
_cell_length_a 9.221464
_cell_length_b 10.179160
_cell_length_c 11.696061
_cell_angle_alpha 55.340172
_cell_angle_beta 140.856862
_cell_angle_gamma 113.210166
_cell_volume 567.720334
_symmetry_space_group_name_H-M "P -1"
_symmetry_group_IT_number 2
_symmetry_cell_setting 'triclinic'
loop_
_space_group_symop_operation_xyz
x,y,z
-x,-y,-z
loop_
_atom_site_type_symbol
_atom_site_label
_atom_site_fract_x
_atom_site_fract_y
_atom_site_fract_z
Si Si1 0.271658 0.535180 0.917336
Si Si2 0.782401 0.507076 0.589521
Si Si3 0.643666 0.614098 0.705939
Si Si4 0.519154 0.172030 0.794156
Si Si5 0.266244 0.013273 0.453748
Si Si6 0.250164 0.941806 0.228338
Si Si7 0.203559 0.890141 0.780020
O O1 0.210266 0.726980 0.793853
O O2 0.051860 0.466442 0.758029
O O3 0.500000 0.500000 0.000000
O O4 0.293218 0.464410 0.094547
O O5 0.744882 0.521163 0.698787
O O6 0.627736 0.398075 0.474218
O O7 0.678277 0.682527 0.396126
O O8 0.713170 0.795769 0.652453
O O9 0.654007 0.176056 0.755948
O O10 0.389254 0.011644 0.800444
O O11 0.704089 0.170860 0.008050
O O12 0.525987 0.951228 0.681459
O O13 0.050306 0.019160 0.403097
O O14 0.212617 0.922641 0.350197
O O15 0.000000 0.000000 0.000000
#
# Coordination Sequence:
#
# PCOD9059342 Si02
#       7
#     2   2   2   2   2   2   2
#     4  12  27  45  67 105 140 183 229 282 348 411
#     4  11  24  46  75  96 135 186 231 285 342 408
#     4  11  24  45  70 101 134 180 236 277 341 416
#     4  11  23  46  71 100 137 182 228 285 349 404
#     4  11  24  42  69 101 133 181 226 277 342 406
#     4  11  23  41  66 103 136 172 227 282 335 400
#     4  11  24  46  70  99 139 182 232 280 342 421
#
# _framework density 24.660029000000002
#
# number of rings (size 3 to 8) (size 9 to 14) (size 15 to 20)
#    0.000    0.857    5.714    0.429    2.000    4.000 
#    2.571    0.000    0.000    0.000    0.000    0.000 
#    0.000    0.000    0.000    0.000    0.000    0.000 
#
# Total GULP energy -78240.999471 kJ/mol
# GULP energy per Si atom -5588.642819 kJ/mol
# Density = 2.460390 g / cm^3
# Si number density = 24.660029 Si / 1000 Ang^3
#
#
#
# Elastic Constant Matrix: (Units=GPa)
#
#
# Indices 1 2 3 4 5 6 
#
# 1 97.5402 20.1254 32.8955 -5.1664 27.0513 -11.9566
# 2 20.1254 99.0905 15.3355 -3.8333 -1.5505 -1.9867
# 3 32.8955 15.3355 151.3576 23.7126 22.6969 8.5434
# 4 -5.1664 -3.8333 23.7126 33.5602 12.4260 -4.3881
# 5 27.0513 -1.5505 22.6969 12.4260 51.2615 3.0132
# 6 -11.9566 -1.9867 8.5434 -4.3881 3.0132 33.3339
#
#
#
# Elastic Compliance Matrix: (Units=1/GPa)
#
#
# Indices 1 2 3 4 5 6 
#
# 1 0.016415 -0.002326 -0.003892 0.009855 -0.009924 0.008941
# 2 -0.002326 0.010783 -0.000999 0.000928 0.001770 0.000026
# 3 -0.003892 -0.000999 0.009015 -0.007787 0.000203 -0.004810
# 4 0.009855 0.000928 -0.007787 0.043353 -0.012966 0.012465
# 5 -0.009924 0.001770 0.000203 -0.012966 0.028309 -0.007772
# 6 0.008941 0.000026 -0.004810 0.012465 -0.007772 0.036784
#
#
# Mechanical properties :
#
#
# Convention : Reuss Voigt Hill
#
# Bulk Modulus (GPa) = 45.91886 53.85566 49.88726
# Shear Modulus (GPa) = 30.05631 42.27326 36.16479
#
# Velocity S-wave (km/s) = 3.49496 4.14483 3.83369
# Velocity P-wave (km/s) = 5.91164 6.69275 6.31428
#
# Compressibility (1/GPa) = 0.02177755
#
# Stress axis : x y z
#
# Youngs Moduli (GPa) = 60.91932 92.73863 110.92458
#
# Poissons Ratio (x) = 0.21574 0.43177
# Poissons Ratio (y) = 0.14172 0.11083
# Poissons Ratio (z) = 0.23712 0.09266
#
# Static dielectric constant tensor:
#      x y z
#    x 1.995280 -0.006770 -0.035910 
#    y -0.006770 2.003670 -0.046640 
#    z -0.035910 -0.046640 2.033900 
# 
# From -- ./inp_files/389596.got.cif
#   From: 2010.05.17/outbox.cif.g08.bks.cpg/sg2_195_cif.got.tgz:389596.got - 2010.06.03 11:33:40.
