data_PCOD9059253
_publ_section_title
;
Structure prediction by ZEFSAII (Michael W. Deem and Ramdas Pophale) SiO2 
 PCOD9059253
Probable space group: P -1
;
_chemical_formula_sum "Si O2"
_cell_formula_units_Z 16
_cell_length_a 8.027946
_cell_length_b 22.335463
_cell_length_c 16.468080
_cell_angle_alpha 21.881118
_cell_angle_beta 43.706420
_cell_angle_gamma 43.733802
_cell_volume 744.877756
_symmetry_space_group_name_H-M "P -1"
_symmetry_group_IT_number 2
_symmetry_cell_setting 'triclinic'
loop_
_space_group_symop_operation_xyz
x,y,z
-x,-y,-z
loop_
_atom_site_type_symbol
_atom_site_label
_atom_site_fract_x
_atom_site_fract_y
_atom_site_fract_z
Si Si1 0.591163 0.084407 0.286223
Si Si2 0.983554 0.178011 0.861436
Si Si3 0.458430 0.607580 0.502084
Si Si4 0.738260 0.003790 0.633590
Si Si5 0.690812 0.713152 0.528565
Si Si6 0.011826 0.864758 0.342271
Si Si7 0.249121 0.596157 0.203169
Si Si8 0.573478 0.725957 0.137978
O O1 0.500000 0.000000 0.500000
O O2 0.441959 0.046006 0.308839
O O3 0.870161 0.986557 0.304433
O O4 0.587639 0.275815 0.045104
O O5 0.961301 0.288398 0.812887
O O6 0.709631 0.219678 0.864812
O O7 0.182915 0.210929 0.686569
O O8 0.051130 0.989782 0.100394
O O9 0.631696 0.529436 0.611196
O O10 0.565847 0.684446 0.288464
O O11 0.341789 0.454868 0.703551
O O12 0.257178 0.752427 0.426510
O O13 0.589541 0.182970 0.492147
O O14 0.000000 0.000000 0.500000
O O15 0.726048 0.862428 0.884054
O O16 0.836681 0.751590 0.508663
O O17 0.762864 0.520789 0.722168
#
# Coordination Sequence:
#
# PCOD9059253 Si02
#       8
#     2   2   2   2   2   2   2   2
#     4  10  22  46  62  80 119 171 209 243 303 369
#     4  10  17  37  66  87 124 165 195 245 309 369
#     4  10  19  34  63  96 117 156 197 251 315 361
#     4  11  23  43  63  86 125 170 209 247 299 366
#     4  11  20  36  63  95 120 158 209 252 301 359
#     4  10  19  35  64  87 115 161 212 242 294 369
#     4  10  22  39  59  96 130 150 193 264 318 357
#     4  10  18  37  63  89 124 158 200 243 311 359
#
# _framework density 21.480032999999999
#
# number of rings (size 3 to 8) (size 9 to 14) (size 15 to 20)
#    0.000    1.750    6.250    1.500    0.000    1.000 
#    4.500    6.250    0.000    0.000    0.000    0.000 
#    0.000    0.000    0.000    0.000    0.000    0.000 
#
# Total GULP energy -89175.520280 kJ/mol
# GULP energy per Si atom -5573.470017 kJ/mol
# Density = 2.143114 g / cm^3
# Si number density = 21.480033 Si / 1000 Ang^3
#
#
#
# Elastic Constant Matrix: (Units=GPa)
#
#
# Indices 1 2 3 4 5 6 
#
# 1 28.3039 7.1383 17.9129 -8.5687 -6.0999 8.8836
# 2 7.1383 97.9685 45.5598 -3.2134 -8.1983 -11.8373
# 3 17.9129 45.5598 98.4677 5.9136 -3.7463 10.1750
# 4 -8.5687 -3.2134 5.9136 41.9899 6.7517 0.1994
# 5 -6.0999 -8.1983 -3.7463 6.7517 23.0659 1.6312
# 6 8.8836 -11.8373 10.1750 0.1994 1.6312 21.5274
#
#
#
# Elastic Compliance Matrix: (Units=1/GPa)
#
#
# Indices 1 2 3 4 5 6 
#
# 1 0.051466 -0.001919 -0.006587 0.009700 0.010438 -0.020061
# 2 -0.001919 0.016224 -0.008562 0.001599 0.002441 0.013560
# 3 -0.006587 -0.008562 0.016575 -0.004263 -0.000154 -0.009773
# 4 0.009700 0.001599 -0.004263 0.027409 -0.005515 -0.000945
# 5 0.010438 0.002441 -0.000154 -0.005515 0.049035 -0.006556
# 6 -0.020061 0.013560 -0.009773 -0.000945 -0.006556 0.067312
#
#
# Mechanical properties :
#
#
# Convention : Reuss Voigt Hill
#
# Bulk Modulus (GPa) = 19.94828 40.66245 30.30537
# Shear Modulus (GPa) = 17.92966 27.59190 22.76078
#
# Velocity S-wave (km/s) = 2.89227 3.58793 3.25872
# Velocity P-wave (km/s) = 4.52335 6.01131 5.31961
#
# Compressibility (1/GPa) = 0.05012963
#
# Stress axis : x y z
#
# Youngs Moduli (GPa) = 19.43021 61.63687 60.33024
#
# Poissons Ratio (x) = 0.11828 0.39741
# Poissons Ratio (y) = 0.03729 0.51654
# Poissons Ratio (z) = 0.12799 0.52773
#
# Static dielectric constant tensor:
#      x y z
#    x 1.937290 0.035350 -0.098540 
#    y 0.035350 1.836420 -0.007130 
#    z -0.098540 -0.007130 1.928440 
# 
# From -- ./inp_files/563227.got.cif
#   From: 2010.05.17/outbox.cif.g08.bks.cpg/sg2_282_cif.got.tgz:563227.got - 2010.06.03 11:33:40.
