data_PCOD9059329
_publ_section_title
;
Structure prediction by ZEFSAII (Michael W. Deem and Ramdas Pophale) SiO2 
 PCOD9059329
Probable space group: P -1
;
_chemical_formula_sum "Si O2"
_cell_formula_units_Z 16
_cell_length_a 19.133878
_cell_length_b 9.051320
_cell_length_c 21.038024
_cell_angle_alpha 39.444656
_cell_angle_beta 160.370485
_cell_angle_gamma 129.228474
_cell_volume 696.457933
_symmetry_space_group_name_H-M "P -1"
_symmetry_group_IT_number 2
_symmetry_cell_setting 'triclinic'
loop_
_space_group_symop_operation_xyz
x,y,z
-x,-y,-z
loop_
_atom_site_type_symbol
_atom_site_label
_atom_site_fract_x
_atom_site_fract_y
_atom_site_fract_z
Si Si1 0.083066 0.599252 0.477578
Si Si2 0.539855 0.416738 0.776170
Si Si3 0.737958 0.857094 0.319882
Si Si4 0.270320 0.953092 0.313673
Si Si5 0.799568 0.308387 0.161216
Si Si6 0.335038 0.947966 0.099723
Si Si7 0.523083 0.323572 0.140961
Si Si8 0.260400 0.762507 0.225054
O O1 0.165081 0.370876 0.572924
O O2 0.274692 0.679298 0.641034
O O3 0.000000 0.500000 0.500000
O O4 0.877550 0.844674 0.190106
O O5 0.463218 0.195110 0.804487
O O6 0.330531 0.705234 0.494568
O O7 0.622318 0.324176 0.805959
O O8 0.720534 0.400441 0.991266
O O9 0.927978 0.833937 0.543448
O O10 0.688742 0.118640 0.153178
O O11 0.269938 0.858351 0.272522
O O12 0.500000 0.000000 0.500000
O O13 0.013144 0.190271 0.028834
O O14 0.701557 0.533810 0.054389
O O15 0.535387 0.043271 0.233072
O O16 0.272824 0.950053 0.119011
O O17 0.500000 0.500000 0.000000
O O18 0.500000 0.500000 0.500000
#
# Coordination Sequence:
#
# PCOD9059329 Si02
#       8
#     2   2   2   2   2   2   2   2
#     4  12  23  40  64  97 141 188 236 300 357 427
#     4  12  25  44  70 103 139 190 238 303 377 438
#     4  11  23  41  65  96 142 189 238 297 354 438
#     4  11  28  50  81 110 148 190 250 318 388 456
#     4  11  24  39  66  99 138 192 243 290 357 434
#     4  12  26  44  72 103 143 191 243 302 369 443
#     4  12  24  41  65 101 142 190 240 291 359 435
#     4  11  26  54  77 109 148 193 246 317 384 447
#
# _framework density 22.973389999999998
#
# number of rings (size 3 to 8) (size 9 to 14) (size 15 to 20)
#    0.000    0.500    5.000    2.625    1.750    4.500 
#    2.250    0.000    0.000    0.000    0.000    0.000 
#    0.000    0.000    0.000    0.000    0.000    0.000 
#
# Total GULP energy -89319.908095 kJ/mol
# GULP energy per Si atom -5582.494256 kJ/mol
# Density = 2.292110 g / cm^3
# Si number density = 22.973390 Si / 1000 Ang^3
#
#
#
# Elastic Constant Matrix: (Units=GPa)
#
#
# Indices 1 2 3 4 5 6 
#
# 1 98.3045 23.6036 39.9929 2.4264 -9.5638 -6.2122
# 2 23.6036 73.7222 44.5527 17.1228 2.8424 -7.9205
# 3 39.9929 44.5527 145.5696 14.8004 -8.5353 2.9685
# 4 2.4264 17.1228 14.8004 39.4985 -7.4069 2.8709
# 5 -9.5638 2.8424 -8.5353 -7.4069 47.0588 -1.2184
# 6 -6.2122 -7.9205 2.9685 2.8709 -1.2184 32.6441
#
#
#
# Elastic Compliance Matrix: (Units=1/GPa)
#
#
# Indices 1 2 3 4 5 6 
#
# 1 0.012178 -0.002607 -0.002613 0.001689 0.002473 0.001866
# 2 -0.002607 0.019863 -0.004906 -0.007690 -0.003692 0.005308
# 3 -0.002613 -0.004906 0.009292 -0.000782 0.001265 -0.002416
# 4 0.001689 -0.007690 -0.000782 0.030120 0.005305 -0.003924
# 5 0.002473 -0.003692 0.001265 0.005305 0.023036 -0.000147
# 6 0.001866 0.005308 -0.002416 -0.003924 -0.000147 0.032836
#
#
# Mechanical properties :
#
#
# Convention : Reuss Voigt Hill
#
# Bulk Modulus (GPa) = 47.43531 59.32163 53.37847
# Shear Modulus (GPa) = 32.34084 37.80342 35.07213
#
# Velocity S-wave (km/s) = 3.75607 4.06091 3.91146
# Velocity P-wave (km/s) = 6.28518 6.91852 6.60944
#
# Compressibility (1/GPa) = 0.02108134
#
# Stress axis : x y z
#
# Youngs Moduli (GPa) = 82.11397 50.34575 107.62354
#
# Poissons Ratio (x) = 0.13127 0.28117
# Poissons Ratio (y) = 0.21411 0.52796
# Poissons Ratio (z) = 0.21453 0.24698
#
# Static dielectric constant tensor:
#      x y z
#    x 1.962590 -0.006560 0.023290 
#    y -0.006560 1.963430 0.038130 
#    z 0.023290 0.038130 2.015250 
# 
# From -- ./inp_files/601119.got.cif
#   From: 2010.05.17/outbox.cif.g08.bks.cpg/sg2_301_cif.got.tgz:601119.got - 2010.06.03 11:33:40.
