data_PCOD9059479
_publ_section_title
;
Structure prediction by ZEFSAII (Michael W. Deem and Ramdas Pophale) SiO2 
 PCOD9059479
Probable space group: P -1
;
_chemical_formula_sum "Si O2"
_cell_formula_units_Z 13
_cell_length_a 16.622357
_cell_length_b 6.625492
_cell_length_c 11.891840
_cell_angle_alpha 132.137300
_cell_angle_beta 146.152692
_cell_angle_gamma 48.117276
_cell_volume 521.239839
_symmetry_space_group_name_H-M "P -1"
_symmetry_group_IT_number 2
_symmetry_cell_setting 'triclinic'
loop_
_space_group_symop_operation_xyz
x,y,z
-x,-y,-z
loop_
_atom_site_type_symbol
_atom_site_label
_atom_site_fract_x
_atom_site_fract_y
_atom_site_fract_z
Si Si1 0.500000 0.500000 0.500000
Si Si2 0.760774 0.171423 0.832890
Si Si3 0.393287 0.829238 0.867436
Si Si4 0.118656 0.419140 0.509933
Si Si5 0.787834 0.216902 0.574216
Si Si6 0.019214 0.444649 0.167414
Si Si7 0.652247 0.298404 0.005503
O O1 0.603278 0.271889 0.624040
O O2 0.641076 0.409437 0.536598
O O3 0.853477 0.848507 0.808798
O O4 0.733781 0.211586 0.950526
O O5 0.862718 0.364825 0.970740
O O6 0.260944 0.847982 0.633070
O O7 0.359204 0.927776 0.995360
O O8 0.491258 0.504486 0.866694
O O9 0.500000 0.000000 0.000000
O O10 0.046139 0.560063 0.364694
O O11 0.257906 0.519601 0.752698
O O12 0.000000 0.500000 0.500000
O O13 0.163859 0.084086 0.422365
O O14 0.931453 0.343661 0.781916
#
# Coordination Sequence:
#
# PCOD9059479 Si02
#       7
#     1   2   2   2   2   2   2
#     4  12  26  46  76 106 150 196 254 304 370 448
#     4  11  25  50  74 110 150 202 249 309 375 449
#     4  11  23  41  69 107 146 185 241 306 367 438
#     4  12  24  46  74 106 148 192 245 310 378 449
#     4  12  26  46  74 110 145 203 252 307 373 448
#     4  11  26  49  74 106 155 197 251 306 375 452
#     4  11  23  43  72 106 145 190 241 306 375 433
#
# _framework density 24.940532999999999
#
# number of rings (size 3 to 8) (size 9 to 14) (size 15 to 20)
#    0.000    0.615    7.692    0.000    0.000    3.077 
#    2.769    0.000    0.000    0.000    0.000    0.000 
#    0.000    0.000    0.000    0.000    0.000    0.000 
#
# Total GULP energy -72503.478598 kJ/mol
# GULP energy per Si atom -5577.190661 kJ/mol
# Density = 2.488377 g / cm^3
# Si number density = 24.940533 Si / 1000 Ang^3
#
#
#
# Elastic Constant Matrix: (Units=GPa)
#
#
# Indices 1 2 3 4 5 6 
#
# 1 175.6072 19.2949 -1.1537 3.6439 3.9840 4.0901
# 2 19.2949 40.9969 2.1420 -13.9314 6.0977 1.9106
# 3 -1.1537 2.1420 44.4006 -9.2248 -5.2154 4.9485
# 4 3.6439 -13.9314 -9.2248 23.5911 6.4707 5.4441
# 5 3.9840 6.0977 -5.2154 6.4707 42.2800 -4.7491
# 6 4.0901 1.9106 4.9485 5.4441 -4.7491 45.6113
#
#
#
# Elastic Compliance Matrix: (Units=1/GPa)
#
#
# Indices 1 2 3 4 5 6 
#
# 1 0.006230 -0.004329 -0.000385 -0.003879 0.000605 0.000191
# 2 -0.004329 0.037514 0.003466 0.028162 -0.009549 -0.005915
# 3 -0.000385 0.003466 0.025578 0.013077 0.000193 -0.004426
# 4 -0.003879 0.028162 0.013077 0.071520 -0.014409 -0.012287
# 5 0.000605 -0.009549 0.000193 -0.014409 0.027755 0.004935
# 6 0.000191 -0.005915 -0.004426 -0.012287 0.004935 0.024616
#
#
# Mechanical properties :
#
#
# Convention : Reuss Voigt Hill
#
# Bulk Modulus (GPa) = 14.96431 33.50788 24.23610
# Shear Modulus (GPa) = 22.93743 38.34460 30.64101
#
# Velocity S-wave (km/s) = 3.03592 3.92528 3.50889
# Velocity P-wave (km/s) = 4.27810 5.83164 5.11420
#
# Compressibility (1/GPa) = 0.06682566
#
# Stress axis : x y z
#
# Youngs Moduli (GPa) = 160.51390 26.65654 39.09633
#
# Poissons Ratio (x) = 0.11540 0.01507
# Poissons Ratio (y) = 0.69488 -0.13552
# Poissons Ratio (z) = 0.06187 -0.09240
#
# Static dielectric constant tensor:
#      x y z
#    x 1.666210 -0.222250 -0.331190 
#    y -0.222250 1.744380 -0.217200 
#    z -0.331190 -0.217200 1.614060 
# 
# From -- ./inp_files/365937.got.cif
#   From: 2010.05.17/outbox.cif.g08.bks.cpg/sg2_183_cif.got.tgz:365937.got - 2010.06.03 11:33:40.
