data_PCOD9059219
_publ_section_title
;
Structure prediction by ZEFSAII (Michael W. Deem and Ramdas Pophale) SiO2 
 PCOD9059219
Probable space group: P -1
;
_chemical_formula_sum "Si O2"
_cell_formula_units_Z 16
_cell_length_a 9.549894
_cell_length_b 9.266054
_cell_length_c 14.812232
_cell_angle_alpha 57.396113
_cell_angle_beta 86.706803
_cell_angle_gamma 124.858110
_cell_volume 769.118400
_symmetry_space_group_name_H-M "P -1"
_symmetry_group_IT_number 2
_symmetry_cell_setting 'triclinic'
loop_
_space_group_symop_operation_xyz
x,y,z
-x,-y,-z
loop_
_atom_site_type_symbol
_atom_site_label
_atom_site_fract_x
_atom_site_fract_y
_atom_site_fract_z
Si Si1 0.296131 0.916754 0.072619
Si Si2 0.790540 0.525708 0.774390
Si Si3 0.621573 0.122719 0.232404
Si Si4 0.582698 0.474074 0.417544
Si Si5 0.787396 0.085293 0.415983
Si Si6 0.573054 0.372416 0.023852
Si Si7 0.206760 0.683214 0.483005
Si Si8 0.638027 0.837705 0.180902
O O1 0.241177 0.999637 0.967403
O O2 0.375995 0.091241 0.095394
O O3 0.500000 0.000000 0.000000
O O4 0.157916 0.632294 0.187850
O O5 0.596067 0.387728 0.765662
O O6 0.992582 0.800319 0.649237
O O7 0.721391 0.496938 0.889667
O O8 0.387294 0.909662 0.338024
O O9 0.658199 0.010608 0.192440
O O10 0.732093 0.156433 0.307518
O O11 0.666981 0.347885 0.111717
O O12 0.500000 0.500000 0.500000
O O13 0.733392 0.457128 0.445742
O O14 0.686667 0.702542 0.271862
O O15 0.389806 0.208985 0.471718
O O16 0.794656 0.201794 0.466887
O O17 0.500000 0.500000 0.000000
O O18 0.000000 0.500000 0.500000
#
# Coordination Sequence:
#
# PCOD9059219 Si02
#       8
#     2   2   2   2   2   2   2   2
#     4   8  16  33  60  84 114 167 204 239 308 377
#     4  10  20  39  61  92 122 171 214 242 309 393
#     4  11  19  40  63  86 126 166 202 262 323 364
#     4  11  22  40  63  95 125 164 214 260 316 366
#     4  11  25  38  62  93 127 166 210 257 321 377
#     4  10  20  36  62  94 119 158 213 263 313 366
#     4  11  25  43  64  88 126 171 209 258 316 383
#     4  10  17  37  66  85 123 166 205 253 309 370
#
# _framework density 20.803038999999998
#
# number of rings (size 3 to 8) (size 9 to 14) (size 15 to 20)
#    0.000    2.000    6.250    2.250    0.000    5.000 
#    2.250    0.000    0.000    1.500    0.000    0.000 
#    0.000    0.000    0.000    0.000    0.000    0.000 
#
# Total GULP energy -89298.430036 kJ/mol
# GULP energy per Si atom -5581.151877 kJ/mol
# Density = 2.075569 g / cm^3
# Si number density = 20.803039 Si / 1000 Ang^3
#
#
#
# Elastic Constant Matrix: (Units=GPa)
#
#
# Indices 1 2 3 4 5 6 
#
# 1 47.0478 25.2716 11.5657 -12.4960 10.3279 -12.5773
# 2 25.2716 88.0328 3.8077 10.8488 7.1829 -5.9971
# 3 11.5657 3.8077 47.6199 6.1585 27.4605 -14.3793
# 4 -12.4960 10.8488 6.1585 27.5190 0.9517 -0.8959
# 5 10.3279 7.1829 27.4605 0.9517 27.1617 -9.6419
# 6 -12.5773 -5.9971 -14.3793 -0.8959 -9.6419 29.8793
#
#
#
# Elastic Compliance Matrix: (Units=1/GPa)
#
#
# Indices 1 2 3 4 5 6 
#
# 1 0.040765 -0.013836 -0.009066 0.026340 0.000269 0.010896
# 2 -0.013836 0.017250 0.007246 -0.014523 -0.006632 -0.001451
# 3 -0.009066 0.007246 0.058648 -0.017964 -0.054371 0.007778
# 4 0.026340 -0.014523 -0.017964 0.057802 0.011756 0.005054
# 5 0.000269 -0.006632 -0.054371 0.011756 0.094223 0.003374
# 6 0.010896 -0.001451 0.007778 0.005054 0.003374 0.042747
#
#
# Mechanical properties :
#
#
# Convention : Reuss Voigt Hill
#
# Bulk Modulus (GPa) = 11.71630 29.33228 20.52429
# Shear Modulus (GPa) = 13.46990 26.38237 19.92614
#
# Velocity S-wave (km/s) = 2.54736 3.56504 3.09827
# Velocity P-wave (km/s) = 3.78104 5.57464 4.76303
#
# Compressibility (1/GPa) = 0.08535116
#
# Stress axis : x y z
#
# Youngs Moduli (GPa) = 24.53064 57.97122 17.05095
#
# Poissons Ratio (x) = 0.80209 0.15458
# Poissons Ratio (y) = 0.33941 -0.12355
# Poissons Ratio (z) = 0.22239 -0.42005
#
# Static dielectric constant tensor:
#      x y z
#    x 1.773640 0.022120 0.016400 
#    y 0.022120 1.757690 -0.009700 
#    z 0.016400 -0.009700 1.806830 
# 
# From -- ./inp_files/492309.got.cif
#   From: 2010.05.17/outbox.cif.g08.bks.cpg/sg2_247_cif.got.tgz:492309.got - 2010.06.03 11:33:40.
