data_PCOD9059773
_publ_section_title
;
Structure prediction by ZEFSAII (Michael W. Deem and Ramdas Pophale) SiO2 
 PCOD9059773
Probable space group: P -1
;
_chemical_formula_sum "Si O2"
_cell_formula_units_Z 16
_cell_length_a 21.415691
_cell_length_b 5.150477
_cell_length_c 9.536740
_cell_angle_alpha 65.182139
_cell_angle_beta 128.705450
_cell_angle_gamma 112.565069
_cell_volume 734.069836
_symmetry_space_group_name_H-M "P -1"
_symmetry_group_IT_number 2
_symmetry_cell_setting 'triclinic'
loop_
_space_group_symop_operation_xyz
x,y,z
-x,-y,-z
loop_
_atom_site_type_symbol
_atom_site_label
_atom_site_fract_x
_atom_site_fract_y
_atom_site_fract_z
Si Si1 0.354016 0.585956 0.197513
Si Si2 0.380482 0.547494 0.722049
Si Si3 0.025390 0.282537 0.701164
Si Si4 0.201949 0.253576 0.580630
Si Si5 0.038117 0.389859 0.218230
Si Si6 0.531939 0.303004 0.908297
Si Si7 0.194422 0.582157 0.791672
Si Si8 0.592532 0.031867 0.561561
O O1 0.427483 0.748139 0.168604
O O2 0.355675 0.731172 0.317452
O O3 0.375414 0.267085 0.306417
O O4 0.274197 0.601417 0.993152
O O5 0.292601 0.353495 0.625953
O O6 0.453909 0.454468 0.757914
O O7 0.386617 0.866290 0.592070
O O8 0.405017 0.537528 0.922896
O O9 0.121006 0.400551 0.818128
O O10 0.000000 0.500000 0.500000
O O11 0.976887 0.366624 0.747409
O O12 0.006684 0.937003 0.727338
O O13 0.132577 0.354835 0.363748
O O14 0.199750 0.411879 0.692121
O O15 0.183035 0.908535 0.660837
O O16 0.000000 0.500000 0.000000
O O17 0.500000 0.000000 0.000000
O O18 0.500000 0.000000 0.500000
#
# Coordination Sequence:
#
# PCOD9059773 Si02
#       8
#     2   2   2   2   2   2   2   2
#     4  12  26  44  68  99 135 176 229 287 337 398
#     4  11  26  40  68  98 134 181 228 279 350 403
#     4  12  23  46  75 103 133 196 233 275 353 425
#     4  12  24  44  68 105 138 180 229 297 345 408
#     4  12  26  45  73 107 148 182 231 292 356 425
#     4  11  23  42  68  95 129 182 231 275 328 418
#     4  12  25  43  74 103 137 174 243 290 333 414
#     4  12  26  46  67  97 139 185 223 283 347 411
#
# _framework density 21.796292999999999
#
# number of rings (size 3 to 8) (size 9 to 14) (size 15 to 20)
#    0.000    0.250    5.000    4.125    3.500    2.000 
#    0.000    0.000    0.000    0.000    0.000    0.000 
#    0.000    0.000    0.000    0.000    0.000    0.000 
#
# Total GULP energy -89455.649286 kJ/mol
# GULP energy per Si atom -5590.978080 kJ/mol
# Density = 2.174668 g / cm^3
# Si number density = 21.796293 Si / 1000 Ang^3
#
#
#
# Elastic Constant Matrix: (Units=GPa)
#
#
# Indices 1 2 3 4 5 6 
#
# 1 44.2331 21.6941 10.2966 7.3686 12.4462 17.8571
# 2 21.6941 72.8634 26.5956 6.7427 18.0598 -12.8412
# 3 10.2966 26.5956 108.1489 -0.5431 13.5085 5.2173
# 4 7.3686 6.7427 -0.5431 32.8039 -1.0860 3.7978
# 5 12.4462 18.0598 13.5085 -1.0860 34.7876 11.5607
# 6 17.8571 -12.8412 5.2173 3.7978 11.5607 39.6440
#
#
#
# Elastic Compliance Matrix: (Units=1/GPa)
#
#
# Indices 1 2 3 4 5 6 
#
# 1 0.040218 -0.016836 0.001235 -0.002718 0.001757 -0.023983
# 2 -0.016836 0.028379 -0.004669 -0.005162 -0.014396 0.022083
# 3 0.001235 -0.004669 0.010565 0.001205 -0.000991 -0.003285
# 4 -0.002718 -0.005162 0.001205 0.033017 0.006055 -0.005535
# 5 0.001757 -0.014396 -0.000991 0.006055 0.042218 -0.018215
# 6 -0.023983 0.022083 -0.003285 -0.005535 -0.018215 0.049455
#
#
# Mechanical properties :
#
#
# Convention : Reuss Voigt Hill
#
# Bulk Modulus (GPa) = 25.89166 38.04647 31.96906
# Shear Modulus (GPa) = 19.43515 32.55770 25.99643
#
# Velocity S-wave (km/s) = 2.98933 3.86907 3.45729
# Velocity P-wave (km/s) = 4.88052 6.11988 5.53500
#
# Compressibility (1/GPa) = 0.03862248
#
# Stress axis : x y z
#
# Youngs Moduli (GPa) = 24.86463 35.23754 94.64796
#
# Poissons Ratio (x) = 0.59325 -0.11690
# Poissons Ratio (y) = 0.41862 0.44191
# Poissons Ratio (z) = -0.03071 0.16452
#
# Static dielectric constant tensor:
#      x y z
#    x 1.774560 -0.000230 0.040770 
#    y -0.000230 1.839510 -0.028070 
#    z 0.040770 -0.028070 1.997420 
# 
# From -- ./inp_files/340204.got.cif
#   From: 2010.05.17/outbox.cif.g08.bks.cpg/sg2_171_cif.got.tgz:340204.got - 2010.06.03 11:33:40.
