data_PCOD9059557
_publ_section_title
;
Structure prediction by ZEFSAII (Michael W. Deem and Ramdas Pophale) SiO2 
 PCOD9059557
Probable space group: P -1
;
_chemical_formula_sum "Si O2"
_cell_formula_units_Z 12
_cell_length_a 8.341992
_cell_length_b 8.925831
_cell_length_c 9.136282
_cell_angle_alpha 129.091080
_cell_angle_beta 82.394423
_cell_angle_gamma 107.796507
_cell_volume 501.050088
_symmetry_space_group_name_H-M "P -1"
_symmetry_group_IT_number 2
_symmetry_cell_setting 'triclinic'
loop_
_space_group_symop_operation_xyz
x,y,z
-x,-y,-z
loop_
_atom_site_type_symbol
_atom_site_label
_atom_site_fract_x
_atom_site_fract_y
_atom_site_fract_z
Si Si1 0.215609 0.921960 0.302461
Si Si2 0.360786 0.376726 0.552839
Si Si3 0.652745 0.442260 0.025632
Si Si4 0.831049 0.205321 0.447263
Si Si5 0.879140 0.827700 0.104282
Si Si6 0.129841 0.366969 0.316416
O O1 0.124347 0.841353 0.418868
O O2 0.070161 0.919046 0.198079
O O3 0.346371 0.144677 0.449531
O O4 0.320321 0.771623 0.145170
O O5 0.500000 0.500000 0.500000
O O6 0.366145 0.515988 0.776339
O O7 0.194858 0.342669 0.454580
O O8 0.818131 0.613326 0.058297
O O9 0.500000 0.500000 0.000000
O O10 0.772754 0.405991 0.608644
O O11 0.932915 0.301164 0.343830
O O12 0.768599 0.974472 0.257210
O O13 0.856534 0.780900 0.906541
#
# Coordination Sequence:
#
# PCOD9059557 Si02
#       6
#     2   2   2   2   2   2
#     4  12  26  46  76 103 137 190 234 287 350 408
#     4  12  28  48  70  99 144 184 235 290 351 415
#     4  12  28  47  72 103 141 187 236 284 349 424
#     4  11  23  41  72 104 141 179 224 290 347 401
#     4  12  23  44  75 109 139 180 236 285 344 421
#     4  11  25  41  69 111 143 175 229 289 350 407
#
# _framework density 23.949701000000001
#
# number of rings (size 3 to 8) (size 9 to 14) (size 15 to 20)
#    0.000    0.333    5.000    3.500    4.667    2.667 
#    0.000    0.000    0.000    0.000    0.000    0.000 
#    0.000    0.000    0.000    0.000    0.000    0.000 
#
# Total GULP energy -66817.572391 kJ/mol
# GULP energy per Si atom -5568.131033 kJ/mol
# Density = 2.389519 g / cm^3
# Si number density = 23.949701 Si / 1000 Ang^3
#
#
#
# Elastic Constant Matrix: (Units=GPa)
#
#
# Indices 1 2 3 4 5 6 
#
# 1 41.1359 11.1165 33.9600 4.8735 -0.5904 -4.9778
# 2 11.1165 123.7037 51.0521 6.6869 -11.9794 -3.3354
# 3 33.9600 51.0521 201.2638 -17.7838 -12.9633 -14.7907
# 4 4.8735 6.6869 -17.7838 60.9277 -9.4534 -0.3736
# 5 -0.5904 -11.9794 -12.9633 -9.4534 20.3224 -3.3981
# 6 -4.9778 -3.3354 -14.7907 -0.3736 -3.3981 29.6820
#
#
#
# Elastic Compliance Matrix: (Units=1/GPa)
#
#
# Indices 1 2 3 4 5 6 
#
# 1 0.029649 -0.000588 -0.005463 -0.004647 -0.004869 0.001568
# 2 -0.000588 0.009441 -0.002118 -0.001019 0.003777 0.000326
# 3 -0.005463 -0.002118 0.007344 0.003690 0.005526 0.003184
# 4 -0.004647 -0.001019 0.003690 0.019728 0.011209 0.002476
# 5 -0.004869 0.003777 0.005526 0.011209 0.061629 0.009558
# 6 0.001568 0.000326 0.003184 0.002476 0.009558 0.036702
#
#
# Mechanical properties :
#
#
# Convention : Reuss Voigt Hill
#
# Bulk Modulus (GPa) = 33.22802 62.04008 47.63405
# Shear Modulus (GPa) = 26.19706 40.18475 33.19090
#
# Velocity S-wave (km/s) = 3.31091 4.10064 3.72675
# Velocity P-wave (km/s) = 5.34045 6.95564 6.20086
#
# Compressibility (1/GPa) = 0.03009508
#
# Stress axis : x y z
#
# Youngs Moduli (GPa) = 33.72825 105.92625 136.17280
#
# Poissons Ratio (x) = 0.06228 0.74386
# Poissons Ratio (y) = 0.01983 0.28845
# Poissons Ratio (z) = 0.18424 0.22438
#
# Static dielectric constant tensor:
#      x y z
#    x 4.178350 0.294880 -0.205100 
#    y 0.294880 2.003140 0.026090 
#    z -0.205100 0.026090 1.983530 
# 
# From -- ./inp_files/152286.got.cif
#   From: 2010.05.17/outbox.cif.g08.bks.cpg/sg2_77_cif.got.tgz:152286.got - 2010.06.03 11:33:40.
