data_PCOD9059826
_publ_section_title
;
Structure prediction by ZEFSAII (Michael W. Deem and Ramdas Pophale) SiO2 
 PCOD9059826
Probable space group: P -1
;
_chemical_formula_sum "Si O2"
_cell_formula_units_Z 15
_cell_length_a 12.603704
_cell_length_b 12.280503
_cell_length_c 9.054250
_cell_angle_alpha 70.359464
_cell_angle_beta 31.137451
_cell_angle_gamma 83.748860
_cell_volume 634.835505
_symmetry_space_group_name_H-M "P -1"
_symmetry_group_IT_number 2
_symmetry_cell_setting 'triclinic'
loop_
_space_group_symop_operation_xyz
x,y,z
-x,-y,-z
loop_
_atom_site_type_symbol
_atom_site_label
_atom_site_fract_x
_atom_site_fract_y
_atom_site_fract_z
Si Si1 0.956746 0.171283 0.742840
Si Si2 0.424208 0.208935 0.716099
Si Si3 0.811507 0.387161 0.699128
Si Si4 0.000000 0.000000 0.500000
Si Si5 0.175265 0.617634 0.656423
Si Si6 0.943873 0.143042 0.313118
Si Si7 0.362299 0.246514 0.435558
Si Si8 0.309722 0.964992 0.604253
O O1 0.152603 0.243744 0.592103
O O2 0.879204 0.268557 0.704352
O O3 0.026637 0.089872 0.580538
O O4 0.767227 0.082631 0.117914
O O5 0.593177 0.319524 0.560485
O O6 0.176735 0.142780 0.107973
O O7 0.369936 0.255894 0.600891
O O8 0.540005 0.109532 0.599019
O O9 0.792791 0.410840 0.537746
O O10 0.000000 0.500000 0.500000
O O11 0.576946 0.354897 0.070589
O O12 0.798130 0.048446 0.649483
O O13 0.000000 0.500000 0.000000
O O14 0.071499 0.724554 0.727476
O O15 0.903703 0.090535 0.221655
O O16 0.379346 0.111912 0.445748
#
# Coordination Sequence:
#
# PCOD9059826 Si02
#       8
#     2   2   2   1   2   2   2   2
#     4  12  25  46  72 105 152 182 231 297 360 428
#     4  11  24  40  72 102 137 186 235 287 360 416
#     4  12  29  49  71 101 141 189 244 297 346 422
#     4  12  24  42  68 108 148 180 222 294 364 418
#     4  11  27  48  70 100 141 191 245 295 351 421
#     4  11  24  43  69 105 148 183 231 298 357 425
#     4  12  24  42  74 104 138 187 236 286 358 427
#     4  11  23  42  69 109 144 187 230 286 359 442
#
# _framework density 23.628169
#
# number of rings (size 3 to 8) (size 9 to 14) (size 15 to 20)
#    0.000    0.533    5.333    2.400    5.600    1.067 
#    0.000    3.333    0.000    0.000    0.000    0.000 
#    0.000    0.000    0.000    0.000    0.000    0.000 
#
# Total GULP energy -83775.425613 kJ/mol
# GULP energy per Si atom -5585.028374 kJ/mol
# Density = 2.357439 g / cm^3
# Si number density = 23.628169 Si / 1000 Ang^3
#
#
#
# Elastic Constant Matrix: (Units=GPa)
#
#
# Indices 1 2 3 4 5 6 
#
# 1 154.5651 10.2225 40.0276 -1.6902 7.9208 26.5586
# 2 10.2225 44.5505 3.5637 -7.1025 6.8091 18.2624
# 3 40.0276 3.5637 110.4612 -5.7349 5.5744 23.0139
# 4 -1.6902 -7.1025 -5.7349 35.5435 3.3643 -2.9944
# 5 7.9208 6.8091 5.5744 3.3643 58.0684 -1.6237
# 6 26.5586 18.2624 23.0139 -2.9944 -1.6237 51.6906
#
#
#
# Elastic Compliance Matrix: (Units=1/GPa)
#
#
# Indices 1 2 3 4 5 6 
#
# 1 0.007571 -0.000281 -0.002098 -0.000196 -0.000868 -0.002896
# 2 -0.000281 0.028117 0.001852 0.005408 -0.004041 -0.010428
# 3 -0.002098 0.001852 0.010806 0.001762 -0.001191 -0.004323
# 4 -0.000196 0.005408 0.001762 0.029648 -0.002521 -0.000956
# 5 -0.000868 -0.004041 -0.001191 -0.002521 0.018153 0.002828
# 6 -0.002896 -0.010428 -0.004323 -0.000956 0.002828 0.026476
#
#
# Mechanical properties :
#
#
# Convention : Reuss Voigt Hill
#
# Bulk Modulus (GPa) = 22.00677 46.35605 34.18141
# Shear Modulus (GPa) = 36.50383 46.11137 41.30760
#
# Velocity S-wave (km/s) = 3.93482 4.42242 4.18573
# Velocity P-wave (km/s) = 5.47520 6.76303 6.15290
#
# Compressibility (1/GPa) = 0.04544056
#
# Stress axis : x y z
#
# Youngs Moduli (GPa) = 132.07463 35.56533 92.54473
#
# Poissons Ratio (x) = 0.01000 0.19413
# Poissons Ratio (y) = 0.03714 -0.17140
# Poissons Ratio (z) = 0.27705 -0.06587
#
# Static dielectric constant tensor:
#      x y z
#    x 1.982290 -0.035000 0.021980 
#    y -0.035000 1.889560 0.001980 
#    z 0.021980 0.001980 2.078640 
# 
# From -- ./inp_files/257353.got.cif
#   From: 2010.05.17/outbox.cif.g08.bks.cpg/sg2_129_cif.got.tgz:257353.got - 2010.06.03 11:33:40.
