data_PCOD9059733
_publ_section_title
;
Structure prediction by ZEFSAII (Michael W. Deem and Ramdas Pophale) SiO2 
 PCOD9059733
Probable space group: P -1
;
_chemical_formula_sum "Si O2"
_cell_formula_units_Z 16
_cell_length_a 9.023698
_cell_length_b 19.286365
_cell_length_c 5.778054
_cell_angle_alpha 73.797032
_cell_angle_beta 49.825260
_cell_angle_gamma 77.519202
_cell_volume 736.931270
_symmetry_space_group_name_H-M "P -1"
_symmetry_group_IT_number 2
_symmetry_cell_setting 'triclinic'
loop_
_space_group_symop_operation_xyz
x,y,z
-x,-y,-z
loop_
_atom_site_type_symbol
_atom_site_label
_atom_site_fract_x
_atom_site_fract_y
_atom_site_fract_z
Si Si1 0.526873 0.941482 0.828294
Si Si2 0.797758 0.044069 0.188142
Si Si3 0.000421 0.567786 0.609108
Si Si4 0.049293 0.812201 0.946909
Si Si5 0.267737 0.665913 0.991031
Si Si6 0.179229 0.193657 0.309220
Si Si7 0.658807 0.435303 0.387076
Si Si8 0.614289 0.659024 0.974064
O O1 0.315195 0.927767 0.952731
O O2 0.649665 0.868447 0.825836
O O3 0.661486 0.983990 0.478429
O O4 0.500000 0.000000 0.000000
O O5 0.832207 0.114998 0.236587
O O6 0.000000 0.000000 0.000000
O O7 0.147138 0.546724 0.689536
O O8 0.000000 0.500000 0.500000
O O9 0.778291 0.594222 0.852210
O O10 0.099890 0.641420 0.356478
O O11 0.928385 0.814144 0.318674
O O12 0.940323 0.811353 0.808149
O O13 0.185485 0.739156 0.889205
O O14 0.285552 0.592868 0.892589
O O15 0.482732 0.674800 0.865454
O O16 0.277430 0.270314 0.135149
O O17 0.500000 0.500000 0.500000
O O18 0.550027 0.367143 0.663909
#
# Coordination Sequence:
#
# PCOD9059733 Si02
#       8
#     2   2   2   2   2   2   2   2
#     4  11  26  44  74 107 142 190 240 290 358 424
#     4  11  24  46  72 103 146 188 236 295 354 421
#     4  11  23  42  67  97 136 178 230 290 354 422
#     4  12  27  46  76 104 144 191 239 293 357 422
#     4  11  25  44  68  98 137 181 237 288 354 423
#     4  12  27  47  74 107 143 190 240 291 359 422
#     4  11  25  42  67 103 135 182 236 293 357 423
#     4  11  25  44  69  97 140 183 234 294 353 422
#
# _framework density 21.711659000000001
#
# number of rings (size 3 to 8) (size 9 to 14) (size 15 to 20)
#    0.000    0.750    2.500    3.750    7.000    8.000 
#    0.000    0.000    0.000    0.000    0.000    0.000 
#    0.000    0.000    0.000    0.000    0.000    0.000 
#
# Total GULP energy -89244.632307 kJ/mol
# GULP energy per Si atom -5577.789519 kJ/mol
# Density = 2.166224 g / cm^3
# Si number density = 21.711659 Si / 1000 Ang^3
#
#
#
# Elastic Constant Matrix: (Units=GPa)
#
#
# Indices 1 2 3 4 5 6 
#
# 1 206.4227 66.1649 32.1155 17.1829 -6.6728 2.2147
# 2 66.1649 143.2688 8.0697 7.6178 -6.2894 -6.3172
# 3 32.1155 8.0697 51.9589 9.1394 -14.8119 -8.3409
# 4 17.1829 7.6178 9.1394 38.7361 0.7587 -8.8614
# 5 -6.6728 -6.2894 -14.8119 0.7587 29.8784 3.9916
# 6 2.2147 -6.3172 -8.3409 -8.8614 3.9916 53.8751
#
#
#
# Elastic Compliance Matrix: (Units=1/GPa)
#
#
# Indices 1 2 3 4 5 6 
#
# 1 0.006440 -0.002768 -0.003677 -0.001749 -0.000737 -0.001392
# 2 -0.002768 0.008336 0.001113 -0.000459 0.001557 0.001073
# 3 -0.003677 0.001113 0.025973 -0.004335 0.012039 0.002698
# 4 -0.001749 -0.000459 -0.004335 0.028783 -0.003951 0.004374
# 5 -0.000737 0.001557 0.012039 -0.003951 0.039905 -0.001530
# 6 -0.001392 0.001073 0.002698 0.004374 -0.001530 0.019995
#
#
# Mechanical properties :
#
#
# Convention : Reuss Voigt Hill
#
# Bulk Modulus (GPa) = 33.23838 68.26119 50.74978
# Shear Modulus (GPa) = 33.30603 44.18461 38.74532
#
# Velocity S-wave (km/s) = 3.92090 4.51606 4.22896
# Velocity P-wave (km/s) = 5.98667 7.66167 6.87537
#
# Compressibility (1/GPa) = 0.03008570
#
# Stress axis : x y z
#
# Youngs Moduli (GPa) = 155.27102 119.96834 38.50147
#
# Poissons Ratio (x) = 0.33206 0.14155
# Poissons Ratio (y) = 0.42978 -0.04285
# Poissons Ratio (z) = 0.57087 -0.13351
#
# Static dielectric constant tensor:
#      x y z
#    x 1.742460 -0.064470 0.142410 
#    y -0.064470 1.737500 -0.005780 
#    z 0.142410 -0.005780 1.846470 
# 
# From -- ./inp_files/11039.got.cif
#   From: 2010.05.17/outbox.cif.g08.bks.cpg/sg2_6_cif.got.tgz:11039.got - 2010.06.03 11:33:40.
