data_PCOD9059400
_publ_section_title
;
Structure prediction by ZEFSAII (Michael W. Deem and Ramdas Pophale) SiO2 
 PCOD9059400
Probable space group: P -1
;
_chemical_formula_sum "Si O2"
_cell_formula_units_Z 16
_cell_length_a 15.965964
_cell_length_b 12.245345
_cell_length_c 9.644676
_cell_angle_alpha 118.272400
_cell_angle_beta 58.692603
_cell_angle_gamma 152.935225
_cell_volume 732.736667
_symmetry_space_group_name_H-M "P -1"
_symmetry_group_IT_number 2
_symmetry_cell_setting 'triclinic'
loop_
_space_group_symop_operation_xyz
x,y,z
-x,-y,-z
loop_
_atom_site_type_symbol
_atom_site_label
_atom_site_fract_x
_atom_site_fract_y
_atom_site_fract_z
Si Si1 0.157418 0.566800 0.494102
Si Si2 0.147835 0.101249 0.324135
Si Si3 0.242002 0.006080 0.568551
Si Si4 0.408234 0.612970 0.317494
Si Si5 0.119885 0.573271 0.228822
Si Si6 0.891075 0.870740 0.161209
Si Si7 0.680063 0.976305 0.782313
Si Si8 0.343594 0.581695 0.026173
O O1 0.292529 0.609601 0.464912
O O2 0.226123 0.690446 0.359950
O O3 0.094400 0.612796 0.670987
O O4 0.957054 0.282029 0.457036
O O5 0.310431 0.381267 0.320693
O O6 0.218244 0.041965 0.272916
O O7 0.000000 0.000000 0.500000
O O8 0.032359 0.957350 0.195837
O O9 0.377519 0.140596 0.665883
O O10 0.166755 0.064310 0.678731
O O11 0.369703 0.110592 0.387485
O O12 0.381816 0.591209 0.159819
O O13 0.201525 0.768198 0.178088
O O14 0.164660 0.480605 0.097677
O O15 0.702635 0.592408 0.121284
O O16 0.000000 0.000000 0.000000
O O17 0.519354 0.829749 0.944243
#
# Coordination Sequence:
#
# PCOD9059400 Si02
#       8
#     2   2   2   2   2   2   2   2
#     4   9  18  42  70  92 124 163 218 266 308 369
#     4  12  23  41  66  94 130 167 211 263 323 380
#     4  11  23  41  68 100 125 165 214 261 323 379
#     4  11  23  41  68 100 125 165 214 261 323 379
#     4   9  19  42  67  84 127 175 204 259 320 364
#     4  12  23  41  66  94 130 167 211 263 323 380
#     4  11  24  41  63  94 131 168 211 264 313 377
#     4  11  24  41  63  94 131 168 211 264 313 377
#
# _framework density 21.835947999999998
#
# number of rings (size 3 to 8) (size 9 to 14) (size 15 to 20)
#    0.000    1.250    3.750    2.625    3.500    2.000 
#    0.000   16.250    0.000    0.000    0.000    0.000 
#    0.000    0.000    0.000    0.000    0.000    0.000 
#
# Total GULP energy -89219.144400 kJ/mol
# GULP energy per Si atom -5576.196525 kJ/mol
# Density = 2.178625 g / cm^3
# Si number density = 21.835948 Si / 1000 Ang^3
#
#
#
# Elastic Constant Matrix: (Units=GPa)
#
#
# Indices 1 2 3 4 5 6 
#
# 1 117.6091 23.4479 3.7598 13.4176 2.8349 -6.7640
# 2 23.4479 67.6451 9.5962 -9.4007 16.8366 -6.9662
# 3 3.7598 9.5962 66.2600 -1.1847 5.0022 -7.7100
# 4 13.4176 -9.4007 -1.1847 27.8507 -2.4949 7.8504
# 5 2.8349 16.8366 5.0022 -2.4949 30.7006 -3.0586
# 6 -6.7640 -6.9662 -7.7100 7.8504 -3.0586 30.1600
#
#
#
# Elastic Compliance Matrix: (Units=1/GPa)
#
#
# Indices 1 2 3 4 5 6 
#
# 1 0.010434 -0.004654 0.000247 -0.007429 0.001283 0.003392
# 2 -0.004654 0.020192 -0.001775 0.008093 -0.009689 0.000077
# 3 0.000247 -0.001775 0.015867 -0.001261 -0.001349 0.003893
# 4 -0.007429 0.008093 -0.001261 0.045468 -0.001053 -0.012061
# 5 0.001283 -0.009689 -0.001349 -0.001053 0.038086 0.001841
# 6 0.003392 0.000077 0.003893 -0.012061 0.001841 0.038256
#
#
# Mechanical properties :
#
#
# Convention : Reuss Voigt Hill
#
# Bulk Modulus (GPa) = 29.30019 36.12466 32.71242
# Shear Modulus (GPa) = 26.03545 32.05628 29.04587
#
# Velocity S-wave (km/s) = 3.45675 3.83567 3.65113
# Velocity P-wave (km/s) = 5.42029 6.01632 5.72607
#
# Compressibility (1/GPa) = 0.03412948
#
# Stress axis : x y z
#
# Youngs Moduli (GPa) = 95.83632 49.52343 63.02212
#
# Poissons Ratio (x) = 0.23050 -0.01557
# Poissons Ratio (y) = 0.44605 0.11187
# Poissons Ratio (z) = -0.02367 0.08791
#
# Static dielectric constant tensor:
#      x y z
#    x 1.829990 -0.016490 -0.002840 
#    y -0.016490 1.933190 -0.023970 
#    z -0.002840 -0.023970 1.851560 
# 
# From -- ./inp_files/307978.got.cif
#   From: 2010.05.17/outbox.cif.g08.bks.cpg/sg2_154_cif.got.tgz:307978.got - 2010.06.03 11:33:40.
