data_PCOD9059397
_publ_section_title
;
Structure prediction by ZEFSAII (Michael W. Deem and Ramdas Pophale) SiO2 
 PCOD9059397
Probable space group: P -1
;
_chemical_formula_sum "Si O2"
_cell_formula_units_Z 16
_cell_length_a 24.464955
_cell_length_b 11.541230
_cell_length_c 11.444343
_cell_angle_alpha 141.565991
_cell_angle_beta 156.267317
_cell_angle_gamma 36.670392
_cell_volume 760.333640
_symmetry_space_group_name_H-M "P -1"
_symmetry_group_IT_number 2
_symmetry_cell_setting 'triclinic'
loop_
_space_group_symop_operation_xyz
x,y,z
-x,-y,-z
loop_
_atom_site_type_symbol
_atom_site_label
_atom_site_fract_x
_atom_site_fract_y
_atom_site_fract_z
Si Si1 0.385702 0.814770 0.466566
Si Si2 0.221661 0.301232 0.230657
Si Si3 0.423968 0.400520 0.136215
Si Si4 0.221438 0.054064 0.806050
Si Si5 0.944116 0.242053 0.759719
Si Si6 0.841854 0.667195 0.326890
Si Si7 0.913387 0.918088 0.856264
Si Si8 0.460055 0.177271 0.796640
O O1 0.443334 0.611857 0.348130
O O2 0.439219 0.762017 0.662772
O O3 0.213201 0.905461 0.192169
O O4 0.447016 0.976700 0.665631
O O5 0.170445 0.539595 0.311543
O O6 0.360726 0.230123 0.529826
O O7 0.241957 0.192761 0.059937
O O8 0.091062 0.243935 0.988161
O O9 0.288988 0.414101 0.968385
O O10 0.406506 0.339436 0.922250
O O11 0.181027 0.191041 0.718901
O O12 0.106638 0.942525 0.519418
O O13 0.371728 0.875216 0.940712
O O14 0.980059 0.215148 0.945860
O O15 0.837210 0.795275 0.534850
O O16 0.000000 0.500000 0.500000
O O17 0.000000 0.000000 0.000000
#
# Coordination Sequence:
#
# PCOD9059397 Si02
#       8
#     2   2   2   2   2   2   2   2
#     4  11  23  41  67  99 135 177 215 274 342 401
#     4  11  26  47  68  95 135 182 230 271 327 397
#     4  11  24  41  66 101 134 173 221 275 342 398
#     4  12  26  43  69  98 133 177 227 277 330 399
#     4  11  25  46  68  99 133 178 224 281 329 394
#     4  12  23  39  65 102 138 170 218 279 338 400
#     4  12  22  41  69 101 135 170 221 275 342 398
#     4  12  24  46  69  95 136 178 224 281 331 398
#
# _framework density 21.043392999999998
#
# number of rings (size 3 to 8) (size 9 to 14) (size 15 to 20)
#    0.000    0.500    5.000    3.375    0.000    3.500 
#    0.000    0.000    0.000    0.000    0.000    0.000 
#    0.000    0.000    0.000    0.000    0.000    0.000 
#
# Total GULP energy -89472.191315 kJ/mol
# GULP energy per Si atom -5592.011957 kJ/mol
# Density = 2.099550 g / cm^3
# Si number density = 21.043393 Si / 1000 Ang^3
#
#
#
# Elastic Constant Matrix: (Units=GPa)
#
#
# Indices 1 2 3 4 5 6 
#
# 1 49.8833 11.4855 11.8164 -7.8729 -13.0771 2.1078
# 2 11.4855 68.6786 24.8094 -18.6332 -17.7905 0.3680
# 3 11.8164 24.8094 79.6865 -6.6609 -18.2824 2.6210
# 4 -7.8729 -18.6332 -6.6609 35.4529 -1.5910 1.0145
# 5 -13.0771 -17.7905 -18.2824 -1.5910 46.5692 -8.9033
# 6 2.1078 0.3680 2.6210 1.0145 -8.9033 11.3016
#
#
#
# Elastic Compliance Matrix: (Units=1/GPa)
#
#
# Indices 1 2 3 4 5 6 
#
# 1 0.022786 -0.000451 -0.001504 0.004795 0.005857 0.000297
# 2 -0.000451 0.020816 -0.003977 0.010281 0.007655 0.005436
# 3 -0.001504 -0.003977 0.014964 0.000565 0.003953 0.000003
# 4 0.004795 0.010281 0.000565 0.035063 0.006866 0.000901
# 5 0.005857 0.007655 0.003953 0.006866 0.032116 0.022426
# 6 0.000297 0.005436 0.000003 0.000901 0.022426 0.105836
#
#
# Mechanical properties :
#
#
# Convention : Reuss Voigt Hill
#
# Bulk Modulus (GPa) = 21.41206 32.71901 27.06553
# Shear Modulus (GPa) = 19.30404 28.67388 23.98896
#
# Velocity S-wave (km/s) = 3.03205 3.69536 3.38002
# Velocity P-wave (km/s) = 4.73868 5.81289 5.30305
#
# Compressibility (1/GPa) = 0.04670265
#
# Stress axis : x y z
#
# Youngs Moduli (GPa) = 43.88580 48.04072 66.82514
#
# Poissons Ratio (x) = 0.02167 0.10049
# Poissons Ratio (y) = 0.01980 0.26577
# Poissons Ratio (z) = 0.06599 0.19106
#
# Static dielectric constant tensor:
#      x y z
#    x 1.779430 -0.013300 0.010570 
#    y -0.013300 1.740370 0.002160 
#    z 0.010570 0.002160 1.784490 
# 
# From -- ./inp_files/471139.got.cif
#   From: 2010.05.17/outbox.cif.g08.bks.cpg/sg2_236_cif.got.tgz:471139.got - 2010.06.03 11:33:40.
