data_PCOD9059956
_publ_section_title
;
Structure prediction by ZEFSAII (Michael W. Deem and Ramdas Pophale) SiO2 
 PCOD9059956
Probable space group: P -1
;
_chemical_formula_sum "Si O2"
_cell_formula_units_Z 16
_cell_length_a 8.288659
_cell_length_b 14.112508
_cell_length_c 15.174519
_cell_angle_alpha 143.221516
_cell_angle_beta 92.197328
_cell_angle_gamma 113.948404
_cell_volume 726.029156
_symmetry_space_group_name_H-M "P -1"
_symmetry_group_IT_number 2
_symmetry_cell_setting 'triclinic'
loop_
_space_group_symop_operation_xyz
x,y,z
-x,-y,-z
loop_
_atom_site_type_symbol
_atom_site_label
_atom_site_fract_x
_atom_site_fract_y
_atom_site_fract_z
Si Si1 0.616000 0.800011 0.849302
Si Si2 0.457906 0.790893 0.647619
Si Si3 0.912677 0.693795 0.794814
Si Si4 0.147496 0.965355 0.303840
Si Si5 0.052372 0.417463 0.099358
Si Si6 0.622266 0.273772 0.035980
Si Si7 0.640152 0.740926 0.132617
Si Si8 0.569760 0.869107 0.396875
O O1 0.508370 0.753076 0.715972
O O2 0.727418 0.704604 0.787071
O O3 0.431203 0.708868 0.853675
O O4 0.841043 0.078431 0.073839
O O5 0.204651 0.549467 0.427240
O O6 0.641523 0.853035 0.624976
O O7 0.510117 0.016959 0.825659
O O8 0.970960 0.714167 0.914689
O O9 0.908859 0.890361 0.227736
O O10 0.234696 0.039171 0.459913
O O11 0.073282 0.733676 0.104193
O O12 0.325911 0.614507 0.231236
O O13 0.900753 0.459687 0.158019
O O14 0.498692 0.305969 0.991252
O O15 0.639402 0.878954 0.307173
O O16 0.500000 0.500000 0.000000
O O17 0.500000 0.000000 0.500000
#
# Coordination Sequence:
#
# PCOD9059956 Si02
#       8
#     2   2   2   2   2   2   2   2
#     4  11  24  44  69 101 141 180 224 274 344 408
#     4  11  23  45  69 104 136 179 225 277 342 407
#     4  11  23  42  71  98 136 183 222 275 341 408
#     4  11  23  45  71  97 138 173 227 282 335 406
#     4  11  23  45  71  97 141 180 220 284 345 400
#     4  11  26  45  69 101 143 179 227 284 337 405
#     4  12  27  46  71 100 137 185 230 283 342 400
#     4  12  26  45  73 101 132 181 232 283 345 402
#
# _framework density 22.037683000000001
#
# number of rings (size 3 to 8) (size 9 to 14) (size 15 to 20)
#    0.000    0.750    5.000    3.375    3.500    1.500 
#    2.250    0.000    0.000    0.000    0.000    0.000 
#    0.000    0.000    0.000    0.000    0.000    0.000 
#
# Total GULP energy -89450.774792 kJ/mol
# GULP energy per Si atom -5590.673424 kJ/mol
# Density = 2.198752 g / cm^3
# Si number density = 22.037683 Si / 1000 Ang^3
#
#
#
# Elastic Constant Matrix: (Units=GPa)
#
#
# Indices 1 2 3 4 5 6 
#
# 1 50.3549 5.1753 -15.3384 3.3171 13.9163 18.8764
# 2 5.1753 57.8735 -8.4809 -9.5813 2.1474 5.2653
# 3 -15.3384 -8.4809 55.4550 -6.1768 5.0023 -14.4415
# 4 3.3171 -9.5813 -6.1768 17.7978 0.1385 -12.6631
# 5 13.9163 2.1474 5.0023 0.1385 29.0533 -12.6070
# 6 18.8764 5.2653 -14.4415 -12.6631 -12.6070 14.7212
#
#
#
# Elastic Compliance Matrix: (Units=1/GPa)
#
#
# Indices 1 2 3 4 5 6 
#
# 1 0.007758 0.002555 0.013206 0.027194 0.007560 0.031960
# 2 0.002555 0.019453 0.003358 0.006787 -0.005969 -0.006214
# 3 0.013206 0.003358 0.021283 0.000683 -0.013998 -0.008656
# 4 0.027194 0.006787 0.000683 0.019127 -0.035789 -0.050823
# 5 0.007560 -0.005969 -0.013998 -0.035789 0.017860 -0.036782
# 6 0.031960 -0.006214 -0.008656 -0.050823 -0.036782 -0.054538
#
#
# Mechanical properties :
#
#
# Convention : Reuss Voigt Hill
#
# Bulk Modulus (GPa) = 11.52951 14.04393 12.78672
# Shear Modulus (GPa) = 231.32472 24.46960 127.89716
#
# Velocity S-wave (km/s) = 10.25649 3.33581 7.62638
# Velocity P-wave (km/s) = 12.06250 4.60688 9.13037
#
# Compressibility (1/GPa) = 0.08673395
#
# Stress axis : x y z
#
# Youngs Moduli (GPa) = 128.90088 51.40586 46.98496
#
# Poissons Ratio (x) = -0.13136 -0.62050
# Poissons Ratio (y) = -0.32940 -0.15777
# Poissons Ratio (z) = -1.70232 -0.17262
#
# Static dielectric constant tensor:
#      x y z
#    x 1.812350 0.039560 -0.011800 
#    y 0.039560 1.896270 0.098120 
#    z -0.011800 0.098120 1.791580 
# 
# From -- ./inp_files/504458.got.cif
#   From: 2010.05.17/outbox.cif.g08.bks.cpg/sg2_253_cif.got.tgz:504458.got - 2010.06.03 11:33:40.
