data_PCOD9059769
_publ_section_title
;
Structure prediction by ZEFSAII (Michael W. Deem and Ramdas Pophale) SiO2 
 PCOD9059769
Probable space group: P -1
;
_chemical_formula_sum "Si O2"
_cell_formula_units_Z 16
_cell_length_a 5.046666
_cell_length_b 17.909240
_cell_length_c 23.520820
_cell_angle_alpha 158.646800
_cell_angle_beta 77.414132
_cell_angle_gamma 94.349522
_cell_volume 705.484053
_symmetry_space_group_name_H-M "P -1"
_symmetry_group_IT_number 2
_symmetry_cell_setting 'triclinic'
loop_
_space_group_symop_operation_xyz
x,y,z
-x,-y,-z
loop_
_atom_site_type_symbol
_atom_site_label
_atom_site_fract_x
_atom_site_fract_y
_atom_site_fract_z
Si Si1 0.753950 0.474367 0.426737
Si Si2 0.242826 0.097041 0.401983
Si Si3 0.891055 0.948453 0.222468
Si Si4 0.125045 0.138157 0.248018
Si Si5 0.597372 0.857560 0.952787
Si Si6 0.898089 0.541000 0.099640
Si Si7 0.746271 0.437740 0.272902
Si Si8 0.763782 0.168982 0.672218
O O1 0.500000 0.500000 0.500000
O O2 0.881519 0.659977 0.568622
O O3 0.643629 0.496155 0.383988
O O4 0.983265 0.239605 0.266621
O O5 0.217784 0.341579 0.595331
O O6 0.555411 0.991919 0.281925
O O7 0.227364 0.954537 0.356050
O O8 0.999702 0.087987 0.362316
O O9 0.957166 0.012548 0.202001
O O10 0.077267 0.693758 0.043850
O O11 0.448532 0.995478 0.113005
O O12 0.472413 0.659406 0.814923
O O13 0.940527 0.753194 0.870946
O O14 0.500000 0.000000 0.000000
O O15 0.576659 0.723962 0.252172
O O16 0.126522 0.629626 0.181276
O O17 0.000000 0.500000 0.000000
O O18 0.000000 0.000000 0.500000
#
# Coordination Sequence:
#
# PCOD9059769 Si02
#       8
#     2   2   2   2   2   2   2   2
#     4  11  23  42  68  94 130 175 231 272 328 404
#     4  12  24  45  69 102 138 175 227 284 341 401
#     4  12  25  42  72 103 134 175 233 289 331 396
#     4  11  26  41  66  99 130 174 229 281 328 398
#     4  12  26  45  65  95 137 179 221 278 343 399
#     4  12  23  45  74 102 138 185 232 275 346 418
#     4  12  26  43  70  94 135 182 221 270 348 404
#     4  12  26  45  73 106 143 182 225 282 351 416
#
# _framework density 22.679462000000001
#
# number of rings (size 3 to 8) (size 9 to 14) (size 15 to 20)
#    0.000    0.250    5.000    4.125    3.500    2.000 
#    0.000    0.000    0.000    0.000    0.000    0.000 
#    0.000    0.000    0.000    0.000    0.000    0.000 
#
# Total GULP energy -89591.974119 kJ/mol
# GULP energy per Si atom -5599.498382 kJ/mol
# Density = 2.262784 g / cm^3
# Si number density = 22.679462 Si / 1000 Ang^3
#
#
#
# Elastic Constant Matrix: (Units=GPa)
#
#
# Indices 1 2 3 4 5 6 
#
# 1 76.9405 3.2800 1.7535 -9.3342 -0.5526 14.6304
# 2 3.2800 92.0279 29.4397 3.4912 0.0975 20.1630
# 3 1.7535 29.4397 81.7075 6.8593 -3.9932 12.6960
# 4 -9.3342 3.4912 6.8593 34.0574 19.6959 -5.3691
# 5 -0.5526 0.0975 -3.9932 19.6959 46.6588 -4.5372
# 6 14.6304 20.1630 12.6960 -5.3691 -4.5372 28.3919
#
#
#
# Elastic Compliance Matrix: (Units=1/GPa)
#
#
# Indices 1 2 3 4 5 6 
#
# 1 0.014965 0.001061 0.000108 0.004023 -0.002304 -0.008121
# 2 0.001061 0.014067 -0.003533 -0.001592 -0.000556 -0.009347
# 3 0.000108 -0.003533 0.014796 -0.005023 0.002944 -0.004643
# 4 0.004023 -0.001592 -0.005023 0.043030 -0.017903 0.006580
# 5 -0.002304 -0.000556 0.002944 -0.017903 0.029368 0.001573
# 6 -0.008121 -0.009347 -0.004643 0.006580 0.001573 0.049616
#
#
# Mechanical properties :
#
#
# Convention : Reuss Voigt Hill
#
# Bulk Modulus (GPa) = 25.57423 35.51361 30.54392
# Shear Modulus (GPa) = 27.23253 36.23515 31.73384
#
# Velocity S-wave (km/s) = 3.46895 4.00147 3.74469
# Velocity P-wave (km/s) = 5.22931 6.08621 5.67396
#
# Compressibility (1/GPa) = 0.03910186
#
# Stress axis : x y z
#
# Youngs Moduli (GPa) = 66.82243 71.08619 67.58524
#
# Poissons Ratio (x) = -0.07543 -0.00730
# Poissons Ratio (y) = -0.07091 0.23875
# Poissons Ratio (z) = -0.00722 0.25111
#
# Static dielectric constant tensor:
#      x y z
#    x 1.881320 0.017390 -0.044240 
#    y 0.017390 1.843440 -0.005570 
#    z -0.044240 -0.005570 1.918850 
# 
# From -- ./inp_files/604949.got.cif
#   From: 2010.05.17/outbox.cif.g08.bks.cpg/sg2_303_cif.got.tgz:604949.got - 2010.06.03 11:33:40.
