data_PCOD9059003
_publ_section_title
;
Structure prediction by ZEFSAII (Michael W. Deem and Ramdas Pophale) SiO2 
 PCOD9059003
Probable space group: P -1
;
_chemical_formula_sum "Si O2"
_cell_formula_units_Z 12
_cell_length_a 9.014290
_cell_length_b 15.179224
_cell_length_c 15.799835
_cell_angle_alpha 153.321909
_cell_angle_beta 147.918142
_cell_angle_gamma 39.864848
_cell_volume 515.039239
_symmetry_space_group_name_H-M "P -1"
_symmetry_group_IT_number 2
_symmetry_cell_setting 'triclinic'
loop_
_space_group_symop_operation_xyz
x,y,z
-x,-y,-z
loop_
_atom_site_type_symbol
_atom_site_label
_atom_site_fract_x
_atom_site_fract_y
_atom_site_fract_z
Si Si1 0.225550 0.631789 0.965325
Si Si2 0.376410 0.596362 0.322527
Si Si3 0.008372 0.235613 0.853535
Si Si4 0.142631 0.618293 0.551529
Si Si5 0.614806 0.162879 0.296766
Si Si6 0.000488 0.992210 0.093838
O O1 0.040800 0.510733 0.708025
O O2 0.500000 0.500000 0.000000
O O3 0.085723 0.683459 0.031557
O O4 0.250237 0.843403 0.115984
O O5 0.257855 0.745036 0.321436
O O6 0.696405 0.520846 0.422479
O O7 0.314819 0.698225 0.470981
O O8 0.224896 0.392421 0.059161
O O9 0.164605 0.023298 0.754519
O O10 0.357316 0.719143 0.676175
O O11 0.982988 0.798953 0.674670
O O12 0.300222 0.091487 0.095439
O O13 0.000000 0.000000 0.000000
#
# Coordination Sequence:
#
# PCOD9059003 Si02
#       6
#     2   2   2   2   2   2
#     4  12  28  48  70 100 146 187 234 291 356 413
#     4  11  23  39  75 105 137 176 237 289 342 407
#     4  11  24  43  69 110 140 180 232 293 342 412
#     4  12  24  47  76 101 136 193 236 285 347 419
#     4  12  22  46  76 106 138 182 241 284 343 421
#     4  12  28  45  72 108 142 183 232 292 352 418
#
# _framework density 23.299196999999999
#
# number of rings (size 3 to 8) (size 9 to 14) (size 15 to 20)
#    0.000    0.333    6.667    2.500    2.333    2.667 
#    3.000    0.000    0.000    0.000    0.000    0.000 
#    0.000    0.000    0.000    0.000    0.000    0.000 
#
# Total GULP energy -67215.376534 kJ/mol
# GULP energy per Si atom -5601.281378 kJ/mol
# Density = 2.324617 g / cm^3
# Si number density = 23.299197 Si / 1000 Ang^3
#
#
#
# Elastic Constant Matrix: (Units=GPa)
#
#
# Indices 1 2 3 4 5 6 
#
# 1 63.8135 43.9788 27.7632 8.3826 -14.8645 -1.6165
# 2 43.9788 223.9762 55.9149 -8.7131 -14.2818 -23.8590
# 3 27.7632 55.9149 76.6708 4.7072 -22.0254 -5.9526
# 4 8.3826 -8.7131 4.7072 44.5060 -5.2034 -14.5748
# 5 -14.8645 -14.2818 -22.0254 -5.2034 40.3935 5.6869
# 6 -1.6165 -23.8590 -5.9526 -14.5748 5.6869 38.8414
#
#
#
# Elastic Compliance Matrix: (Units=1/GPa)
#
#
# Indices 1 2 3 4 5 6 
#
# 1 0.021509 -0.003677 -0.003851 -0.005352 0.004476 -0.004617
# 2 -0.003677 0.006747 -0.003794 0.003928 -0.001244 0.005066
# 3 -0.003851 -0.003794 0.019451 -0.001568 0.007820 -0.001243
# 4 -0.005352 0.003928 -0.001568 0.028597 0.000473 0.012612
# 5 0.004476 -0.001244 0.007820 0.000473 0.030812 -0.003713
# 6 -0.004617 0.005066 -0.001243 0.012612 -0.003713 0.033751
#
#
# Mechanical properties :
#
#
# Convention : Reuss Voigt Hill
#
# Bulk Modulus (GPa) = 39.90091 68.86382 54.38236
# Shear Modulus (GPa) = 29.09262 40.53509 34.81385
#
# Velocity S-wave (km/s) = 3.53746 4.17557 3.86969
# Velocity P-wave (km/s) = 5.81786 7.27102 6.58465
#
# Compressibility (1/GPa) = 0.02506209
#
# Stress axis : x y z
#
# Youngs Moduli (GPa) = 46.49274 148.21163 51.41178
#
# Poissons Ratio (x) = 0.54490 0.19801
# Poissons Ratio (y) = 0.17093 0.19507
# Poissons Ratio (z) = 0.17906 0.56237
#
# Static dielectric constant tensor:
#      x y z
#    x 1.882900 0.009380 0.057520 
#    y 0.009380 1.873420 -0.029990 
#    z 0.057520 -0.029990 1.867080 
# 
# From -- ./inp_files/149671.got.cif
#   From: 2010.05.17/outbox.cif.g08.bks.cpg/sg2_75_cif.got.tgz:149671.got - 2010.06.03 11:33:40.
