data_PCOD9059883
_publ_section_title
;
Structure prediction by ZEFSAII (Michael W. Deem and Ramdas Pophale) SiO2 
 PCOD9059883
Probable space group: P -1
;
_chemical_formula_sum "Si O2"
_cell_formula_units_Z 16
_cell_length_a 8.636638
_cell_length_b 17.151947
_cell_length_c 6.090988
_cell_angle_alpha 77.395109
_cell_angle_beta 72.902227
_cell_angle_gamma 48.102826
_cell_volume 641.627830
_symmetry_space_group_name_H-M "P -1"
_symmetry_group_IT_number 2
_symmetry_cell_setting 'triclinic'
loop_
_space_group_symop_operation_xyz
x,y,z
-x,-y,-z
loop_
_atom_site_type_symbol
_atom_site_label
_atom_site_fract_x
_atom_site_fract_y
_atom_site_fract_z
Si Si1 0.575319 0.549398 0.788134
Si Si2 0.378885 0.703345 0.414060
Si Si3 0.759687 0.022261 0.211075
Si Si4 0.718095 0.797321 0.768974
Si Si5 0.237965 0.393177 0.974124
Si Si6 0.256598 0.925941 0.328081
Si Si7 0.279977 0.137944 0.860579
Si Si8 0.084977 0.678476 0.336586
O O1 0.387875 0.641497 0.655704
O O2 0.653289 0.597702 0.871324
O O3 0.775766 0.445523 0.645318
O O4 0.500000 0.500000 0.000000
O O5 0.295183 0.818833 0.408390
O O6 0.242125 0.702632 0.287023
O O7 0.622726 0.629570 0.280994
O O8 0.518238 0.130170 0.270930
O O9 0.847467 0.011342 0.431235
O O10 0.751718 0.929694 0.231428
O O11 0.820358 0.034212 0.924657
O O12 0.740557 0.707411 0.942677
O O13 0.911651 0.735755 0.563326
O O14 0.723695 0.874879 0.868973
O O15 0.000000 0.500000 0.000000
O O16 0.493570 0.891581 0.247690
O O17 0.069173 0.258686 0.841728
#
# Coordination Sequence:
#
# PCOD9059883 Si02
#       8
#     2   2   2   2   2   2   2   2
#     4  12  28  45  69  99 146 189 234 294 370 439
#     4  12  27  46  69  99 145 188 230 299 373 428
#     4  11  23  43  77 106 144 189 246 303 361 422
#     4  11  23  42  70 106 142 181 245 298 356 432
#     4  12  25  43  73 101 135 183 240 298 356 429
#     4  11  23  45  73 105 141 189 244 297 360 430
#     4  11  24  42  74 102 140 188 242 298 355 429
#     4  12  27  43  68 104 141 188 240 294 368 432
#
# _framework density 24.936574
#
# number of rings (size 3 to 8) (size 9 to 14) (size 15 to 20)
#    0.000    0.500    5.000    4.500    5.250    1.000 
#    0.000    1.250    0.000    0.000    0.000    0.000 
#    0.000    0.000    0.000    0.000    0.000    0.000 
#
# Total GULP energy -89405.479418 kJ/mol
# GULP energy per Si atom -5587.842464 kJ/mol
# Density = 2.487982 g / cm^3
# Si number density = 24.936574 Si / 1000 Ang^3
#
#
#
# Elastic Constant Matrix: (Units=GPa)
#
#
# Indices 1 2 3 4 5 6 
#
# 1 76.0229 45.1160 52.8967 -9.0942 25.9536 12.4934
# 2 45.1160 128.6079 44.3378 -7.8966 7.2478 14.7118
# 3 52.8967 44.3378 129.4885 10.6126 8.5267 -2.0165
# 4 -9.0942 -7.8966 10.6126 46.4754 -5.5364 2.7534
# 5 25.9536 7.2478 8.5267 -5.5364 52.2723 12.2682
# 6 12.4934 14.7118 -2.0165 2.7534 12.2682 46.3455
#
#
#
# Elastic Compliance Matrix: (Units=1/GPa)
#
#
# Indices 1 2 3 4 5 6 
#
# 1 0.027271 -0.005011 -0.009304 0.005672 -0.009810 -0.003906
# 2 -0.005011 0.010463 -0.001854 0.001638 0.002151 -0.002718
# 3 -0.009304 -0.001854 0.012529 -0.005033 0.001466 0.003553
# 4 0.005672 0.001638 -0.005033 0.024453 0.001323 -0.004071
# 5 -0.009810 0.002151 0.001466 0.001323 0.024681 -0.004586
# 6 -0.003906 -0.002718 0.003553 -0.004071 -0.004586 0.025103
#
#
# Mechanical properties :
#
#
# Convention : Reuss Voigt Hill
#
# Bulk Modulus (GPa) = 55.78696 68.75781 62.27238
# Shear Modulus (GPa) = 30.70995 41.80324 36.25659
#
# Velocity S-wave (km/s) = 3.51311 4.09881 3.81721
# Velocity P-wave (km/s) = 6.23507 7.07342 6.66743
#
# Compressibility (1/GPa) = 0.01792534
#
# Stress axis : x y z
#
# Youngs Moduli (GPa) = 36.66846 95.57683 79.81184
#
# Poissons Ratio (x) = 0.47896 0.74259
# Poissons Ratio (y) = 0.18375 0.14794
# Poissons Ratio (z) = 0.34117 0.17716
#
# Static dielectric constant tensor:
#      x y z
#    x 2.016760 -0.036960 0.033320 
#    y -0.036960 1.936650 -0.026260 
#    z 0.033320 -0.026260 2.200140 
# 
# From -- ./inp_files/46768.got.cif
#   From: 2010.05.17/outbox.cif.g08.bks.cpg/sg2_24_cif.got.tgz:46768.got - 2010.06.03 11:33:40.
