data_PCOD9059476
_publ_section_title
;
Structure prediction by ZEFSAII (Michael W. Deem and Ramdas Pophale) SiO2 
 PCOD9059476
Probable space group: P -1
;
_chemical_formula_sum "Si O2"
_cell_formula_units_Z 14
_cell_length_a 6.488910
_cell_length_b 14.700681
_cell_length_c 23.110716
_cell_angle_alpha 161.605829
_cell_angle_beta 119.535298
_cell_angle_gamma 58.232574
_cell_volume 591.261068
_symmetry_space_group_name_H-M "P -1"
_symmetry_group_IT_number 2
_symmetry_cell_setting 'triclinic'
loop_
_space_group_symop_operation_xyz
x,y,z
-x,-y,-z
loop_
_atom_site_type_symbol
_atom_site_label
_atom_site_fract_x
_atom_site_fract_y
_atom_site_fract_z
Si Si1 0.741848 0.523400 0.407451
Si Si2 0.903601 0.078762 0.267916
Si Si3 0.767369 0.138585 0.488052
Si Si4 0.457491 0.262478 0.990014
Si Si5 0.734030 0.135031 0.615847
Si Si6 0.727591 0.471604 0.056891
Si Si7 0.715409 0.105884 0.051023
O O1 0.915597 0.756390 0.574649
O O2 0.458781 0.679405 0.467851
O O3 0.758878 0.371927 0.256616
O O4 0.821925 0.282317 0.323303
O O5 0.050443 0.752185 0.075397
O O6 0.668863 0.983954 0.205073
O O7 0.762573 0.232509 0.611704
O O8 0.756577 0.794318 0.273375
O O9 0.036532 0.124471 0.494364
O O10 0.303075 0.595332 0.181699
O O11 0.674881 0.305170 0.006199
O O12 0.559821 0.155908 0.001878
O O13 0.500000 0.000000 0.500000
O O14 0.500000 0.500000 0.000000
O O15 0.500000 0.000000 0.000000
O O16 0.000000 0.000000 0.000000
#
# Coordination Sequence:
#
# PCOD9059476 Si02
#       7
#     2   2   2   2   2   2   2
#     4  11  24  49  75 111 152 205 253 321 388 480
#     4  11  25  48  72 108 157 198 258 312 398 469
#     4  11  23  43  71 105 148 193 254 321 387 466
#     4  12  25  44  76 108 149 204 261 325 388 467
#     4  11  23  41  69 106 143 191 253 321 386 456
#     4  12  25  46  71 104 150 203 254 321 394 466
#     4  12  27  50  80 114 155 207 263 326 398 469
#
# _framework density 23.678201000000001
#
# number of rings (size 3 to 8) (size 9 to 14) (size 15 to 20)
#    0.000    0.571    7.143    0.857    0.000    1.714 
#    5.143    2.143    0.000    0.000    0.000    0.000 
#    0.000    0.000    0.000    0.000    0.000    0.000 
#
# Total GULP energy -78068.695359 kJ/mol
# GULP energy per Si atom -5576.335383 kJ/mol
# Density = 2.362431 g / cm^3
# Si number density = 23.678201 Si / 1000 Ang^3
#
#
#
# Elastic Constant Matrix: (Units=GPa)
#
#
# Indices 1 2 3 4 5 6 
#
# 1 101.9186 25.1106 33.8656 -4.3487 19.0232 -25.9191
# 2 25.1106 81.4238 1.8797 -1.3373 3.3310 -21.9388
# 3 33.8656 1.8797 108.8794 -21.2328 21.6481 -22.1657
# 4 -4.3487 -1.3373 -21.2328 32.8916 -4.6468 -0.9907
# 5 19.0232 3.3310 21.6481 -4.6468 21.6949 1.3652
# 6 -25.9191 -21.9388 -22.1657 -0.9907 1.3652 42.9262
#
#
#
# Elastic Compliance Matrix: (Units=1/GPa)
#
#
# Indices 1 2 3 4 5 6 
#
# 1 0.014908 -0.001811 -0.000303 0.000118 -0.012991 0.008336
# 2 -0.001811 0.015286 0.003297 0.002187 -0.004121 0.008603
# 3 -0.000303 0.003297 0.016022 0.008627 -0.015038 0.010453
# 4 0.000118 0.002187 0.008627 0.036027 -0.001742 0.006531
# 5 -0.012991 -0.004121 -0.015038 -0.001742 0.074016 -0.020110
# 6 0.008336 0.008603 0.010453 0.006531 -0.020110 0.038913
#
#
# Mechanical properties :
#
#
# Convention : Reuss Voigt Hill
#
# Bulk Modulus (GPa) = 20.58373 45.99262 33.28817
# Shear Modulus (GPa) = 23.92316 34.92692 29.42504
#
# Velocity S-wave (km/s) = 3.18204 3.84483 3.52903
# Velocity P-wave (km/s) = 4.71301 6.25911 5.54026
#
# Compressibility (1/GPa) = 0.04858207
#
# Stress axis : x y z
#
# Youngs Moduli (GPa) = 67.07644 65.41770 62.41374
#
# Poissons Ratio (x) = 0.11849 0.01890
# Poissons Ratio (y) = 0.12150 -0.20577
# Poissons Ratio (z) = 0.02032 -0.21567
#
# Static dielectric constant tensor:
#      x y z
#    x 2.098540 -0.045080 -0.136030 
#    y -0.045080 1.896340 0.033390 
#    z -0.136030 0.033390 1.979230 
# 
# From -- ./inp_files/604809.got.cif
#   From: 2010.05.17/outbox.cif.g08.bks.cpg/sg2_303_cif.got.tgz:604809.got - 2010.06.03 11:33:40.
