data_PCOD9059388
_publ_section_title
;
Structure prediction by ZEFSAII (Michael W. Deem and Ramdas Pophale) SiO2 
 PCOD9059388
Probable space group: P -1
;
_chemical_formula_sum "Si O2"
_cell_formula_units_Z 16
_cell_length_a 9.626797
_cell_length_b 12.375827
_cell_length_c 7.847411
_cell_angle_alpha 132.535207
_cell_angle_beta 98.478282
_cell_angle_gamma 77.430164
_cell_volume 672.407302
_symmetry_space_group_name_H-M "P -1"
_symmetry_group_IT_number 2
_symmetry_cell_setting 'triclinic'
loop_
_space_group_symop_operation_xyz
x,y,z
-x,-y,-z
loop_
_atom_site_type_symbol
_atom_site_label
_atom_site_fract_x
_atom_site_fract_y
_atom_site_fract_z
Si Si1 0.105658 0.793634 0.936631
Si Si2 0.406449 0.817589 0.184915
Si Si3 0.855851 0.348609 0.736815
Si Si4 0.419237 0.452814 0.204619
Si Si5 0.357357 0.348344 0.435860
Si Si6 0.446162 0.941859 0.696463
Si Si7 0.136861 0.946861 0.742593
Si Si8 0.084174 0.490550 0.728304
O O1 0.255063 0.787811 0.056921
O O2 0.124928 0.858490 0.822317
O O3 0.059436 0.631650 0.748458
O O4 0.982086 0.908698 0.125952
O O5 0.403965 0.892781 0.447610
O O6 0.464942 0.926144 0.176328
O O7 0.522788 0.668170 0.054524
O O8 0.693169 0.407908 0.723608
O O9 0.884207 0.171377 0.534683
O O10 0.956165 0.412307 0.685893
O O11 0.877344 0.426070 0.002278
O O12 0.346292 0.369803 0.253260
O O13 0.558149 0.516473 0.358183
O O14 0.455612 0.195173 0.340700
O O15 0.213216 0.376044 0.548689
O O16 0.294866 0.986412 0.806920
#
# Coordination Sequence:
#
# PCOD9059388 Si02
#       8
#     2   2   2   2   2   2   2   2
#     4  11  25  44  65  94 129 169 213 259 316 377
#     4  11  25  43  66  96 128 167 213 261 316 376
#     4  11  25  43  66  96 128 167 213 261 316 376
#     4  11  23  41  67  96 126 165 212 262 317 375
#     4  11  23  41  67  96 126 165 212 262 317 375
#     4  11  25  43  66  96 128 167 213 261 316 376
#     4  11  25  44  65  94 129 169 213 259 316 377
#     4  11  25  43  66  96 128 167 213 261 316 376
#
# _framework density 23.795103999999998
#
# number of rings (size 3 to 8) (size 9 to 14) (size 15 to 20)
#    0.000    1.000    2.500    3.000    3.500    7.000 
#    0.000    0.000    0.000    0.000    0.000    0.000 
#    0.000    0.000    0.000    0.000    0.000    0.000 
#
# Total GULP energy -89623.861185 kJ/mol
# GULP energy per Si atom -5601.491324 kJ/mol
# Density = 2.374095 g / cm^3
# Si number density = 23.795104 Si / 1000 Ang^3
#
#
#
# Elastic Constant Matrix: (Units=GPa)
#
#
# Indices 1 2 3 4 5 6 
#
# 1 144.3052 29.1496 39.1394 15.2666 -29.2958 18.4917
# 2 29.1496 62.0560 0.1137 7.4117 -10.6731 15.6888
# 3 39.1394 0.1137 68.5013 2.9373 -17.1649 -7.0124
# 4 15.2666 7.4117 2.9373 40.9485 0.6176 2.2230
# 5 -29.2958 -10.6731 -17.1649 0.6176 39.6697 4.6414
# 6 18.4917 15.6888 -7.0124 2.2230 4.6414 38.5347
#
#
#
# Elastic Compliance Matrix: (Units=1/GPa)
#
#
# Indices 1 2 3 4 5 6 
#
# 1 0.011165 -0.002319 -0.005331 -0.003130 0.006058 -0.005933
# 2 -0.002319 0.020313 0.002044 -0.002646 0.005532 -0.007299
# 3 -0.005331 0.002044 0.019224 -0.000083 0.004382 0.004701
# 4 -0.003130 -0.002646 -0.000083 0.026046 -0.003640 0.001500
# 5 0.006058 0.005532 0.004382 -0.003640 0.034089 -0.008258
# 6 -0.005933 -0.007299 0.004701 0.001500 -0.008258 0.033533
#
#
# Mechanical properties :
#
#
# Convention : Reuss Voigt Hill
#
# Bulk Modulus (GPa) = 25.32327 45.74090 35.53208
# Shear Modulus (GPa) = 29.63044 37.59457 33.61250
#
# Velocity S-wave (km/s) = 3.53261 3.97914 3.76251
# Velocity P-wave (km/s) = 5.22537 6.35421 5.81724
#
# Compressibility (1/GPa) = 0.03948937
#
# Stress axis : x y z
#
# Youngs Moduli (GPa) = 89.56349 49.22982 52.01931
#
# Poissons Ratio (x) = 0.11418 0.27730
# Poissons Ratio (y) = 0.20773 -0.10632
# Poissons Ratio (z) = 0.47745 -0.10062
#
# Static dielectric constant tensor:
#      x y z
#    x 1.847360 0.020360 0.005340 
#    y 0.020360 1.904950 -0.062730 
#    z 0.005340 -0.062730 1.908280 
# 
# From -- ./inp_files/190790.got.cif
#   From: 2010.05.17/outbox.cif.g08.bks.cpg/sg2_96_cif.got.tgz:190790.got - 2010.06.03 11:33:40.
