data_PCOD9059888
_publ_section_title
;
Structure prediction by ZEFSAII (Michael W. Deem and Ramdas Pophale) SiO2 
 PCOD9059888
Probable space group: P -1
;
_chemical_formula_sum "Si O2"
_cell_formula_units_Z 12
_cell_length_a 7.834162
_cell_length_b 7.371496
_cell_length_c 9.392862
_cell_angle_alpha 93.965994
_cell_angle_beta 106.020523
_cell_angle_gamma 71.632818
_cell_volume 494.712147
_symmetry_space_group_name_H-M "P -1"
_symmetry_group_IT_number 2
_symmetry_cell_setting 'triclinic'
loop_
_space_group_symop_operation_xyz
x,y,z
-x,-y,-z
loop_
_atom_site_type_symbol
_atom_site_label
_atom_site_fract_x
_atom_site_fract_y
_atom_site_fract_z
Si Si1 0.327391 0.610470 0.558612
Si Si2 0.426470 0.828570 0.026263
Si Si3 0.723072 0.454417 0.149824
Si Si4 0.884899 0.048844 0.825349
Si Si5 0.282825 0.040578 0.496880
Si Si6 0.968332 0.669483 0.320006
O O1 0.500000 0.500000 0.500000
O O2 0.372526 0.528307 0.719442
O O3 0.282896 0.837467 0.551385
O O4 0.142896 0.575665 0.454981
O O5 0.598784 0.634202 0.041570
O O6 0.328897 0.874005 0.159522
O O7 0.271737 0.756979 0.903344
O O8 0.500000 0.000000 0.000000
O O9 0.911657 0.504269 0.217591
O O10 0.851075 0.924359 0.673527
O O11 0.965793 0.202379 0.774046
O O12 0.000000 0.000000 0.000000
O O13 0.500000 0.000000 0.500000
O O14 0.196573 0.194995 0.610386
#
# Coordination Sequence:
#
# PCOD9059888 Si02
#       6
#     2   2   2   2   2   2
#     4  11  23  42  70 107 146 189 250 313 372 437
#     4  11  26  47  70 104 154 192 248 305 375 449
#     4  11  25  43  74 104 140 200 245 307 372 443
#     4  11  24  41  72 106 145 199 247 303 381 444
#     4  11  25  44  75 108 147 203 254 310 380 449
#     4  11  24  47  71 107 153 190 255 313 371 453
#
# _framework density 24.256526999999998
#
# number of rings (size 3 to 8) (size 9 to 14) (size 15 to 20)
#    0.000    1.000    0.000    7.500    9.333    0.667 
#    0.000    0.000    0.000    0.000    0.000    0.000 
#    0.000    0.000    0.000    0.000    0.000    0.000 
#
# Total GULP energy -66958.400786 kJ/mol
# GULP energy per Si atom -5579.866732 kJ/mol
# Density = 2.420132 g / cm^3
# Si number density = 24.256527 Si / 1000 Ang^3
#
#
#
# Elastic Constant Matrix: (Units=GPa)
#
#
# Indices 1 2 3 4 5 6 
#
# 1 146.1613 63.8969 41.2537 16.9134 -5.8927 19.3162
# 2 63.8969 131.4081 47.7240 1.9316 5.5413 31.0762
# 3 41.2537 47.7240 104.5999 -0.9661 2.0389 21.1931
# 4 16.9134 1.9316 -0.9661 29.9687 3.1689 10.6255
# 5 -5.8927 5.5413 2.0389 3.1689 47.4092 1.8046
# 6 19.3162 31.0762 21.1931 10.6255 1.8046 52.4713
#
#
#
# Elastic Compliance Matrix: (Units=1/GPa)
#
#
# Indices 1 2 3 4 5 6 
#
# 1 0.010012 -0.004255 -0.002288 -0.006002 0.002207 0.000898
# 2 -0.004255 0.011856 -0.002641 0.003534 -0.001845 -0.005041
# 3 -0.002288 -0.002641 0.012352 0.003049 -0.000590 -0.003179
# 4 -0.006002 0.003534 0.003049 0.040251 -0.003633 -0.009141
# 5 0.002207 -0.001845 -0.000590 -0.003633 0.021832 0.000503
# 6 0.000898 -0.005041 -0.003179 -0.009141 0.000503 0.024831
#
#
# Mechanical properties :
#
#
# Convention : Reuss Voigt Hill
#
# Bulk Modulus (GPa) = 63.08376 76.43538 69.75957
# Shear Modulus (GPa) = 34.53372 41.25615 37.89494
#
# Velocity S-wave (km/s) = 3.77727 4.12858 3.95683
# Velocity P-wave (km/s) = 6.71469 7.36930 7.04960
#
# Compressibility (1/GPa) = 0.01585194
#
# Stress axis : x y z
#
# Youngs Moduli (GPa) = 99.87580 84.34601 80.96161
#
# Poissons Ratio (x) = 0.35887 0.18524
# Poissons Ratio (y) = 0.42494 0.21385
# Poissons Ratio (z) = 0.22851 0.22278
#
# Static dielectric constant tensor:
#      x y z
#    x 1.996720 -0.051010 0.094890 
#    y -0.051010 2.039380 -0.011310 
#    z 0.094890 -0.011310 2.030110 
# 
# From -- ./inp_files/159328.got.cif
#   From: 2010.05.17/outbox.cif.g08.bks.cpg/sg2_80_cif.got.tgz:159328.got - 2010.06.03 11:33:40.
