data_PCOD9059584
_publ_section_title
;
Structure prediction by ZEFSAII (Michael W. Deem and Ramdas Pophale) SiO2 
 PCOD9059584
Probable space group: P -1
;
_chemical_formula_sum "Si O2"
_cell_formula_units_Z 16
_cell_length_a 5.085973
_cell_length_b 24.212254
_cell_length_c 18.137510
_cell_angle_alpha 20.612257
_cell_angle_beta 96.311951
_cell_angle_gamma 88.723039
_cell_volume 729.789727
_symmetry_space_group_name_H-M "P -1"
_symmetry_group_IT_number 2
_symmetry_cell_setting 'triclinic'
loop_
_space_group_symop_operation_xyz
x,y,z
-x,-y,-z
loop_
_atom_site_type_symbol
_atom_site_label
_atom_site_fract_x
_atom_site_fract_y
_atom_site_fract_z
Si Si1 0.589329 0.439918 0.800951
Si Si2 0.244572 0.477085 0.977961
Si Si3 0.727832 0.508205 0.558667
Si Si4 0.521443 0.907326 0.539689
Si Si5 0.203494 0.002486 0.836116
Si Si6 0.988514 0.392061 0.344750
Si Si7 0.858502 0.791873 0.132355
Si Si8 0.098710 0.957497 0.717910
O O1 0.594848 0.507567 0.634202
O O2 0.272485 0.499356 0.747823
O O3 0.771519 0.525036 0.748138
O O4 0.744288 0.239082 0.052089
O O5 0.363640 0.286593 0.192949
O O6 0.500000 0.500000 0.000000
O O7 0.130121 0.596299 0.756169
O O8 0.000000 0.500000 0.000000
O O9 0.500000 0.500000 0.500000
O O10 0.824874 0.666350 0.351039
O O11 0.002533 0.339909 0.764916
O O12 0.500000 0.000000 0.500000
O O13 0.735104 0.942676 0.445142
O O14 0.219090 0.971941 0.409941
O O15 0.107189 0.196215 0.614122
O O16 0.105805 0.984119 0.772542
O O17 0.542486 0.917773 0.951012
O O18 0.064822 0.896991 0.015147
#
# Coordination Sequence:
#
# PCOD9059584 Si02
#       8
#     2   2   2   2   2   2   2   2
#     4  12  26  45  70 102 142 181 222 286 353 402
#     4  12  25  47  71  96 134 191 232 274 340 421
#     4  11  24  44  74 107 133 181 230 281 337 411
#     4  12  25  42  64  99 134 168 226 291 339 395
#     4  12  24  45  68 101 133 180 228 283 328 412
#     4  12  28  46  67 103 146 178 225 285 354 403
#     4  11  23  41  73  99 133 169 237 274 323 398
#     4  12  24  42  70  97 127 179 230 279 336 401
#
# _framework density 21.924122000000001
#
# number of rings (size 3 to 8) (size 9 to 14) (size 15 to 20)
#    0.000    0.250    2.500    7.125    5.250    0.000 
#    0.000    3.750    0.000    0.000    0.000    0.000 
#    0.000    0.000    0.000    0.000    0.000    0.000 
#
# Total GULP energy -89626.594909 kJ/mol
# GULP energy per Si atom -5601.662182 kJ/mol
# Density = 2.187422 g / cm^3
# Si number density = 21.924122 Si / 1000 Ang^3
#
#
#
# Elastic Constant Matrix: (Units=GPa)
#
#
# Indices 1 2 3 4 5 6 
#
# 1 122.3437 -5.6521 15.3572 -1.6167 18.5373 -6.8324
# 2 -5.6521 32.5391 -12.1705 2.8130 6.4703 -1.6252
# 3 15.3572 -12.1705 104.0448 -29.0457 6.4909 -5.6868
# 4 -1.6167 2.8130 -29.0457 41.4026 -4.8992 -7.8892
# 5 18.5373 6.4703 6.4909 -4.8992 50.0733 -6.0312
# 6 -6.8324 -1.6252 -5.6868 -7.8892 -6.0312 34.9606
#
#
#
# Elastic Compliance Matrix: (Units=1/GPa)
#
#
# Indices 1 2 3 4 5 6 
#
# 1 0.008950 0.001951 -0.001036 -0.000736 -0.003392 0.000920
# 2 0.001951 0.033770 0.004223 0.000455 -0.005370 0.001814
# 3 -0.001036 0.004223 0.013230 0.009719 -0.000412 0.004268
# 4 -0.000736 0.000455 0.009719 0.033118 0.003340 0.009508
# 5 -0.003392 -0.005370 -0.000412 0.003340 0.022746 0.003698
# 6 0.000920 0.001814 0.004268 0.009508 0.003698 0.032345
#
#
# Mechanical properties :
#
#
# Convention : Reuss Voigt Hill
#
# Bulk Modulus (GPa) = 15.09983 28.22188 21.66085
# Shear Modulus (GPa) = 32.05970 42.71349 37.38659
#
# Velocity S-wave (km/s) = 3.82815 4.41868 4.13397
# Velocity P-wave (km/s) = 5.14217 6.23967 5.71731
#
# Compressibility (1/GPa) = 0.06622591
#
# Stress axis : x y z
#
# Youngs Moduli (GPa) = 111.73762 29.61208 75.58365
#
# Poissons Ratio (x) = -0.05777 0.07834
# Poissons Ratio (y) = -0.21800 -0.31922
# Poissons Ratio (z) = 0.11581 -0.12506
#
# Static dielectric constant tensor:
#      x y z
#    x 1.768050 0.010620 -0.011790 
#    y 0.010620 1.770980 0.010100 
#    z -0.011790 0.010100 1.784890 
# 
# From -- ./inp_files/551223.got.cif
#   From: 2010.05.17/outbox.cif.g08.bks.cpg/sg2_276_cif.got.tgz:551223.got - 2010.06.03 11:33:40.
