data_PCOD9059452
_publ_section_title
;
Structure prediction by ZEFSAII (Michael W. Deem and Ramdas Pophale) SiO2 
 PCOD9059452
Probable space group: P -1
;
_chemical_formula_sum "Si O2"
_cell_formula_units_Z 15
_cell_length_a 9.663760
_cell_length_b 5.235164
_cell_length_c 11.882905
_cell_angle_alpha 94.661603
_cell_angle_beta 109.920105
_cell_angle_gamma 91.661442
_cell_volume 562.302210
_symmetry_space_group_name_H-M "P -1"
_symmetry_group_IT_number 2
_symmetry_cell_setting 'triclinic'
loop_
_space_group_symop_operation_xyz
x,y,z
-x,-y,-z
loop_
_atom_site_type_symbol
_atom_site_label
_atom_site_fract_x
_atom_site_fract_y
_atom_site_fract_z
Si Si1 0.118511 0.200140 0.476814
Si Si2 0.830559 0.716699 0.904233
Si Si3 0.754001 0.059300 0.687494
Si Si4 0.951732 0.658111 0.155347
Si Si5 0.426431 0.888608 0.729276
Si Si6 0.841719 0.393127 0.311235
Si Si7 0.459088 0.575864 0.118117
Si Si8 0.500000 0.000000 0.500000
O O1 0.254995 0.114147 0.435858
O O2 0.181680 0.409008 0.588722
O O3 0.013318 0.336657 0.365400
O O4 0.000000 0.000000 0.500000
O O5 0.758672 0.899669 0.799390
O O6 0.965275 0.578648 0.881871
O O7 0.712973 0.489999 0.903008
O O8 0.890003 0.829191 0.043967
O O9 0.917645 0.190541 0.734789
O O10 0.615742 0.214890 0.618321
O O11 0.824963 0.538283 0.195254
O O12 0.250824 0.870174 0.700798
O O13 0.465024 0.627386 0.790122
O O14 0.493838 0.135013 0.823595
O O15 0.462270 0.870276 0.607329
O O16 0.500000 0.500000 0.000000
#
# Coordination Sequence:
#
# PCOD9059452 Si02
#       8
#     2   2   2   2   2   2   2   1
#     4  11  23  41  69 100 150 192 249 309 385 466
#     4  11  25  47  74 106 147 200 263 320 396 458
#     4  12  24  47  73 109 151 202 250 324 394 474
#     4  11  24  46  75 107 147 194 260 329 386 469
#     4  12  29  49  80 117 161 211 267 324 409 477
#     4  11  25  43  68 113 145 199 254 322 392 467
#     4  12  28  54  79 114 158 211 272 332 391 485
#     4  12  28  48  76 114 164 206 264 326 396 486
#
# _framework density 26.676044000000001
#
# number of rings (size 3 to 8) (size 9 to 14) (size 15 to 20)
#    0.000    0.533    4.000    3.200    5.600    2.667 
#    2.400    0.000    0.000    0.000    0.000    0.000 
#    0.000    0.000    0.000    0.000    0.000    0.000 
#
# Total GULP energy -83697.132737 kJ/mol
# GULP energy per Si atom -5579.808849 kJ/mol
# Density = 2.661533 g / cm^3
# Si number density = 26.676044 Si / 1000 Ang^3
#
#
#
# Elastic Constant Matrix: (Units=GPa)
#
#
# Indices 1 2 3 4 5 6 
#
# 1 60.7624 24.6933 24.1449 -2.7400 -20.9110 30.6960
# 2 24.6933 91.9357 22.8769 -0.5319 -8.4435 19.5644
# 3 24.1449 22.8769 149.9989 -34.2960 -2.8346 14.1556
# 4 -2.7400 -0.5319 -34.2960 46.4600 9.7400 2.0782
# 5 -20.9110 -8.4435 -2.8346 9.7400 56.8673 -4.2469
# 6 30.6960 19.5644 14.1556 2.0782 -4.2469 54.1598
#
#
#
# Elastic Compliance Matrix: (Units=1/GPa)
#
#
# Indices 1 2 3 4 5 6 
#
# 1 0.029086 -0.003264 -0.003181 -0.002025 0.009379 -0.013661
# 2 -0.003264 0.012642 -0.001440 -0.001143 0.000633 -0.002247
# 3 -0.003181 -0.001440 0.008977 0.006894 -0.002151 -0.000457
# 4 -0.002025 -0.001143 0.006894 0.027699 -0.005444 -0.001731
# 5 0.009379 0.000633 -0.002151 -0.005444 0.021723 -0.003070
# 6 -0.013661 -0.002247 -0.000457 -0.001731 -0.003070 0.026963
#
#
# Mechanical properties :
#
#
# Convention : Reuss Voigt Hill
#
# Bulk Modulus (GPa) = 28.62423 49.56968 39.09696
# Shear Modulus (GPa) = 32.36152 46.89619 39.62886
#
# Velocity S-wave (km/s) = 3.48678 4.19739 3.85848
# Velocity P-wave (km/s) = 5.19267 6.48947 5.87695
#
# Compressibility (1/GPa) = 0.03493544
#
# Stress axis : x y z
#
# Youngs Moduli (GPa) = 34.38134 79.10241 111.39587
#
# Poissons Ratio (x) = 0.25819 0.35430
# Poissons Ratio (y) = 0.11222 0.16041
# Poissons Ratio (z) = 0.10935 0.11391
#
# Static dielectric constant tensor:
#      x y z
#    x 2.233550 0.123000 0.039450 
#    y 0.123000 1.977940 0.122890 
#    z 0.039450 0.122890 2.081080 
# 
# From -- ./inp_files/409379.got.cif
#   From: 2010.05.17/outbox.cif.g08.bks.cpg/sg2_205_cif.got.tgz:409379.got - 2010.06.03 11:33:40.
