data_PCOD9059926
_publ_section_title
;
Structure prediction by ZEFSAII (Michael W. Deem and Ramdas Pophale) SiO2 
 PCOD9059926
Probable space group: P -1
;
_chemical_formula_sum "Si O2"
_cell_formula_units_Z 16
_cell_length_a 19.046737
_cell_length_b 5.373049
_cell_length_c 21.674833
_cell_angle_alpha 67.496785
_cell_angle_beta 19.206161
_cell_angle_gamma 66.708400
_cell_volume 669.923215
_symmetry_space_group_name_H-M "P -1"
_symmetry_group_IT_number 2
_symmetry_cell_setting 'triclinic'
loop_
_space_group_symop_operation_xyz
x,y,z
-x,-y,-z
loop_
_atom_site_type_symbol
_atom_site_label
_atom_site_fract_x
_atom_site_fract_y
_atom_site_fract_z
Si Si1 0.227653 0.052494 0.085278
Si Si2 0.932694 0.389034 0.501020
Si Si3 0.766123 0.987262 0.113664
Si Si4 0.087167 0.123994 0.738857
Si Si5 0.515230 0.813662 0.444108
Si Si6 0.374328 0.010910 0.167264
Si Si7 0.876731 0.384161 0.414472
Si Si8 0.595383 0.601340 0.190697
O O1 0.069054 0.153476 0.262508
O O2 0.450282 0.895085 0.939305
O O3 0.292223 0.320790 0.972508
O O4 0.097636 0.913661 0.154237
O O5 0.000000 0.500000 0.500000
O O6 0.710576 0.264215 0.711159
O O7 0.905054 0.530806 0.443250
O O8 0.147433 0.185762 0.330481
O O9 0.618262 0.277203 0.207735
O O10 0.726536 0.866435 0.225057
O O11 0.702564 0.752829 0.142795
O O12 0.988317 0.069264 0.892964
O O13 0.145212 0.419744 0.645189
O O14 0.301807 0.919671 0.572060
O O15 0.500000 0.500000 0.500000
O O16 0.500000 0.000000 0.500000
O O17 0.500000 0.000000 0.000000
O O18 0.650104 0.270611 0.619095
#
# Coordination Sequence:
#
# PCOD9059926 Si02
#       8
#     2   2   2   2   2   2   2   2
#     4  11  24  43  69 100 139 183 245 305 360 425
#     4  11  27  42  66 100 145 189 248 300 370 440
#     4  11  24  46  72 108 143 184 237 300 350 436
#     4  11  27  43  75 106 136 185 246 296 359 439
#     4  12  28  48  76 107 150 193 230 295 369 439
#     4  11  24  45  62  95 140 191 240 298 366 436
#     4  12  23  42  69 100 138 192 242 304 359 436
#     4  11  23  42  71 104 144 182 242 301 358 415
#
# _framework density 23.883334999999999
#
# number of rings (size 3 to 8) (size 9 to 14) (size 15 to 20)
#    0.000    0.750    5.000    1.500    3.500    4.500 
#    0.000    0.000    0.000    0.000    0.000    0.000 
#    0.000    0.000    0.000    0.000    0.000    0.000 
#
# Total GULP energy -89316.278747 kJ/mol
# GULP energy per Si atom -5582.267422 kJ/mol
# Density = 2.382898 g / cm^3
# Si number density = 23.883335 Si / 1000 Ang^3
#
#
#
# Elastic Constant Matrix: (Units=GPa)
#
#
# Indices 1 2 3 4 5 6 
#
# 1 94.3785 9.0843 28.9463 -2.1916 14.5877 8.7653
# 2 9.0843 54.0983 12.0112 4.3332 14.4313 -0.9421
# 3 28.9463 12.0112 133.5543 -2.4998 28.5625 2.3486
# 4 -2.1916 4.3332 -2.4998 17.5348 -5.6910 7.0990
# 5 14.5877 14.4313 28.5625 -5.6910 55.6087 -0.4242
# 6 8.7653 -0.9421 2.3486 7.0990 -0.4242 27.2160
#
#
#
# Elastic Compliance Matrix: (Units=1/GPa)
#
#
# Indices 1 2 3 4 5 6 
#
# 1 0.012084 -0.001503 -0.002034 0.002964 -0.001466 -0.004564
# 2 -0.001503 0.021136 -0.000590 -0.008729 -0.005655 0.003455
# 3 -0.002034 -0.000590 0.008805 -0.000028 -0.003840 -0.000178
# 4 0.002964 -0.008729 -0.000028 0.070190 0.008537 -0.019429
# 5 -0.001466 -0.005655 -0.003840 0.008537 0.022671 -0.001266
# 6 -0.004564 0.003455 -0.000178 -0.019429 -0.001266 0.043396
#
#
# Mechanical properties :
#
#
# Convention : Reuss Voigt Hill
#
# Bulk Modulus (GPa) = 29.61179 42.45720 36.03449
# Shear Modulus (GPa) = 25.27873 35.53784 30.40828
#
# Velocity S-wave (km/s) = 3.25687 3.86161 3.57207
# Velocity P-wave (km/s) = 5.15445 6.13989 5.66863
#
# Compressibility (1/GPa) = 0.03377034
#
# Stress axis : x y z
#
# Youngs Moduli (GPa) = 82.75651 47.31231 113.56565
#
# Poissons Ratio (x) = 0.07112 0.23105
# Poissons Ratio (y) = 0.12439 0.06699
# Poissons Ratio (z) = 0.16837 0.02791
#
# Static dielectric constant tensor:
#      x y z
#    x 2.012990 0.053660 0.006360 
#    y 0.053660 2.044930 0.008170 
#    z 0.006360 0.008170 1.897760 
# 
# From -- ./inp_files/47727.got.cif
#   From: 2010.05.17/outbox.cif.g08.bks.cpg/sg2_24_cif.got.tgz:47727.got - 2010.06.03 11:33:40.
