data_PCOD9059203
_publ_section_title
;
Structure prediction by ZEFSAII (Michael W. Deem and Ramdas Pophale) SiO2 
 PCOD9059203
Probable space group: P -1
;
_chemical_formula_sum "Si O2"
_cell_formula_units_Z 14
_cell_length_a 9.121594
_cell_length_b 17.429173
_cell_length_c 11.092487
_cell_angle_alpha 139.656181
_cell_angle_beta 116.354559
_cell_angle_gamma 36.778004
_cell_volume 617.201687
_symmetry_space_group_name_H-M "P -1"
_symmetry_group_IT_number 2
_symmetry_cell_setting 'triclinic'
loop_
_space_group_symop_operation_xyz
x,y,z
-x,-y,-z
loop_
_atom_site_type_symbol
_atom_site_label
_atom_site_fract_x
_atom_site_fract_y
_atom_site_fract_z
Si Si1 0.935694 0.416911 0.718063
Si Si2 0.356550 0.028253 0.270452
Si Si3 0.323025 0.714577 0.237992
Si Si4 0.092082 0.059948 0.977720
Si Si5 0.725923 0.035134 0.339907
Si Si6 0.400678 0.677155 0.733141
Si Si7 0.625929 0.678759 0.121821
O O1 0.104344 0.211818 0.481539
O O2 0.150827 0.396396 0.795838
O O3 0.678413 0.590398 0.746963
O O4 0.786205 0.486701 0.874732
O O5 0.524565 0.049938 0.329208
O O6 0.533085 0.833981 0.180313
O O7 0.241252 0.044290 0.121811
O O8 0.373579 0.776806 0.220380
O O9 0.009954 0.861730 0.306568
O O10 0.385182 0.766387 0.436447
O O11 0.500000 0.500000 0.000000
O O12 0.190504 0.038068 0.855737
O O13 0.192206 0.867888 0.802817
O O14 0.772584 0.247138 0.117613
O O15 0.500000 0.500000 0.500000
#
# Coordination Sequence:
#
# PCOD9059203 Si02
#       7
#     2   2   2   2   2   2   2
#     4  11  23  40  71 100 132 176 235 280 334 398
#     4  12  24  46  72 102 140 177 232 284 342 407
#     4  11  27  47  68 101 143 181 229 279 343 411
#     4  11  25  45  68 101 141 178 229 281 345 406
#     4  11  27  46  68 102 141 184 222 284 350 401
#     4  11  23  43  68 100 135 179 229 280 335 412
#     4  11  25  44  72 102 133 181 234 285 332 404
#
# _framework density 22.683024
#
# number of rings (size 3 to 8) (size 9 to 14) (size 15 to 20)
#    0.000    0.857    4.286    1.714    6.000    3.429 
#    0.000    0.714    0.000    0.000    0.000    0.000 
#    0.000    0.000    0.000    0.000    0.000    0.000 
#
# Total GULP energy -78172.983012 kJ/mol
# GULP energy per Si atom -5583.784501 kJ/mol
# Density = 2.263140 g / cm^3
# Si number density = 22.683024 Si / 1000 Ang^3
#
#
#
# Elastic Constant Matrix: (Units=GPa)
#
#
# Indices 1 2 3 4 5 6 
#
# 1 89.5351 43.7884 44.8120 -1.1205 -7.6637 -15.4472
# 2 43.7884 76.8395 46.9003 -3.0065 2.7957 -19.4978
# 3 44.8120 46.9003 196.0927 5.0123 -5.6118 -0.6554
# 4 -1.1205 -3.0065 5.0123 33.8386 -2.4469 -8.7194
# 5 -7.6637 2.7957 -5.6118 -2.4469 36.8811 -6.0638
# 6 -15.4472 -19.4978 -0.6554 -8.7194 -6.0638 31.6454
#
#
#
# Elastic Compliance Matrix: (Units=1/GPa)
#
#
# Indices 1 2 3 4 5 6 
#
# 1 0.017088 -0.007228 -0.002071 0.001941 0.004783 0.005296
# 2 -0.007228 0.022709 -0.003920 0.005212 -0.001580 0.011516
# 3 -0.002071 -0.003920 0.006560 -0.002400 0.000058 -0.003940
# 4 0.001941 0.005212 -0.002400 0.034464 0.004302 0.014430
# 5 0.004783 -0.001580 0.000058 0.004302 0.029882 0.008274
# 6 0.005296 0.011516 -0.003940 0.014430 0.008274 0.046760
#
#
# Mechanical properties :
#
#
# Convention : Reuss Voigt Hill
#
# Bulk Modulus (GPa) = 50.20165 70.38541 60.29353
# Shear Modulus (GPa) = 26.24111 35.60413 30.92262
#
# Velocity S-wave (km/s) = 3.40496 3.96616 3.69623
# Velocity P-wave (km/s) = 6.13500 7.21604 6.69737
#
# Compressibility (1/GPa) = 0.01991966
#
# Stress axis : x y z
#
# Youngs Moduli (GPa) = 58.52148 44.03574 152.43250
#
# Poissons Ratio (x) = 0.31827 0.31574
# Poissons Ratio (y) = 0.42297 0.59748
# Poissons Ratio (z) = 0.12122 0.17260
#
# Static dielectric constant tensor:
#      x y z
#    x 1.824680 -0.017950 0.025820 
#    y -0.017950 1.870760 -0.045110 
#    z 0.025820 -0.045110 1.889350 
# 
# From -- ./inp_files/403403.got.cif
#   From: 2010.05.17/outbox.cif.g08.bks.cpg/sg2_202_cif.got.tgz:403403.got - 2010.06.03 11:33:40.
