data_PCOD9059047
_publ_section_title
;
Structure prediction by ZEFSAII (Michael W. Deem and Ramdas Pophale) SiO2 
 PCOD9059047
Probable space group: P -1
;
_chemical_formula_sum "Si O2"
_cell_formula_units_Z 13
_cell_length_a 8.998083
_cell_length_b 9.377462
_cell_length_c 18.396604
_cell_angle_alpha 36.571978
_cell_angle_beta 144.271047
_cell_angle_gamma 132.910380
_cell_volume 538.233207
_symmetry_space_group_name_H-M "P -1"
_symmetry_group_IT_number 2
_symmetry_cell_setting 'triclinic'
loop_
_space_group_symop_operation_xyz
x,y,z
-x,-y,-z
loop_
_atom_site_type_symbol
_atom_site_label
_atom_site_fract_x
_atom_site_fract_y
_atom_site_fract_z
Si Si1 0.290518 0.962695 0.144977
Si Si2 0.500000 0.500000 0.000000
Si Si3 0.120955 0.260826 0.414689
Si Si4 0.139876 0.104043 0.778237
Si Si5 0.679437 0.307834 0.582798
Si Si6 0.105017 0.655488 0.854224
Si Si7 0.667072 0.299032 0.874076
O O1 0.440840 0.213702 0.089251
O O2 0.311495 0.862407 0.273885
O O3 0.369939 0.775934 0.193668
O O4 0.000000 0.000000 0.000000
O O5 0.647253 0.489684 0.979880
O O6 0.377158 0.268870 0.463217
O O7 0.210022 0.432944 0.446958
O O8 0.924531 0.377632 0.233120
O O9 0.000000 0.000000 0.500000
O O10 0.381369 0.301155 0.789920
O O11 0.877218 0.220805 0.639224
O O12 0.128055 0.930853 0.774206
O O13 0.207913 0.917854 0.945365
O O14 0.869983 0.527175 0.858108
#
# Coordination Sequence:
#
# PCOD9059047 Si02
#       7
#     2   1   2   2   2   2   2
#     4  12  20  39  67  95 128 173 213 265 318 384
#     4  12  22  34  68  98 126 166 216 254 320 388
#     4  11  26  44  70  93 123 175 229 267 314 388
#     4  11  25  40  64 101 134 164 209 268 331 384
#     4  11  24  45  66  94 130 170 222 268 318 385
#     4  12  24  41  66  97 133 171 214 267 322 382
#     4  11  23  40  64  98 136 166 207 261 332 384
#
# _framework density 24.153096999999999
#
# number of rings (size 3 to 8) (size 9 to 14) (size 15 to 20)
#    0.000    0.615    6.154    1.385    0.000    1.846 
#    0.000    1.538    0.000    0.000    0.000    0.000 
#    0.000    0.000    0.000    0.000    0.000    0.000 
#
# Total GULP energy -72456.217638 kJ/mol
# GULP energy per Si atom -5573.555203 kJ/mol
# Density = 2.409812 g / cm^3
# Si number density = 24.153097 Si / 1000 Ang^3
#
#
#
# Elastic Constant Matrix: (Units=GPa)
#
#
# Indices 1 2 3 4 5 6 
#
# 1 103.8530 42.7885 3.9252 -4.8611 30.8459 12.6950
# 2 42.7885 126.7486 11.4273 -13.2278 5.6971 30.9580
# 3 3.9252 11.4273 27.3406 -5.3221 -13.1264 9.8632
# 4 -4.8611 -13.2278 -5.3221 28.5498 2.4861 -2.4637
# 5 30.8459 5.6971 -13.1264 2.4861 44.4684 -4.0810
# 6 12.6950 30.9580 9.8632 -2.4637 -4.0810 53.5289
#
#
#
# Elastic Compliance Matrix: (Units=1/GPa)
#
#
# Indices 1 2 3 4 5 6 
#
# 1 0.015045 -0.003646 -0.005705 0.000727 -0.011810 -0.001275
# 2 -0.003646 0.010851 -0.001482 0.003699 0.000039 -0.004965
# 3 -0.005705 -0.001482 0.049660 0.005573 0.018007 -0.005311
# 4 0.000727 0.003699 0.005573 0.037895 -0.001609 -0.001717
# 5 -0.011810 0.000039 0.018007 -0.001609 0.036278 0.002152
# 6 -0.001275 -0.004965 -0.005311 -0.001717 0.002152 0.022919
#
#
# Mechanical properties :
#
#
# Convention : Reuss Voigt Hill
#
# Bulk Modulus (GPa) = 18.55637 41.58047 30.06842
# Shear Modulus (GPa) = 23.55418 38.62950 31.09184
#
# Velocity S-wave (km/s) = 3.12621 4.00354 3.59176
# Velocity P-wave (km/s) = 4.55307 6.21481 5.44767
#
# Compressibility (1/GPa) = 0.05388986
#
# Stress axis : x y z
#
# Youngs Moduli (GPa) = 66.46873 92.15731 20.13688
#
# Poissons Ratio (x) = 0.33604 0.11487
# Poissons Ratio (y) = 0.24237 0.02984
# Poissons Ratio (z) = 0.37918 0.13658
#
# Static dielectric constant tensor:
#      x y z
#    x 3.156200 0.794320 0.991170 
#    y 0.794320 2.446090 0.719780 
#    z 0.991170 0.719780 2.688370 
# 
# From -- ./inp_files/177057.got.cif
#   From: 2010.05.17/outbox.cif.g08.bks.cpg/sg2_89_cif.got.tgz:177057.got - 2010.06.03 11:33:40.
