data_PCOD9059933
_publ_section_title
;
Structure prediction by ZEFSAII (Michael W. Deem and Ramdas Pophale) SiO2 
 PCOD9059933
Probable space group: P -1
;
_chemical_formula_sum "Si O2"
_cell_formula_units_Z 16
_cell_length_a 17.760958
_cell_length_b 12.927965
_cell_length_c 21.351056
_cell_angle_alpha 152.122460
_cell_angle_beta 19.004754
_cell_angle_gamma 141.973215
_cell_volume 708.354105
_symmetry_space_group_name_H-M "P -1"
_symmetry_group_IT_number 2
_symmetry_cell_setting 'triclinic'
loop_
_space_group_symop_operation_xyz
x,y,z
-x,-y,-z
loop_
_atom_site_type_symbol
_atom_site_label
_atom_site_fract_x
_atom_site_fract_y
_atom_site_fract_z
Si Si1 0.954460 0.573131 0.501997
Si Si2 0.780110 0.878119 0.026234
Si Si3 0.769291 0.607059 0.194576
Si Si4 0.010912 0.693451 0.255698
Si Si5 0.455357 0.614628 0.946216
Si Si6 0.504895 0.086159 0.612921
Si Si7 0.699385 0.163229 0.684295
Si Si8 0.660352 0.397962 0.381229
O O1 0.664161 0.700200 0.796544
O O2 0.000000 0.500000 0.500000
O O3 0.114953 0.734913 0.443376
O O4 0.031887 0.349845 0.274681
O O5 0.739262 0.883980 0.136759
O O6 0.516592 0.875053 0.206735
O O7 0.806134 0.122393 0.113177
O O8 0.532087 0.585539 0.403682
O O9 0.718692 0.878879 0.365851
O O10 0.817148 0.467601 0.018100
O O11 0.000000 0.500000 0.000000
O O12 0.835414 0.549213 0.338480
O O13 0.189639 0.728528 0.186891
O O14 0.848301 0.924983 0.473682
O O15 0.536043 0.338135 0.723933
O O16 0.431587 0.661027 0.063452
O O17 0.500000 0.000000 0.500000
O O18 0.500000 0.500000 0.500000
#
# Coordination Sequence:
#
# PCOD9059933 Si02
#       8
#     2   2   2   2   2   2   2   2
#     4  12  26  44  75 105 140 197 247 301 361 432
#     4  11  23  46  76 108 142 185 257 305 362 443
#     4  11  23  42  71 105 140 192 245 296 358 440
#     4  12  26  46  71 105 152 187 239 305 371 443
#     4  12  27  46  72 109 149 194 243 299 381 431
#     4  11  23  46  72 104 154 188 235 314 369 430
#     4  12  25  49  73 104 148 193 248 308 354 445
#     4  11  23  43  71 107 140 190 241 303 369 429
#
# _framework density 22.587572000000002
#
# number of rings (size 3 to 8) (size 9 to 14) (size 15 to 20)
#    0.000    0.500    6.250    2.250    1.750    3.500 
#    0.000    1.875    0.000    0.000    0.000    0.000 
#    0.000    0.000    0.000    0.000    0.000    0.000 
#
# Total GULP energy -89602.376134 kJ/mol
# GULP energy per Si atom -5600.148508 kJ/mol
# Density = 2.253616 g / cm^3
# Si number density = 22.587572 Si / 1000 Ang^3
#
#
#
# Elastic Constant Matrix: (Units=GPa)
#
#
# Indices 1 2 3 4 5 6 
#
# 1 85.6256 11.3905 38.6342 -9.4749 13.5755 -2.8266
# 2 11.3905 136.2956 60.0870 -18.0761 -6.8426 -6.9071
# 3 38.6342 60.0870 74.4068 -10.2000 1.6412 4.7479
# 4 -9.4749 -18.0761 -10.2000 44.3350 2.1743 0.0626
# 5 13.5755 -6.8426 1.6412 2.1743 48.7070 -1.4026
# 6 -2.8266 -6.9071 4.7479 0.0626 -1.4026 23.2364
#
#
#
# Elastic Compliance Matrix: (Units=1/GPa)
#
#
# Indices 1 2 3 4 5 6 
#
# 1 0.018143 0.004812 -0.013200 0.002985 -0.003894 0.006092
# 2 0.004812 0.013902 -0.013760 0.003464 0.001139 0.007589
# 3 -0.013200 -0.013760 0.032031 -0.001062 0.000362 -0.012216
# 4 0.002985 0.003464 -0.001062 0.024426 -0.001358 0.001462
# 5 -0.003894 0.001139 0.000362 -0.001358 0.021857 0.001114
# 6 0.006092 0.007589 -0.012216 0.001462 0.001114 0.048592
#
#
# Mechanical properties :
#
#
# Convention : Reuss Voigt Hill
#
# Bulk Modulus (GPa) = 50.55362 57.39461 53.97412
# Shear Modulus (GPa) = 23.82751 35.67008 29.74879
#
# Velocity S-wave (km/s) = 3.25144 3.97821 3.63305
# Velocity P-wave (km/s) = 6.04364 6.82397 6.44562
#
# Compressibility (1/GPa) = 0.01978098
#
# Stress axis : x y z
#
# Youngs Moduli (GPa) = 55.11668 71.93097 31.21945
#
# Poissons Ratio (x) = -0.34615 0.41211
# Poissons Ratio (y) = -0.26524 0.42958
# Poissons Ratio (z) = 0.72756 0.98976
#
# Static dielectric constant tensor:
#      x y z
#    x 1.893990 -0.008240 -0.034310 
#    y -0.008240 1.820260 -0.012580 
#    z -0.034310 -0.012580 1.858990 
# 
# From -- ./inp_files/600109.got.cif
#   From: 2010.05.17/outbox.cif.g08.bks.cpg/sg2_301_cif.got.tgz:600109.got - 2010.06.03 11:33:40.
