data_PCOD9059288
_publ_section_title
;
Structure prediction by ZEFSAII (Michael W. Deem and Ramdas Pophale) SiO2 
 PCOD9059288
Probable space group: P -1
;
_chemical_formula_sum "Si O2"
_cell_formula_units_Z 16
_cell_length_a 9.069411
_cell_length_b 14.714446
_cell_length_c 9.770562
_cell_angle_alpha 110.677173
_cell_angle_beta 136.339131
_cell_angle_gamma 98.429090
_cell_volume 659.180564
_symmetry_space_group_name_H-M "P -1"
_symmetry_group_IT_number 2
_symmetry_cell_setting 'triclinic'
loop_
_space_group_symop_operation_xyz
x,y,z
-x,-y,-z
loop_
_atom_site_type_symbol
_atom_site_label
_atom_site_fract_x
_atom_site_fract_y
_atom_site_fract_z
Si Si1 0.824302 0.197524 0.187135
Si Si2 0.828181 0.521047 0.492547
Si Si3 0.219152 0.465477 0.235269
Si Si4 0.705460 0.203300 0.398946
Si Si5 0.220443 0.153367 0.526011
Si Si6 0.339626 0.696832 0.329698
Si Si7 0.420075 0.014196 0.606282
Si Si8 0.650983 0.629604 0.088961
O O1 0.638962 0.180518 0.181208
O O2 0.070863 0.341948 0.402628
O O3 0.947295 0.130371 0.284374
O O4 0.671863 0.141468 0.913249
O O5 0.896845 0.520521 0.694932
O O6 0.513025 0.414833 0.186805
O O7 0.000000 0.500000 0.500000
O O8 0.500000 0.500000 0.500000
O O9 0.297435 0.569562 0.234288
O O10 0.950986 0.337253 0.926143
O O11 0.582415 0.252259 0.436478
O O12 0.641309 0.089527 0.384286
O O13 0.032955 0.307002 0.673233
O O14 0.425852 0.209338 0.565924
O O15 0.185022 0.029703 0.467271
O O16 0.353129 0.265217 0.785502
O O17 0.500000 0.000000 0.500000
O O18 0.500000 0.500000 0.000000
#
# Coordination Sequence:
#
# PCOD9059288 Si02
#       8
#     2   2   2   2   2   2   2   2
#     4  11  25  45  72 101 139 181 236 287 351 415
#     4  12  22  40  67 100 139 181 224 280 349 420
#     4  11  24  36  59  97 138 183 231 274 342 423
#     4  11  24  45  71 102 138 185 234 286 347 409
#     4  11  24  45  71 101 139 189 228 292 353 407
#     4  11  23  41  64  96 142 183 226 289 350 404
#     4  12  26  49  73 101 140 185 245 291 340 411
#     4  11  23  42  71 101 141 176 223 284 354 421
#
# _framework density 24.272558
#
# number of rings (size 3 to 8) (size 9 to 14) (size 15 to 20)
#    0.000    0.750    3.750    4.875    3.500    2.500 
#    2.250    1.250    0.000    0.000    0.000    0.000 
#    0.000    0.000    0.000    0.000    0.000    0.000 
#
# Total GULP energy -89461.346369 kJ/mol
# GULP energy per Si atom -5591.334148 kJ/mol
# Density = 2.421731 g / cm^3
# Si number density = 24.272558 Si / 1000 Ang^3
#
#
#
# Elastic Constant Matrix: (Units=GPa)
#
#
# Indices 1 2 3 4 5 6 
#
# 1 77.4668 -7.0478 30.7664 4.7270 -32.1968 5.9353
# 2 -7.0478 68.2198 -11.6221 -0.8362 -9.2617 4.4748
# 3 30.7664 -11.6221 93.1192 -17.6227 -28.7855 3.3264
# 4 4.7270 -0.8362 -17.6227 28.3512 4.3131 0.9552
# 5 -32.1968 -9.2617 -28.7855 4.3131 47.4737 -5.3396
# 6 5.9353 4.4748 3.3264 0.9552 -5.3396 40.4643
#
#
#
# Elastic Compliance Matrix: (Units=1/GPa)
#
#
# Indices 1 2 3 4 5 6 
#
# 1 0.020623 0.003201 -0.003851 -0.007651 0.012837 -0.001188
# 2 0.003201 0.016709 0.003554 0.001114 0.007296 -0.001673
# 3 -0.003851 0.003554 0.016577 0.009976 0.007173 -0.000480
# 4 -0.007651 0.001114 0.009976 0.043279 -0.002994 -0.001238
# 5 0.012837 0.007296 0.007173 -0.002994 0.035988 0.001540
# 6 -0.001188 -0.001673 -0.000480 -0.001238 0.001540 0.025344
#
#
# Mechanical properties :
#
#
# Convention : Reuss Voigt Hill
#
# Bulk Modulus (GPa) = 16.74580 29.22209 22.98395
# Shear Modulus (GPa) = 28.96571 38.37179 33.66875
#
# Velocity S-wave (km/s) = 3.45824 3.98033 3.72844
# Velocity P-wave (km/s) = 4.78121 5.76102 5.29383
#
# Compressibility (1/GPa) = 0.05971645
#
# Stress axis : x y z
#
# Youngs Moduli (GPa) = 48.48968 59.84934 60.32353
#
# Poissons Ratio (x) = -0.19160 0.23233
# Poissons Ratio (y) = -0.15523 -0.21438
# Poissons Ratio (z) = 0.18675 -0.21269
#
# Static dielectric constant tensor:
#      x y z
#    x 1.984590 -0.055270 -0.017400 
#    y -0.055270 1.998550 -0.008930 
#    z -0.017400 -0.008930 1.961030 
# 
# From -- ./inp_files/208548.got.cif
#   From: 2010.05.17/outbox.cif.g08.bks.cpg/sg2_105_cif.got.tgz:208548.got - 2010.06.03 11:33:40.
