data_PCOD9059539
_publ_section_title
;
Structure prediction by ZEFSAII (Michael W. Deem and Ramdas Pophale) SiO2 
 PCOD9059539
Probable space group: P -1
;
_chemical_formula_sum "Si O2"
_cell_formula_units_Z 12
_cell_length_a 18.305682
_cell_length_b 9.240741
_cell_length_c 14.444596
_cell_angle_alpha 43.753895
_cell_angle_beta 159.383638
_cell_angle_gamma 144.467441
_cell_volume 490.672865
_symmetry_space_group_name_H-M "P -1"
_symmetry_group_IT_number 2
_symmetry_cell_setting 'triclinic'
loop_
_space_group_symop_operation_xyz
x,y,z
-x,-y,-z
loop_
_atom_site_type_symbol
_atom_site_label
_atom_site_fract_x
_atom_site_fract_y
_atom_site_fract_z
Si Si1 0.864808 0.794123 0.014461
Si Si2 0.683277 0.258291 0.382848
Si Si3 0.675053 0.093824 0.254782
Si Si4 0.614167 0.595488 0.488639
Si Si5 0.862960 0.786955 0.357101
Si Si6 0.824244 0.075033 0.010248
O O1 0.590155 0.584258 0.746950
O O2 0.841693 0.930305 0.011716
O O3 0.052547 0.707956 0.297969
O O4 0.000000 0.000000 0.000000
O O5 0.649202 0.244610 0.236434
O O6 0.680089 0.496754 0.307345
O O7 0.459085 0.993314 0.289498
O O8 0.944106 0.243561 0.458478
O O9 0.644472 0.859380 0.381957
O O10 0.500000 0.000000 0.000000
O O11 0.500000 0.500000 0.500000
O O12 0.896616 0.661268 0.779987
O O13 0.798437 0.924524 0.142223
O O14 0.000000 0.000000 0.500000
#
# Coordination Sequence:
#
# PCOD9059539 Si02
#       6
#     2   2   2   2   2   2
#     4  12  25  49  73 103 150 195 246 308 365 438
#     4  12  25  46  75 110 146 194 248 303 375 441
#     4  11  23  41  71 105 146 194 244 298 375 435
#     4  11  23  47  71  99 148 194 239 303 367 436
#     4  11  24  43  70 109 151 187 240 306 371 442
#     4  11  26  44  72 107 147 187 249 300 370 436
#
# _framework density 24.456213999999999
#
# number of rings (size 3 to 8) (size 9 to 14) (size 15 to 20)
#    0.000    0.667    5.000    3.000    7.000    0.667 
#    0.000    1.667    0.000    0.000    0.000    0.000 
#    0.000    0.000    0.000    0.000    0.000    0.000 
#
# Total GULP energy -66997.965740 kJ/mol
# GULP energy per Si atom -5583.163812 kJ/mol
# Density = 2.440055 g / cm^3
# Si number density = 24.456214 Si / 1000 Ang^3
#
#
#
# Elastic Constant Matrix: (Units=GPa)
#
#
# Indices 1 2 3 4 5 6 
#
# 1 149.7075 42.8423 55.3792 11.3080 -10.3373 -3.3547
# 2 42.8423 73.1767 26.6039 19.4313 -7.6149 1.0772
# 3 55.3792 26.6039 136.5084 33.0385 5.3399 -6.6690
# 4 11.3080 19.4313 33.0385 55.4477 4.8571 -8.4993
# 5 -10.3373 -7.6149 5.3399 4.8571 50.8339 9.4399
# 6 -3.3547 1.0772 -6.6690 -8.4993 9.4399 41.0800
#
#
#
# Elastic Compliance Matrix: (Units=1/GPa)
#
#
# Indices 1 2 3 4 5 6 
#
# 1 0.009138 -0.004454 -0.003255 0.001576 0.001316 0.000358
# 2 -0.004454 0.018413 -0.000616 -0.005878 0.003009 -0.002854
# 3 -0.003255 -0.000616 0.010035 -0.004861 -0.001476 0.000713
# 4 0.001576 -0.005878 -0.004861 0.023748 -0.003277 0.005160
# 5 0.001316 0.003009 -0.001476 -0.003277 0.021961 -0.005935
# 6 0.000358 -0.002854 0.000713 0.005160 -0.005935 0.026994
#
#
# Mechanical properties :
#
#
# Convention : Reuss Voigt Hill
#
# Bulk Modulus (GPa) = 47.76127 67.67149 57.71638
# Shear Modulus (GPa) = 37.33661 45.11013 41.22337
#
# Velocity S-wave (km/s) = 3.91150 4.29945 4.11006
# Velocity P-wave (km/s) = 6.32230 7.23724 6.79519
#
# Compressibility (1/GPa) = 0.02093747
#
# Stress axis : x y z
#
# Youngs Moduli (GPa) = 109.43384 54.30923 99.65060
#
# Poissons Ratio (x) = 0.24187 0.32432
# Poissons Ratio (y) = 0.48737 0.06140
# Poissons Ratio (z) = 0.35616 0.03346
#
# Static dielectric constant tensor:
#      x y z
#    x 1.854300 0.031000 0.064610 
#    y 0.031000 2.175130 0.265950 
#    z 0.064610 0.265950 2.440230 
# 
# From -- ./inp_files/446165.got.cif
#   From: 2010.05.17/outbox.cif.g08.bks.cpg/sg2_224_cif.got.tgz:446165.got - 2010.06.03 11:33:40.
