data_PCOD9059573
_publ_section_title
;
Structure prediction by ZEFSAII (Michael W. Deem and Ramdas Pophale) SiO2 
 PCOD9059573
Probable space group: P -1
;
_chemical_formula_sum "Si O2"
_cell_formula_units_Z 16
_cell_length_a 14.602990
_cell_length_b 11.699988
_cell_length_c 9.164837
_cell_angle_alpha 98.444536
_cell_angle_beta 74.883869
_cell_angle_gamma 151.542373
_cell_volume 708.672919
_symmetry_space_group_name_H-M "P -1"
_symmetry_group_IT_number 2
_symmetry_cell_setting 'triclinic'
loop_
_space_group_symop_operation_xyz
x,y,z
-x,-y,-z
loop_
_atom_site_type_symbol
_atom_site_label
_atom_site_fract_x
_atom_site_fract_y
_atom_site_fract_z
Si Si1 0.997725 0.678608 0.357444
Si Si2 0.376078 0.389829 0.748600
Si Si3 0.812271 0.882812 0.528378
Si Si4 0.388686 0.649018 0.902654
Si Si5 0.344900 0.913910 0.344927
Si Si6 0.563820 0.220875 0.593020
Si Si7 0.378754 0.179398 0.876657
Si Si8 0.996669 0.634326 0.010354
O O1 0.771867 0.440258 0.461752
O O2 0.002648 0.689790 0.183342
O O3 0.115677 0.689485 0.357002
O O4 0.115333 0.910890 0.424933
O O5 0.613765 0.646585 0.662892
O O6 0.261154 0.213365 0.624838
O O7 0.313858 0.455671 0.810836
O O8 0.330918 0.261296 0.882540
O O9 0.000000 0.000000 0.500000
O O10 0.206628 0.534839 0.005423
O O11 0.528562 0.875852 0.783153
O O12 0.513019 0.731811 0.000906
O O13 0.420845 0.864308 0.309765
O O14 0.394172 0.012082 0.505456
O O15 0.521264 0.293091 0.706198
O O16 0.185186 0.889661 0.896775
O O17 0.000000 0.500000 0.000000
#
# Coordination Sequence:
#
# PCOD9059573 Si02
#       8
#     2   2   2   2   2   2   2   2
#     4  12  23  45  70 102 137 184 232 282 356 419
#     4  11  25  45  69 105 140 186 240 293 347 420
#     4  11  23  41  73 103 141 183 234 294 354 413
#     4  12  25  47  73  96 148 192 229 291 363 419
#     4  11  23  44  70  99 138 184 229 290 348 414
#     4  11  26  42  71 106 138 178 238 295 344 419
#     4  12  27  45  70 106 143 183 240 290 350 422
#     4  12  28  45  71 104 142 186 238 288 358 428
#
# _framework density 22.57741
#
# number of rings (size 3 to 8) (size 9 to 14) (size 15 to 20)
#    0.000    0.500    3.750    3.750    5.250    4.500 
#    0.000    0.000    0.000    0.000    0.000    0.000 
#    0.000    0.000    0.000    0.000    0.000    0.000 
#
# Total GULP energy -89614.701570 kJ/mol
# GULP energy per Si atom -5600.918848 kJ/mol
# Density = 2.252602 g / cm^3
# Si number density = 22.577410 Si / 1000 Ang^3
#
#
#
# Elastic Constant Matrix: (Units=GPa)
#
#
# Indices 1 2 3 4 5 6 
#
# 1 115.8731 22.7258 15.7967 -16.0555 6.1848 6.6476
# 2 22.7258 64.0024 12.4055 -3.9442 4.4641 -0.0471
# 3 15.7967 12.4055 43.9503 -4.3017 1.7587 12.5963
# 4 -16.0555 -3.9442 -4.3017 23.3864 -5.2590 -0.3175
# 5 6.1848 4.4641 1.7587 -5.2590 33.3803 5.0924
# 6 6.6476 -0.0471 12.5963 -0.3175 5.0924 36.2116
#
#
#
# Elastic Compliance Matrix: (Units=1/GPa)
#
#
# Indices 1 2 3 4 5 6 
#
# 1 0.010412 -0.002912 -0.001976 0.006214 -0.000284 -0.001133
# 2 -0.002912 0.017671 -0.004585 -0.000278 -0.001997 0.002431
# 3 -0.001976 -0.004585 0.027722 0.003170 0.001462 -0.009464
# 4 0.006214 -0.000278 0.003170 0.049070 0.006874 -0.002780
# 5 -0.000284 -0.001997 0.001462 0.006874 0.032031 -0.004903
# 6 -0.001133 0.002431 -0.009464 -0.002780 -0.004903 0.031784
#
#
# Mechanical properties :
#
#
# Convention : Reuss Voigt Hill
#
# Bulk Modulus (GPa) = 27.13107 36.18685 31.65896
# Shear Modulus (GPa) = 25.00967 30.12217 27.56592
#
# Velocity S-wave (km/s) = 3.33187 3.65660 3.49800
# Velocity P-wave (km/s) = 5.18120 5.82154 5.51068
#
# Compressibility (1/GPa) = 0.03685811
#
# Stress axis : x y z
#
# Youngs Moduli (GPa) = 96.04430 56.58954 36.07304
#
# Poissons Ratio (x) = 0.16480 0.07127
# Poissons Ratio (y) = 0.27969 0.16540
# Poissons Ratio (z) = 0.18976 0.25948
#
# Static dielectric constant tensor:
#      x y z
#    x 1.847600 0.001110 -0.008710 
#    y 0.001110 1.818200 -0.001350 
#    z -0.008710 -0.001350 1.808720 
# 
# From -- ./inp_files/187341.got.cif
#   From: 2010.05.17/outbox.cif.g08.bks.cpg/sg2_94_cif.got.tgz:187341.got - 2010.06.03 11:33:40.
