data_PCOD9059835
_publ_section_title
;
Structure prediction by ZEFSAII (Michael W. Deem and Ramdas Pophale) SiO2 
 PCOD9059835
Probable space group: P -1
;
_chemical_formula_sum "Si O2"
_cell_formula_units_Z 16
_cell_length_a 7.808653
_cell_length_b 12.432973
_cell_length_c 11.697673
_cell_angle_alpha 67.923006
_cell_angle_beta 113.359490
_cell_angle_gamma 145.162396
_cell_volume 592.818504
_symmetry_space_group_name_H-M "P -1"
_symmetry_group_IT_number 2
_symmetry_cell_setting 'triclinic'
loop_
_space_group_symop_operation_xyz
x,y,z
-x,-y,-z
loop_
_atom_site_type_symbol
_atom_site_label
_atom_site_fract_x
_atom_site_fract_y
_atom_site_fract_z
Si Si1 0.914180 0.799470 0.818807
Si Si2 0.084521 0.400099 0.403237
Si Si3 0.632804 0.899628 0.008766
Si Si4 0.137408 0.636495 0.174342
Si Si5 0.411129 0.559553 0.037781
Si Si6 0.149299 0.756324 0.368642
Si Si7 0.601409 0.887058 0.738282
Si Si8 0.853964 0.051316 0.416065
O O1 0.153250 0.934611 0.727775
O O2 0.087020 0.895224 0.946025
O O3 0.696682 0.804348 0.763263
O O4 0.756558 0.597516 0.846949
O O5 0.089186 0.414653 0.536087
O O6 0.095035 0.268959 0.431684
O O7 0.246395 0.572710 0.295335
O O8 0.732432 0.253871 0.339413
O O9 0.367656 0.788646 0.075456
O O10 0.658268 0.770893 0.065100
O O11 0.593301 0.910067 0.862378
O O12 0.075784 0.688866 0.245587
O O13 0.827609 0.478375 0.081126
O O14 0.500000 0.500000 0.000000
O O15 0.167958 0.903821 0.333651
O O16 0.503806 0.891086 0.427649
O O17 0.000000 0.000000 0.500000
#
# Coordination Sequence:
#
# PCOD9059835 Si02
#       8
#     2   2   2   2   2   2   2   2
#     4  12  24  43  68 103 141 176 229 286 340 409
#     4  11  23  45  68  95 136 181 225 283 344 404
#     4  12  25  43  68 103 142 176 232 277 350 406
#     4  12  25  44  67 100 141 178 227 283 340 412
#     4  12  26  43  68 103 140 183 223 278 346 404
#     4  11  24  42  69 100 128 182 234 274 344 408
#     4  11  23  42  69  96 135 181 222 282 343 407
#     4  11  23  43  69  97 130 174 233 281 340 407
#
# _framework density 26.989712000000001
#
# number of rings (size 3 to 8) (size 9 to 14) (size 15 to 20)
#    0.000    0.500    3.750    5.625    5.250    1.000 
#    0.000    0.625    0.000    0.000    0.000    0.000 
#    0.000    0.000    0.000    0.000    0.000    0.000 
#
# Total GULP energy -89593.412994 kJ/mol
# GULP energy per Si atom -5599.588312 kJ/mol
# Density = 2.692828 g / cm^3
# Si number density = 26.989712 Si / 1000 Ang^3
#
#
#
# Elastic Constant Matrix: (Units=GPa)
#
#
# Indices 1 2 3 4 5 6 
#
# 1 82.1722 13.3477 29.4190 -13.9154 3.6231 -21.6727
# 2 13.3477 58.0694 10.4631 -22.2258 -1.0438 -23.6947
# 3 29.4190 10.4631 112.0849 -25.5878 -16.3824 -5.6397
# 4 -13.9154 -22.2258 -25.5878 40.0570 -15.5602 -0.2549
# 5 3.6231 -1.0438 -16.3824 -15.5602 47.9208 -10.2445
# 6 -21.6727 -23.6947 -5.6397 -0.2549 -10.2445 45.2198
#
#
#
# Elastic Compliance Matrix: (Units=1/GPa)
#
#
# Indices 1 2 3 4 5 6 
#
# 1 0.016076 0.003743 -0.001904 0.007617 0.002851 0.010117
# 2 0.003743 0.043634 0.009382 0.040994 0.023915 0.031477
# 3 -0.001904 0.009382 0.015703 0.020172 0.014256 0.009305
# 4 0.007617 0.040994 0.020172 0.079400 0.040986 0.037380
# 5 0.002851 0.023915 0.014256 0.040986 0.044932 0.026086
# 6 0.010117 0.031477 0.009305 0.037380 0.026086 0.050738
#
#
# Mechanical properties :
#
#
# Convention : Reuss Voigt Hill
#
# Bulk Modulus (GPa) = 10.21930 39.86513 25.04221
# Shear Modulus (GPa) = 19.18219 39.91264 29.54741
#
# Velocity S-wave (km/s) = 2.66883 3.84970 3.31231
# Velocity P-wave (km/s) = 3.64575 5.87901 4.89154
#
# Compressibility (1/GPa) = 0.09785408
#
# Stress axis : x y z
#
# Youngs Moduli (GPa) = 62.20487 22.91795 63.68393
#
# Poissons Ratio (x) = -0.08578 0.12126
# Poissons Ratio (y) = -0.23282 -0.59749
# Poissons Ratio (z) = 0.11845 -0.21502
#
# Static dielectric constant tensor:
#      x y z
#    x 2.174010 0.007610 -0.002380 
#    y 0.007610 2.134010 -0.052180 
#    z -0.002380 -0.052180 2.127060 
# 
# From -- ./inp_files/436661.got.cif
#   From: 2010.05.17/outbox.cif.g08.bks.cpg/sg2_219_cif.got.tgz:436661.got - 2010.06.03 11:33:40.
