data_PCOD9059653
_publ_section_title
;
Structure prediction by ZEFSAII (Michael W. Deem and Ramdas Pophale) SiO2 
 PCOD9059653
Probable space group: P -1
;
_chemical_formula_sum "Si O2"
_cell_formula_units_Z 16
_cell_length_a 19.924301
_cell_length_b 8.957888
_cell_length_c 8.749247
_cell_angle_alpha 146.705854
_cell_angle_beta 66.644555
_cell_angle_gamma 114.522893
_cell_volume 776.036215
_symmetry_space_group_name_H-M "P -1"
_symmetry_group_IT_number 2
_symmetry_cell_setting 'triclinic'
loop_
_space_group_symop_operation_xyz
x,y,z
-x,-y,-z
loop_
_atom_site_type_symbol
_atom_site_label
_atom_site_fract_x
_atom_site_fract_y
_atom_site_fract_z
Si Si1 0.174620 0.088935 0.424859
Si Si2 0.201200 0.086734 0.761416
Si Si3 0.580157 0.505470 0.508942
Si Si4 0.080036 0.579662 0.917352
Si Si5 0.950509 0.235102 0.238199
Si Si6 0.706130 0.340799 0.756481
Si Si7 0.548741 0.304473 0.709249
Si Si8 0.676399 0.096164 0.912569
O O1 0.192885 0.125244 0.619378
O O2 0.120604 0.809624 0.192810
O O3 0.249165 0.031196 0.220727
O O4 0.130811 0.341262 0.644638
O O5 0.125457 0.905821 0.733148
O O6 0.263063 0.896725 0.566211
O O7 0.232704 0.381165 0.060215
O O8 0.500000 0.500000 0.500000
O O9 0.565302 0.401129 0.604627
O O10 0.616369 0.822491 0.729036
O O11 0.638793 0.319913 0.230941
O O12 0.067721 0.695308 0.859497
O O13 0.000000 0.500000 0.000000
O O14 0.000000 0.500000 0.500000
O O15 0.000000 0.000000 0.000000
O O16 0.626395 0.352447 0.769690
O O17 0.695115 0.240457 0.855579
O O18 0.500000 0.000000 0.500000
O O19 0.500000 0.500000 0.000000
#
# Coordination Sequence:
#
# PCOD9059653 Si02
#       8
#     2   2   2   2   2   2   2   2
#     4  11  23  42  65  93 127 166 211 264 324 384
#     4  11  23  42  65  92 127 169 210 260 323 388
#     4  12  24  41  66  95 127 168 216 268 318 381
#     4  12  24  41  66  95 127 168 216 268 318 381
#     4  12  25  43  65  94 131 171 215 266 321 385
#     4  11  23  42  65  92 127 169 210 260 323 388
#     4  12  25  43  65  94 131 171 215 266 321 385
#     4  11  23  42  65  93 127 166 211 264 324 384
#
# _framework density 20.617595999999999
#
# number of rings (size 3 to 8) (size 9 to 14) (size 15 to 20)
#    0.000    0.500    0.000   10.500    0.000    3.000 
#    0.000    0.000    0.000    0.000    0.000    0.000 
#    0.000    0.000    0.000    0.000    0.000    0.000 
#
# Total GULP energy -89354.932618 kJ/mol
# GULP energy per Si atom -5584.683289 kJ/mol
# Density = 2.057067 g / cm^3
# Si number density = 20.617596 Si / 1000 Ang^3
#
#
#
# Elastic Constant Matrix: (Units=GPa)
#
#
# Indices 1 2 3 4 5 6 
#
# 1 94.8354 26.5087 -9.7203 1.5010 -12.3607 -13.5291
# 2 26.5087 93.3386 34.1895 8.1241 -11.9343 18.2103
# 3 -9.7203 34.1895 63.8155 11.5974 -6.3959 -36.8594
# 4 1.5010 8.1241 11.5974 37.9169 19.1052 2.3288
# 5 -12.3607 -11.9343 -6.3959 19.1052 47.5442 26.0517
# 6 -13.5291 18.2103 -36.8594 2.3288 26.0517 0.1390
#
#
#
# Elastic Compliance Matrix: (Units=1/GPa)
#
#
# Indices 1 2 3 4 5 6 
#
# 1 0.011036 -0.000928 0.000329 -0.003623 0.007200 -0.005591
# 2 -0.000928 0.007882 0.001717 -0.001065 -0.003525 0.010806
# 3 0.000329 0.001717 0.009510 -0.009119 0.013318 -0.014339
# 4 -0.003623 -0.001065 -0.009119 0.038379 -0.017467 -0.000715
# 5 0.007200 -0.003525 0.013318 -0.017467 0.026565 0.007784
# 6 -0.005591 0.010806 -0.014339 -0.000715 0.007784 -0.014905
#
#
# Mechanical properties :
#
#
# Convention : Reuss Voigt Hill
#
# Bulk Modulus (GPa) = 32.61091 39.32723 35.96907
# Shear Modulus (GPa) = 57.83450 30.52080 44.17765
#
# Velocity S-wave (km/s) = 5.30207 3.85168 4.63397
# Velocity P-wave (km/s) = 7.30301 6.23671 6.79082
#
# Compressibility (1/GPa) = 0.03066459
#
# Stress axis : x y z
#
# Youngs Moduli (GPa) = 90.61240 126.86799 105.15184
#
# Poissons Ratio (x) = 0.11777 -0.03462
# Poissons Ratio (y) = 0.08412 -0.18056
# Poissons Ratio (z) = -0.02984 -0.21785
#
# Static dielectric constant tensor:
#      x y z
#    x 1.762430 0.018850 -0.034580 
#    y 0.018850 1.711120 -0.012690 
#    z -0.034580 -0.012690 1.719330 
# 
# From -- ./inp_files/343969.got.cif
#   From: 2010.05.17/outbox.cif.g08.bks.cpg/sg2_172_cif.got.tgz:343969.got - 2010.06.03 11:33:40.
