data_PCOD9059260
_publ_section_title
;
Structure prediction by ZEFSAII (Michael W. Deem and Ramdas Pophale) SiO2 
 PCOD9059260
Probable space group: P -1
;
_chemical_formula_sum "Si O2"
_cell_formula_units_Z 15
_cell_length_a 12.520343
_cell_length_b 13.206066
_cell_length_c 7.346376
_cell_angle_alpha 119.735096
_cell_angle_beta 110.374545
_cell_angle_gamma 30.731241
_cell_volume 530.553037
_symmetry_space_group_name_H-M "P -1"
_symmetry_group_IT_number 2
_symmetry_cell_setting 'triclinic'
loop_
_space_group_symop_operation_xyz
x,y,z
-x,-y,-z
loop_
_atom_site_type_symbol
_atom_site_label
_atom_site_fract_x
_atom_site_fract_y
_atom_site_fract_z
Si Si1 0.965357 0.716153 0.938631
Si Si2 0.592564 0.727708 0.016293
Si Si3 0.702819 0.960206 0.362823
Si Si4 0.626198 0.271414 0.723914
Si Si5 0.616160 0.326159 0.185186
Si Si6 0.769930 0.649078 0.685462
Si Si7 0.500000 0.000000 0.500000
Si Si8 0.147299 0.670177 0.687396
O O1 0.910838 0.641132 0.742094
O O2 0.192912 0.510243 0.985734
O O3 0.980619 0.801915 0.869175
O O4 0.800552 0.870634 0.143004
O O5 0.472745 0.903923 0.255802
O O6 0.455795 0.739176 0.858098
O O7 0.666405 0.743648 0.908042
O O8 0.747476 0.052021 0.538100
O O9 0.440165 0.158688 0.400276
O O10 0.741485 0.817950 0.387904
O O11 0.600603 0.406868 0.701566
O O12 0.377247 0.452687 0.727789
O O13 0.675449 0.262196 0.949653
O O14 0.807239 0.242831 0.297462
O O15 0.857858 0.441480 0.536729
#
# Coordination Sequence:
#
# PCOD9059260 Si02
#       8
#     2   2   2   2   2   2   1   2
#     4  12  22  40  63  94 128 159 214 256 308 371
#     4  12  23  41  66  95 122 168 208 260 304 376
#     4  11  23  41  61  96 122 168 205 254 318 365
#     4   8  15  35  62  86 114 160 209 244 301 370
#     4   9  16  37  67  85 120 166 216 240 310 372
#     4  11  24  40  60  93 131 164 205 253 322 365
#     4  12  24  40  66  86 130 158 210 252 314 380
#     4   9  19  37  62  86 118 167 206 254 295 369
#
# _framework density 28.272387999999999
#
# number of rings (size 3 to 8) (size 9 to 14) (size 15 to 20)
#    0.800    0.800    4.000    2.000    0.000    0.533 
#    0.000    2.667    0.000    0.800    0.000    0.000 
#    0.000    0.000    0.000    0.000    0.000    0.000 
#
# Total GULP energy -83693.020823 kJ/mol
# GULP energy per Si atom -5579.534722 kJ/mol
# Density = 2.820804 g / cm^3
# Si number density = 28.272388 Si / 1000 Ang^3
#
#
#
# Elastic Constant Matrix: (Units=GPa)
#
#
# Indices 1 2 3 4 5 6 
#
# 1 170.4037 15.9867 71.5109 3.2534 20.0287 -2.4470
# 2 15.9867 78.3429 -4.8036 -1.5428 13.2058 -2.1060
# 3 71.5109 -4.8036 143.6006 8.7965 6.2289 -1.8359
# 4 3.2534 -1.5428 8.7965 30.5125 3.7295 12.0148
# 5 20.0287 13.2058 6.2289 3.7295 65.3088 -7.2603
# 6 -2.4470 -2.1060 -1.8359 12.0148 -7.2603 35.0848
#
#
#
# Elastic Compliance Matrix: (Units=1/GPa)
#
#
# Indices 1 2 3 4 5 6 
#
# 1 0.007855 -0.001539 -0.003923 0.000557 -0.001790 -0.000311
# 2 -0.001539 0.013584 0.001279 0.000779 -0.002441 0.000003
# 3 -0.003923 0.001279 0.009126 -0.002698 0.000371 0.001281
# 4 0.000557 0.000779 -0.002698 0.039712 -0.003948 -0.014472
# 5 -0.001790 -0.002441 0.000371 -0.003948 0.017059 0.004630
# 6 -0.000311 0.000003 0.001281 -0.014472 0.004630 0.034462
#
#
# Mechanical properties :
#
#
# Convention : Reuss Voigt Hill
#
# Bulk Modulus (GPa) = 45.05060 61.97058 53.51059
# Shear Modulus (GPa) = 36.34685 46.82478 41.58581
#
# Velocity S-wave (km/s) = 3.58941 4.07406 3.83939
# Velocity P-wave (km/s) = 5.75739 6.64058 6.21470
#
# Compressibility (1/GPa) = 0.02219726
#
# Stress axis : x y z
#
# Youngs Moduli (GPa) = 127.31489 73.61737 109.57850
#
# Poissons Ratio (x) = 0.11330 0.42992
# Poissons Ratio (y) = 0.19594 -0.14015
# Poissons Ratio (z) = 0.49950 -0.09416
#
# Static dielectric constant tensor:
#      x y z
#    x 2.527710 0.282520 -0.078310 
#    y 0.282520 2.543210 -0.138420 
#    z -0.078310 -0.138420 2.213950 
# 
# From -- ./inp_files/316745.got.cif
#   From: 2010.05.17/outbox.cif.g08.bks.cpg/sg2_159_cif.got.tgz:316745.got - 2010.06.03 11:33:40.
