data_PCOD9059634
_publ_section_title
;
Structure prediction by ZEFSAII (Michael W. Deem and Ramdas Pophale) SiO2 
 PCOD9059634
Probable space group: P -1
;
_chemical_formula_sum "Si O2"
_cell_formula_units_Z 14
_cell_length_a 24.139404
_cell_length_b 24.401068
_cell_length_c 8.555777
_cell_angle_alpha 38.830266
_cell_angle_beta 139.699749
_cell_angle_gamma 168.423975
_cell_volume 634.085483
_symmetry_space_group_name_H-M "P -1"
_symmetry_group_IT_number 2
_symmetry_cell_setting 'triclinic'
loop_
_space_group_symop_operation_xyz
x,y,z
-x,-y,-z
loop_
_atom_site_type_symbol
_atom_site_label
_atom_site_fract_x
_atom_site_fract_y
_atom_site_fract_z
Si Si1 0.103690 0.273602 0.428044
Si Si2 0.842030 0.183566 0.243456
Si Si3 0.218008 0.769536 0.462141
Si Si4 0.544628 0.771658 0.755365
Si Si5 0.343336 0.798099 0.973168
Si Si6 0.402402 0.307346 0.244705
Si Si7 0.023587 0.776936 0.068433
O O1 0.410875 0.554322 0.524645
O O2 0.992251 0.251147 0.327196
O O3 0.909949 0.008242 0.667458
O O4 0.067762 0.257469 0.203846
O O5 0.084691 0.484547 0.147829
O O6 0.671611 0.977207 0.478730
O O7 0.605611 0.995120 0.041369
O O8 0.152032 0.808089 0.223631
O O9 0.000000 0.500000 0.500000
O O10 0.500000 0.000000 0.500000
O O11 0.223567 0.749539 0.700198
O O12 0.546630 0.697330 0.795223
O O13 0.243771 0.497569 0.787405
O O14 0.749663 0.954259 0.935424
O O15 0.500000 0.000000 0.000000
O O16 0.500000 0.500000 0.000000
#
# Coordination Sequence:
#
# PCOD9059634 Si02
#       7
#     2   2   2   2   2   2   2
#     4  11  23  42  70  95 127 174 214 259 322 399
#     4  11  23  42  64  91 126 174 226 265 320 396
#     4  12  26  42  61  90 131 176 216 272 329 370
#     4  11  24  42  68  96 130 172 214 274 329 383
#     4  12  24  39  61  91 124 169 225 281 321 366
#     4  11  24  46  71 100 131 168 213 261 325 405
#     4  12  24  43  65  99 133 169 223 272 323 389
#
# _framework density 22.079042999999999
#
# number of rings (size 3 to 8) (size 9 to 14) (size 15 to 20)
#    0.000    0.571    0.000   10.286    0.000    2.286 
#    0.000    4.286    0.000    0.000    0.000    0.000 
#    0.000    0.000    0.000    0.000    0.000    0.000 
#
# Total GULP energy -78350.534571 kJ/mol
# GULP energy per Si atom -5596.466755 kJ/mol
# Density = 2.202879 g / cm^3
# Si number density = 22.079043 Si / 1000 Ang^3
#
#
#
# Elastic Constant Matrix: (Units=GPa)
#
#
# Indices 1 2 3 4 5 6 
#
# 1 92.9399 45.7663 48.7842 -9.6682 -7.2049 -22.9310
# 2 45.7663 148.3916 18.3631 1.4687 -3.1592 -10.3975
# 3 48.7842 18.3631 86.4114 4.5399 -5.2155 -25.5744
# 4 -9.6682 1.4687 4.5399 48.2810 -8.2139 -5.9553
# 5 -7.2049 -3.1592 -5.2155 -8.2139 29.2919 -1.1302
# 6 -22.9310 -10.3975 -25.5744 -5.9553 -1.1302 43.5320
#
#
#
# Elastic Compliance Matrix: (Units=1/GPa)
#
#
# Indices 1 2 3 4 5 6 
#
# 1 0.020036 -0.004681 -0.008800 0.006462 0.004872 0.005276
# 2 -0.004681 0.008058 0.000910 -0.001382 -0.000516 -0.000209
# 3 -0.008800 0.000910 0.018300 -0.002657 0.000678 0.005987
# 4 0.006462 -0.001382 -0.002657 0.024275 0.007969 0.005041
# 5 0.004872 -0.000516 0.000678 0.007969 0.037827 0.004914
# 6 0.005276 -0.000209 0.005987 0.005041 0.004914 0.030035
#
#
# Mechanical properties :
#
#
# Convention : Reuss Voigt Hill
#
# Bulk Modulus (GPa) = 47.05728 61.50780 54.28254
# Shear Modulus (GPa) = 29.28133 38.54292 33.91212
#
# Velocity S-wave (km/s) = 3.64566 4.18266 3.92336
# Velocity P-wave (km/s) = 6.25144 7.15854 6.72031
#
# Compressibility (1/GPa) = 0.02125070
#
# Stress axis : x y z
#
# Youngs Moduli (GPa) = 49.91105 124.09977 54.64534
#
# Poissons Ratio (x) = 0.58089 0.48090
# Poissons Ratio (y) = 0.23362 -0.04972
# Poissons Ratio (z) = 0.43924 -0.11291
#
# Static dielectric constant tensor:
#      x y z
#    x 1.926540 0.132940 -0.050000 
#    y 0.132940 1.931910 -0.042880 
#    z -0.050000 -0.042880 1.868600 
# 
# From -- ./inp_files/357978.got.cif
#   From: 2010.05.17/outbox.cif.g08.bks.cpg/sg2_179_cif.got.tgz:357978.got - 2010.06.03 11:33:40.
