data_PCOD9059928
_publ_section_title
;
Structure prediction by ZEFSAII (Michael W. Deem and Ramdas Pophale) SiO2 
 PCOD9059928
Probable space group: P -1
;
_chemical_formula_sum "Si O2"
_cell_formula_units_Z 16
_cell_length_a 5.419179
_cell_length_b 21.470729
_cell_length_c 20.633035
_cell_angle_alpha 20.146498
_cell_angle_beta 108.016828
_cell_angle_gamma 117.663891
_cell_volume 666.316908
_symmetry_space_group_name_H-M "P -1"
_symmetry_group_IT_number 2
_symmetry_cell_setting 'triclinic'
loop_
_space_group_symop_operation_xyz
x,y,z
-x,-y,-z
loop_
_atom_site_type_symbol
_atom_site_label
_atom_site_fract_x
_atom_site_fract_y
_atom_site_fract_z
Si Si1 0.493380 0.261222 0.505165
Si Si2 0.778955 0.353948 0.681272
Si Si3 0.888072 0.006806 0.056211
Si Si4 0.882851 0.698800 0.449490
Si Si5 0.870819 0.197768 0.137717
Si Si6 0.155588 0.406690 0.254320
Si Si7 0.494748 0.941645 0.480539
Si Si8 0.535351 0.529621 0.898665
O O1 0.351931 0.302691 0.517071
O O2 0.432705 0.390314 0.319631
O O3 0.837047 0.314064 0.486191
O O4 0.287325 0.012354 0.712944
O O5 0.472354 0.171507 0.800330
O O6 0.719508 0.498482 0.583049
O O7 0.000000 0.500000 0.500000
O O8 0.920498 0.232660 0.848306
O O9 0.024266 0.918495 0.205353
O O10 0.000000 0.000000 0.000000
O O11 0.726727 0.120183 0.274387
O O12 0.825825 0.382957 0.924894
O O13 0.236222 0.317722 0.054357
O O14 0.176080 0.439829 0.145852
O O15 0.845601 0.178588 0.461206
O O16 0.556202 0.750627 0.671799
O O17 0.500000 0.000000 0.500000
O O18 0.500000 0.500000 0.000000
#
# Coordination Sequence:
#
# PCOD9059928 Si02
#       8
#     2   2   2   2   2   2   2   2
#     4  12  29  49  72 105 153 208 251 294 365 453
#     4  11  24  47  78 112 157 192 237 317 373 424
#     4  11  25  45  80 114 150 191 243 306 386 418
#     4  12  28  48  76 113 149 200 257 294 360 455
#     4  11  26  46  71  97 148 192 239 313 370 436
#     4  11  26  46  70  99 144 191 247 300 379 436
#     4  11  23  42  71 105 139 183 241 313 383 447
#     4  11  24  41  71 109 131 180 250 309 382 446
#
# _framework density 24.012599999999999
#
# number of rings (size 3 to 8) (size 9 to 14) (size 15 to 20)
#    0.000    0.750    2.500    3.375   10.500    5.000 
#    0.000    0.000    0.000    0.000    0.000    0.000 
#    0.000    0.000    0.000    0.000    0.000    0.000 
#
# Total GULP energy -89530.913576 kJ/mol
# GULP energy per Si atom -5595.682098 kJ/mol
# Density = 2.395795 g / cm^3
# Si number density = 24.012600 Si / 1000 Ang^3
#
#
#
# Elastic Constant Matrix: (Units=GPa)
#
#
# Indices 1 2 3 4 5 6 
#
# 1 69.5276 19.0861 32.4168 2.3688 -1.1262 -11.6075
# 2 19.0861 80.8278 29.8044 -3.6022 8.6432 -24.2288
# 3 32.4168 29.8044 127.7056 -3.1124 0.0356 -3.6428
# 4 2.3688 -3.6022 -3.1124 46.6743 -3.0629 4.7720
# 5 -1.1262 8.6432 0.0356 -3.0629 48.2095 3.9552
# 6 -11.6075 -24.2288 -3.6428 4.7720 3.9552 50.1052
#
#
#
# Elastic Compliance Matrix: (Units=1/GPa)
#
#
# Indices 1 2 3 4 5 6 
#
# 1 0.017263 -0.001874 -0.003899 -0.001553 0.000403 0.002926
# 2 -0.001874 0.016693 -0.003196 0.000145 -0.003655 0.007680
# 3 -0.003899 -0.003196 0.009532 0.000825 0.000682 -0.001888
# 4 -0.001553 0.000145 0.000825 0.021920 0.001530 -0.002438
# 5 0.000403 -0.003655 0.000682 0.001530 0.021791 -0.003490
# 6 0.002926 0.007680 -0.001888 -0.002438 -0.003490 0.024720
#
#
# Mechanical properties :
#
#
# Convention : Reuss Voigt Hill
#
# Bulk Modulus (GPa) = 39.14091 48.96396 44.05244
# Shear Modulus (GPa) = 36.13398 42.11470 39.12434
#
# Velocity S-wave (km/s) = 3.88337 4.19245 4.04087
# Velocity P-wave (km/s) = 6.03680 6.62350 6.33695
#
# Compressibility (1/GPa) = 0.02554871
#
# Stress axis : x y z
#
# Youngs Moduli (GPa) = 57.92709 59.90667 104.90597
#
# Poissons Ratio (x) = 0.11226 0.40905
# Poissons Ratio (y) = 0.10855 0.33533
# Poissons Ratio (z) = 0.22587 0.19149
#
# Static dielectric constant tensor:
#      x y z
#    x 1.994130 -0.009940 0.005980 
#    y -0.009940 2.009820 0.075240 
#    z 0.005980 0.075240 1.910890 
# 
# From -- ./inp_files/10862.got.cif
#   From: 2010.05.17/outbox.cif.g08.bks.cpg/sg2_6_cif.got.tgz:10862.got - 2010.06.03 11:33:40.
