data_PCOD9059113
_publ_section_title
;
Structure prediction by ZEFSAII (Michael W. Deem and Ramdas Pophale) SiO2 
 PCOD9059113
Probable space group: P -1
;
_chemical_formula_sum "Si O2"
_cell_formula_units_Z 14
_cell_length_a 11.063024
_cell_length_b 7.424567
_cell_length_c 19.741481
_cell_angle_alpha 51.390594
_cell_angle_beta 150.190288
_cell_angle_gamma 139.253285
_cell_volume 523.365769
_symmetry_space_group_name_H-M "P -1"
_symmetry_group_IT_number 2
_symmetry_cell_setting 'triclinic'
loop_
_space_group_symop_operation_xyz
x,y,z
-x,-y,-z
loop_
_atom_site_type_symbol
_atom_site_label
_atom_site_fract_x
_atom_site_fract_y
_atom_site_fract_z
Si Si1 0.368130 0.647829 0.943596
Si Si2 0.733643 0.193616 0.807898
Si Si3 0.593079 0.929963 0.662685
Si Si4 0.921225 0.724330 0.924803
Si Si5 0.705788 0.695155 0.219212
Si Si6 0.781444 0.005955 0.306242
Si Si7 0.845970 0.443829 0.570144
O O1 0.344028 0.851152 0.834688
O O2 0.036512 0.444996 0.861458
O O3 0.500000 0.500000 0.000000
O O4 0.590495 0.798298 0.078990
O O5 0.559309 0.990859 0.709000
O O6 0.491392 0.213873 0.726901
O O7 0.858281 0.092992 0.950932
O O8 0.871426 0.900253 0.805061
O O9 0.332278 0.661222 0.561468
O O10 0.655408 0.198632 0.589106
O O11 0.598413 0.538171 0.841255
O O12 0.000000 0.500000 0.000000
O O13 0.873295 0.569570 0.299485
O O14 0.884499 0.890041 0.324131
O O15 0.040196 0.253945 0.417785
#
# Coordination Sequence:
#
# PCOD9059113 Si02
#       7
#     2   2   2   2   2   2   2
#     4  11  23  40  67 104 147 188 237 295 358 428
#     4  11  24  40  72 102 138 186 238 299 358 417
#     4  11  25  48  73  97 147 196 238 297 359 438
#     4  11  24  43  68 107 140 176 238 296 362 417
#     4  11  24  43  69 104 144 187 237 297 358 429
#     4  12  24  43  71 106 143 189 242 297 363 423
#     4  11  26  49  70 103 146 198 240 289 363 434
#
# _framework density 26.749935000000001
#
# number of rings (size 3 to 8) (size 9 to 14) (size 15 to 20)
#    0.000    0.857    4.286    1.714    6.000    4.571 
#    2.571    2.857    0.000    0.000    0.000    0.000 
#    0.000    0.000    0.000    0.000    0.000    0.000 
#
# Total GULP energy -78302.326419 kJ/mol
# GULP energy per Si atom -5593.023316 kJ/mol
# Density = 2.668905 g / cm^3
# Si number density = 26.749935 Si / 1000 Ang^3
#
#
#
# Elastic Constant Matrix: (Units=GPa)
#
#
# Indices 1 2 3 4 5 6 
#
# 1 87.8641 29.2322 30.4527 16.1563 -17.9468 -13.0884
# 2 29.2322 59.8239 12.1330 9.9028 -5.7807 7.2019
# 3 30.4527 12.1330 137.2386 12.5082 -42.6310 -7.1753
# 4 16.1563 9.9028 12.5082 50.1449 -22.5717 -2.1341
# 5 -17.9468 -5.7807 -42.6310 -22.5717 37.5867 20.1222
# 6 -13.0884 7.2019 -7.1753 -2.1341 20.1222 52.4572
#
#
#
# Elastic Compliance Matrix: (Units=1/GPa)
#
#
# Indices 1 2 3 4 5 6 
#
# 1 0.015861 -0.007369 -0.002707 -0.003354 -0.001300 0.004961
# 2 -0.007369 0.021361 0.000378 -0.000958 0.002728 -0.005805
# 3 -0.002707 0.000378 0.013885 0.007276 0.022775 -0.007268
# 4 -0.003354 -0.000958 0.007276 0.033525 0.032407 -0.010777
# 5 -0.001300 0.002728 0.022775 0.032407 0.087709 -0.029910
# 6 0.004961 -0.005805 -0.007268 -0.010777 -0.029910 0.031139
#
#
# Mechanical properties :
#
#
# Convention : Reuss Voigt Hill
#
# Bulk Modulus (GPa) = 31.53462 47.61803 39.57632
# Shear Modulus (GPa) = 21.41810 42.24504 31.83157
#
# Velocity S-wave (km/s) = 2.83270 3.97830 3.45333
# Velocity P-wave (km/s) = 4.74480 6.24038 5.54326
#
# Compressibility (1/GPa) = 0.03171118
#
# Stress axis : x y z
#
# Youngs Moduli (GPa) = 63.04679 46.81463 72.01790
#
# Poissons Ratio (x) = 0.34498 0.19495
# Poissons Ratio (y) = 0.46460 -0.02721
# Poissons Ratio (z) = 0.17066 -0.01769
#
# Static dielectric constant tensor:
#      x y z
#    x 2.134330 -0.005500 -0.050990 
#    y -0.005500 2.182650 -0.025400 
#    z -0.050990 -0.025400 2.100320 
# 
# From -- ./inp_files/593511.got.cif
#   From: 2010.05.17/outbox.cif.g08.bks.cpg/sg2_297_cif.got.tgz:593511.got - 2010.06.03 11:33:40.
