data_PCOD9059090
_publ_section_title
;
Structure prediction by ZEFSAII (Michael W. Deem and Ramdas Pophale) SiO2 
 PCOD9059090
Probable space group: P -1
;
_chemical_formula_sum "Si O2"
_cell_formula_units_Z 13
_cell_length_a 9.082126
_cell_length_b 11.389404
_cell_length_c 7.934491
_cell_angle_alpha 140.002398
_cell_angle_beta 70.043925
_cell_angle_gamma 92.731137
_cell_volume 463.771465
_symmetry_space_group_name_H-M "P -1"
_symmetry_group_IT_number 2
_symmetry_cell_setting 'triclinic'
loop_
_space_group_symop_operation_xyz
x,y,z
-x,-y,-z
loop_
_atom_site_type_symbol
_atom_site_label
_atom_site_fract_x
_atom_site_fract_y
_atom_site_fract_z
Si Si1 0.378372 0.337824 0.552321
Si Si2 0.864411 0.428110 0.676999
Si Si3 0.309286 0.731968 0.891106
Si Si4 0.151063 0.187223 0.037308
Si Si5 0.012032 0.934422 0.613006
Si Si6 0.500000 0.500000 0.000000
Si Si7 0.473079 0.950458 0.260566
O O1 0.261238 0.539880 0.729884
O O2 0.539558 0.297909 0.327488
O O3 0.410976 0.403526 0.796185
O O4 0.365216 0.130898 0.382482
O O5 0.866330 0.643721 0.905897
O O6 0.674425 0.440846 0.745352
O O7 0.997380 0.291270 0.337197
O O8 0.943713 0.294923 0.658881
O O9 0.159683 0.915546 0.082074
O O10 0.381546 0.791716 0.104925
O O11 0.144431 0.995809 0.737427
O O12 0.337831 0.137288 0.982803
O O13 0.000000 0.000000 0.500000
O O14 0.500000 0.000000 0.500000
#
# Coordination Sequence:
#
# PCOD9059090 Si02
#       7
#     2   2   2   2   2   1   2
#     4  11  23  40  66  95 132 173 225 281 328 401
#     4  11  25  44  70  99 138 181 231 287 340 413
#     4  11  25  42  65  99 137 180 223 275 345 408
#     4  11  25  45  70 101 138 183 231 283 346 407
#     4  12  25  42  66 101 141 179 223 284 350 409
#     4  12  22  44  72 100 134 184 234 282 346 410
#     4  12  24  42  70 100 134 182 232 276 334 412
#
# _framework density 28.031047999999998
#
# number of rings (size 3 to 8) (size 9 to 14) (size 15 to 20)
#    0.000    0.615    0.000    8.308    0.000    5.538 
#    0.000    0.000    0.000    0.000    0.000    0.000 
#    0.000    0.000    0.000    0.000    0.000    0.000 
#
# Total GULP energy -72547.187237 kJ/mol
# GULP energy per Si atom -5580.552864 kJ/mol
# Density = 2.796725 g / cm^3
# Si number density = 28.031048 Si / 1000 Ang^3
#
#
#
# Elastic Constant Matrix: (Units=GPa)
#
#
# Indices 1 2 3 4 5 6 
#
# 1 86.2073 3.4855 22.4953 5.8087 -21.8923 3.9786
# 2 3.4855 146.9622 30.5972 37.0008 -8.6350 7.3466
# 3 22.4953 30.5972 91.9065 -1.0915 -13.7199 12.8283
# 4 5.8087 37.0008 -1.0915 69.6804 -3.8073 -3.3971
# 5 -21.8923 -8.6350 -13.7199 -3.8073 50.9149 -8.3913
# 6 3.9786 7.3466 12.8283 -3.3971 -8.3913 28.5129
#
#
#
# Elastic Compliance Matrix: (Units=1/GPa)
#
#
# Indices 1 2 3 4 5 6 
#
# 1 0.013740 0.000918 -0.002981 -0.001365 0.005252 0.000570
# 2 0.000918 0.008693 -0.002895 -0.004784 0.000485 -0.001493
# 3 -0.002981 -0.002895 0.013381 0.001857 0.001269 -0.004264
# 4 -0.001365 -0.004784 0.001857 0.017223 0.000867 0.002895
# 5 0.005252 0.000485 0.001269 0.000867 0.023300 0.005531
# 6 0.000570 -0.001493 -0.004264 0.002895 0.005531 0.039268
#
#
# Mechanical properties :
#
#
# Convention : Reuss Voigt Hill
#
# Bulk Modulus (GPa) = 38.61042 48.69246 43.65144
# Shear Modulus (GPa) = 37.27123 47.72150 42.49637
#
# Velocity S-wave (km/s) = 3.65038 4.13055 3.89787
# Velocity P-wave (km/s) = 5.61882 6.33697 5.98867
#
# Compressibility (1/GPa) = 0.02589974
#
# Stress axis : x y z
#
# Youngs Moduli (GPa) = 72.77975 115.03420 74.73549
#
# Poissons Ratio (x) = -0.10565 0.22275
# Poissons Ratio (y) = -0.06684 0.21635
# Poissons Ratio (z) = 0.21692 0.33301
#
# Static dielectric constant tensor:
#      x y z
#    x 2.149540 -0.053340 -0.056450 
#    y -0.053340 2.247070 -0.022370 
#    z -0.056450 -0.022370 2.312230 
# 
# From -- ./inp_files/191023.got.cif
#   From: 2010.05.17/outbox.cif.g08.bks.cpg/sg2_96_cif.got.tgz:191023.got - 2010.06.03 11:33:40.
