data_PCOD9059936
_publ_section_title
;
Structure prediction by ZEFSAII (Michael W. Deem and Ramdas Pophale) SiO2 
 PCOD9059936
Probable space group: P -1
;
_chemical_formula_sum "Si O2"
_cell_formula_units_Z 13
_cell_length_a 5.176013
_cell_length_b 21.347935
_cell_length_c 9.195800
_cell_angle_alpha 138.654326
_cell_angle_beta 58.880132
_cell_angle_gamma 101.084062
_cell_volume 539.119303
_symmetry_space_group_name_H-M "P -1"
_symmetry_group_IT_number 2
_symmetry_cell_setting 'triclinic'
loop_
_space_group_symop_operation_xyz
x,y,z
-x,-y,-z
loop_
_atom_site_type_symbol
_atom_site_label
_atom_site_fract_x
_atom_site_fract_y
_atom_site_fract_z
Si Si1 0.678262 0.895711 0.346876
Si Si2 0.523962 0.579500 0.749350
Si Si3 0.145999 0.569973 0.393262
Si Si4 0.000000 0.500000 0.000000
Si Si5 0.474502 0.284037 0.456754
Si Si6 0.621466 0.222458 0.984983
Si Si7 0.635948 0.067583 0.182649
O O1 0.578917 0.817645 0.139869
O O2 0.547080 0.905389 0.564577
O O3 0.060128 0.863786 0.198739
O O4 0.500000 0.000000 0.500000
O O5 0.500000 0.500000 0.500000
O O6 0.535445 0.521121 0.795551
O O7 0.869913 0.590567 0.631723
O O8 0.284859 0.690433 0.974840
O O9 0.251092 0.666162 0.516554
O O10 0.058048 0.525794 0.197042
O O11 0.831197 0.625949 0.237968
O O12 0.581171 0.174680 0.307929
O O13 0.439861 0.270199 0.269353
O O14 0.500000 0.000000 0.000000
O O15 0.000000 0.000000 0.000000
#
# Coordination Sequence:
#
# PCOD9059936 Si02
#       7
#     2   2   2   1   2   2   2
#     4  12  27  50  79 112 144 196 260 322 385 461
#     4  11  23  42  71 105 151 197 255 309 380 458
#     4  11  24  45  67 108 153 206 255 316 383 469
#     4  12  26  44  72 108 160 204 258 314 400 470
#     4  12  27  47  74 109 158 205 254 325 393 462
#     4  12  25  46  78 109 150 199 254 317 382 461
#     4  12  29  53  81 113 154 201 257 326 394 466
#
# _framework density 24.113401
#
# number of rings (size 3 to 8) (size 9 to 14) (size 15 to 20)
#    0.000    0.308    3.077    4.615    6.462    1.231 
#    0.000    0.000    0.000    0.000    0.000    0.000 
#    0.000    0.000    0.000    0.000    0.000    0.000 
#
# Total GULP energy -72579.192403 kJ/mol
# GULP energy per Si atom -5583.014800 kJ/mol
# Density = 2.405852 g / cm^3
# Si number density = 24.113401 Si / 1000 Ang^3
#
#
#
# Elastic Constant Matrix: (Units=GPa)
#
#
# Indices 1 2 3 4 5 6 
#
# 1 133.1298 26.9176 53.9635 5.3398 20.4781 -17.5600
# 2 26.9176 170.2065 61.9669 40.8986 20.1771 -25.1632
# 3 53.9635 61.9669 163.7606 11.9141 20.3363 -5.6932
# 4 5.3398 40.8986 11.9141 55.6659 -12.9982 -1.9830
# 5 20.4781 20.1771 20.3363 -12.9982 59.5893 -0.5511
# 6 -17.5600 -25.1632 -5.6932 -1.9830 -0.5511 40.9876
#
#
#
# Elastic Compliance Matrix: (Units=1/GPa)
#
#
# Indices 1 2 3 4 5 6 
#
# 1 0.009537 0.000813 -0.002851 -0.001423 -0.002852 0.004082
# 2 0.000813 0.009903 -0.002735 -0.007572 -0.004299 0.005624
# 3 -0.002851 -0.002735 0.008098 0.000297 -0.000809 -0.001772
# 4 -0.001423 -0.007572 0.000297 0.025439 0.008464 -0.003872
# 5 -0.002852 -0.004299 -0.000809 0.008464 0.021310 -0.003278
# 6 0.004082 0.005624 -0.001772 -0.003872 -0.003278 0.029121
#
#
# Mechanical properties :
#
#
# Convention : Reuss Voigt Hill
#
# Bulk Modulus (GPa) = 55.57844 83.64365 69.61105
# Shear Modulus (GPa) = 42.03450 52.86514 47.44982
#
# Velocity S-wave (km/s) = 4.17969 4.68734 4.44078
# Velocity P-wave (km/s) = 6.81116 8.00361 7.43134
#
# Compressibility (1/GPa) = 0.01799259
#
# Stress axis : x y z
#
# Youngs Moduli (GPa) = 104.85705 100.98187 123.48724
#
# Poissons Ratio (x) = -0.08211 0.35202
# Poissons Ratio (y) = -0.08526 0.33773
# Poissons Ratio (z) = 0.29891 0.27618
#
# Static dielectric constant tensor:
#      x y z
#    x 1.985600 0.018670 -0.161440 
#    y 0.018670 2.107700 0.000270 
#    z -0.161440 0.000270 1.961100 
# 
# From -- ./inp_files/140863.got.cif
#   From: 2010.05.17/outbox.cif.g08.bks.cpg/sg2_71_cif.got.tgz:140863.got - 2010.06.03 11:33:40.
