data_PCOD9059252
_publ_section_title
;
Structure prediction by ZEFSAII (Michael W. Deem and Ramdas Pophale) SiO2 
 PCOD9059252
Probable space group: P -1
;
_chemical_formula_sum "Si O2"
_cell_formula_units_Z 16
_cell_length_a 9.083333
_cell_length_b 11.596198
_cell_length_c 14.654418
_cell_angle_alpha 149.825879
_cell_angle_beta 83.424184
_cell_angle_gamma 83.846703
_cell_volume 701.962919
_symmetry_space_group_name_H-M "P -1"
_symmetry_group_IT_number 2
_symmetry_cell_setting 'triclinic'
loop_
_space_group_symop_operation_xyz
x,y,z
-x,-y,-z
loop_
_atom_site_type_symbol
_atom_site_label
_atom_site_fract_x
_atom_site_fract_y
_atom_site_fract_z
Si Si1 0.457565 0.262731 0.730691
Si Si2 0.471814 0.882707 0.752389
Si Si3 0.259730 0.453544 0.373213
Si Si4 0.823108 0.998969 0.002480
Si Si5 0.779691 0.233051 0.707451
Si Si6 0.443608 0.676062 0.874544
Si Si7 0.756804 0.750644 0.112119
Si Si8 0.076654 0.952481 0.622918
O O1 0.610408 0.249417 0.769739
O O2 0.445997 0.470196 0.801880
O O3 0.298275 0.329747 0.845782
O O4 0.500000 0.000000 0.500000
O O5 0.632994 0.628898 0.595230
O O6 0.391926 0.987598 0.731464
O O7 0.305877 0.932546 0.856328
O O8 0.533477 0.092465 0.922501
O O9 0.184503 0.253851 0.213613
O O10 0.410078 0.418331 0.272267
O O11 0.124486 0.726516 0.538954
O O12 0.727363 0.221007 0.092197
O O13 0.000000 0.000000 0.000000
O O14 0.803539 0.127251 0.529424
O O15 0.788149 0.505326 0.881323
O O16 0.910014 0.054988 0.648413
O O17 0.905620 0.821511 0.169323
#
# Coordination Sequence:
#
# PCOD9059252 Si02
#       8
#     2   2   2   2   2   2   2   2
#     4  12  22  39  62  94 126 166 215 257 307 370
#     4   9  19  35  62  86 120 163 207 255 311 373
#     4   9  17  37  61  84 122 161 203 254 309 368
#     4   9  18  34  59  92 119 159 211 259 315 372
#     4  11  23  41  60  90 130 167 206 259 314 362
#     4   9  17  35  56  86 120 163 207 250 305 372
#     4  12  23  41  65  94 126 168 215 254 313 379
#     4  11  23  41  63  90 131 166 209 259 313 379
#
# _framework density 22.793227000000002
#
# number of rings (size 3 to 8) (size 9 to 14) (size 15 to 20)
#    0.000    1.750    3.750    3.000    0.000    1.500 
#    4.500    0.000    0.000    1.500    0.000    0.000 
#    0.000    0.000    0.000    0.000    0.000    0.000 
#
# Total GULP energy -89172.960295 kJ/mol
# GULP energy per Si atom -5573.310018 kJ/mol
# Density = 2.274135 g / cm^3
# Si number density = 22.793227 Si / 1000 Ang^3
#
#
#
# Elastic Constant Matrix: (Units=GPa)
#
#
# Indices 1 2 3 4 5 6 
#
# 1 133.8048 46.9966 23.3634 29.4063 7.6713 -14.8802
# 2 46.9966 80.9744 7.8073 31.8128 -3.2717 -13.3733
# 3 23.3634 7.8073 56.9738 11.5873 15.5746 2.0447
# 4 29.4063 31.8128 11.5873 26.3636 -4.6578 -5.4412
# 5 7.6713 -3.2717 15.5746 -4.6578 20.1899 8.0360
# 6 -14.8802 -13.3733 2.0447 -5.4412 8.0360 34.2564
#
#
#
# Elastic Compliance Matrix: (Units=1/GPa)
#
#
# Indices 1 2 3 4 5 6 
#
# 1 0.011710 -0.001848 0.000250 -0.011644 -0.009511 0.004731
# 2 -0.001848 0.026468 0.006420 -0.033195 -0.010105 0.006244
# 3 0.000250 0.006420 0.029598 -0.025441 -0.029212 0.003660
# 4 -0.011644 -0.033195 -0.025441 0.108447 0.047869 -0.010502
# 5 -0.009511 -0.010105 -0.029212 0.047869 0.093288 -0.020613
# 6 0.004731 0.006244 0.003660 -0.010502 -0.020613 0.036633
#
#
# Mechanical properties :
#
#
# Convention : Reuss Voigt Hill
#
# Bulk Modulus (GPa) = 12.91665 47.56531 30.24098
# Shear Modulus (GPa) = 15.51315 29.06770 22.29043
#
# Velocity S-wave (km/s) = 2.61167 3.57498 3.13060
# Velocity P-wave (km/s) = 3.84364 6.16069 5.13457
#
# Compressibility (1/GPa) = 0.07741945
#
# Stress axis : x y z
#
# Youngs Moduli (GPa) = 85.39934 37.78160 33.78604
#
# Poissons Ratio (x) = 0.06983 -0.00844
# Poissons Ratio (y) = 0.15785 -0.21692
# Poissons Ratio (z) = -0.02133 -0.24257
#
# Static dielectric constant tensor:
#      x y z
#    x 1.851330 -0.058900 -0.010810 
#    y -0.058900 1.898700 -0.006650 
#    z -0.010810 -0.006650 1.934270 
# 
# From -- ./inp_files/404577.got.cif
#   From: 2010.05.17/outbox.cif.g08.bks.cpg/sg2_203_cif.got.tgz:404577.got - 2010.06.03 11:33:40.
