data_PCOD9059456
_publ_section_title
;
Structure prediction by ZEFSAII (Michael W. Deem and Ramdas Pophale) SiO2 
 PCOD9059456
Probable space group: P -1
;
_chemical_formula_sum "Si O2"
_cell_formula_units_Z 16
_cell_length_a 12.410588
_cell_length_b 7.578165
_cell_length_c 8.984486
_cell_angle_alpha 56.032685
_cell_angle_beta 110.307931
_cell_angle_gamma 101.476504
_cell_volume 657.220154
_symmetry_space_group_name_H-M "P -1"
_symmetry_group_IT_number 2
_symmetry_cell_setting 'triclinic'
loop_
_space_group_symop_operation_xyz
x,y,z
-x,-y,-z
loop_
_atom_site_type_symbol
_atom_site_label
_atom_site_fract_x
_atom_site_fract_y
_atom_site_fract_z
Si Si1 0.596186 0.382003 0.943157
Si Si2 0.859974 0.068827 0.791500
Si Si3 0.887792 0.410789 0.403904
Si Si4 0.385246 0.787611 0.306042
Si Si5 0.964182 0.449041 0.841905
Si Si6 0.353147 0.408044 0.707922
Si Si7 0.771620 0.711739 0.750706
Si Si8 0.627316 0.973037 0.327134
O O1 0.603364 0.278114 0.829223
O O2 0.458672 0.418123 0.870303
O O3 0.679413 0.582166 0.865490
O O4 0.641155 0.213479 0.164801
O O5 0.868753 0.190144 0.581024
O O6 0.733408 0.094107 0.785372
O O7 0.939678 0.213755 0.870550
O O8 0.860120 0.825682 0.853219
O O9 0.771708 0.541710 0.309954
O O10 0.000000 0.500000 0.500000
O O11 0.937881 0.419977 0.260648
O O12 0.382666 0.584007 0.511221
O O13 0.495248 0.931308 0.327934
O O14 0.837704 0.563210 0.731564
O O15 0.000000 0.500000 0.000000
O O16 0.349849 0.181224 0.730570
O O17 0.704042 0.885948 0.538639
#
# Coordination Sequence:
#
# PCOD9059456 Si02
#       8
#     2   2   2   2   2   2   2   2
#     4  11  21  39  69 111 151 192 247 298 368 457
#     4  10  23  43  75 107 143 194 239 301 373 437
#     4   9  20  42  73 107 141 188 258 303 357 441
#     4  10  17  39  68 101 156 188 240 294 362 444
#     4  11  25  50  77 107 146 187 252 313 361 443
#     4  10  17  37  71 107 149 200 241 311 372 432
#     4  12  24  46  74 104 150 196 239 300 381 432
#     4  11  21  37  70 108 150 203 236 297 372 444
#
# _framework density 24.344961999999999
#
# number of rings (size 3 to 8) (size 9 to 14) (size 15 to 20)
#    0.000    1.500    3.750    3.750    0.000    2.500 
#    4.500    3.125    2.750    0.000    0.000    0.000 
#    0.000    0.000    0.000    0.000    0.000    0.000 
#
# Total GULP energy -89451.384195 kJ/mol
# GULP energy per Si atom -5590.711512 kJ/mol
# Density = 2.428955 g / cm^3
# Si number density = 24.344962 Si / 1000 Ang^3
#
#
#
# Elastic Constant Matrix: (Units=GPa)
#
#
# Indices 1 2 3 4 5 6 
#
# 1 169.5549 51.0613 54.9945 -1.3611 -9.7142 17.5472
# 2 51.0613 140.2320 48.2688 3.9650 9.2505 21.8971
# 3 54.9945 48.2688 133.1300 -2.2218 2.6751 11.0616
# 4 -1.3611 3.9650 -2.2218 32.2561 0.0124 4.0458
# 5 -9.7142 9.2505 2.6751 0.0124 26.5268 7.9993
# 6 17.5472 21.8971 11.0616 4.0458 7.9993 25.3044
#
#
#
# Elastic Compliance Matrix: (Units=1/GPa)
#
#
# Indices 1 2 3 4 5 6 
#
# 1 0.007987 -0.001712 -0.002366 0.000988 0.005217 -0.004830
# 2 -0.001712 0.009522 -0.002277 -0.000738 -0.002129 -0.005266
# 3 -0.002366 -0.002277 0.009375 0.000868 -0.000917 -0.000336
# 4 0.000988 -0.000738 0.000868 0.031984 0.002418 -0.006304
# 5 0.005217 -0.002129 -0.000917 0.002418 0.045290 -0.016078
# 6 -0.004830 -0.005266 -0.000336 -0.006304 -0.016078 0.053663
#
#
# Mechanical properties :
#
#
# Convention : Reuss Voigt Hill
#
# Bulk Modulus (GPa) = 70.54787 83.50736 77.02761
# Shear Modulus (GPa) = 28.52967 36.05694 32.29331
#
# Velocity S-wave (km/s) = 3.42701 3.85266 3.64605
# Velocity P-wave (km/s) = 6.68584 7.35981 7.03091
#
# Compressibility (1/GPa) = 0.01417477
#
# Stress axis : x y z
#
# Youngs Moduli (GPa) = 125.19775 105.02236 106.66414
#
# Poissons Ratio (x) = 0.17978 0.25235
# Poissons Ratio (y) = 0.21432 0.24289
# Poissons Ratio (z) = 0.29619 0.23915
#
# Static dielectric constant tensor:
#      x y z
#    x 1.826640 -0.051740 0.191960 
#    y -0.051740 1.943230 0.011830 
#    z 0.191960 0.011830 1.835730 
# 
# From -- ./inp_files/234317.got.cif
#   From: 2010.05.17/outbox.cif.g08.bks.cpg/sg2_118_cif.got.tgz:234317.got - 2010.06.03 11:33:40.
