data_PCOD9059274
_publ_section_title
;
Structure prediction by ZEFSAII (Michael W. Deem and Ramdas Pophale) SiO2 
 PCOD9059274
Probable space group: P -1
;
_chemical_formula_sum "Si O2"
_cell_formula_units_Z 14
_cell_length_a 14.379317
_cell_length_b 14.808010
_cell_length_c 15.034031
_cell_angle_alpha 151.065757
_cell_angle_beta 149.971127
_cell_angle_gamma 29.167445
_cell_volume 681.182066
_symmetry_space_group_name_H-M "P -1"
_symmetry_group_IT_number 2
_symmetry_cell_setting 'triclinic'
loop_
_space_group_symop_operation_xyz
x,y,z
-x,-y,-z
loop_
_atom_site_type_symbol
_atom_site_label
_atom_site_fract_x
_atom_site_fract_y
_atom_site_fract_z
Si Si1 0.796986 0.176909 0.431618
Si Si2 0.054338 0.121572 0.072359
Si Si3 0.378847 0.461106 0.948379
Si Si4 0.383376 0.667881 0.304295
Si Si5 0.494159 0.994562 0.596092
Si Si6 0.365312 0.350596 0.327682
Si Si7 0.098748 0.097669 0.891212
O O1 0.572633 0.222994 0.327937
O O2 0.782058 0.409331 0.621354
O O3 0.816137 0.085197 0.269329
O O4 0.000000 0.000000 0.500000
O O5 0.860040 0.354035 0.099049
O O6 0.264054 0.130110 0.280167
O O7 0.093964 0.016483 0.917126
O O8 0.000000 0.000000 0.000000
O O9 0.400807 0.230764 0.759416
O O10 0.500000 0.500000 0.000000
O O11 0.458207 0.493859 0.138235
O O12 0.537058 0.621599 0.474526
O O13 0.143696 0.733364 0.189239
O O14 0.370861 0.875625 0.425852
O O15 0.500000 0.000000 0.500000
O O16 0.238178 0.219031 0.115774
#
# Coordination Sequence:
#
# PCOD9059274 Si02
#       7
#     2   2   2   2   2   2   2
#     4  11  25  48  73 104 138 176 229 288 354 414
#     4  11  23  41  67 101 138 183 232 273 338 407
#     4  11  23  41  63  94 135 183 227 286 334 388
#     4  11  24  44  67 102 137 178 238 279 338 418
#     4  12  23  43  66  96 142 182 230 286 333 404
#     4  11  25  46  72 103 135 180 228 285 352 410
#     4  11  24  46  71 101 142 181 229 285 340 411
#
# _framework density 20.552508
#
# number of rings (size 3 to 8) (size 9 to 14) (size 15 to 20)
#    0.000    0.857    5.714    1.286    2.000    3.429 
#    2.571    0.000    0.000    0.000    0.000    0.000 
#    0.000    0.000    0.000    0.000    0.000    0.000 
#
# Total GULP energy -78264.254788 kJ/mol
# GULP energy per Si atom -5590.303913 kJ/mol
# Density = 2.050573 g / cm^3
# Si number density = 20.552508 Si / 1000 Ang^3
#
#
#
# Elastic Constant Matrix: (Units=GPa)
#
#
# Indices 1 2 3 4 5 6 
#
# 1 122.2439 43.6706 53.8638 9.2215 -18.6320 -10.1745
# 2 43.6706 101.7208 36.1194 2.0044 -7.4783 -13.9706
# 3 53.8638 36.1194 106.5999 5.5781 -10.3813 -15.4280
# 4 9.2215 2.0044 5.5781 41.5316 -1.3292 -0.7004
# 5 -18.6320 -7.4783 -10.3813 -1.3292 43.1488 3.6055
# 6 -10.1745 -13.9706 -15.4280 -0.7004 3.6055 27.9534
#
#
#
# Elastic Compliance Matrix: (Units=1/GPa)
#
#
# Indices 1 2 3 4 5 6 
#
# 1 0.012006 -0.003282 -0.004562 -0.001788 0.003486 -0.000283
# 2 -0.003282 0.012490 -0.002033 0.000464 -0.000057 0.003945
# 3 -0.004562 -0.002033 0.013095 -0.000558 0.000437 0.004481
# 4 -0.001788 0.000464 -0.000558 0.024524 -0.000062 -0.000105
# 5 0.003486 -0.000057 0.000437 -0.000062 0.024919 -0.001734
# 6 -0.000283 0.003945 0.004481 -0.000105 -0.001734 0.040336
#
#
# Mechanical properties :
#
#
# Convention : Reuss Voigt Hill
#
# Bulk Modulus (GPa) = 56.06134 66.43025 61.24579
# Shear Modulus (GPa) = 32.66498 35.65414 34.15956
#
# Velocity S-wave (km/s) = 3.99098 4.16959 4.08126
# Velocity P-wave (km/s) = 6.96948 7.45473 7.21618
#
# Compressibility (1/GPa) = 0.01783760
#
# Stress axis : x y z
#
# Youngs Moduli (GPa) = 83.29428 80.06456 76.36453
#
# Poissons Ratio (x) = 0.26273 0.34840
# Poissons Ratio (y) = 0.27333 0.15523
# Poissons Ratio (z) = 0.38001 0.16275
#
# Static dielectric constant tensor:
#      x y z
#    x 1.765360 0.011000 -0.012300 
#    y 0.011000 1.733470 -0.024720 
#    z -0.012300 -0.024720 1.711860 
# 
# From -- ./inp_files/534619.got.cif
#   From: 2010.05.17/outbox.cif.g08.bks.cpg/sg2_268_cif.got.tgz:534619.got - 2010.06.03 11:33:40.
