data_PCOD9059919
_publ_section_title
;
Structure prediction by ZEFSAII (Michael W. Deem and Ramdas Pophale) SiO2 
 PCOD9059919
Probable space group: P -1
;
_chemical_formula_sum "Si O2"
_cell_formula_units_Z 16
_cell_length_a 17.300872
_cell_length_b 5.809083
_cell_length_c 11.129387
_cell_angle_alpha 83.694486
_cell_angle_beta 120.472014
_cell_angle_gamma 129.774343
_cell_volume 700.965388
_symmetry_space_group_name_H-M "P -1"
_symmetry_group_IT_number 2
_symmetry_cell_setting 'triclinic'
loop_
_space_group_symop_operation_xyz
x,y,z
-x,-y,-z
loop_
_atom_site_type_symbol
_atom_site_label
_atom_site_fract_x
_atom_site_fract_y
_atom_site_fract_z
Si Si1 0.627327 0.796527 0.420549
Si Si2 0.710720 0.323034 0.898703
Si Si3 0.513426 0.670149 0.860185
Si Si4 0.891690 0.277181 0.611499
Si Si5 0.914267 0.056687 0.389653
Si Si6 0.591036 0.352209 0.600944
Si Si7 0.985718 0.708103 0.061074
Si Si8 0.662867 0.520609 0.091871
O O1 0.589283 0.670728 0.262548
O O2 0.644234 0.588910 0.519017
O O3 0.503382 0.677766 0.386073
O O4 0.755870 0.152578 0.523124
O O5 0.700565 0.463055 0.765660
O O6 0.599874 0.946829 0.816474
O O7 0.844144 0.451574 0.005952
O O8 0.679222 0.404600 0.990743
O O9 0.440059 0.729483 0.877307
O O10 0.609567 0.680250 0.006616
O O11 0.881965 0.128429 0.484516
O O12 0.004575 0.648127 0.654881
O O13 0.928179 0.187472 0.760884
O O14 0.792475 0.760792 0.244782
O O15 0.000000 0.000000 0.500000
O O16 0.500000 0.000000 0.500000
O O17 0.000000 0.500000 0.000000
O O18 0.000000 0.000000 0.000000
#
# Coordination Sequence:
#
# PCOD9059919 Si02
#       8
#     2   2   2   2   2   2   2   2
#     4  11  23  44  68 100 143 181 244 298 370 445
#     4  12  25  44  73 100 146 185 247 308 369 451
#     4  11  23  42  71 103 141 184 232 307 378 446
#     4  11  26  47  72 105 144 195 251 307 371 450
#     4  11  25  45  74 102 142 194 243 307 373 446
#     4  11  24  40  68 101 136 190 232 294 367 436
#     4  12  31  51  80 112 153 208 260 315 380 451
#     4  11  24  44  69 104 142 183 240 301 380 447
#
# _framework density 22.825665999999998
#
# number of rings (size 3 to 8) (size 9 to 14) (size 15 to 20)
#    0.000    0.750    3.750    2.625    7.000    3.000 
#    0.000    0.000    0.000    0.000    0.000    0.000 
#    0.000    0.000    0.000    0.000    0.000    0.000 
#
# Total GULP energy -89329.822469 kJ/mol
# GULP energy per Si atom -5583.113904 kJ/mol
# Density = 2.277371 g / cm^3
# Si number density = 22.825666 Si / 1000 Ang^3
#
#
#
# Elastic Constant Matrix: (Units=GPa)
#
#
# Indices 1 2 3 4 5 6 
#
# 1 80.5254 14.8397 34.8135 9.8018 7.5960 2.3906
# 2 14.8397 65.5626 30.4014 -0.9074 0.4492 7.3332
# 3 34.8135 30.4014 157.2373 0.9279 23.4262 4.3976
# 4 9.8018 -0.9074 0.9279 33.5424 3.0519 1.9372
# 5 7.5960 0.4492 23.4262 3.0519 39.7092 4.0037
# 6 2.3906 7.3332 4.3976 1.9372 4.0037 25.0372
#
#
#
# Elastic Compliance Matrix: (Units=1/GPa)
#
#
# Indices 1 2 3 4 5 6 
#
# 1 0.014545 -0.002131 -0.002656 -0.004163 -0.000888 0.000166
# 2 -0.002131 0.017774 -0.003207 0.001250 0.002500 -0.004936
# 3 -0.002656 -0.003207 0.008208 0.000840 -0.004402 0.000390
# 4 -0.004163 0.001250 0.000840 0.031342 -0.001897 -0.002238
# 5 -0.000888 0.002500 -0.004402 -0.001897 0.028499 -0.004285
# 6 0.000166 -0.004936 0.000390 -0.002238 -0.004285 0.042160
#
#
# Mechanical properties :
#
#
# Convention : Reuss Voigt Hill
#
# Bulk Modulus (GPa) = 40.74970 51.49272 46.12121
# Shear Modulus (GPa) = 29.99490 34.54247 32.26868
#
# Velocity S-wave (km/s) = 3.62897 3.89436 3.76400
# Velocity P-wave (km/s) = 5.95403 6.54442 6.25620
#
# Compressibility (1/GPa) = 0.02454006
#
# Stress axis : x y z
#
# Youngs Moduli (GPa) = 68.75190 56.26207 121.83492
#
# Poissons Ratio (x) = 0.11987 0.32362
# Poissons Ratio (y) = 0.14648 0.39068
# Poissons Ratio (z) = 0.18262 0.18041
#
# Static dielectric constant tensor:
#      x y z
#    x 1.963400 0.004100 -0.052080 
#    y 0.004100 1.935440 -0.046500 
#    z -0.052080 -0.046500 1.829640 
# 
# From -- ./inp_files/459522.got.cif
#   From: 2010.05.17/outbox.cif.g08.bks.cpg/sg2_230_cif.got.tgz:459522.got - 2010.06.03 11:33:40.
