data_PCOD9059326
_publ_section_title
;
Structure prediction by ZEFSAII (Michael W. Deem and Ramdas Pophale) SiO2 
 PCOD9059326
Probable space group: P -1
;
_chemical_formula_sum "Si O2"
_cell_formula_units_Z 14
_cell_length_a 24.787601
_cell_length_b 15.326613
_cell_length_c 15.393625
_cell_angle_alpha 151.430721
_cell_angle_beta 159.598185
_cell_angle_gamma 17.139301
_cell_volume 592.104826
_symmetry_space_group_name_H-M "P -1"
_symmetry_group_IT_number 2
_symmetry_cell_setting 'triclinic'
loop_
_space_group_symop_operation_xyz
x,y,z
-x,-y,-z
loop_
_atom_site_type_symbol
_atom_site_label
_atom_site_fract_x
_atom_site_fract_y
_atom_site_fract_z
Si Si1 0.641000 0.833972 0.458245
Si Si2 0.643209 0.721733 0.863818
Si Si3 0.830242 0.870482 0.938706
Si Si4 0.365269 0.857983 0.717441
Si Si5 0.811694 0.285344 0.229320
Si Si6 0.673979 0.407114 0.934266
Si Si7 0.171976 0.124619 0.378702
O O1 0.705409 0.924354 0.705829
O O2 0.738715 0.546936 0.388948
O O3 0.337167 0.089771 0.211310
O O4 0.790107 0.750642 0.524422
O O5 0.598737 0.637706 0.808511
O O6 0.378148 0.963074 0.623505
O O7 0.873363 0.448455 0.909335
O O8 0.684208 0.886472 0.106409
O O9 0.781447 0.130785 0.103726
O O10 0.432291 0.688423 0.758026
O O11 0.114132 0.013440 0.429939
O O12 0.660267 0.416840 0.025405
O O13 0.757562 0.129611 0.785938
O O14 0.890276 0.353367 0.188649
#
# Coordination Sequence:
#
# PCOD9059326 Si02
#       7
#     2   2   2   2   2   2   2
#     4  11  24  43  67  93 131 178 221 266 322 390
#     4  11  23  41  65  96 135 173 217 269 329 391
#     4  11  24  43  67  93 131 178 221 266 322 390
#     4  11  24  39  66 102 134 168 215 273 332 390
#     4  12  23  44  70 100 131 172 216 278 324 390
#     4  11  24  39  66 102 134 168 215 273 332 390
#     4  11  23  41  65  96 135 173 217 269 329 391
#
# _framework density 23.644462000000001
#
# number of rings (size 3 to 8) (size 9 to 14) (size 15 to 20)
#    0.000    0.857    4.286    3.000    4.000    2.857 
#    0.000    0.000    0.000    4.286    0.000    0.000 
#    0.000    0.000    0.000    0.000    0.000    0.000 
#
# Total GULP energy -78329.667760 kJ/mol
# GULP energy per Si atom -5594.976269 kJ/mol
# Density = 2.359065 g / cm^3
# Si number density = 23.644462 Si / 1000 Ang^3
#
#
#
# Elastic Constant Matrix: (Units=GPa)
#
#
# Indices 1 2 3 4 5 6 
#
# 1 36.9902 9.3985 10.8480 5.3981 4.2216 1.3188
# 2 9.3985 73.1512 13.3534 9.9425 5.7255 0.1065
# 3 10.8480 13.3534 74.5934 8.5449 9.0964 2.2323
# 4 5.3981 9.9425 8.5449 38.8296 0.7654 -1.8755
# 5 4.2216 5.7255 9.0964 0.7654 38.7562 -3.3628
# 6 1.3188 0.1065 2.2323 -1.8755 -3.3628 23.6919
#
#
#
# Elastic Compliance Matrix: (Units=1/GPa)
#
#
# Indices 1 2 3 4 5 6 
#
# 1 0.029349 -0.002647 -0.003159 -0.002754 -0.002171 -0.001850
# 2 -0.002647 0.014855 -0.001743 -0.003033 -0.001455 -0.000202
# 3 -0.003159 -0.001743 0.014875 -0.002417 -0.003001 -0.001835
# 4 -0.002754 -0.003033 -0.002417 0.027556 0.001007 0.002719
# 5 -0.002171 -0.001455 -0.003001 0.001007 0.027317 0.004367
# 6 -0.001850 -0.000202 -0.001835 0.002719 0.004367 0.043320
#
#
# Mechanical properties :
#
#
# Convention : Reuss Voigt Hill
#
# Bulk Modulus (GPa) = 22.73750 27.99274 25.36512
# Shear Modulus (GPa) = 26.73338 30.33121 28.53230
#
# Velocity S-wave (km/s) = 3.36615 3.58551 3.47756
# Velocity P-wave (km/s) = 4.97446 5.38571 5.18417
#
# Compressibility (1/GPa) = 0.04398020
#
# Stress axis : x y z
#
# Youngs Moduli (GPa) = 34.07307 67.31696 67.22551
#
# Poissons Ratio (x) = 0.17821 0.21235
# Poissons Ratio (y) = 0.09020 0.11720
# Poissons Ratio (z) = 0.10763 0.11736
#
# Static dielectric constant tensor:
#      x y z
#    x 1.909690 -0.036500 0.056670 
#    y -0.036500 1.927210 -0.025860 
#    z 0.056670 -0.025860 1.893670 
# 
# From -- ./inp_files/304812.got.cif
#   From: 2010.05.17/outbox.cif.g08.bks.cpg/sg2_153_cif.got.tgz:304812.got - 2010.06.03 11:33:40.
