data_PCOD9059167
_publ_section_title
;
Structure prediction by ZEFSAII (Michael W. Deem and Ramdas Pophale) SiO2 
 PCOD9059167
Probable space group: P -1
;
_chemical_formula_sum "Si O2"
_cell_formula_units_Z 16
_cell_length_a 11.942418
_cell_length_b 10.558962
_cell_length_c 5.466282
_cell_angle_alpha 93.344039
_cell_angle_beta 103.786614
_cell_angle_gamma 67.191028
_cell_volume 616.642168
_symmetry_space_group_name_H-M "P -1"
_symmetry_group_IT_number 2
_symmetry_cell_setting 'triclinic'
loop_
_space_group_symop_operation_xyz
x,y,z
-x,-y,-z
loop_
_atom_site_type_symbol
_atom_site_label
_atom_site_fract_x
_atom_site_fract_y
_atom_site_fract_z
Si Si1 0.560716 0.689396 0.029609
Si Si2 0.734170 0.384174 0.077977
Si Si3 0.688687 0.100011 0.886918
Si Si4 0.215349 0.255854 0.577210
Si Si5 0.789830 0.210792 0.580236
Si Si6 0.927023 0.877726 0.168155
Si Si7 0.003540 0.614014 0.827425
Si Si8 0.409049 0.106167 0.276552
O O1 0.615410 0.526504 0.012962
O O2 0.426537 0.756423 0.096727
O O3 0.672318 0.718323 0.228673
O O4 0.548449 0.777292 0.787177
O O5 0.738116 0.293927 0.313524
O O6 0.856125 0.420045 0.185862
O O7 0.759144 0.309204 0.817352
O O8 0.720812 0.110804 0.617797
O O9 0.624725 0.995315 0.931380
O O10 0.830545 0.030586 0.059787
O O11 0.152052 0.173794 0.693106
O O12 0.095222 0.379687 0.430336
O O13 0.280624 0.181658 0.357159
O O14 0.940469 0.135425 0.649988
O O15 0.962949 0.764942 0.954283
O O16 0.000000 0.500000 0.000000
O O17 0.500000 0.000000 0.500000
#
# Coordination Sequence:
#
# PCOD9059167 Si02
#       8
#     2   2   2   2   2   2   2   2
#     4  12  27  44  71 107 142 190 243 310 374 430
#     4  11  27  49  73 107 146 191 254 298 366 434
#     4  12  25  48  70 103 147 193 241 301 364 444
#     4  12  21  39  71 105 143 181 231 309 370 433
#     4  11  28  50  74 106 145 200 248 300 358 440
#     4  11  23  44  67 106 143 184 246 296 364 441
#     4  11  23  40  69 108 145 189 236 302 373 429
#     4  12  24  42  69 109 144 184 240 299 378 440
#
# _framework density 25.946977
#
# number of rings (size 3 to 8) (size 9 to 14) (size 15 to 20)
#    0.000    0.500    5.000    3.000    5.250    4.000 
#    0.000    2.500    0.000    0.000    0.000    0.000 
#    0.000    0.000    0.000    0.000    0.000    0.000 
#
# Total GULP energy -89475.682086 kJ/mol
# GULP energy per Si atom -5592.230130 kJ/mol
# Density = 2.588792 g / cm^3
# Si number density = 25.946977 Si / 1000 Ang^3
#
#
#
# Elastic Constant Matrix: (Units=GPa)
#
#
# Indices 1 2 3 4 5 6 
#
# 1 158.3782 42.3768 43.7320 -18.2706 -4.2521 -21.9186
# 2 42.3768 171.2008 49.7244 -16.9597 -4.3454 -34.9627
# 3 43.7320 49.7244 117.7791 -39.3870 -1.8104 -5.8772
# 4 -18.2706 -16.9597 -39.3870 55.2241 -0.5950 1.1035
# 5 -4.2521 -4.3454 -1.8104 -0.5950 44.3231 -4.6273
# 6 -21.9186 -34.9627 -5.8772 1.1035 -4.6273 51.3021
#
#
#
# Elastic Compliance Matrix: (Units=1/GPa)
#
#
# Indices 1 2 3 4 5 6 
#
# 1 0.007542 -0.000612 -0.002155 0.000727 0.000859 0.002620
# 2 -0.000612 0.007831 -0.002773 0.000140 0.001104 0.004854
# 3 -0.002155 -0.002773 0.012966 0.007713 -0.000001 -0.001491
# 4 0.000727 0.000140 0.007713 0.023884 0.000808 0.000849
# 5 0.000859 0.001104 -0.000001 0.000808 0.023096 0.003185
# 6 0.002620 0.004854 -0.001491 0.000849 0.003185 0.024018
#
#
# Mechanical properties :
#
#
# Convention : Reuss Voigt Hill
#
# Bulk Modulus (GPa) = 57.93815 79.89162 68.91489
# Shear Modulus (GPa) = 43.03969 50.93818 46.98893
#
# Velocity S-wave (km/s) = 4.07720 4.43557 4.26015
# Velocity P-wave (km/s) = 6.67403 7.55576 7.12854
#
# Compressibility (1/GPa) = 0.01725978
#
# Stress axis : x y z
#
# Youngs Moduli (GPa) = 132.58383 127.69323 77.12318
#
# Poissons Ratio (x) = 0.07816 0.16620
# Poissons Ratio (y) = 0.08115 0.21387
# Poissons Ratio (z) = 0.28571 0.35410
#
# Static dielectric constant tensor:
#      x y z
#    x 1.956690 0.551680 0.502310 
#    y 0.551680 -3.197040 -4.954260 
#    z 0.502310 -4.954260 -2.556170 
# 
# From -- ./inp_files/69861.got.cif
#   From: 2010.05.17/outbox.cif.g08.bks.cpg/sg2_35_cif.got.tgz:69861.got - 2010.06.03 11:33:40.
