data_PCOD9059528
_publ_section_title
;
Structure prediction by ZEFSAII (Michael W. Deem and Ramdas Pophale) SiO2 
 PCOD9059528
Probable space group: P -1
;
_chemical_formula_sum "Si O2"
_cell_formula_units_Z 12
_cell_length_a 11.318971
_cell_length_b 6.597630
_cell_length_c 9.616317
_cell_angle_alpha 111.328268
_cell_angle_beta 48.567972
_cell_angle_gamma 100.550920
_cell_volume 499.830749
_symmetry_space_group_name_H-M "P -1"
_symmetry_group_IT_number 2
_symmetry_cell_setting 'triclinic'
loop_
_space_group_symop_operation_xyz
x,y,z
-x,-y,-z
loop_
_atom_site_type_symbol
_atom_site_label
_atom_site_fract_x
_atom_site_fract_y
_atom_site_fract_z
Si Si1 0.342202 0.512841 0.035054
Si Si2 0.761482 0.938958 0.076223
Si Si3 0.485232 0.669107 0.680866
Si Si4 0.067885 0.166762 0.798583
Si Si5 0.107481 0.780590 0.477619
Si Si6 0.152805 0.366695 0.535191
O O1 0.269527 0.279209 0.037392
O O2 0.224597 0.696793 0.243415
O O3 0.500000 0.500000 0.000000
O O4 0.385802 0.574080 0.860045
O O5 0.822720 0.854744 0.158136
O O6 0.899908 0.079763 0.944644
O O7 0.603831 0.102577 0.241593
O O8 0.500000 0.500000 0.500000
O O9 0.661152 0.688511 0.606206
O O10 0.071014 0.383338 0.756987
O O11 0.141583 0.998829 0.582775
O O12 0.124262 0.600612 0.541242
O O13 0.063828 0.216625 0.459426
#
# Coordination Sequence:
#
# PCOD9059528 Si02
#       6
#     2   2   2   2   2   2
#     4  12  27  47  72 107 146 189 237 297 354 425
#     4  11  27  47  72 105 147 188 242 291 358 430
#     4  12  27  46  73 110 146 191 234 296 365 425
#     4  11  25  47  74 103 141 192 239 295 355 426
#     4  11  24  46  69 104 142 187 241 290 355 425
#     4  11  23  41  71 100 138 186 234 290 352 414
#
# _framework density 24.008126000000001
#
# number of rings (size 3 to 8) (size 9 to 14) (size 15 to 20)
#    0.000    0.667    1.667    5.500    2.333    4.667 
#    0.000    5.833    0.000    0.000    0.000    0.000 
#    0.000    0.000    0.000    0.000    0.000    0.000 
#
# Total GULP energy -67249.318322 kJ/mol
# GULP energy per Si atom -5604.109860 kJ/mol
# Density = 2.395348 g / cm^3
# Si number density = 24.008126 Si / 1000 Ang^3
#
#
#
# Elastic Constant Matrix: (Units=GPa)
#
#
# Indices 1 2 3 4 5 6 
#
# 1 166.5013 42.1458 70.1695 -2.6292 -19.2392 -6.5739
# 2 42.1458 46.3695 27.4348 -20.4210 -3.7114 -14.7836
# 3 70.1695 27.4348 127.6486 -5.8089 7.2821 -8.4863
# 4 -2.6292 -20.4210 -5.8089 54.3390 -9.2878 14.5187
# 5 -19.2392 -3.7114 7.2821 -9.2878 38.3258 -10.7737
# 6 -6.5739 -14.7836 -8.4863 14.5187 -10.7737 41.1225
#
#
#
# Elastic Compliance Matrix: (Units=1/GPa)
#
#
# Indices 1 2 3 4 5 6 
#
# 1 0.010194 -0.007003 -0.004452 -0.001810 0.004877 0.000110
# 2 -0.007003 0.039313 -0.003775 0.012636 0.006753 0.009542
# 3 -0.004452 -0.003775 0.011292 -0.001130 -0.005219 -0.000707
# 4 -0.001810 0.012636 -0.001130 0.024773 0.005618 -0.003254
# 5 0.004877 0.006753 -0.005219 0.005618 0.034100 0.009081
# 6 0.000110 0.009542 -0.000707 -0.003254 0.009081 0.031148
#
#
# Mechanical properties :
#
#
# Convention : Reuss Voigt Hill
#
# Bulk Modulus (GPa) = 32.96221 68.89108 50.92664
# Shear Modulus (GPa) = 26.12405 40.14208 33.13307
#
# Velocity S-wave (km/s) = 3.30227 4.09347 3.71897
# Velocity P-wave (km/s) = 5.31971 7.14837 6.30074
#
# Compressibility (1/GPa) = 0.03033777
#
# Stress axis : x y z
#
# Youngs Moduli (GPa) = 98.09431 25.43692 88.55848
#
# Poissons Ratio (x) = 0.17815 0.39426
# Poissons Ratio (y) = 0.68700 0.33433
# Poissons Ratio (z) = 0.43671 0.09603
#
# Static dielectric constant tensor:
#      x y z
#    x 1.872360 0.027550 0.003030 
#    y 0.027550 2.155510 -0.018990 
#    z 0.003030 -0.018990 1.918960 
# 
# From -- ./inp_files/440684.got.cif
#   From: 2010.05.17/outbox.cif.g08.bks.cpg/sg2_221_cif.got.tgz:440684.got - 2010.06.03 11:33:40.
