data_PCOD9059202
_publ_section_title
;
Structure prediction by ZEFSAII (Michael W. Deem and Ramdas Pophale) SiO2 
 PCOD9059202
Probable space group: P -1
;
_chemical_formula_sum "Si O2"
_cell_formula_units_Z 15
_cell_length_a 8.093492
_cell_length_b 7.483259
_cell_length_c 13.425490
_cell_angle_alpha 48.270648
_cell_angle_beta 101.237295
_cell_angle_gamma 114.086993
_cell_volume 550.464555
_symmetry_space_group_name_H-M "P -1"
_symmetry_group_IT_number 2
_symmetry_cell_setting 'triclinic'
loop_
_space_group_symop_operation_xyz
x,y,z
-x,-y,-z
loop_
_atom_site_type_symbol
_atom_site_label
_atom_site_fract_x
_atom_site_fract_y
_atom_site_fract_z
Si Si1 0.244256 0.441896 0.316528
Si Si2 0.049619 0.018733 0.839208
Si Si3 0.500000 0.500000 0.000000
Si Si4 0.563543 0.309270 0.466340
Si Si5 0.399706 0.750771 0.723398
Si Si6 0.964681 0.580024 0.137291
Si Si7 0.090523 0.303831 0.550291
Si Si8 0.546687 0.983462 0.125420
O O1 0.371793 0.281574 0.403612
O O2 0.089328 0.303592 0.431800
O O3 0.139422 0.504696 0.188593
O O4 0.394735 0.727951 0.249549
O O5 0.026402 0.226069 0.839539
O O6 0.000379 0.067902 0.703089
O O7 0.256330 0.036395 0.848800
O O8 0.939859 0.739955 0.979578
O O9 0.518070 0.443358 0.145172
O O10 0.525617 0.229205 0.082614
O O11 0.668594 0.323804 0.370575
O O12 0.691653 0.558515 0.450264
O O13 0.527059 0.049957 0.619721
O O14 0.207802 0.684228 0.780022
O O15 0.000000 0.500000 0.500000
O O16 0.500000 0.000000 0.000000
#
# Coordination Sequence:
#
# PCOD9059202 Si02
#       8
#     2   2   1   2   2   2   2   2
#     4  12  23  40  75 103 136 188 254 296 359 444
#     4  11  23  40  70  99 141 187 244 295 365 433
#     4  12  28  42  74 110 140 188 248 300 352 442
#     4  11  24  44  70  98 139 199 233 298 377 431
#     4  11  25  46  66  97 152 184 241 302 365 437
#     4  11  23  43  70 104 139 200 242 297 371 438
#     4  12  23  40  66 107 136 175 251 303 354 441
#     4  12  24  46  77 107 144 193 246 304 367 440
#
# _framework density 27.249713
#
# number of rings (size 3 to 8) (size 9 to 14) (size 15 to 20)
#    0.000    0.533    5.333    2.800    3.733    1.600 
#    0.000    0.667    2.933    0.000    0.000    0.000 
#    0.000    0.000    0.000    0.000    0.000    0.000 
#
# Total GULP energy -83666.863799 kJ/mol
# GULP energy per Si atom -5577.790920 kJ/mol
# Density = 2.718769 g / cm^3
# Si number density = 27.249713 Si / 1000 Ang^3
#
#
#
# Elastic Constant Matrix: (Units=GPa)
#
#
# Indices 1 2 3 4 5 6 
#
# 1 88.4462 -9.9323 23.2359 -18.9316 15.7876 -9.6853
# 2 -9.9323 57.7786 6.4187 -5.4495 -2.9767 -18.8196
# 3 23.2359 6.4187 200.8987 -3.4685 -3.8880 2.9884
# 4 -18.9316 -5.4495 -3.4685 25.7015 -3.9417 4.8980
# 5 15.7876 -2.9767 -3.8880 -3.9417 51.7918 -4.9492
# 6 -9.6853 -18.8196 2.9884 4.8980 -4.9492 18.8124
#
#
#
# Elastic Compliance Matrix: (Units=1/GPa)
#
#
# Indices 1 2 3 4 5 6 
#
# 1 0.017428 0.008958 -0.002380 0.011201 -0.002721 0.014680
# 2 0.008958 0.031425 -0.002399 0.006611 0.002785 0.035442
# 3 -0.002380 -0.002399 0.005391 -0.000656 0.000544 -0.004168
# 4 0.011201 0.006611 -0.000656 0.048566 0.000613 0.000001
# 5 -0.002721 0.002785 0.000544 0.000613 0.021022 0.006670
# 6 0.014680 0.035442 -0.004168 0.000001 0.006670 0.098587
#
#
# Mechanical properties :
#
#
# Convention : Reuss Voigt Hill
#
# Bulk Modulus (GPa) = 15.97376 42.95200 29.46288
# Shear Modulus (GPa) = 21.28314 41.08787 31.18550
#
# Velocity S-wave (km/s) = 2.79774 3.88729 3.38662
# Velocity P-wave (km/s) = 4.03871 5.99538 5.11155
#
# Compressibility (1/GPa) = 0.06260267
#
# Stress axis : x y z
#
# Youngs Moduli (GPa) = 57.37808 31.82171 185.50439
#
# Poissons Ratio (x) = -0.28507 0.44143
# Poissons Ratio (y) = -0.51401 0.44508
# Poissons Ratio (z) = 0.13654 0.07635
#
# Static dielectric constant tensor:
#      x y z
#    x 2.109110 -0.137580 -0.159860 
#    y -0.137580 2.225910 0.079310 
#    z -0.159860 0.079310 2.106610 
# 
# From -- ./inp_files/494301.got.cif
#   From: 2010.05.17/outbox.cif.g08.bks.cpg/sg2_248_cif.got.tgz:494301.got - 2010.06.03 11:33:40.
