data_PCOD9059678
_publ_section_title
;
Structure prediction by ZEFSAII (Michael W. Deem and Ramdas Pophale) SiO2 
 PCOD9059678
Probable space group: P -1
;
_chemical_formula_sum "Si O2"
_cell_formula_units_Z 14
_cell_length_a 13.986086
_cell_length_b 13.393792
_cell_length_c 6.449843
_cell_angle_alpha 84.561190
_cell_angle_beta 73.099385
_cell_angle_gamma 30.564791
_cell_volume 557.016965
_symmetry_space_group_name_H-M "P -1"
_symmetry_group_IT_number 2
_symmetry_cell_setting 'triclinic'
loop_
_space_group_symop_operation_xyz
x,y,z
-x,-y,-z
loop_
_atom_site_type_symbol
_atom_site_label
_atom_site_fract_x
_atom_site_fract_y
_atom_site_fract_z
Si Si1 0.585320 0.179451 0.046438
Si Si2 0.002567 0.274731 0.557386
Si Si3 0.912073 0.965590 0.105432
Si Si4 0.590708 0.360144 0.766720
Si Si5 0.779113 0.354289 0.373085
Si Si6 0.185037 0.434277 0.062396
Si Si7 0.817570 0.790946 0.921995
O O1 0.678180 0.177918 0.823075
O O2 0.670756 0.995487 0.097950
O O3 0.370334 0.343829 0.035480
O O4 0.663708 0.176550 0.197094
O O5 0.805053 0.421023 0.508467
O O6 0.973531 0.399233 0.688038
O O7 0.033682 0.149767 0.707089
O O8 0.176082 0.155013 0.309591
O O9 0.026148 0.810179 0.871765
O O10 0.000000 0.000000 0.000000
O O11 0.757956 0.276420 0.551170
O O12 0.407990 0.494729 0.696910
O O13 0.500000 0.500000 0.000000
O O14 0.257877 0.256206 0.043263
O O15 0.047073 0.576589 0.918147
#
# Coordination Sequence:
#
# PCOD9059678 Si02
#       7
#     2   2   2   2   2   2   2
#     4  12  23  45  71 101 139 186 236 293 350 424
#     4  12  22  45  69  96 145 183 231 289 369 415
#     4  12  26  41  66 103 143 185 233 288 349 427
#     4  11  24  42  68 104 142 185 241 289 352 431
#     4  11  23  42  66  98 140 188 230 287 357 418
#     4  11  25  48  73 101 142 182 239 304 362 423
#     4  11  25  47  73 103 137 186 240 302 361 420
#
# _framework density 25.133884999999999
#
# number of rings (size 3 to 8) (size 9 to 14) (size 15 to 20)
#    0.000    0.571    2.857    6.000    2.000    2.286 
#    2.571    0.714    0.000    0.000    0.000    0.000 
#    0.000    0.000    0.000    0.000    0.000    0.000 
#
# Total GULP energy -78007.297795 kJ/mol
# GULP energy per Si atom -5571.949843 kJ/mol
# Density = 2.507668 g / cm^3
# Si number density = 25.133885 Si / 1000 Ang^3
#
#
#
# Elastic Constant Matrix: (Units=GPa)
#
#
# Indices 1 2 3 4 5 6 
#
# 1 105.0434 13.8713 24.3746 -13.0519 12.5701 5.8828
# 2 13.8713 68.0884 13.2035 -21.7175 3.1998 1.1883
# 3 24.3746 13.2035 93.0781 -23.1007 4.1446 4.1086
# 4 -13.0519 -21.7175 -23.1007 23.2024 -4.2162 -2.8744
# 5 12.5701 3.1998 4.1446 -4.2162 28.1434 -3.4485
# 6 5.8828 1.1883 4.1086 -2.8744 -3.4485 64.5998
#
#
#
# Elastic Compliance Matrix: (Units=1/GPa)
#
#
# Indices 1 2 3 4 5 6 
#
# 1 0.010951 -0.000804 -0.001861 0.002663 -0.004246 -0.000972
# 2 -0.000804 0.021475 0.002701 0.022583 0.000972 0.000563
# 3 -0.001861 0.002701 0.014898 0.016451 0.000788 -0.000054
# 4 0.002663 0.022583 0.016451 0.083613 0.006637 0.002371
# 5 -0.004246 0.000972 0.000788 0.006637 0.038524 0.002670
# 6 -0.000972 0.000563 -0.000054 0.002371 0.002670 0.015810
#
#
# Mechanical properties :
#
#
# Convention : Reuss Voigt Hill
#
# Bulk Modulus (GPa) = 21.09908 41.01210 31.05559
# Shear Modulus (GPa) = 24.87601 37.50649 31.19125
#
# Velocity S-wave (km/s) = 3.14943 3.86718 3.52661
# Velocity P-wave (km/s) = 4.65168 6.02437 5.38196
#
# Compressibility (1/GPa) = 0.04739543
#
# Stress axis : x y z
#
# Youngs Moduli (GPa) = 91.31322 46.56675 67.12350
#
# Poissons Ratio (x) = 0.03746 0.12491
# Poissons Ratio (y) = 0.07345 -0.18131
# Poissons Ratio (z) = 0.16993 -0.12578
#
# Static dielectric constant tensor:
#      x y z
#    x 2.073660 -0.034800 0.045600 
#    y -0.034800 2.136070 0.063620 
#    z 0.045600 0.063620 2.031420 
# 
# From -- ./inp_files/97873.got.cif
#   From: 2010.05.17/outbox.cif.g08.bks.cpg/sg2_49_cif.got.tgz:97873.got - 2010.06.03 11:33:40.
