data_PCOD9059499
_publ_section_title
;
Structure prediction by ZEFSAII (Michael W. Deem and Ramdas Pophale) SiO2 
 PCOD9059499
Probable space group: P -1
;
_chemical_formula_sum "Si O2"
_cell_formula_units_Z 14
_cell_length_a 18.596372
_cell_length_b 9.132165
_cell_length_c 12.955361
_cell_angle_alpha 108.517603
_cell_angle_beta 18.821575
_cell_angle_gamma 108.643033
_cell_volume 671.758583
_symmetry_space_group_name_H-M "P -1"
_symmetry_group_IT_number 2
_symmetry_cell_setting 'triclinic'
loop_
_space_group_symop_operation_xyz
x,y,z
-x,-y,-z
loop_
_atom_site_type_symbol
_atom_site_label
_atom_site_fract_x
_atom_site_fract_y
_atom_site_fract_z
Si Si1 0.967697 0.593184 0.355710
Si Si2 0.920035 0.228141 0.386344
Si Si3 0.612283 0.183518 0.610229
Si Si4 0.896228 0.850935 0.668189
Si Si5 0.219074 0.482384 0.626846
Si Si6 0.692133 0.935402 0.296296
Si Si7 0.479785 0.642365 0.638391
O O1 0.967829 0.413032 0.348035
O O2 0.861510 0.701528 0.607818
O O3 0.854296 0.597735 0.398683
O O4 0.221889 0.657171 0.013860
O O5 0.937719 0.187885 0.473166
O O6 0.697495 0.187715 0.613314
O O7 0.108664 0.130935 0.053972
O O8 0.662995 0.352171 0.528888
O O9 0.754507 0.071101 0.322859
O O10 0.352403 0.127443 0.946096
O O11 0.000000 0.000000 0.500000
O O12 0.389635 0.392668 0.443006
O O13 0.000000 0.500000 0.000000
O O14 0.587791 0.792242 0.470841
O O15 0.500000 0.000000 0.500000
O O16 0.500000 0.500000 0.500000
#
# Coordination Sequence:
#
# PCOD9059499 Si02
#       7
#     2   2   2   2   2   2   2
#     4  11  25  42  68  98 131 174 224 270 327 402
#     4  11  24  44  67  96 130 176 223 275 333 390
#     4  11  25  44  68  99 137 172 221 277 337 393
#     4  12  27  45  66  95 136 182 224 268 330 399
#     4  11  23  41  70 101 132 167 219 277 334 397
#     4  12  23  41  69  98 136 176 215 280 341 386
#     4  12  21  40  67  97 131 168 219 273 333 389
#
# _framework density 20.840820000000001
#
# number of rings (size 3 to 8) (size 9 to 14) (size 15 to 20)
#    0.000    0.571    4.286    4.286    0.000    5.143 
#    0.000    0.000    0.000    0.000    0.000    0.000 
#    0.000    0.000    0.000    0.000    0.000    0.000 
#
# Total GULP energy -78328.279842 kJ/mol
# GULP energy per Si atom -5594.877132 kJ/mol
# Density = 2.079339 g / cm^3
# Si number density = 20.840820 Si / 1000 Ang^3
#
#
#
# Elastic Constant Matrix: (Units=GPa)
#
#
# Indices 1 2 3 4 5 6 
#
# 1 181.3967 55.0783 11.1955 -5.7139 3.9144 -23.3840
# 2 55.0783 63.2234 11.0830 6.1663 5.9349 -9.2399
# 3 11.1955 11.0830 53.2436 1.0220 0.1559 -3.1995
# 4 -5.7139 6.1663 1.0220 37.8990 8.3296 10.1555
# 5 3.9144 5.9349 0.1559 8.3296 31.5301 7.6357
# 6 -23.3840 -9.2399 -3.1995 10.1555 7.6357 32.7973
#
#
#
# Elastic Compliance Matrix: (Units=1/GPa)
#
#
# Indices 1 2 3 4 5 6 
#
# 1 0.008035 -0.006487 -0.000145 0.001523 -0.001065 0.003663
# 2 -0.006487 0.023398 -0.003161 -0.005059 -0.003208 0.003971
# 3 -0.000145 -0.003161 0.019532 -0.000370 0.000388 0.000936
# 4 0.001523 -0.005059 -0.000370 0.030951 -0.005299 -0.008725
# 5 -0.001065 -0.003208 0.000388 -0.005299 0.035868 -0.008335
# 6 0.003663 0.003971 0.000936 -0.008725 -0.008335 0.038955
#
#
# Mechanical properties :
#
#
# Convention : Reuss Voigt Hill
#
# Bulk Modulus (GPa) = 31.86996 50.28636 41.07816
# Shear Modulus (GPa) = 26.76871 35.14575 30.95723
#
# Velocity S-wave (km/s) = 3.58779 4.11102 3.85829
# Velocity P-wave (km/s) = 5.69985 6.83485 6.29299
#
# Compressibility (1/GPa) = 0.03137751
#
# Stress axis : x y z
#
# Youngs Moduli (GPa) = 124.45990 42.73928 51.19723
#
# Poissons Ratio (x) = 0.27727 0.00743
# Poissons Ratio (y) = 0.80742 0.16184
# Poissons Ratio (z) = 0.01805 0.13510
#
# Static dielectric constant tensor:
#      x y z
#    x 1.753980 0.031280 0.020040 
#    y 0.031280 1.762720 0.066360 
#    z 0.020040 0.066360 1.829780 
# 
# From -- ./inp_files/183730.got.cif
#   From: 2010.05.17/outbox.cif.g08.bks.cpg/sg2_92_cif.got.tgz:183730.got - 2010.06.03 11:33:40.
