data_PCOD9059994
_publ_section_title
;
Structure prediction by ZEFSAII (Michael W. Deem and Ramdas Pophale) SiO2 
 PCOD9059994
Probable space group: P -1
;
_chemical_formula_sum "Si O2"
_cell_formula_units_Z 14
_cell_length_a 16.191840
_cell_length_b 13.677478
_cell_length_c 11.662434
_cell_angle_alpha 159.900520
_cell_angle_beta 42.595285
_cell_angle_gamma 134.678064
_cell_volume 599.956181
_symmetry_space_group_name_H-M "P -1"
_symmetry_group_IT_number 2
_symmetry_cell_setting 'triclinic'
loop_
_space_group_symop_operation_xyz
x,y,z
-x,-y,-z
loop_
_atom_site_type_symbol
_atom_site_label
_atom_site_fract_x
_atom_site_fract_y
_atom_site_fract_z
Si Si1 0.695577 0.953048 0.818965
Si Si2 0.324180 0.330292 0.708295
Si Si3 0.814383 0.667761 0.694788
Si Si4 0.593384 0.544112 0.646867
Si Si5 0.882390 0.281576 0.388983
Si Si6 0.822857 0.136604 0.552068
Si Si7 0.947382 0.706764 0.377705
O O1 0.679094 0.899825 0.643424
O O2 0.596412 0.738138 0.744977
O O3 0.831814 0.868168 0.623889
O O4 0.663284 0.263489 0.233046
O O5 0.460304 0.452257 0.725923
O O6 0.258900 0.155731 0.685512
O O7 0.247723 0.592677 0.033449
O O8 0.680681 0.718886 0.838536
O O9 0.795803 0.445520 0.571808
O O10 0.894566 0.557844 0.384862
O O11 0.883487 0.962997 0.986870
O O12 0.852006 0.229990 0.495384
O O13 0.000000 0.500000 0.500000
O O14 0.938702 0.100222 0.476474
O O15 0.000000 0.500000 0.000000
#
# Coordination Sequence:
#
# PCOD9059994 Si02
#       7
#     2   2   2   2   2   2   2
#     4  11  23  42  72  99 144 192 228 278 348 425
#     4  12  25  44  68 103 145 185 232 288 342 416
#     4  11  25  45  73  99 136 184 233 288 337 414
#     4  11  24  46  69 103 138 188 241 277 340 419
#     4  12  25  48  71 100 136 186 239 279 342 419
#     4  12  27  43  71 104 142 185 230 288 358 406
#     4  11  24  44  68 110 145 172 222 290 366 412
#
# _framework density 23.335038999999998
#
# number of rings (size 3 to 8) (size 9 to 14) (size 15 to 20)
#    0.000    0.571    2.857    5.571    4.000    2.857 
#    0.000    4.286    0.000    0.000    0.000    0.000 
#    0.000    0.000    0.000    0.000    0.000    0.000 
#
# Total GULP energy -78326.763190 kJ/mol
# GULP energy per Si atom -5594.768799 kJ/mol
# Density = 2.328193 g / cm^3
# Si number density = 23.335039 Si / 1000 Ang^3
#
#
#
# Elastic Constant Matrix: (Units=GPa)
#
#
# Indices 1 2 3 4 5 6 
#
# 1 69.2735 40.3118 13.8275 -5.3400 16.8895 0.9617
# 2 40.3118 143.7055 34.5293 24.8851 18.1665 2.4342
# 3 13.8275 34.5293 84.2704 23.8100 6.9289 1.7115
# 4 -5.3400 24.8851 23.8100 29.3020 -8.8184 -4.0514
# 5 16.8895 18.1665 6.9289 -8.8184 25.2337 2.8739
# 6 0.9617 2.4342 1.7115 -4.0514 2.8739 44.0299
#
#
#
# Elastic Compliance Matrix: (Units=1/GPa)
#
#
# Indices 1 2 3 4 5 6 
#
# 1 0.020742 -0.006222 -0.003471 0.010592 -0.004899 0.001320
# 2 -0.006222 0.012622 0.001441 -0.016508 -0.010925 -0.001424
# 3 -0.003471 0.001441 0.018529 -0.020400 -0.010715 -0.001902
# 4 0.010592 -0.016508 -0.020400 0.078716 0.037189 0.006290
# 5 -0.004899 -0.010925 -0.010715 0.037189 0.066690 0.000196
# 6 0.001320 -0.001424 -0.001902 0.006290 0.000196 0.023402
#
#
# Mechanical properties :
#
#
# Convention : Reuss Voigt Hill
#
# Bulk Modulus (GPa) = 28.25730 52.73186 40.49458
# Shear Modulus (GPa) = 20.08033 33.61852 26.84942
#
# Velocity S-wave (km/s) = 2.93665 3.79976 3.39574
# Velocity P-wave (km/s) = 4.86150 6.47284 5.72415
#
# Compressibility (1/GPa) = 0.03538909
#
# Stress axis : x y z
#
# Youngs Moduli (GPa) = 48.21249 79.22873 53.96888
#
# Poissons Ratio (x) = 0.49293 0.18732
# Poissons Ratio (y) = 0.29996 -0.07776
# Poissons Ratio (z) = 0.16734 -0.11415
#
# Static dielectric constant tensor:
#      x y z
#    x 1.994700 -0.021080 0.002020 
#    y -0.021080 1.935770 -0.040830 
#    z 0.002020 -0.040830 1.901340 
# 
# From -- ./inp_files/455343.got.cif
#   From: 2010.05.17/outbox.cif.g08.bks.cpg/sg2_228_cif.got.tgz:455343.got - 2010.06.03 11:33:40.
