data_PCOD9059548
_publ_section_title
;
Structure prediction by ZEFSAII (Michael W. Deem and Ramdas Pophale) SiO2 
 PCOD9059548
Probable space group: P -1
;
_chemical_formula_sum "Si O2"
_cell_formula_units_Z 16
_cell_length_a 11.563709
_cell_length_b 15.840281
_cell_length_c 8.691258
_cell_angle_alpha 49.428244
_cell_angle_beta 79.993204
_cell_angle_gamma 43.761532
_cell_volume 691.052273
_symmetry_space_group_name_H-M "P -1"
_symmetry_group_IT_number 2
_symmetry_cell_setting 'triclinic'
loop_
_space_group_symop_operation_xyz
x,y,z
-x,-y,-z
loop_
_atom_site_type_symbol
_atom_site_label
_atom_site_fract_x
_atom_site_fract_y
_atom_site_fract_z
Si Si1 0.400854 0.432065 0.246041
Si Si2 0.406955 0.174429 0.511863
Si Si3 0.008349 0.576977 0.547737
Si Si4 0.202754 0.894176 0.650427
Si Si5 0.976192 0.277599 0.236477
Si Si6 0.787620 0.371846 0.499626
Si Si7 0.335972 0.692219 0.166907
Si Si8 0.253027 0.259106 0.116757
O O1 0.415942 0.288990 0.452586
O O2 0.597082 0.302156 0.248450
O O3 0.393528 0.529907 0.263817
O O4 0.195344 0.605257 0.990649
O O5 0.366475 0.224130 0.278909
O O6 0.212032 0.258830 0.520127
O O7 0.594897 0.946554 0.752567
O O8 0.083497 0.641660 0.411769
O O9 0.000000 0.500000 0.500000
O O10 0.171506 0.406650 0.835178
O O11 0.223209 0.849714 0.877470
O O12 0.000000 0.000000 0.500000
O O13 0.170751 0.048782 0.445034
O O14 0.881420 0.313781 0.377702
O O15 0.062301 0.334759 0.132883
O O16 0.549182 0.583553 0.289053
O O17 0.787494 0.250986 0.722112
#
# Coordination Sequence:
#
# PCOD9059548 Si02
#       8
#     2   2   2   2   2   2   2   2
#     4  12  22  42  69 100 131 172 220 273 329 393
#     4  11  23  41  72 101 130 170 219 275 334 390
#     4  12  25  43  71  98 136 177 214 271 339 392
#     4  12  24  39  69 103 128 173 228 272 322 388
#     4  12  22  41  72  97 131 173 219 277 326 394
#     4  11  25  45  66  95 136 181 219 267 334 392
#     4  11  25  44  66  95 138 179 220 270 327 392
#     4  11  24  42  68 104 131 168 221 276 330 395
#
# _framework density 23.153096999999999
#
# number of rings (size 3 to 8) (size 9 to 14) (size 15 to 20)
#    0.000    0.500    6.250    3.000    0.000    1.000 
#    0.000    0.000    0.000    0.000    0.000    0.000 
#    0.000    0.000    0.000    0.000    0.000    0.000 
#
# Total GULP energy -89562.216670 kJ/mol
# GULP energy per Si atom -5597.638542 kJ/mol
# Density = 2.310040 g / cm^3
# Si number density = 23.153097 Si / 1000 Ang^3
#
#
#
# Elastic Constant Matrix: (Units=GPa)
#
#
# Indices 1 2 3 4 5 6 
#
# 1 98.6765 11.5164 -0.3552 -8.2085 6.4390 -13.5820
# 2 11.5164 73.6899 18.5194 -10.6314 1.9701 -11.2790
# 3 -0.3552 18.5194 86.9518 -17.7161 1.5743 -12.0545
# 4 -8.2085 -10.6314 -17.7161 28.5939 5.6319 -0.6836
# 5 6.4390 1.9701 1.5743 5.6319 37.8176 -0.6557
# 6 -13.5820 -11.2790 -12.0545 -0.6836 -0.6557 40.9620
#
#
#
# Elastic Compliance Matrix: (Units=1/GPa)
#
#
# Indices 1 2 3 4 5 6 
#
# 1 0.011361 -0.000858 0.001793 0.004661 -0.002587 0.004095
# 2 -0.000858 0.015402 -0.001828 0.004670 -0.001215 0.003477
# 3 0.001793 -0.001828 0.014453 0.009314 -0.002121 0.004466
# 4 0.004661 0.004670 0.009314 0.045562 -0.008102 0.006203
# 5 -0.002587 -0.001215 -0.002121 -0.008102 0.028215 -0.001500
# 6 0.004095 0.003477 0.004466 0.006203 -0.001500 0.028122
#
#
# Mechanical properties :
#
#
# Convention : Reuss Voigt Hill
#
# Bulk Modulus (GPa) = 25.36127 35.40881 30.38504
# Shear Modulus (GPa) = 31.63671 36.78388 34.21029
#
# Velocity S-wave (km/s) = 3.70051 3.99020 3.84809
# Velocity P-wave (km/s) = 5.40702 6.04612 5.73548
#
# Compressibility (1/GPa) = 0.03943021
#
# Stress axis : x y z
#
# Youngs Moduli (GPa) = 88.02121 64.92487 69.19159
#
# Poissons Ratio (x) = 0.05569 -0.12408
# Poissons Ratio (y) = 0.07550 0.12651
# Poissons Ratio (z) = -0.15785 0.11871
#
# Static dielectric constant tensor:
#      x y z
#    x 1.918020 0.037150 -0.031420 
#    y 0.037150 1.913700 0.001850 
#    z -0.031420 0.001850 1.836980 
# 
# From -- ./inp_files/273639.got.cif
#   From: 2010.05.17/outbox.cif.g08.bks.cpg/sg2_137_cif.got.tgz:273639.got - 2010.06.03 11:33:40.
