data_PCOD9059263
_publ_section_title
;
Structure prediction by ZEFSAII (Michael W. Deem and Ramdas Pophale) SiO2 
 PCOD9059263
Probable space group: P -1
;
_chemical_formula_sum "Si O2"
_cell_formula_units_Z 16
_cell_length_a 11.482124
_cell_length_b 13.171301
_cell_length_c 9.921083
_cell_angle_alpha 32.073811
_cell_angle_beta 123.832631
_cell_angle_gamma 111.298237
_cell_volume 641.463003
_symmetry_space_group_name_H-M "P -1"
_symmetry_group_IT_number 2
_symmetry_cell_setting 'triclinic'
loop_
_space_group_symop_operation_xyz
x,y,z
-x,-y,-z
loop_
_atom_site_type_symbol
_atom_site_label
_atom_site_fract_x
_atom_site_fract_y
_atom_site_fract_z
Si Si1 0.293688 0.483365 0.836505
Si Si2 0.822350 0.124674 0.837673
Si Si3 0.923735 0.730526 0.675359
Si Si4 0.637552 0.677538 0.641578
Si Si5 0.105082 0.201706 0.960104
Si Si6 0.836041 0.065566 0.468636
Si Si7 0.480977 0.661532 0.077243
Si Si8 0.421466 0.031882 0.053390
O O1 0.255655 0.709380 0.507120
O O2 0.298557 0.441159 0.047298
O O3 0.166506 0.390870 0.799113
O O4 0.443242 0.372216 0.983810
O O5 0.714774 0.059309 0.943113
O O6 0.886782 0.911805 0.047985
O O7 0.940790 0.217822 0.879841
O O8 0.757355 0.714877 0.572378
O O9 0.036831 0.818466 0.561068
O O10 0.898412 0.882025 0.615163
O O11 0.000000 0.500000 0.000000
O O12 0.534092 0.882618 0.392137
O O13 0.536183 0.552116 0.650252
O O14 0.199073 0.039419 0.301919
O O15 0.684277 0.207339 0.165406
O O16 0.587012 0.756471 0.127178
O O17 0.500000 0.000000 0.000000
#
# Coordination Sequence:
#
# PCOD9059263 Si02
#       8
#     2   2   2   2   2   2   2   2
#     4  12  24  45  75 106 136 173 236 292 347 401
#     4  11  26  45  67  99 139 186 227 278 343 410
#     4  11  23  41  62 100 137 173 222 275 341 405
#     4  12  25  45  72 106 134 181 228 294 344 402
#     4  11  24  44  69  98 140 180 226 285 343 406
#     4  11  24  40  71 102 132 179 231 283 344 406
#     4  12  24  44  73 105 136 177 231 292 341 403
#     4  12  28  47  67  98 143 185 230 275 345 417
#
# _framework density 24.942982000000001
#
# number of rings (size 3 to 8) (size 9 to 14) (size 15 to 20)
#    0.000    0.500    6.250    1.500    3.500    1.500 
#    0.000    0.000    0.000    0.000    0.000    0.000 
#    0.000    0.000    0.000    0.000    0.000    0.000 
#
# Total GULP energy -89316.917092 kJ/mol
# GULP energy per Si atom -5582.307318 kJ/mol
# Density = 2.488621 g / cm^3
# Si number density = 24.942982 Si / 1000 Ang^3
#
#
#
# Elastic Constant Matrix: (Units=GPa)
#
#
# Indices 1 2 3 4 5 6 
#
# 1 118.7136 42.4161 16.5846 -13.2720 0.5368 40.5808
# 2 42.4161 106.9521 33.5447 -33.0048 -3.7921 27.1922
# 3 16.5846 33.5447 40.7633 -16.6789 -7.6619 4.6745
# 4 -13.2720 -33.0048 -16.6789 38.7068 6.0048 -7.3694
# 5 0.5368 -3.7921 -7.6619 6.0048 36.1398 -9.6456
# 6 40.5808 27.1922 4.6745 -7.3694 -9.6456 52.2154
#
#
#
# Elastic Compliance Matrix: (Units=1/GPa)
#
#
# Indices 1 2 3 4 5 6 
#
# 1 0.012726 -0.001677 -0.003281 0.000300 -0.003605 -0.009347
# 2 -0.001677 0.017444 -0.009738 0.009454 -0.003437 -0.006210
# 3 -0.003281 -0.009738 0.037299 0.006730 0.007587 0.006633
# 4 0.000300 0.009454 0.006730 0.037299 -0.004118 -0.001255
# 5 -0.003605 -0.003437 0.007587 -0.004118 0.032129 0.009267
# 6 -0.009347 -0.006210 0.006633 -0.001255 0.009267 0.030591
#
#
# Mechanical properties :
#
#
# Convention : Reuss Voigt Hill
#
# Bulk Modulus (GPa) = 26.26244 50.16887 38.21565
# Shear Modulus (GPa) = 23.85817 37.00464 30.43140
#
# Velocity S-wave (km/s) = 3.09610 3.85589 3.49669
# Velocity P-wave (km/s) = 4.83042 6.32305 5.62645
#
# Compressibility (1/GPa) = 0.03807719
#
# Stress axis : x y z
#
# Youngs Moduli (GPa) = 78.57832 57.32743 26.81018
#
# Poissons Ratio (x) = 0.09613 0.08796
# Poissons Ratio (y) = 0.13177 0.26108
# Poissons Ratio (z) = 0.25780 0.55827
#
# Static dielectric constant tensor:
#      x y z
#    x 2.046750 0.052610 0.055470 
#    y 0.052610 2.005000 0.066270 
#    z 0.055470 0.066270 2.039840 
# 
# From -- ./inp_files/432365.got.cif
#   From: 2010.05.17/outbox.cif.g08.bks.cpg/sg2_217_cif.got.tgz:432365.got - 2010.06.03 11:33:40.
