data_PCOD9059945
_publ_section_title
;
Structure prediction by ZEFSAII (Michael W. Deem and Ramdas Pophale) SiO2 
 PCOD9059945
Probable space group: P -1
;
_chemical_formula_sum "Si O2"
_cell_formula_units_Z 15
_cell_length_a 11.878369
_cell_length_b 12.234845
_cell_length_c 6.394465
_cell_angle_alpha 104.707382
_cell_angle_beta 69.231996
_cell_angle_gamma 132.855163
_cell_volume 636.877793
_symmetry_space_group_name_H-M "P -1"
_symmetry_group_IT_number 2
_symmetry_cell_setting 'triclinic'
loop_
_space_group_symop_operation_xyz
x,y,z
-x,-y,-z
loop_
_atom_site_type_symbol
_atom_site_label
_atom_site_fract_x
_atom_site_fract_y
_atom_site_fract_z
Si Si1 0.500000 0.500000 0.000000
Si Si2 0.475554 0.093790 0.918486
Si Si3 0.133102 0.862885 0.820928
Si Si4 0.476957 0.315624 0.313875
Si Si5 0.145878 0.029651 0.531548
Si Si6 0.035844 0.752406 0.260752
Si Si7 0.258195 0.490266 0.414133
Si Si8 0.195496 0.692427 0.396169
O O1 0.483151 0.425187 0.206228
O O2 0.349283 0.488829 0.161539
O O3 0.615858 0.181619 0.699738
O O4 0.307624 0.985814 0.861844
O O5 0.490694 0.214176 0.108771
O O6 0.500000 0.000000 0.000000
O O7 0.140278 0.755153 0.623426
O O8 0.102530 0.957544 0.754552
O O9 0.012411 0.766000 0.041660
O O10 0.307001 0.198853 0.488240
O O11 0.613198 0.401058 0.439575
O O12 0.162924 0.922224 0.342096
O O13 0.000000 0.000000 0.500000
O O14 0.112975 0.678109 0.224414
O O15 0.877222 0.666338 0.459569
O O16 0.172536 0.552269 0.422681
#
# Coordination Sequence:
#
# PCOD9059945 Si02
#       8
#     1   2   2   2   2   2   2   2
#     4  12  28  50  72 100 146 192 246 304 362 426
#     4  12  20  43  74 107 148 185 240 305 359 437
#     4  11  23  43  72 110 149 187 240 308 376 422
#     4  12  26  47  73 107 140 192 250 297 365 436
#     4  11  25  46  72 104 142 187 252 305 360 436
#     4  11  25  46  68 113 147 187 241 302 370 438
#     4  12  27  47  74 105 147 196 246 297 366 447
#     4  11  23  42  71 108 148 191 239 302 368 441
#
# _framework density 23.552401
#
# number of rings (size 3 to 8) (size 9 to 14) (size 15 to 20)
#    0.000    0.533    4.000    4.400    0.000    4.267 
#    0.000    0.000    0.000    0.000    0.000    0.000 
#    0.000    0.000    0.000    0.000    0.000    0.000 
#
# Total GULP energy -83714.655145 kJ/mol
# GULP energy per Si atom -5580.977010 kJ/mol
# Density = 2.349879 g / cm^3
# Si number density = 23.552401 Si / 1000 Ang^3
#
#
#
# Elastic Constant Matrix: (Units=GPa)
#
#
# Indices 1 2 3 4 5 6 
#
# 1 133.3411 41.0171 24.3438 -12.6852 30.2519 -12.9310
# 2 41.0171 89.2892 39.0275 -24.9183 10.6025 12.6028
# 3 24.3438 39.0275 107.7272 -36.4074 6.6250 -5.1081
# 4 -12.6852 -24.9183 -36.4074 44.1197 -5.9431 7.7668
# 5 30.2519 10.6025 6.6250 -5.9431 42.0602 -8.5516
# 6 -12.9310 12.6028 -5.1081 7.7668 -8.5516 47.8986
#
#
#
# Elastic Compliance Matrix: (Units=1/GPa)
#
#
# Indices 1 2 3 4 5 6 
#
# 1 0.010586 -0.004765 -0.000683 -0.001573 -0.005868 0.003246
# 2 -0.004765 0.018127 -0.003301 0.007361 -0.001170 -0.007810
# 3 -0.000683 -0.003301 0.013753 0.009237 0.000617 0.000763
# 4 -0.001573 0.007361 0.009237 0.035393 0.001427 -0.006861
# 5 -0.005868 -0.001170 0.000617 0.001427 0.029161 0.003764
# 6 0.003246 -0.007810 0.000763 -0.006861 0.003764 0.025675
#
#
# Mechanical properties :
#
#
# Convention : Reuss Voigt Hill
#
# Bulk Modulus (GPa) = 40.04970 59.90379 49.97675
# Shear Modulus (GPa) = 31.54272 41.88030 36.71151
#
# Velocity S-wave (km/s) = 3.66356 4.22142 3.95234
# Velocity P-wave (km/s) = 5.91075 7.01783 6.48795
#
# Compressibility (1/GPa) = 0.02496897
#
# Stress axis : x y z
#
# Youngs Moduli (GPa) = 94.46031 55.16628 72.71278
#
# Poissons Ratio (x) = 0.26287 0.04964
# Poissons Ratio (y) = 0.45011 0.24001
# Poissons Ratio (z) = 0.06449 0.18209
#
# Static dielectric constant tensor:
#      x y z
#    x 1.910770 -0.014360 0.009050 
#    y -0.014360 1.914060 -0.019350 
#    z 0.009050 -0.019350 1.927470 
# 
# From -- ./inp_files/71158.got.cif
#   From: 2010.05.17/outbox.cif.g08.bks.cpg/sg2_36_cif.got.tgz:71158.got - 2010.06.03 11:33:40.
