data_PCOD9059979
_publ_section_title
;
Structure prediction by ZEFSAII (Michael W. Deem and Ramdas Pophale) SiO2 
 PCOD9059979
Probable space group: P -1
;
_chemical_formula_sum "Si O2"
_cell_formula_units_Z 16
_cell_length_a 8.777287
_cell_length_b 9.408539
_cell_length_c 12.857027
_cell_angle_alpha 123.672440
_cell_angle_beta 112.134845
_cell_angle_gamma 57.485380
_cell_volume 740.401656
_symmetry_space_group_name_H-M "P -1"
_symmetry_group_IT_number 2
_symmetry_cell_setting 'triclinic'
loop_
_space_group_symop_operation_xyz
x,y,z
-x,-y,-z
loop_
_atom_site_type_symbol
_atom_site_label
_atom_site_fract_x
_atom_site_fract_y
_atom_site_fract_z
Si Si1 0.811558 0.486093 0.966299
Si Si2 0.721141 0.740831 0.246451
Si Si3 0.058334 0.782589 0.445088
Si Si4 0.953396 0.708947 0.606631
Si Si5 0.615427 0.898643 0.724454
Si Si6 0.193314 0.850450 0.033880
Si Si7 0.296857 0.584392 0.767769
Si Si8 0.625691 0.546685 0.716003
O O1 0.721229 0.643743 0.096506
O O2 0.833066 0.287032 0.941749
O O3 0.711275 0.518813 0.842981
O O4 0.000000 0.500000 0.000000
O O5 0.657885 0.624803 0.265001
O O6 0.920104 0.715649 0.322082
O O7 0.589124 0.960914 0.298993
O O8 0.256297 0.636980 0.397236
O O9 0.022083 0.785000 0.558857
O O10 0.000000 0.000000 0.500000
O O11 0.743648 0.812924 0.623249
O O12 0.000000 0.500000 0.500000
O O13 0.082972 0.687645 0.728520
O O14 0.629325 0.728240 0.733422
O O15 0.700955 0.031368 0.850494
O O16 0.313570 0.708962 0.917225
O O17 0.000000 0.000000 0.000000
O O18 0.420726 0.577139 0.699077
#
# Coordination Sequence:
#
# PCOD9059979 Si02
#       8
#     2   2   2   2   2   2   2   2
#     4  11  23  42  74 101 142 176 220 284 342 404
#     4  11  25  47  69 102 137 179 224 279 345 405
#     4  12  29  47  70 100 136 180 237 278 336 401
#     4  12  25  49  70  94 138 186 224 281 337 397
#     4  12  26  44  72 103 138 178 228 279 341 407
#     4  11  23  42  72 106 135 180 224 273 351 409
#     4  11  25  45  72 100 138 178 225 280 341 404
#     4  12  26  46  69 105 138 176 227 285 339 402
#
# _framework density 21.609893
#
# number of rings (size 3 to 8) (size 9 to 14) (size 15 to 20)
#    0.000    0.500    5.000    2.250    5.250    7.000 
#    0.000    0.000    0.000    0.000    0.000    0.000 
#    0.000    0.000    0.000    0.000    0.000    0.000 
#
# Total GULP energy -89463.711186 kJ/mol
# GULP energy per Si atom -5591.481949 kJ/mol
# Density = 2.156071 g / cm^3
# Si number density = 21.609893 Si / 1000 Ang^3
#
#
#
# Elastic Constant Matrix: (Units=GPa)
#
#
# Indices 1 2 3 4 5 6 
#
# 1 97.8319 40.8445 0.8459 12.1627 -28.3053 8.4287
# 2 40.8445 140.9206 20.2148 12.8969 -28.6133 20.9345
# 3 0.8459 20.2148 52.2322 9.7406 -17.7816 11.7169
# 4 12.1627 12.8969 9.7406 38.0436 1.0324 5.5433
# 5 -28.3053 -28.6133 -17.7816 1.0324 36.0053 -1.8010
# 6 8.4287 20.9345 11.7169 5.5433 -1.8010 41.5884
#
#
#
# Elastic Compliance Matrix: (Units=1/GPa)
#
#
# Indices 1 2 3 4 5 6 
#
# 1 0.016339 -0.001659 0.007475 -0.006545 0.015253 -0.003049
# 2 -0.001659 0.009634 -0.000361 -0.002246 0.006045 -0.003850
# 3 0.007475 -0.000361 0.029375 -0.009236 0.019986 -0.007513
# 4 -0.006545 -0.002246 -0.009236 0.031799 -0.012389 0.000284
# 5 0.015253 0.006045 0.019986 -0.012389 0.054406 -0.007758
# 6 -0.003049 -0.003850 -0.007513 0.000284 -0.007758 0.028344
#
#
# Mechanical properties :
#
#
# Convention : Reuss Voigt Hill
#
# Bulk Modulus (GPa) = 15.09260 46.08837 30.59049
# Shear Modulus (GPa) = 27.61301 38.39944 33.00623
#
# Velocity S-wave (km/s) = 3.57850 4.21995 3.91239
# Velocity P-wave (km/s) = 4.90648 6.71697 5.88180
#
# Compressibility (1/GPa) = 0.06625765
#
# Stress axis : x y z
#
# Youngs Moduli (GPa) = 61.20324 103.80079 34.04207
#
# Poissons Ratio (x) = 0.17220 -0.25445
# Poissons Ratio (y) = 0.10153 0.01229
# Poissons Ratio (z) = -0.45747 0.03747
#
# Static dielectric constant tensor:
#      x y z
#    x 1.789710 -0.031700 0.030010 
#    y -0.031700 1.750010 0.011730 
#    z 0.030010 0.011730 1.830800 
# 
# From -- ./inp_files/186167.got.cif
#   From: 2010.05.17/outbox.cif.g08.bks.cpg/sg2_94_cif.got.tgz:186167.got - 2010.06.03 11:33:40.
