data_PCOD9059862
_publ_section_title
;
Structure prediction by ZEFSAII (Michael W. Deem and Ramdas Pophale) SiO2 
 PCOD9059862
Probable space group: P -1
;
_chemical_formula_sum "Si O2"
_cell_formula_units_Z 16
_cell_length_a 7.099848
_cell_length_b 17.687937
_cell_length_c 11.445770
_cell_angle_alpha 29.968990
_cell_angle_beta 112.710072
_cell_angle_gamma 98.750331
_cell_volume 608.299078
_symmetry_space_group_name_H-M "P -1"
_symmetry_group_IT_number 2
_symmetry_cell_setting 'triclinic'
loop_
_space_group_symop_operation_xyz
x,y,z
-x,-y,-z
loop_
_atom_site_type_symbol
_atom_site_label
_atom_site_fract_x
_atom_site_fract_y
_atom_site_fract_z
Si Si1 0.523456 0.095354 0.142969
Si Si2 0.997291 0.031902 0.214876
Si Si3 0.533551 0.856539 0.292804
Si Si4 0.228287 0.168227 0.271470
Si Si5 0.105648 0.506157 0.796760
Si Si6 0.278017 0.464922 0.514761
Si Si7 0.816743 0.274783 0.660593
Si Si8 0.980397 0.294281 0.287700
O O1 0.751231 0.079114 0.151598
O O2 0.437523 0.964520 0.240348
O O3 0.606838 0.008438 0.403178
O O4 0.356397 0.279972 0.831971
O O5 0.109758 0.129579 0.185307
O O6 0.120161 0.838442 0.524497
O O7 0.958399 0.096658 0.987383
O O8 0.423278 0.733597 0.394396
O O9 0.790149 0.760622 0.510620
O O10 0.500000 0.000000 0.000000
O O11 0.051609 0.253518 0.223632
O O12 0.288452 0.324551 0.050766
O O13 0.880231 0.512347 0.666719
O O14 0.142317 0.531956 0.909844
O O15 0.134658 0.659556 0.536552
O O16 0.500000 0.500000 0.500000
O O17 0.164270 0.595759 0.414415
#
# Coordination Sequence:
#
# PCOD9059862 Si02
#       8
#     2   2   2   2   2   2   2   2
#     4  10  20  37  64  91 115 161 216 254 291 366
#     4  10  19  37  65  94 120 157 204 266 307 356
#     4  10  17  38  61  89 121 161 207 254 302 368
#     4  10  21  41  63  89 128 165 205 254 307 370
#     4  12  25  39  60  97 131 161 200 264 315 361
#     4  12  22  39  65  95 120 162 216 255 301 372
#     4  12  23  38  62  96 133 154 201 266 324 353
#     4  10  21  37  65  91 117 164 219 247 298 377
#
# _framework density 26.302851
#
# number of rings (size 3 to 8) (size 9 to 14) (size 15 to 20)
#    0.000    1.500    5.000    3.750    0.000    0.500 
#    0.000    5.625    0.000    0.000    0.000    0.875 
#    0.000    0.000    0.000    0.000    0.000    0.000 
#
# Total GULP energy -89396.225472 kJ/mol
# GULP energy per Si atom -5587.264092 kJ/mol
# Density = 2.624298 g / cm^3
# Si number density = 26.302851 Si / 1000 Ang^3
#
#
#
# Elastic Constant Matrix: (Units=GPa)
#
#
# Indices 1 2 3 4 5 6 
#
# 1 61.7994 0.1632 8.4432 -2.9254 -6.3067 5.2450
# 2 0.1632 132.7436 20.3624 -13.5837 -7.2489 1.3540
# 3 8.4432 20.3624 140.5784 0.5623 -9.2975 2.6407
# 4 -2.9254 -13.5837 0.5623 52.2183 -6.5700 -11.0040
# 5 -6.3067 -7.2489 -9.2975 -6.5700 34.8614 0.8079
# 6 5.2450 1.3540 2.6407 -11.0040 0.8079 28.7143
#
#
#
# Elastic Compliance Matrix: (Units=1/GPa)
#
#
# Indices 1 2 3 4 5 6 
#
# 1 0.016890 0.000393 -0.000814 0.000866 0.003148 -0.002785
# 2 0.000393 0.008052 -0.001084 0.002484 0.001912 0.000546
# 3 -0.000814 -0.001084 0.007436 -0.000351 0.001560 -0.000662
# 4 0.000866 0.002484 -0.000351 0.022132 0.004563 0.008110
# 5 0.003148 0.001912 0.001560 0.004563 0.030926 0.000070
# 6 -0.002785 0.000546 -0.000662 0.008110 0.000070 0.038476
#
#
# Mechanical properties :
#
#
# Convention : Reuss Voigt Hill
#
# Bulk Modulus (GPa) = 34.04955 43.67320 38.86137
# Shear Modulus (GPa) = 36.57317 43.56897 40.07107
#
# Velocity S-wave (km/s) = 3.73294 4.07435 3.90737
# Velocity P-wave (km/s) = 5.61721 6.22686 5.92988
#
# Compressibility (1/GPa) = 0.02936897
#
# Stress axis : x y z
#
# Youngs Moduli (GPa) = 59.20564 124.19138 134.47444
#
# Poissons Ratio (x) = -0.04882 0.10951
# Poissons Ratio (y) = -0.02328 0.14573
# Poissons Ratio (z) = 0.04821 0.13458
#
# Static dielectric constant tensor:
#      x y z
#    x 2.251510 -0.082020 0.026750 
#    y -0.082020 2.203120 0.148950 
#    z 0.026750 0.148950 2.292310 
# 
# From -- ./inp_files/304894.got.cif
#   From: 2010.05.17/outbox.cif.g08.bks.cpg/sg2_153_cif.got.tgz:304894.got - 2010.06.03 11:33:40.
