data_PCOD9059316
_publ_section_title
;
Structure prediction by ZEFSAII (Michael W. Deem and Ramdas Pophale) SiO2 
 PCOD9059316
Probable space group: P -1
;
_chemical_formula_sum "Si O2"
_cell_formula_units_Z 16
_cell_length_a 9.027439
_cell_length_b 8.755812
_cell_length_c 22.188446
_cell_angle_alpha 58.590999
_cell_angle_beta 123.957223
_cell_angle_gamma 147.827061
_cell_volume 769.952545
_symmetry_space_group_name_H-M "P -1"
_symmetry_group_IT_number 2
_symmetry_cell_setting 'triclinic'
loop_
_space_group_symop_operation_xyz
x,y,z
-x,-y,-z
loop_
_atom_site_type_symbol
_atom_site_label
_atom_site_fract_x
_atom_site_fract_y
_atom_site_fract_z
Si Si1 0.877507 0.330955 0.416781
Si Si2 0.245786 0.233154 0.956691
Si Si3 0.333756 0.695381 0.043068
Si Si4 0.956421 0.120356 0.796672
Si Si5 0.054883 0.254013 0.584423
Si Si6 0.662571 0.247541 0.656480
Si Si7 0.657687 0.603719 0.656280
Si Si8 0.541571 0.482339 0.796486
O O1 0.867787 0.207880 0.500824
O O2 0.867939 0.532862 0.392128
O O3 0.184927 0.557313 0.408635
O O4 0.642154 0.073679 0.368835
O O5 0.452000 0.268571 0.954089
O O6 0.084405 0.225161 0.871537
O O7 0.500000 0.500000 0.000000
O O8 0.000000 0.000000 0.000000
O O9 0.355000 0.621962 0.128734
O O10 0.000000 0.500000 0.000000
O O11 0.500000 0.000000 0.000000
O O12 0.837553 0.216009 0.728426
O O13 0.207764 0.250257 0.782806
O O14 0.711435 0.776352 0.807892
O O15 0.365875 0.444016 0.591628
O O16 0.895979 0.946552 0.631258
O O17 0.691853 0.432948 0.671824
O O18 0.603719 0.541140 0.728064
#
# Coordination Sequence:
#
# PCOD9059316 Si02
#       8
#     2   2   2   2   2   2   2   2
#     4  11  24  43  66  91 125 172 218 260 318 396
#     4  11  23  41  65  94 127 167 213 266 326 388
#     4  11  23  41  65  94 127 167 213 266 326 388
#     4  11  23  43  66  89 125 172 216 257 316 395
#     4  11  24  43  66  91 125 172 218 260 318 396
#     4  12  25  40  64  97 129 164 212 273 330 375
#     4  12  25  40  64  97 129 164 212 273 330 375
#     4  11  23  43  66  89 125 172 216 257 316 395
#
# _framework density 20.780504000000001
#
# number of rings (size 3 to 8) (size 9 to 14) (size 15 to 20)
#    0.000    0.750    0.000    9.750    0.000    7.000 
#    0.000    0.000    0.000    0.000    0.000    0.000 
#    0.000    0.000    0.000    0.000    0.000    0.000 
#
# Total GULP energy -89114.487788 kJ/mol
# GULP energy per Si atom -5569.655487 kJ/mol
# Density = 2.073321 g / cm^3
# Si number density = 20.780504 Si / 1000 Ang^3
#
#
#
# Elastic Constant Matrix: (Units=GPa)
#
#
# Indices 1 2 3 4 5 6 
#
# 1 43.0194 26.7179 29.2885 -3.2810 10.2887 -4.0268
# 2 26.7179 133.8250 34.9798 -12.2672 10.0607 5.5928
# 3 29.2885 34.9798 131.5063 -4.4259 7.8785 -16.1873
# 4 -3.2810 -12.2672 -4.4259 24.9468 7.4046 2.3903
# 5 10.2887 10.0607 7.8785 7.4046 28.2978 -1.0703
# 6 -4.0268 5.5928 -16.1873 2.3903 -1.0703 41.6428
#
#
#
# Elastic Compliance Matrix: (Units=1/GPa)
#
#
# Indices 1 2 3 4 5 6 
#
# 1 0.032025 -0.003958 -0.005214 0.004152 -0.009829 0.001110
# 2 -0.003958 0.009467 -0.001624 0.004952 -0.002871 -0.002643
# 3 -0.005214 -0.001624 0.009623 -0.000093 -0.000051 0.003458
# 4 0.004152 0.004952 -0.000093 0.048122 -0.015968 -0.003472
# 5 -0.009829 -0.002871 -0.000051 -0.015968 0.044181 0.001467
# 6 0.001110 -0.002643 0.003458 -0.003472 0.001467 0.026058
#
#
# Mechanical properties :
#
#
# Convention : Reuss Voigt Hill
#
# Bulk Modulus (GPa) = 33.87090 54.48034 44.17562
# Shear Modulus (GPa) = 24.88705 33.46845 29.17775
#
# Velocity S-wave (km/s) = 3.46441 4.01754 3.75119
# Velocity P-wave (km/s) = 5.68662 6.91338 6.32979
#
# Compressibility (1/GPa) = 0.02952387
#
# Stress axis : x y z
#
# Youngs Moduli (GPa) = 31.22583 105.62837 103.91775
#
# Poissons Ratio (x) = 0.41803 0.54187
# Poissons Ratio (y) = 0.12358 0.16871
# Poissons Ratio (z) = 0.16282 0.17149
#
# Static dielectric constant tensor:
#      x y z
#    x 1.749560 -0.038930 -0.010000 
#    y -0.038930 1.754170 0.013700 
#    z -0.010000 0.013700 1.732430 
# 
# From -- ./inp_files/606686.got.cif
#   From: 2010.05.17/outbox.cif.g08.bks.cpg/sg2_304_cif.got.tgz:606686.got - 2010.06.03 11:33:40.
