data_PCOD9059608
_publ_section_title
;
Structure prediction by ZEFSAII (Michael W. Deem and Ramdas Pophale) SiO2 
 PCOD9059608
Probable space group: P -1
;
_chemical_formula_sum "Si O2"
_cell_formula_units_Z 16
_cell_length_a 11.569389
_cell_length_b 14.083325
_cell_length_c 9.071908
_cell_angle_alpha 149.541284
_cell_angle_beta 102.962299
_cell_angle_gamma 86.450691
_cell_volume 703.874904
_symmetry_space_group_name_H-M "P -1"
_symmetry_group_IT_number 2
_symmetry_cell_setting 'triclinic'
loop_
_space_group_symop_operation_xyz
x,y,z
-x,-y,-z
loop_
_atom_site_type_symbol
_atom_site_label
_atom_site_fract_x
_atom_site_fract_y
_atom_site_fract_z
Si Si1 0.232349 0.727107 0.771917
Si Si2 0.867373 0.960004 0.988527
Si Si3 0.131962 0.685441 0.017537
Si Si4 0.520465 0.734592 0.234241
Si Si5 0.295125 0.411584 0.720481
Si Si6 0.495444 0.025351 0.859980
Si Si7 0.297213 0.076838 0.694529
Si Si8 0.860988 0.704677 0.932665
O O1 0.213202 0.501997 0.428891
O O2 0.165520 0.731231 0.915416
O O3 0.374990 0.836534 0.967426
O O4 0.174662 0.843320 0.788136
O O5 0.761664 0.788636 0.649517
O O6 0.880689 0.872805 0.037407
O O7 0.000000 0.000000 0.000000
O O8 0.209021 0.864481 0.373063
O O9 0.179492 0.500185 0.826934
O O10 0.989825 0.672191 0.975691
O O11 0.624854 0.631113 0.177501
O O12 0.599833 0.895904 0.364988
O O13 0.478359 0.830018 0.495370
O O14 0.404533 0.590422 0.926355
O O15 0.379355 0.108486 0.906062
O O16 0.500000 0.000000 0.000000
O O17 0.214300 0.225624 0.867314
#
# Coordination Sequence:
#
# PCOD9059608 Si02
#       8
#     2   2   2   2   2   2   2   2
#     4  12  24  45  74 105 148 186 245 293 369 423
#     4  12  23  43  73 107 144 193 238 298 357 427
#     4  12  22  46  73 100 143 196 238 293 355 442
#     4  11  24  46  72 103 145 187 236 297 371 432
#     4  11  23  41  76 104 138 187 247 289 365 433
#     4  12  25  44  77 107 142 185 243 305 358 432
#     4  12  26  47  72 103 146 193 233 301 368 425
#     4  12  28  45  69 109 147 190 247 296 355 429
#
# _framework density 22.731310000000001
#
# number of rings (size 3 to 8) (size 9 to 14) (size 15 to 20)
#    0.000    0.250    6.250    3.375    0.000    2.500 
#    2.250    0.625    0.000    0.000    0.000    0.000 
#    0.000    0.000    0.000    0.000    0.000    0.000 
#
# Total GULP energy -89442.214924 kJ/mol
# GULP energy per Si atom -5590.138433 kJ/mol
# Density = 2.267957 g / cm^3
# Si number density = 22.731310 Si / 1000 Ang^3
#
#
#
# Elastic Constant Matrix: (Units=GPa)
#
#
# Indices 1 2 3 4 5 6 
#
# 1 97.3508 15.1630 27.6273 2.1969 -15.1975 -9.0246
# 2 15.1630 74.0102 12.4307 9.2218 -15.5180 -21.2052
# 3 27.6273 12.4307 56.6153 8.4626 0.7255 13.8458
# 4 2.1969 9.2218 8.4626 24.6765 -4.9841 -2.8545
# 5 -15.1975 -15.5180 0.7255 -4.9841 32.7307 5.9537
# 6 -9.0246 -21.2052 13.8458 -2.8545 5.9537 37.9611
#
#
#
# Elastic Compliance Matrix: (Units=1/GPa)
#
#
# Indices 1 2 3 4 5 6 
#
# 1 0.014473 0.001765 -0.009850 0.003681 0.007027 0.007194
# 2 0.001765 0.020306 -0.008467 -0.001682 0.007926 0.013481
# 3 -0.009850 -0.008467 0.030221 -0.009890 -0.007553 -0.017653
# 4 0.003681 -0.001682 -0.009890 0.046337 0.007112 0.005912
# 5 0.007027 0.007926 -0.007553 0.007112 0.038206 0.003396
# 6 0.007194 0.013481 -0.017653 0.005912 0.003396 0.041935
#
#
# Mechanical properties :
#
#
# Convention : Reuss Voigt Hill
#
# Bulk Modulus (GPa) = 31.35097 37.60203 34.47650
# Shear Modulus (GPa) = 21.25711 30.59066 25.92388
#
# Velocity S-wave (km/s) = 3.06133 3.67243 3.38072
# Velocity P-wave (km/s) = 5.13007 5.87879 5.51714
#
# Compressibility (1/GPa) = 0.03189694
#
# Stress axis : x y z
#
# Youngs Moduli (GPa) = 69.09194 49.24581 33.08928
#
# Poissons Ratio (x) = -0.08693 0.32593
# Poissons Ratio (y) = -0.12196 0.28017
# Poissons Ratio (z) = 0.68056 0.41697
#
# Static dielectric constant tensor:
#      x y z
#    x 1.836390 0.001280 -0.023530 
#    y 0.001280 1.943630 0.019700 
#    z -0.023530 0.019700 1.837290 
# 
# From -- ./inp_files/274928.got.cif
#   From: 2010.05.17/outbox.cif.g08.bks.cpg/sg2_138_cif.got.tgz:274928.got - 2010.06.03 11:33:40.
