data_PCOD9059776
_publ_section_title
;
Structure prediction by ZEFSAII (Michael W. Deem and Ramdas Pophale) SiO2 
 PCOD9059776
Probable space group: P -1
;
_chemical_formula_sum "Si O2"
_cell_formula_units_Z 12
_cell_length_a 11.336115
_cell_length_b 12.065711
_cell_length_c 9.511799
_cell_angle_alpha 35.287359
_cell_angle_beta 54.845715
_cell_angle_gamma 39.980918
_cell_volume 478.556785
_symmetry_space_group_name_H-M "P -1"
_symmetry_group_IT_number 2
_symmetry_cell_setting 'triclinic'
loop_
_space_group_symop_operation_xyz
x,y,z
-x,-y,-z
loop_
_atom_site_type_symbol
_atom_site_label
_atom_site_fract_x
_atom_site_fract_y
_atom_site_fract_z
Si Si1 0.929330 0.364234 0.402404
Si Si2 0.890652 0.733297 0.228211
Si Si3 0.587383 0.496431 0.686627
Si Si4 0.256661 0.524967 0.865197
Si Si5 0.162110 0.837188 0.887752
Si Si6 0.487331 0.989737 0.351632
O O1 0.923153 0.595473 0.201350
O O2 0.751270 0.430380 0.541303
O O3 0.898601 0.343350 0.282910
O O4 0.102136 0.102284 0.617210
O O5 0.677807 0.909895 0.234559
O O6 0.000000 0.500000 0.500000
O O7 0.984208 0.861838 0.036025
O O8 0.441921 0.478433 0.731716
O O9 0.485655 0.771459 0.530049
O O10 0.678751 0.320085 0.943357
O O11 0.213995 0.677704 0.876989
O O12 0.318469 0.257987 0.135220
O O13 0.500000 0.000000 0.500000
#
# Coordination Sequence:
#
# PCOD9059776 Si02
#       6
#     2   2   2   2   2   2
#     4  11  26  43  67  97 133 172 216 272 329 380
#     4  11  23  42  68  96 129 173 221 263 323 389
#     4  11  24  43  69  96 128 177 221 261 325 390
#     4  12  26  42  66 101 134 169 215 275 329 378
#     4  12  24  43  68  99 129 177 218 263 325 392
#     4  11  23  42  68  97 130 171 221 267 320 389
#
# _framework density 25.075392999999998
#
# number of rings (size 3 to 8) (size 9 to 14) (size 15 to 20)
#    0.000    0.667    5.000    3.000    2.333    6.000 
#    0.000    0.000    0.000    0.000    0.000    0.000 
#    0.000    0.000    0.000    0.000    0.000    0.000 
#
# Total GULP energy -67344.939111 kJ/mol
# GULP energy per Si atom -5612.078259 kJ/mol
# Density = 2.501832 g / cm^3
# Si number density = 25.075393 Si / 1000 Ang^3
#
#
#
# Elastic Constant Matrix: (Units=GPa)
#
#
# Indices 1 2 3 4 5 6 
#
# 1 99.9619 -0.5810 30.6161 -3.2973 -5.9095 10.0163
# 2 -0.5810 106.0315 27.0437 -15.7168 0.2320 8.5136
# 3 30.6161 27.0437 98.3623 -22.0894 -7.5997 12.9443
# 4 -3.2973 -15.7168 -22.0894 39.3142 9.8042 -9.2086
# 5 -5.9095 0.2320 -7.5997 9.8042 44.3996 5.3327
# 6 10.0163 8.5136 12.9443 -9.2086 5.3327 41.9106
#
#
#
# Elastic Compliance Matrix: (Units=1/GPa)
#
#
# Indices 1 2 3 4 5 6 
#
# 1 0.011435 0.000958 -0.003782 -0.001709 0.001527 -0.002329
# 2 0.000958 0.010580 -0.002508 0.002928 -0.000902 -0.000845
# 3 -0.003782 -0.002508 0.013596 0.005750 0.000762 -0.001620
# 4 -0.001709 0.002928 0.005750 0.032964 -0.007283 0.006207
# 5 0.001527 -0.000902 0.000762 -0.007283 0.025095 -0.005210
# 6 -0.002329 -0.000845 -0.001620 0.006207 -0.005210 0.027116
#
#
# Mechanical properties :
#
#
# Convention : Reuss Voigt Hill
#
# Bulk Modulus (GPa) = 40.08506 46.50148 43.29327
# Shear Modulus (GPa) = 35.77399 41.61003 38.69201
#
# Velocity S-wave (km/s) = 3.78121 4.07799 3.93240
# Velocity P-wave (km/s) = 5.92317 6.38422 6.15801
#
# Compressibility (1/GPa) = 0.02494695
#
# Stress axis : x y z
#
# Youngs Moduli (GPa) = 87.45124 94.51920 73.54838
#
# Poissons Ratio (x) = -0.09051 0.27815
# Poissons Ratio (y) = -0.08374 0.18445
# Poissons Ratio (z) = 0.33073 0.23704
#
# Static dielectric constant tensor:
#      x y z
#    x 1.943140 -0.029300 -0.055890 
#    y -0.029300 2.032230 0.060760 
#    z -0.055890 0.060760 1.952490 
# 
# From -- ./inp_files/150839.got.cif
#   From: 2010.05.17/outbox.cif.g08.bks.cpg/sg2_76_cif.got.tgz:150839.got - 2010.06.03 11:33:40.
