data_PCOD9059175
_publ_section_title
;
Structure prediction by ZEFSAII (Michael W. Deem and Ramdas Pophale) SiO2 
 PCOD9059175
Probable space group: P -1
;
_chemical_formula_sum "Si O2"
_cell_formula_units_Z 16
_cell_length_a 14.060326
_cell_length_b 15.118044
_cell_length_c 9.373733
_cell_angle_alpha 56.229347
_cell_angle_beta 77.428102
_cell_angle_gamma 31.330218
_cell_volume 692.241689
_symmetry_space_group_name_H-M "P -1"
_symmetry_group_IT_number 2
_symmetry_cell_setting 'triclinic'
loop_
_space_group_symop_operation_xyz
x,y,z
-x,-y,-z
loop_
_atom_site_type_symbol
_atom_site_label
_atom_site_fract_x
_atom_site_fract_y
_atom_site_fract_z
Si Si1 0.504874 0.853769 0.197098
Si Si2 0.292899 0.015574 0.404468
Si Si3 0.950449 0.705196 0.226135
Si Si4 0.693603 0.480531 0.839499
Si Si5 0.952320 0.169826 0.317601
Si Si6 0.633775 0.510897 0.365732
Si Si7 0.000695 0.570327 0.642449
Si Si8 0.740618 0.259383 0.806754
O O1 0.601445 0.638749 0.368506
O O2 0.721646 0.703564 0.201158
O O3 0.409505 0.970296 0.281392
O O4 0.299793 0.046564 0.980840
O O5 0.162080 0.044981 0.345058
O O6 0.124022 0.254073 0.340223
O O7 0.485548 0.768537 0.659634
O O8 0.067169 0.484763 0.315859
O O9 0.098534 0.660392 0.175064
O O10 0.941521 0.694458 0.407344
O O11 0.621724 0.454685 0.783503
O O12 0.794028 0.333550 0.083684
O O13 0.815557 0.356487 0.325812
O O14 0.000000 0.000000 0.500000
O O15 0.724631 0.323019 0.596666
O O16 0.400521 0.708980 0.186483
O O17 0.000000 0.000000 0.000000
#
# Coordination Sequence:
#
# PCOD9059175 Si02
#       8
#     2   2   2   2   2   2   2   2
#     4  12  23  48  70 103 144 180 232 293 348 413
#     4  12  26  45  73 101 148 184 232 295 344 425
#     4  11  25  47  75 104 142 180 235 293 348 424
#     4  12  25  46  68 105 145 186 232 292 354 408
#     4  12  27  45  66 104 142 184 243 287 341 422
#     4  11  24  41  67  99 136 183 235 281 345 416
#     4  11  26  48  73 110 135 186 236 284 360 418
#     4  11  23  40  69  97 134 190 231 285 353 406
#
# _framework density 23.113315
#
# number of rings (size 3 to 8) (size 9 to 14) (size 15 to 20)
#    0.000    0.500    5.000    2.625    3.500    4.000 
#    0.000    0.000    0.000    0.000    0.000    0.000 
#    0.000    0.000    0.000    0.000    0.000    0.000 
#
# Total GULP energy -89506.524922 kJ/mol
# GULP energy per Si atom -5594.157808 kJ/mol
# Density = 2.306071 g / cm^3
# Si number density = 23.113315 Si / 1000 Ang^3
#
#
#
# Elastic Constant Matrix: (Units=GPa)
#
#
# Indices 1 2 3 4 5 6 
#
# 1 77.8037 26.7120 -0.3544 2.0217 4.5817 1.8770
# 2 26.7120 124.4656 11.0811 7.2208 6.4174 12.0006
# 3 -0.3544 11.0811 108.2347 3.3148 19.3830 -8.5093
# 4 2.0217 7.2208 3.3148 31.4125 -5.1271 7.9413
# 5 4.5817 6.4174 19.3830 -5.1271 27.8104 -0.4468
# 6 1.8770 12.0006 -8.5093 7.9413 -0.4468 22.5967
#
#
#
# Elastic Compliance Matrix: (Units=1/GPa)
#
#
# Indices 1 2 3 4 5 6 
#
# 1 0.014033 -0.003014 0.000898 -0.000967 -0.002404 0.001066
# 2 -0.003014 0.009355 -0.001132 -0.000779 -0.001095 -0.004892
# 3 0.000898 -0.001132 0.011480 -0.003932 -0.008515 0.006063
# 4 -0.000967 -0.000779 -0.003932 0.037633 0.009792 -0.014018
# 5 -0.002404 -0.001095 -0.008515 0.009792 0.044266 -0.004991
# 6 0.001066 -0.004892 0.006063 -0.014018 -0.004991 0.053875
#
#
# Mechanical properties :
#
#
# Convention : Reuss Voigt Hill
#
# Bulk Modulus (GPa) = 35.24628 42.82017 39.03322
# Shear Modulus (GPa) = 26.79576 34.56827 30.68202
#
# Velocity S-wave (km/s) = 3.40857 3.87149 3.64739
# Velocity P-wave (km/s) = 5.54740 6.20895 5.88747
#
# Compressibility (1/GPa) = 0.02837179
#
# Stress axis : x y z
#
# Youngs Moduli (GPa) = 71.26155 106.88949 87.10722
#
# Poissons Ratio (x) = 0.32220 -0.07826
# Poissons Ratio (y) = 0.21481 0.09863
# Poissons Ratio (z) = -0.06402 0.12103
#
# Static dielectric constant tensor:
#      x y z
#    x 1.926190 0.007090 -0.014660 
#    y 0.007090 1.868350 -0.044340 
#    z -0.014660 -0.044340 1.873930 
# 
# From -- ./inp_files/314916.got.cif
#   From: 2010.05.17/outbox.cif.g08.bks.cpg/sg2_158_cif.got.tgz:314916.got - 2010.06.03 11:33:40.
