data_PCOD9059567
_publ_section_title
;
Structure prediction by ZEFSAII (Michael W. Deem and Ramdas Pophale) SiO2 
 PCOD9059567
Probable space group: P -1
;
_chemical_formula_sum "Si O2"
_cell_formula_units_Z 15
_cell_length_a 9.675463
_cell_length_b 9.901251
_cell_length_c 12.111392
_cell_angle_alpha 104.554515
_cell_angle_beta 67.643026
_cell_angle_gamma 59.871920
_cell_volume 773.351265
_symmetry_space_group_name_H-M "P -1"
_symmetry_group_IT_number 2
_symmetry_cell_setting 'triclinic'
loop_
_space_group_symop_operation_xyz
x,y,z
-x,-y,-z
loop_
_atom_site_type_symbol
_atom_site_label
_atom_site_fract_x
_atom_site_fract_y
_atom_site_fract_z
Si Si1 0.000000 0.500000 0.000000
Si Si2 0.069286 0.240825 0.121260
Si Si3 0.137449 0.912046 0.771985
Si Si4 0.550394 0.146812 0.172320
Si Si5 0.877659 0.700173 0.636707
Si Si6 0.185856 0.648389 0.065880
Si Si7 0.894127 0.169409 0.481001
Si Si8 0.413722 0.519104 0.196668
O O1 0.006558 0.617930 0.926297
O O2 0.921511 0.432697 0.920661
O O3 0.077751 0.317277 0.249877
O O4 0.934221 0.187270 0.170955
O O5 0.291042 0.047412 0.980963
O O6 0.328656 0.856045 0.764764
O O7 0.162556 0.866793 0.625081
O O8 0.960672 0.135901 0.881226
O O9 0.359098 0.179854 0.278961
O O10 0.470377 0.322103 0.156067
O O11 0.000000 0.500000 0.500000
O O12 0.953148 0.799377 0.584744
O O13 0.265116 0.629062 0.161169
O O14 0.383908 0.525824 0.904546
O O15 0.697106 0.355670 0.636231
O O16 0.000000 0.000000 0.500000
#
# Coordination Sequence:
#
# PCOD9059567 Si02
#       8
#     1   2   2   2   2   2   2   2
#     4  12  24  40  66 104 138 162 216 286 338 368
#     4  11  24  42  71  97 134 177 221 272 331 394
#     4  11  23  45  67  98 135 174 218 273 333 397
#     4  12  22  43  68  99 127 174 223 277 330 385
#     4  11  25  44  66  98 135 177 219 271 331 396
#     4  11  23  42  67 100 132 170 221 279 324 391
#     4  11  24  44  68  93 134 180 220 266 333 400
#     4  11  23  41  72  93 130 180 227 263 328 403
#
# _framework density 19.396101999999999
#
# number of rings (size 3 to 8) (size 9 to 14) (size 15 to 20)
#    0.000    0.800    5.333    2.400    0.000    1.600 
#    2.400    0.667    0.000    0.000    0.000    0.000 
#    0.000    0.000    0.000    0.000    0.000    0.000 
#
# Total GULP energy -83621.560980 kJ/mol
# GULP energy per Si atom -5574.770732 kJ/mol
# Density = 1.935196 g / cm^3
# Si number density = 19.396102 Si / 1000 Ang^3
#
#
#
# Elastic Constant Matrix: (Units=GPa)
#
#
# Indices 1 2 3 4 5 6 
#
# 1 101.6762 27.4981 38.5917 -2.5923 12.7017 0.6787
# 2 27.4981 94.6170 14.8414 -28.3129 9.2910 1.2311
# 3 38.5917 14.8414 121.3555 -8.3260 6.8985 2.5168
# 4 -2.5923 -28.3129 -8.3260 22.6260 2.2165 6.4353
# 5 12.7017 9.2910 6.8985 2.2165 15.8263 1.8918
# 6 0.6787 1.2311 2.5168 6.4353 1.8918 26.0297
#
#
#
# Elastic Compliance Matrix: (Units=1/GPa)
#
#
# Indices 1 2 3 4 5 6 
#
# 1 0.012933 -0.004118 -0.003654 -0.004969 -0.005897 0.001868
# 2 -0.004118 0.022625 0.001727 0.032161 -0.014273 -0.008043
# 3 -0.003654 0.001727 0.009840 0.006304 -0.002981 -0.002280
# 4 -0.004969 0.032161 0.006304 0.095670 -0.028218 -0.023603
# 5 -0.005897 -0.014273 -0.002981 -0.028218 0.081288 0.002186
# 6 0.001868 -0.008043 -0.002280 -0.023603 0.002186 0.044646
#
#
# Mechanical properties :
#
#
# Convention : Reuss Voigt Hill
#
# Bulk Modulus (GPa) = 30.02127 53.27901 41.65014
# Shear Modulus (GPa) = 17.22989 28.67756 22.95372
#
# Velocity S-wave (km/s) = 2.98370 3.84933 3.44382
# Velocity P-wave (km/s) = 5.23274 6.87641 6.11009
#
# Compressibility (1/GPa) = 0.03330972
#
# Stress axis : x y z
#
# Youngs Moduli (GPa) = 77.32136 44.19944 101.62426
#
# Poissons Ratio (x) = 0.18200 0.37130
# Poissons Ratio (y) = 0.31839 -0.17553
# Poissons Ratio (z) = 0.28250 -0.07634
#
# Static dielectric constant tensor:
#      x y z
#    x 1.685390 -0.006950 0.007820 
#    y -0.006950 1.657890 0.001150 
#    z 0.007820 0.001150 1.674470 
# 
# From -- ./inp_files/158625.got.cif
#   From: 2010.05.17/outbox.cif.g08.bks.cpg/sg2_80_cif.got.tgz:158625.got - 2010.06.03 11:33:40.
