data_PCOD9059565
_publ_section_title
;
Structure prediction by ZEFSAII (Michael W. Deem and Ramdas Pophale) SiO2 
 PCOD9059565
Probable space group: P -1
;
_chemical_formula_sum "Si O2"
_cell_formula_units_Z 16
_cell_length_a 5.370442
_cell_length_b 14.905231
_cell_length_c 11.135779
_cell_angle_alpha 100.656335
_cell_angle_beta 102.952954
_cell_angle_gamma 127.557567
_cell_volume 626.180024
_symmetry_space_group_name_H-M "P -1"
_symmetry_group_IT_number 2
_symmetry_cell_setting 'triclinic'
loop_
_space_group_symop_operation_xyz
x,y,z
-x,-y,-z
loop_
_atom_site_type_symbol
_atom_site_label
_atom_site_fract_x
_atom_site_fract_y
_atom_site_fract_z
Si Si1 0.380963 0.649696 0.317445
Si Si2 0.629908 0.499085 0.886086
Si Si3 0.665109 0.777902 0.615111
Si Si4 0.636775 0.255345 0.020358
Si Si5 0.370932 0.606880 0.766035
Si Si6 0.612779 0.085994 0.145805
Si Si7 0.539572 0.866678 0.282984
Si Si8 0.700947 0.990333 0.667079
O O1 0.508998 0.631196 0.206167
O O2 0.642321 0.718315 0.473583
O O3 0.305931 0.735058 0.292013
O O4 0.038079 0.510703 0.284925
O O5 0.524317 0.544038 0.781722
O O6 0.043217 0.609203 0.963694
O O7 0.500000 0.500000 0.000000
O O8 0.437433 0.672217 0.664484
O O9 0.055708 0.872412 0.735038
O O10 0.534566 0.849595 0.593583
O O11 0.439852 0.287654 0.081100
O O12 0.717675 0.207820 0.128952
O O13 0.521776 0.164280 0.874423
O O14 0.290651 0.012984 0.185979
O O15 0.500000 0.000000 0.000000
O O16 0.464130 0.948720 0.349135
O O17 0.941527 0.931758 0.348753
#
# Coordination Sequence:
#
# PCOD9059565 Si02
#       8
#     2   2   2   2   2   2   2   2
#     4  11  29  48  71 112 152 208 256 313 386 469
#     4  11  24  44  73 107 147 200 254 313 383 457
#     4  12  26  49  76 110 156 202 257 321 387 458
#     4  11  23  41  72 108 148 187 255 323 383 444
#     4  11  24  44  74 110 147 200 256 316 384 459
#     4  12  24  45  73 113 149 200 261 320 385 452
#     4  12  28  48  76 112 155 203 257 320 384 461
#     4  12  27  48  75 113 147 204 257 317 387 452
#
# _framework density 25.551758
#
# number of rings (size 3 to 8) (size 9 to 14) (size 15 to 20)
#    0.000    0.500    5.000    1.875    7.000    5.500 
#    0.000    0.000    0.000    0.000    0.000    0.000 
#    0.000    0.000    0.000    0.000    0.000    0.000 
#
# Total GULP energy -89403.694415 kJ/mol
# GULP energy per Si atom -5587.730901 kJ/mol
# Density = 2.549360 g / cm^3
# Si number density = 25.551758 Si / 1000 Ang^3
#
#
#
# Elastic Constant Matrix: (Units=GPa)
#
#
# Indices 1 2 3 4 5 6 
#
# 1 122.4175 43.4839 49.0579 9.1574 -15.2353 -21.6682
# 2 43.4839 137.8772 27.6975 -0.8284 -9.6431 -18.1926
# 3 49.0579 27.6975 158.7250 13.6554 -17.8044 -12.2908
# 4 9.1574 -0.8284 13.6554 19.9201 -2.2472 -4.7323
# 5 -15.2353 -9.6431 -17.8044 -2.2472 32.2944 0.6055
# 6 -21.6682 -18.1926 -12.2908 -4.7323 0.6055 45.4916
#
#
#
# Elastic Compliance Matrix: (Units=1/GPa)
#
#
# Indices 1 2 3 4 5 6 
#
# 1 0.011071 -0.002404 -0.002175 -0.002540 0.003065 0.003419
# 2 -0.002404 0.008553 -0.000657 0.002605 0.001194 0.002353
# 3 -0.002175 -0.000657 0.007766 -0.003954 0.002777 0.000351
# 4 -0.002540 0.002605 -0.003954 0.055391 0.001169 0.004510
# 5 0.003065 0.001194 0.002777 0.001169 0.034336 0.002352
# 6 0.003419 0.002353 0.000351 0.004510 0.002352 0.025084
#
#
# Mechanical properties :
#
#
# Convention : Reuss Voigt Hill
#
# Bulk Modulus (GPa) = 59.11454 73.27758 66.19606
# Shear Modulus (GPa) = 31.58288 39.45993 35.52140
#
# Velocity S-wave (km/s) = 3.51954 3.93404 3.73255
# Velocity P-wave (km/s) = 6.30093 7.02680 6.67374
#
# Compressibility (1/GPa) = 0.01691631
#
# Stress axis : x y z
#
# Youngs Moduli (GPa) = 90.32464 116.92084 128.76451
#
# Poissons Ratio (x) = 0.28113 0.28008
# Poissons Ratio (y) = 0.21718 0.08464
# Poissons Ratio (z) = 0.19647 0.07685
#
# Static dielectric constant tensor:
#      x y z
#    x 2.104750 0.001090 0.009480 
#    y 0.001090 2.019290 0.007660 
#    z 0.009480 0.007660 2.023300 
# 
# From -- ./inp_files/367821.got.cif
#   From: 2010.05.17/outbox.cif.g08.bks.cpg/sg2_184_cif.got.tgz:367821.got - 2010.06.03 11:33:40.
