data_PCOD9059767
_publ_section_title
;
Structure prediction by ZEFSAII (Michael W. Deem and Ramdas Pophale) SiO2 
 PCOD9059767
Probable space group: P -1
;
_chemical_formula_sum "Si O2"
_cell_formula_units_Z 16
_cell_length_a 6.884757
_cell_length_b 15.092353
_cell_length_c 15.785675
_cell_angle_alpha 134.976194
_cell_angle_beta 135.801532
_cell_angle_gamma 72.562580
_cell_volume 734.144425
_symmetry_space_group_name_H-M "P -1"
_symmetry_group_IT_number 2
_symmetry_cell_setting 'triclinic'
loop_
_space_group_symop_operation_xyz
x,y,z
-x,-y,-z
loop_
_atom_site_type_symbol
_atom_site_label
_atom_site_fract_x
_atom_site_fract_y
_atom_site_fract_z
Si Si1 0.232410 0.402009 0.912082
Si Si2 0.203943 0.096028 0.704065
Si Si3 0.774803 0.520371 0.847237
Si Si4 0.856363 0.550581 0.621413
Si Si5 0.902802 0.259696 0.025417
Si Si6 0.878708 0.636773 0.509768
Si Si7 0.876881 0.072783 0.266884
Si Si8 0.782657 0.924364 0.958563
O O1 0.194994 0.245725 0.798477
O O2 0.914683 0.411572 0.796436
O O3 0.500000 0.500000 0.000000
O O4 0.297713 0.470470 0.071718
O O5 0.101004 0.016208 0.707325
O O6 0.568308 0.135495 0.837193
O O7 0.000000 0.000000 0.500000
O O8 0.462836 0.482141 0.674048
O O9 0.022742 0.667471 0.992616
O O10 0.500000 0.500000 0.500000
O O11 0.968210 0.660822 0.652869
O O12 0.067478 0.624126 0.817467
O O13 0.920178 0.424076 0.520363
O O14 0.166429 0.212758 0.103097
O O15 0.875869 0.769423 0.552829
O O16 0.883643 0.003343 0.132699
O O17 0.554181 0.087933 0.176200
O O18 0.000000 0.000000 0.000000
#
# Coordination Sequence:
#
# PCOD9059767 Si02
#       8
#     2   2   2   2   2   2   2   2
#     4  11  25  48  73  97 134 187 250 297 349 413
#     4  12  28  47  72 103 144 197 242 296 357 422
#     4  11  25  43  74 103 134 186 237 297 357 417
#     4  11  23  42  68 108 145 180 232 289 355 428
#     4  12  23  45  72 102 144 182 237 292 359 425
#     4  11  25  40  67 107 143 180 229 291 357 429
#     4  11  26  44  68 102 147 183 235 292 358 435
#     4  11  23  44  71 101 136 189 229 286 367 431
#
# _framework density 21.794074999999999
#
# number of rings (size 3 to 8) (size 9 to 14) (size 15 to 20)
#    0.000    0.750    3.750    3.000    5.250    1.000 
#    2.250    1.875    0.000    0.000    0.000    0.000 
#    0.000    0.000    0.000    0.000    0.000    0.000 
#
# Total GULP energy -89455.308734 kJ/mol
# GULP energy per Si atom -5590.956796 kJ/mol
# Density = 2.174447 g / cm^3
# Si number density = 21.794075 Si / 1000 Ang^3
#
#
#
# Elastic Constant Matrix: (Units=GPa)
#
#
# Indices 1 2 3 4 5 6 
#
# 1 132.9943 55.5497 38.3486 0.4538 -7.4086 14.4716
# 2 55.5497 147.5789 20.9391 19.9581 -9.7428 9.9758
# 3 38.3486 20.9391 87.8337 -1.2597 -1.6430 8.5372
# 4 0.4538 19.9581 -1.2597 35.2693 3.2733 1.2512
# 5 -7.4086 -9.7428 -1.6430 3.2733 19.9670 -3.4901
# 6 14.4716 9.9758 8.5372 1.2512 -3.4901 47.4098
#
#
#
# Elastic Compliance Matrix: (Units=1/GPa)
#
#
# Indices 1 2 3 4 5 6 
#
# 1 0.010160 -0.003351 -0.003422 0.001585 0.001291 -0.001727
# 2 -0.003351 0.009173 -0.000695 -0.005534 0.004023 -0.000340
# 3 -0.003422 -0.000695 0.013167 0.001038 -0.000918 -0.001275
# 4 0.001585 -0.005534 0.001038 0.032227 -0.007468 -0.000907
# 5 0.001291 0.004023 -0.000918 -0.007468 0.054218 0.003113
# 6 -0.001727 -0.000340 -0.001275 -0.000907 0.003113 0.022174
#
#
# Mechanical properties :
#
#
# Convention : Reuss Voigt Hill
#
# Bulk Modulus (GPa) = 56.93696 66.45352 61.69524
# Shear Modulus (GPa) = 30.88160 37.43386 34.15773
#
# Velocity S-wave (km/s) = 3.76835 4.14891 3.96320
# Velocity P-wave (km/s) = 6.71682 7.31499 7.02227
#
# Compressibility (1/GPa) = 0.01756328
#
# Stress axis : x y z
#
# Youngs Moduli (GPa) = 98.42468 109.01646 75.94958
#
# Poissons Ratio (x) = 0.36532 0.25992
# Poissons Ratio (y) = 0.32983 0.05277
# Poissons Ratio (z) = 0.33684 0.07574
#
# Static dielectric constant tensor:
#      x y z
#    x 1.791320 -0.002000 0.012750 
#    y -0.002000 1.848270 -0.018930 
#    z 0.012750 -0.018930 1.795250 
# 
# From -- ./inp_files/484410.got.cif
#   From: 2010.05.17/outbox.cif.g08.bks.cpg/sg2_243_cif.got.tgz:484410.got - 2010.06.03 11:33:40.
