data_PCOD9059410
_publ_section_title
;
Structure prediction by ZEFSAII (Michael W. Deem and Ramdas Pophale) SiO2 
 PCOD9059410
Probable space group: P -1
;
_chemical_formula_sum "Si O2"
_cell_formula_units_Z 14
_cell_length_a 13.327548
_cell_length_b 9.170604
_cell_length_c 9.381429
_cell_angle_alpha 135.816737
_cell_angle_beta 110.932924
_cell_angle_gamma 62.033546
_cell_volume 705.407319
_symmetry_space_group_name_H-M "P -1"
_symmetry_group_IT_number 2
_symmetry_cell_setting 'triclinic'
loop_
_space_group_symop_operation_xyz
x,y,z
-x,-y,-z
loop_
_atom_site_type_symbol
_atom_site_label
_atom_site_fract_x
_atom_site_fract_y
_atom_site_fract_z
Si Si1 0.122831 0.861138 0.404898
Si Si2 0.444196 0.952746 0.793474
Si Si3 0.723012 0.283462 0.363520
Si Si4 0.341932 0.228676 0.427153
Si Si5 0.905339 0.303290 0.033167
Si Si6 0.739943 0.796573 0.326573
Si Si7 0.158446 0.055455 0.057279
O O1 0.195957 0.705567 0.456676
O O2 0.108174 0.736113 0.168176
O O3 0.191168 0.030263 0.522097
O O4 0.000000 0.000000 0.500000
O O5 0.386922 0.765641 0.666096
O O6 0.540185 0.878569 0.669820
O O7 0.341649 0.157531 0.820770
O O8 0.500000 0.000000 0.000000
O O9 0.689520 0.507508 0.415225
O O10 0.790153 0.076187 0.152993
O O11 0.336325 0.163767 0.542550
O O12 0.247141 0.154890 0.243826
O O13 0.864165 0.125557 0.975306
O O14 0.829453 0.551103 0.205591
O O15 0.038125 0.242000 0.095720
#
# Coordination Sequence:
#
# PCOD9059410 Si02
#       7
#     2   2   2   2   2   2   2
#     4  11  24  41  63  97 138 167 214 271 323 391
#     4  11  25  46  67  97 133 167 225 283 320 381
#     4  11  24  43  66  99 131 172 216 272 334 376
#     4  12  24  45  70  93 131 181 219 265 330 386
#     4  11  24  42  67 100 136 170 218 268 326 392
#     4  11  26  44  68  96 131 179 219 262 333 391
#     4  11  23  41  68 102 134 169 219 269 317 403
#
# _framework density 19.846686999999999
#
# number of rings (size 3 to 8) (size 9 to 14) (size 15 to 20)
#    0.000    0.857    5.714    0.857    4.000    1.143 
#    0.000    1.429    0.000    0.000    0.000    0.000 
#    0.000    0.000    0.000    0.000    0.000    0.000 
#
# Total GULP energy -78293.197947 kJ/mol
# GULP energy per Si atom -5592.371282 kJ/mol
# Density = 1.980152 g / cm^3
# Si number density = 19.846687 Si / 1000 Ang^3
#
#
#
# Elastic Constant Matrix: (Units=GPa)
#
#
# Indices 1 2 3 4 5 6 
#
# 1 104.7378 21.5527 1.9672 -2.0370 -9.4602 1.3142
# 2 21.5527 86.3459 9.6874 -7.4091 3.5829 -4.3909
# 3 1.9672 9.6874 41.1498 -14.1794 -14.8235 -2.6753
# 4 -2.0370 -7.4091 -14.1794 36.7567 -1.6090 -5.5341
# 5 -9.4602 3.5829 -14.8235 -1.6090 36.7606 -5.2822
# 6 1.3142 -4.3909 -2.6753 -5.5341 -5.2822 28.4870
#
#
#
# Elastic Compliance Matrix: (Units=1/GPa)
#
#
# Indices 1 2 3 4 5 6 
#
# 1 0.010466 -0.002895 0.001861 0.000898 0.003783 0.000122
# 2 -0.002895 0.013011 -0.003588 0.001153 -0.003204 0.001432
# 3 0.001861 -0.003588 0.037761 0.016155 0.018114 0.009404
# 4 0.000898 0.001153 0.016155 0.035708 0.009689 0.010387
# 5 0.003783 -0.003204 0.018114 0.009689 0.037639 0.009894
# 6 0.000122 0.001432 0.009404 0.010387 0.009894 0.040054
#
#
# Mechanical properties :
#
#
# Convention : Reuss Voigt Hill
#
# Bulk Modulus (GPa) = 19.23283 33.18312 26.20797
# Shear Modulus (GPa) = 24.84908 33.66928 29.25918
#
# Velocity S-wave (km/s) = 3.54227 4.12329 3.84378
# Velocity P-wave (km/s) = 5.14218 6.27891 5.73876
#
# Compressibility (1/GPa) = 0.05199444
#
# Stress axis : x y z
#
# Youngs Moduli (GPa) = 95.54711 76.85654 26.48259
#
# Poissons Ratio (x) = 0.22250 -0.04930
# Poissons Ratio (y) = 0.27660 0.09503
# Poissons Ratio (z) = -0.17786 0.27578
#
# Static dielectric constant tensor:
#      x y z
#    x 1.686310 0.004220 -0.014700 
#    y 0.004220 1.687420 -0.011720 
#    z -0.014700 -0.011720 1.664590 
# 
# From -- ./inp_files/26711.got.cif
#   From: 2010.05.17/outbox.cif.g08.bks.cpg/sg2_14_cif.got.tgz:26711.got - 2010.06.03 11:33:40.
