data_PCOD9059434
_publ_section_title
;
Structure prediction by ZEFSAII (Michael W. Deem and Ramdas Pophale) SiO2 
 PCOD9059434
Probable space group: P -1
;
_chemical_formula_sum "Si O2"
_cell_formula_units_Z 14
_cell_length_a 18.302394
_cell_length_b 9.394683
_cell_length_c 6.672683
_cell_angle_alpha 84.126303
_cell_angle_beta 85.948632
_cell_angle_gamma 32.969989
_cell_volume 620.856653
_symmetry_space_group_name_H-M "P -1"
_symmetry_group_IT_number 2
_symmetry_cell_setting 'triclinic'
loop_
_space_group_symop_operation_xyz
x,y,z
-x,-y,-z
loop_
_atom_site_type_symbol
_atom_site_label
_atom_site_fract_x
_atom_site_fract_y
_atom_site_fract_z
Si Si1 0.738547 0.046083 0.487748
Si Si2 0.123485 0.708742 0.921655
Si Si3 0.294999 0.432057 0.318170
Si Si4 0.493639 0.585351 0.203362
Si Si5 0.528814 0.105839 0.066825
Si Si6 0.129756 0.886734 0.539695
Si Si7 0.213630 0.329516 0.678229
O O1 0.616777 0.312303 0.338819
O O2 0.652280 0.178085 0.692457
O O3 0.862262 0.956435 0.471298
O O4 0.796525 0.800925 0.427279
O O5 0.183787 0.728719 0.757142
O O6 0.105021 0.599283 0.794944
O O7 0.218679 0.513426 0.117108
O O8 0.000000 0.000000 0.000000
O O9 0.443486 0.239711 0.267963
O O10 0.226359 0.688503 0.370061
O O11 0.271367 0.350788 0.502958
O O12 0.500000 0.500000 0.000000
O O13 0.516308 0.711963 0.120824
O O14 0.678519 0.885533 0.141098
O O15 0.500000 0.000000 0.000000
O O16 0.000000 0.000000 0.500000
#
# Coordination Sequence:
#
# PCOD9059434 Si02
#       7
#     2   2   2   2   2   2   2
#     4  11  25  42  65 102 144 182 227 284 349 413
#     4  11  23  46  71  94 130 181 241 283 336 411
#     4  11  23  41  68  97 137 181 227 280 338 417
#     4  11  23  42  65 100 149 187 217 271 355 425
#     4  12  22  39  67 106 140 181 223 274 349 421
#     4  11  24  44  71  94 127 183 240 283 334 408
#     4  11  25  41  65 104 143 176 226 289 351 410
#
# _framework density 22.549488
#
# number of rings (size 3 to 8) (size 9 to 14) (size 15 to 20)
#    0.000    0.857    4.286    3.000    4.000    0.000 
#    0.000    3.571    0.000    0.000    0.000    0.000 
#    0.000    0.000    0.000    0.000    0.000    0.000 
#
# Total GULP energy -77987.191687 kJ/mol
# GULP energy per Si atom -5570.513692 kJ/mol
# Density = 2.249816 g / cm^3
# Si number density = 22.549488 Si / 1000 Ang^3
#
#
#
# Elastic Constant Matrix: (Units=GPa)
#
#
# Indices 1 2 3 4 5 6 
#
# 1 101.5495 45.4841 19.5159 19.7683 -6.8559 29.7872
# 2 45.4841 109.5448 27.8501 28.2119 3.0261 18.2634
# 3 19.5159 27.8501 106.5270 12.3490 -5.0843 6.7422
# 4 19.7683 28.2119 12.3490 50.7019 8.9609 8.1519
# 5 -6.8559 3.0261 -5.0843 8.9609 16.7940 -8.0387
# 6 29.7872 18.2634 6.7422 8.1519 -8.0387 39.6874
#
#
#
# Elastic Compliance Matrix: (Units=1/GPa)
#
#
# Indices 1 2 3 4 5 6 
#
# 1 0.014956 -0.004139 -0.000612 -0.002949 0.004560 -0.007687
# 2 -0.004139 0.012938 -0.002183 -0.004017 -0.003687 -0.002398
# 3 -0.000612 -0.002183 0.010490 -0.002175 0.005029 0.001147
# 4 -0.002949 -0.004017 -0.002175 0.027662 -0.018268 -0.004951
# 5 0.004560 -0.003687 0.005029 -0.018268 0.081836 0.017748
# 6 -0.007687 -0.002398 0.001147 -0.004951 0.017748 0.036487
#
#
# Mechanical properties :
#
#
# Convention : Reuss Voigt Hill
#
# Bulk Modulus (GPa) = 40.78947 55.92461 48.35704
# Shear Modulus (GPa) = 24.22387 36.42140 30.32263
#
# Velocity S-wave (km/s) = 3.28114 4.02329 3.67101
# Velocity P-wave (km/s) = 5.69935 6.81448 6.28171
#
# Compressibility (1/GPa) = 0.02451613
#
# Stress axis : x y z
#
# Youngs Moduli (GPa) = 66.86457 77.28955 95.33274
#
# Poissons Ratio (x) = 0.31991 0.05832
# Poissons Ratio (y) = 0.27676 0.20809
# Poissons Ratio (z) = 0.04091 0.16871
#
# Static dielectric constant tensor:
#      x y z
#    x 1.901880 -0.134090 0.007040 
#    y -0.134090 2.424650 0.189590 
#    z 0.007040 0.189590 1.924840 
# 
# From -- ./inp_files/106910.got.cif
#   From: 2010.05.17/outbox.cif.g08.bks.cpg/sg2_54_cif.got.tgz:106910.got - 2010.06.03 11:33:40.
