data_PCOD9059693
_publ_section_title
;
Structure prediction by ZEFSAII (Michael W. Deem and Ramdas Pophale) SiO2 
 PCOD9059693
Probable space group: P -1
;
_chemical_formula_sum "Si O2"
_cell_formula_units_Z 16
_cell_length_a 6.549818
_cell_length_b 20.512943
_cell_length_c 11.019409
_cell_angle_alpha 147.880640
_cell_angle_beta 70.716543
_cell_angle_gamma 122.369246
_cell_volume 639.352820
_symmetry_space_group_name_H-M "P -1"
_symmetry_group_IT_number 2
_symmetry_cell_setting 'triclinic'
loop_
_space_group_symop_operation_xyz
x,y,z
-x,-y,-z
loop_
_atom_site_type_symbol
_atom_site_label
_atom_site_fract_x
_atom_site_fract_y
_atom_site_fract_z
Si Si1 0.816184 0.949961 0.695645
Si Si2 0.661266 0.185222 0.039256
Si Si3 0.587717 0.502053 0.123397
Si Si4 0.723750 0.277781 0.785405
Si Si5 0.665170 0.932419 0.318929
Si Si6 0.321160 0.748477 0.595704
Si Si7 0.931168 0.583241 0.835055
Si Si8 0.008574 0.814164 0.604405
O O1 0.542786 0.808282 0.545967
O O2 0.947597 0.935028 0.770023
O O3 0.756121 0.072957 0.866659
O O4 0.035826 0.972561 0.595569
O O5 0.452983 0.135163 0.895884
O O6 0.565967 0.200636 0.212905
O O7 0.894977 0.336753 0.188119
O O8 0.336455 0.427926 0.136009
O O9 0.761056 0.659243 0.391495
O O10 0.500000 0.500000 0.000000
O O11 0.740165 0.420715 0.961834
O O12 0.438173 0.188133 0.748114
O O13 0.810585 0.196179 0.549783
O O14 0.907452 0.320503 0.932086
O O15 0.500000 0.000000 0.500000
O O16 0.144270 0.578563 0.372877
O O17 0.150402 0.817213 0.703619
#
# Coordination Sequence:
#
# PCOD9059693 Si02
#       8
#     2   2   2   2   2   2   2   2
#     4  12  26  47  72 101 141 186 236 281 348 425
#     4  11  28  48  71 102 140 190 234 288 346 414
#     4  12  22  37  67 104 138 179 228 280 353 410
#     4  11  23  42  67 101 147 172 227 293 349 412
#     4  11  25  47  70 101 140 180 229 291 352 413
#     4  12  26  47  72 101 142 185 240 288 341 415
#     4  11  23  46  70 104 137 183 230 291 353 408
#     4  12  24  40  67 105 139 182 227 290 346 406
#
# _framework density 25.025304999999999
#
# number of rings (size 3 to 8) (size 9 to 14) (size 15 to 20)
#    0.000    0.500    5.000    3.375    0.000    2.500 
#    0.000    0.625    0.000    0.000    0.000    0.000 
#    0.000    0.000    0.000    0.000    0.000    0.000 
#
# Total GULP energy -89407.537411 kJ/mol
# GULP energy per Si atom -5587.971088 kJ/mol
# Density = 2.496835 g / cm^3
# Si number density = 25.025305 Si / 1000 Ang^3
#
#
#
# Elastic Constant Matrix: (Units=GPa)
#
#
# Indices 1 2 3 4 5 6 
#
# 1 95.9124 55.7558 13.7758 11.6941 -2.7842 15.8206
# 2 55.7558 159.3452 32.8256 20.7869 1.9987 37.9708
# 3 13.7758 32.8256 49.6538 2.8474 -0.3323 9.3079
# 4 11.6941 20.7869 2.8474 43.6225 -15.2379 2.6946
# 5 -2.7842 1.9987 -0.3323 -15.2379 45.7234 11.7622
# 6 15.8206 37.9708 9.3079 2.6946 11.7622 52.5845
#
#
#
# Elastic Compliance Matrix: (Units=1/GPa)
#
#
# Indices 1 2 3 4 5 6 
#
# 1 0.013251 -0.004103 -0.000697 -0.001192 0.000849 -0.001029
# 2 -0.004103 0.010313 -0.004530 -0.003395 -0.000549 -0.005114
# 3 -0.000697 -0.004530 0.023442 0.001214 0.000975 -0.000949
# 4 -0.001192 -0.003395 0.001214 0.028258 0.009769 -0.001038
# 5 0.000849 -0.000549 0.000975 0.009769 0.026893 -0.006547
# 6 -0.001029 -0.005114 -0.000949 -0.001038 -0.006547 0.024705
#
#
# Mechanical properties :
#
#
# Convention : Reuss Voigt Hill
#
# Bulk Modulus (GPa) = 35.27736 56.62509 45.95123
# Shear Modulus (GPa) = 32.26404 41.88972 37.07688
#
# Velocity S-wave (km/s) = 3.59452 4.09576 3.85330
# Velocity P-wave (km/s) = 5.59953 6.71143 6.18053
#
# Compressibility (1/GPa) = 0.02834679
#
# Stress axis : x y z
#
# Youngs Moduli (GPa) = 75.46517 96.96726 42.65810
#
# Poissons Ratio (x) = 0.39785 0.02973
# Poissons Ratio (y) = 0.30963 0.19323
# Poissons Ratio (z) = 0.05259 0.43924
#
# Static dielectric constant tensor:
#      x y z
#    x 1.967220 -0.009550 -0.011760 
#    y -0.009550 2.090330 0.080830 
#    z -0.011760 0.080830 2.025570 
# 
# From -- ./inp_files/370447.got.cif
#   From: 2010.05.17/outbox.cif.g08.bks.cpg/sg2_186_cif.got.tgz:370447.got - 2010.06.03 11:33:40.
