data_PCOD9059230
_publ_section_title
;
Structure prediction by ZEFSAII (Michael W. Deem and Ramdas Pophale) SiO2 
 PCOD9059230
Probable space group: P -1
;
_chemical_formula_sum "Si O2"
_cell_formula_units_Z 16
_cell_length_a 6.662777
_cell_length_b 8.700058
_cell_length_c 12.855798
_cell_angle_alpha 102.748686
_cell_angle_beta 81.726873
_cell_angle_gamma 82.827244
_cell_volume 709.739046
_symmetry_space_group_name_H-M "P -1"
_symmetry_group_IT_number 2
_symmetry_cell_setting 'triclinic'
loop_
_space_group_symop_operation_xyz
x,y,z
-x,-y,-z
loop_
_atom_site_type_symbol
_atom_site_label
_atom_site_fract_x
_atom_site_fract_y
_atom_site_fract_z
Si Si1 0.767157 0.489346 0.492971
Si Si2 0.548355 0.047003 0.619150
Si Si3 0.934529 0.100328 0.173765
Si Si4 0.228702 0.362500 0.714005
Si Si5 0.141847 0.813651 0.260686
Si Si6 0.715825 0.896581 0.999976
Si Si7 0.553901 0.626460 0.098130
Si Si8 0.579181 0.270687 0.355006
O O1 0.732754 0.564039 0.389956
O O2 0.700908 0.316123 0.456576
O O3 0.618464 0.589512 0.603386
O O4 0.000000 0.500000 0.500000
O O5 0.371424 0.190417 0.683299
O O6 0.761315 0.107777 0.635953
O O7 0.500000 0.000000 0.500000
O O8 0.519182 0.890234 0.662024
O O9 0.763414 0.237624 0.253829
O O10 0.824264 0.012763 0.080497
O O11 0.014853 0.962943 0.231020
O O12 0.134911 0.154851 0.116406
O O13 0.310125 0.444126 0.822442
O O14 0.999487 0.320556 0.728342
O O15 0.339201 0.729898 0.168279
O O16 0.679871 0.745645 0.047130
O O17 0.500000 0.000000 0.000000
O O18 0.500000 0.500000 0.000000
#
# Coordination Sequence:
#
# PCOD9059230 Si02
#       8
#     2   2   2   2   2   2   2   2
#     4  11  28  45  68 100 146 187 224 284 357 429
#     4  11  23  40  73 102 131 178 230 287 344 404
#     4  11  23  42  71 101 132 183 231 290 342 406
#     4  11  24  46  68 102 139 179 239 286 341 427
#     4  11  23  41  72 101 135 175 238 289 340 415
#     4  11  23  42  71 103 138 174 235 291 347 409
#     4  11  25  45  68  99 142 187 228 291 355 411
#     4  11  25  45  67  99 141 175 235 281 348 418
#
# _framework density 22.543498
#
# number of rings (size 3 to 8) (size 9 to 14) (size 15 to 20)
#    0.000    1.000    5.000    0.750    3.500    4.000 
#    0.000    0.000    0.000    0.000    0.000    0.000 
#    0.000    0.000    0.000    0.000    0.000    0.000 
#
# Total GULP energy -89372.726904 kJ/mol
# GULP energy per Si atom -5585.795431 kJ/mol
# Density = 2.249219 g / cm^3
# Si number density = 22.543498 Si / 1000 Ang^3
#
#
#
# Elastic Constant Matrix: (Units=GPa)
#
#
# Indices 1 2 3 4 5 6 
#
# 1 160.6684 27.4374 61.7386 -0.0459 -1.9516 9.2485
# 2 27.4374 68.8419 34.2126 -2.3471 -5.7900 0.3506
# 3 61.7386 34.2126 121.8233 10.4118 -8.5895 -4.4926
# 4 -0.0459 -2.3471 10.4118 40.2811 7.5316 2.5028
# 5 -1.9516 -5.7900 -8.5895 7.5316 51.3137 -3.2212
# 6 9.2485 0.3506 -4.4926 2.5028 -3.2212 20.8224
#
#
#
# Elastic Compliance Matrix: (Units=1/GPa)
#
#
# Indices 1 2 3 4 5 6 
#
# 1 0.008350 -0.001211 -0.004284 0.001556 -0.001076 -0.004966
# 2 -0.001211 0.017340 -0.004403 0.002045 0.000822 -0.000823
# 3 -0.004284 -0.004403 0.012349 -0.004241 0.002376 0.005519
# 4 0.001556 0.002045 -0.004241 0.027288 -0.004781 -0.005660
# 5 -0.001076 0.000822 0.002376 -0.004781 0.020940 0.004791
# 6 -0.004966 -0.000823 0.005519 -0.005660 0.004791 0.052857
#
#
# Mechanical properties :
#
#
# Convention : Reuss Voigt Hill
#
# Bulk Modulus (GPa) = 54.81295 66.45676 60.63485
# Shear Modulus (GPa) = 30.30277 37.67978 33.99128
#
# Velocity S-wave (km/s) = 3.67030 4.09274 3.88726
# Velocity P-wave (km/s) = 6.50604 7.20260 6.86316
#
# Compressibility (1/GPa) = 0.01824387
#
# Stress axis : x y z
#
# Youngs Moduli (GPa) = 119.75918 57.67010 80.97518
#
# Poissons Ratio (x) = 0.06986 0.34686
# Poissons Ratio (y) = 0.14507 0.35653
# Poissons Ratio (z) = 0.51299 0.25392
#
# Static dielectric constant tensor:
#      x y z
#    x 1.835590 0.046590 0.021100 
#    y 0.046590 1.830040 -0.066900 
#    z 0.021100 -0.066900 1.843980 
# 
# From -- ./inp_files/480738.got.cif
#   From: 2010.05.17/outbox.cif.g08.bks.cpg/sg2_241_cif.got.tgz:480738.got - 2010.06.03 11:33:40.
