data_PCOD9059554
_publ_section_title
;
Structure prediction by ZEFSAII (Michael W. Deem and Ramdas Pophale) SiO2 
 PCOD9059554
Probable space group: P -1
;
_chemical_formula_sum "Si O2"
_cell_formula_units_Z 14
_cell_length_a 9.241231
_cell_length_b 10.995092
_cell_length_c 17.549229
_cell_angle_alpha 137.389860
_cell_angle_beta 40.660221
_cell_angle_gamma 109.760430
_cell_volume 681.550679
_symmetry_space_group_name_H-M "P -1"
_symmetry_group_IT_number 2
_symmetry_cell_setting 'triclinic'
loop_
_space_group_symop_operation_xyz
x,y,z
-x,-y,-z
loop_
_atom_site_type_symbol
_atom_site_label
_atom_site_fract_x
_atom_site_fract_y
_atom_site_fract_z
Si Si1 0.632799 0.943448 0.003269
Si Si2 0.899277 0.487806 0.747432
Si Si3 0.795146 0.936513 0.355070
Si Si4 0.941212 0.931675 0.127036
Si Si5 0.092179 0.452914 0.049942
Si Si6 0.590960 0.897351 0.672753
Si Si7 0.669718 0.194194 0.669294
O O1 0.445274 0.052641 0.200334
O O2 0.767524 0.697198 0.848508
O O3 0.500000 0.000000 0.000000
O O4 0.848713 0.010291 0.954187
O O5 0.863227 0.550669 0.879193
O O6 0.764846 0.351515 0.724967
O O7 0.309936 0.962038 0.344221
O O8 0.867413 0.996557 0.274154
O O9 0.951386 0.690213 0.191477
O O10 0.500000 0.000000 0.500000
O O11 0.816728 0.058358 0.474763
O O12 0.684324 0.036431 0.225865
O O13 0.043146 0.684604 0.970790
O O14 0.363205 0.329800 0.841610
O O15 0.802275 0.661513 0.461011
#
# Coordination Sequence:
#
# PCOD9059554 Si02
#       7
#     2   2   2   2   2   2   2
#     4  12  30  48  67  99 144 190 232 284 340 415
#     4  12  25  43  73 102 140 184 233 281 355 405
#     4  12  23  42  68 110 138 172 235 287 348 405
#     4  11  25  48  71  99 146 182 228 286 336 425
#     4  11  23  41  72 103 134 184 227 283 358 400
#     4  11  24  48  71 102 136 181 238 280 348 407
#     4  11  24  40  72 107 137 174 224 297 343 409
#
# _framework density 20.541394
#
# number of rings (size 3 to 8) (size 9 to 14) (size 15 to 20)
#    0.000    0.571    7.143    1.714    4.000    1.143 
#    2.571    0.000    0.000    0.000    0.000    0.000 
#    0.000    0.000    0.000    0.000    0.000    0.000 
#
# Total GULP energy -78321.094852 kJ/mol
# GULP energy per Si atom -5594.363918 kJ/mol
# Density = 2.049464 g / cm^3
# Si number density = 20.541394 Si / 1000 Ang^3
#
#
#
# Elastic Constant Matrix: (Units=GPa)
#
#
# Indices 1 2 3 4 5 6 
#
# 1 119.7165 59.3725 34.1954 0.1540 25.9704 -11.6861
# 2 59.3725 85.1780 28.2241 1.4314 10.4603 0.1983
# 3 34.1954 28.2241 102.1554 17.1297 15.4498 -15.3937
# 4 0.1540 1.4314 17.1297 27.7091 -13.3086 -0.9418
# 5 25.9704 10.4603 15.4498 -13.3086 41.3223 -0.0836
# 6 -11.6861 0.1983 -15.3937 -0.9418 -0.0836 48.0457
#
#
#
# Elastic Compliance Matrix: (Units=1/GPa)
#
#
# Indices 1 2 3 4 5 6 
#
# 1 0.015255 -0.009537 -0.000129 -0.003321 -0.008187 0.003629
# 2 -0.009537 0.019125 -0.003601 0.002803 0.003395 -0.003492
# 3 -0.000129 -0.003601 0.015082 -0.013261 -0.008908 0.004540
# 4 -0.003321 0.002803 -0.013261 0.055679 0.024260 -0.003935
# 5 -0.008187 0.003395 -0.008908 0.024260 0.039621 -0.004315
# 6 0.003629 -0.003492 0.004540 -0.003935 -0.004315 0.023081
#
#
# Mechanical properties :
#
#
# Convention : Reuss Voigt Hill
#
# Bulk Modulus (GPa) = 43.61793 61.18154 52.39974
# Shear Modulus (GPa) = 24.74984 35.76595 30.25789
#
# Velocity S-wave (km/s) = 3.47490 4.17725 3.84216
# Velocity P-wave (km/s) = 6.11393 7.28801 6.72664
#
# Compressibility (1/GPa) = 0.02292635
#
# Stress axis : x y z
#
# Youngs Moduli (GPa) = 65.55434 52.28633 66.30264
#
# Poissons Ratio (x) = 0.49868 0.00858
# Poissons Ratio (y) = 0.62522 0.23877
# Poissons Ratio (z) = 0.00848 0.18829
#
# Static dielectric constant tensor:
#      x y z
#    x 1.772450 -0.018300 -0.016220 
#    y -0.018300 1.706450 -0.007390 
#    z -0.016220 -0.007390 1.743230 
# 
# From -- ./inp_files/559989.got.cif
#   From: 2010.05.17/outbox.cif.g08.bks.cpg/sg2_280_cif.got.tgz:559989.got - 2010.06.03 11:33:40.
