data_PCOD9059140
_publ_section_title
;
Structure prediction by ZEFSAII (Michael W. Deem and Ramdas Pophale) SiO2 
 PCOD9059140
Probable space group: P -1
;
_chemical_formula_sum "Si O2"
_cell_formula_units_Z 16
_cell_length_a 6.341514
_cell_length_b 23.826427
_cell_length_c 11.733501
_cell_angle_alpha 29.027158
_cell_angle_beta 124.408683
_cell_angle_gamma 126.825735
_cell_volume 684.746436
_symmetry_space_group_name_H-M "P -1"
_symmetry_group_IT_number 2
_symmetry_cell_setting 'triclinic'
loop_
_space_group_symop_operation_xyz
x,y,z
-x,-y,-z
loop_
_atom_site_type_symbol
_atom_site_label
_atom_site_fract_x
_atom_site_fract_y
_atom_site_fract_z
Si Si1 0.173479 0.709688 0.672588
Si Si2 0.686277 0.086686 0.308838
Si Si3 0.581456 0.698191 0.155715
Si Si4 0.300920 0.081652 0.809080
Si Si5 0.090052 0.151993 0.828579
Si Si6 0.696548 0.885732 0.506565
Si Si7 0.305545 0.498180 0.607682
Si Si8 0.662000 0.534099 0.876681
O O1 0.451188 0.790589 0.660239
O O2 0.107262 0.789430 0.407148
O O3 0.890495 0.658761 0.738649
O O4 0.224061 0.582059 0.890654
O O5 0.002440 0.112986 0.375426
O O6 0.500000 0.000000 0.500000
O O7 0.649997 0.012409 0.310202
O O8 0.599266 0.209420 0.071967
O O9 0.837938 0.773220 0.167793
O O10 0.446847 0.594211 0.386767
O O11 0.655180 0.631119 0.187862
O O12 0.325009 0.157484 0.798145
O O13 0.314327 0.139096 0.587725
O O14 0.019898 0.984173 0.919355
O O15 0.500000 0.000000 0.000000
O O16 0.465481 0.534966 0.708967
O O17 0.000000 0.500000 0.500000
O O18 0.500000 0.500000 0.000000
#
# Coordination Sequence:
#
# PCOD9059140 Si02
#       8
#     2   2   2   2   2   2   2   2
#     4  11  26  46  73 104 149 183 258 305 384 441
#     4  11  27  47  74 110 159 196 253 301 387 463
#     4  11  26  48  74 101 151 194 247 310 378 455
#     4  11  23  40  68 106 145 182 242 291 373 442
#     4  11  24  42  70 105 142 191 233 312 365 453
#     4  11  26  45  73 113 145 207 242 311 377 465
#     4  11  28  48  77 106 143 200 257 314 387 453
#     4  11  28  49  75 109 144 197 255 327 379 444
#
# _framework density 23.366313000000002
#
# number of rings (size 3 to 8) (size 9 to 14) (size 15 to 20)
#    0.000    1.000    2.500    1.500   10.500    4.000 
#    0.000    0.000    0.000    0.000    0.000    0.000 
#    0.000    0.000    0.000    0.000    0.000    0.000 
#
# Total GULP energy -89238.242722 kJ/mol
# GULP energy per Si atom -5577.390170 kJ/mol
# Density = 2.331313 g / cm^3
# Si number density = 23.366313 Si / 1000 Ang^3
#
#
#
# Elastic Constant Matrix: (Units=GPa)
#
#
# Indices 1 2 3 4 5 6 
#
# 1 129.2434 78.3305 48.3620 9.6924 4.3452 7.0359
# 2 78.3305 67.0501 38.2063 -23.9160 -6.3167 -12.4134
# 3 48.3620 38.2063 118.0473 0.3632 21.8983 -2.4230
# 4 9.6924 -23.9160 0.3632 26.4476 -0.8330 -7.4790
# 5 4.3452 -6.3167 21.8983 -0.8330 48.1373 -5.2667
# 6 7.0359 -12.4134 -2.4230 -7.4790 -5.2667 25.8824
#
#
#
# Elastic Compliance Matrix: (Units=1/GPa)
#
#
# Indices 1 2 3 4 5 6 
#
# 1 -0.002124 0.015408 -0.005072 0.019025 0.006414 0.014295
# 2 0.015408 -0.019750 0.001098 -0.030529 -0.007628 -0.023932
# 3 -0.005072 0.001098 0.010988 0.003457 -0.003996 0.003119
# 4 0.019025 -0.030529 0.003457 -0.003486 -0.009817 -0.022495
# 5 0.006414 -0.007628 -0.003996 -0.009817 0.020352 -0.004472
# 6 0.014295 -0.023932 0.003119 -0.022495 -0.004472 0.016154
#
#
# Mechanical properties :
#
#
# Convention : Reuss Voigt Hill
#
# Bulk Modulus (GPa) = 83.45662 71.57094 77.51378
# Shear Modulus (GPa) = 1532.79393 30.05625 781.42509
#
# Velocity S-wave (km/s) = 25.63998 3.59040 18.30710
# Velocity P-wave (km/s) = 30.20495 6.91986 21.91145
#
# Compressibility (1/GPa) = 0.01198227
#
# Stress axis : x y z
#
# Youngs Moduli (GPa) = -470.87553 -50.63339 91.00537
#
# Poissons Ratio (x) = 0.78015 0.46155
# Poissons Ratio (y) = 7.25517 -0.09989
# Poissons Ratio (z) = -2.38813 0.05557
#
# Static dielectric constant tensor:
#      x y z
#    x 1.958530 -0.046510 0.067520 
#    y -0.046510 2.023050 -0.081540 
#    z 0.067520 -0.081540 1.959650 
# 
# From -- ./inp_files/371032.got.cif
#   From: 2010.05.17/outbox.cif.g08.bks.cpg/sg2_186_cif.got.tgz:371032.got - 2010.06.03 11:33:40.
