data_PCOD9059039
_publ_section_title
;
Structure prediction by ZEFSAII (Michael W. Deem and Ramdas Pophale) SiO2 
 PCOD9059039
Probable space group: P -1
;
_chemical_formula_sum "Si O2"
_cell_formula_units_Z 14
_cell_length_a 8.897436
_cell_length_b 7.115783
_cell_length_c 12.489840
_cell_angle_alpha 87.809921
_cell_angle_beta 72.264478
_cell_angle_gamma 52.343438
_cell_volume 584.700260
_symmetry_space_group_name_H-M "P -1"
_symmetry_group_IT_number 2
_symmetry_cell_setting 'triclinic'
loop_
_space_group_symop_operation_xyz
x,y,z
-x,-y,-z
loop_
_atom_site_type_symbol
_atom_site_label
_atom_site_fract_x
_atom_site_fract_y
_atom_site_fract_z
Si Si1 0.403784 0.871654 0.500323
Si Si2 0.617087 0.627486 0.250713
Si Si3 0.256831 0.656126 0.265157
Si Si4 0.864228 0.161375 0.297419
Si Si5 0.504243 0.710111 0.949746
Si Si6 0.224711 0.242244 0.950672
Si Si7 0.978905 0.295773 0.483260
O O1 0.560310 0.668013 0.386982
O O2 0.331933 0.808557 0.619689
O O3 0.500000 0.000000 0.500000
O O4 0.192586 0.052377 0.479684
O O5 0.416204 0.706744 0.233886
O O6 0.794580 0.339405 0.209258
O O7 0.692476 0.767207 0.185622
O O8 0.368687 0.404269 0.185496
O O9 0.191935 0.648885 0.399046
O O10 0.051052 0.878928 0.246896
O O11 0.939066 0.245983 0.374869
O O12 0.291023 0.978937 0.970215
O O13 0.500000 0.500000 0.000000
O O14 0.638742 0.733852 0.999860
O O15 0.000000 0.500000 0.000000
O O16 0.000000 0.500000 0.500000
#
# Coordination Sequence:
#
# PCOD9059039 Si02
#       7
#     2   2   2   2   2   2   2
#     4  11  23  40  64 102 143 185 239 284 348 431
#     4  12  24  42  73  98 142 188 230 297 359 424
#     4  11  24  44  71 103 139 189 240 286 362 423
#     4  11  24  43  67 103 147 189 233 291 354 428
#     4  11  26  50  79 102 139 192 240 305 369 427
#     4  11  29  49  74 111 141 179 249 311 362 431
#     4  11  23  40  66 101 147 187 231 293 344 431
#
# _framework density 23.943895000000001
#
# number of rings (size 3 to 8) (size 9 to 14) (size 15 to 20)
#    0.000    0.857    4.286    2.143    6.000    5.143 
#    0.000    0.000    0.000    0.000    0.000    0.000 
#    0.000    0.000    0.000    0.000    0.000    0.000 
#
# Total GULP energy -78263.692770 kJ/mol
# GULP energy per Si atom -5590.263769 kJ/mol
# Density = 2.388940 g / cm^3
# Si number density = 23.943895 Si / 1000 Ang^3
#
#
#
# Elastic Constant Matrix: (Units=GPa)
#
#
# Indices 1 2 3 4 5 6 
#
# 1 81.5898 33.1022 15.5734 2.7972 -16.0476 9.7779
# 2 33.1022 177.2812 32.9348 13.8151 -20.4695 -0.4855
# 3 15.5734 32.9348 51.5518 16.7386 -10.3092 -2.3874
# 4 2.7972 13.8151 16.7386 34.8516 8.7410 -4.7841
# 5 -16.0476 -20.4695 -10.3092 8.7410 21.6396 3.9696
# 6 9.7779 -0.4855 -2.3874 -4.7841 3.9696 46.6070
#
#
#
# Elastic Compliance Matrix: (Units=1/GPa)
#
#
# Indices 1 2 3 4 5 6 
#
# 1 0.016235 -0.001017 -0.000006 -0.005138 0.014094 -0.005145
# 2 -0.001017 0.007252 -0.001729 -0.003818 0.006968 -0.000785
# 3 -0.000006 -0.001729 0.031307 -0.020150 0.021843 -0.002342
# 4 -0.005138 -0.003818 -0.020150 0.051349 -0.039346 0.008628
# 5 0.014094 0.006968 0.021843 -0.039346 0.092058 -0.013645
# 6 -0.005145 -0.000785 -0.002342 0.008628 -0.013645 0.024455
#
#
# Mechanical properties :
#
#
# Convention : Reuss Voigt Hill
#
# Bulk Modulus (GPa) = 20.28828 52.62705 36.45767
# Shear Modulus (GPa) = 20.44247 35.87381 28.15814
#
# Velocity S-wave (km/s) = 2.92510 3.87492 3.43301
# Velocity P-wave (km/s) = 4.46093 6.48437 5.56538
#
# Compressibility (1/GPa) = 0.04928954
#
# Stress axis : x y z
#
# Youngs Moduli (GPa) = 61.59552 137.89797 31.94200
#
# Poissons Ratio (x) = 0.14018 0.00021
# Poissons Ratio (y) = 0.06261 0.05523
# Poissons Ratio (z) = 0.00040 0.23842
#
# Static dielectric constant tensor:
#      x y z
#    x 1.901460 0.029030 0.011960 
#    y 0.029030 1.975300 0.002130 
#    z 0.011960 0.002130 2.003310 
# 
# From -- ./inp_files/213637.got.cif
#   From: 2010.05.17/outbox.cif.g08.bks.cpg/sg2_107_cif.got.tgz:213637.got - 2010.06.03 11:33:40.
