data_PCOD9059261
_publ_section_title
;
Structure prediction by ZEFSAII (Michael W. Deem and Ramdas Pophale) SiO2 
 PCOD9059261
Probable space group: P -1
;
_chemical_formula_sum "Si O2"
_cell_formula_units_Z 16
_cell_length_a 9.287092
_cell_length_b 13.494713
_cell_length_c 8.851648
_cell_angle_alpha 96.727739
_cell_angle_beta 66.245297
_cell_angle_gamma 138.905534
_cell_volume 634.548344
_symmetry_space_group_name_H-M "P -1"
_symmetry_group_IT_number 2
_symmetry_cell_setting 'triclinic'
loop_
_space_group_symop_operation_xyz
x,y,z
-x,-y,-z
loop_
_atom_site_type_symbol
_atom_site_label
_atom_site_fract_x
_atom_site_fract_y
_atom_site_fract_z
Si Si1 0.663319 0.316851 0.025487
Si Si2 0.888697 0.976968 0.792313
Si Si3 0.525371 0.399661 0.362983
Si Si4 0.214370 0.748624 0.492377
Si Si5 0.054084 0.884329 0.517956
Si Si6 0.073744 0.673429 0.858617
Si Si7 0.352464 0.607485 0.352465
Si Si8 0.220737 0.304610 0.870184
O O1 0.614493 0.359419 0.202624
O O2 0.784681 0.276454 0.034162
O O3 0.387893 0.170917 0.050186
O O4 0.880689 0.485836 0.880816
O O5 0.852201 0.007354 0.646411
O O6 0.045209 0.130636 0.852723
O O7 0.034834 0.946471 0.684687
O O8 0.238556 0.283049 0.423416
O O9 0.554294 0.371354 0.512776
O O10 0.698395 0.578712 0.277066
O O11 0.210427 0.860235 0.460982
O O12 0.257866 0.769438 0.657355
O O13 0.928203 0.570679 0.564256
O O14 0.365335 0.733221 0.349020
O O15 0.912574 0.693974 0.948268
O O16 0.524855 0.624341 0.176551
#
# Coordination Sequence:
#
# PCOD9059261 Si02
#       8
#     2   2   2   2   2   2   2   2
#     4   9  20  40  63  89 119 169 203 253 298 374
#     4  10  21  37  64  92 123 158 214 250 304 367
#     4  10  17  37  66  89 117 158 217 250 296 359
#     4  11  23  38  63  97 126 156 204 263 312 351
#     4  10  20  38  64  94 122 163 203 258 307 362
#     4  10  22  41  64  87 126 165 209 245 310 368
#     4  11  21  36  62  98 123 147 210 269 299 350
#     4  11  21  36  64  90 121 165 208 255 292 368
#
# _framework density 25.214786
#
# number of rings (size 3 to 8) (size 9 to 14) (size 15 to 20)
#    0.000    1.750    3.750    1.125    0.000    1.000 
#    0.000    3.125    0.000    0.000    0.000    0.000 
#    0.000    0.000    0.000    0.000    0.000    0.000 
#
# Total GULP energy -89563.102743 kJ/mol
# GULP energy per Si atom -5597.693921 kJ/mol
# Density = 2.515740 g / cm^3
# Si number density = 25.214786 Si / 1000 Ang^3
#
#
#
# Elastic Constant Matrix: (Units=GPa)
#
#
# Indices 1 2 3 4 5 6 
#
# 1 84.3950 19.9439 13.3273 8.0574 -16.1385 -30.8491
# 2 19.9439 105.8784 7.9806 9.9606 -9.6518 1.1747
# 3 13.3273 7.9806 70.4025 5.5793 -15.7856 -15.1943
# 4 8.0574 9.9606 5.5793 29.5489 -11.1303 -11.1568
# 5 -16.1385 -9.6518 -15.7856 -11.1303 38.6615 5.2299
# 6 -30.8491 1.1747 -15.1943 -11.1568 5.2299 47.4918
#
#
#
# Elastic Compliance Matrix: (Units=1/GPa)
#
#
# Indices 1 2 3 4 5 6 
#
# 1 0.017715 -0.003236 0.000705 0.002890 0.006108 0.011819
# 2 -0.003236 0.010547 -0.000998 -0.003732 0.000286 -0.003591
# 3 0.000705 -0.000998 0.016715 0.001526 0.006570 0.005465
# 4 0.002890 -0.003732 0.001526 0.042642 0.011660 0.011191
# 5 0.006108 0.000286 0.006570 0.011660 0.033839 0.005075
# 6 0.011819 -0.003591 0.005465 0.011191 0.005075 0.032641
#
#
# Mechanical properties :
#
#
# Convention : Reuss Voigt Hill
#
# Bulk Modulus (GPa) = 26.37302 38.13106 32.25204
# Shear Modulus (GPa) = 28.76921 37.76873 33.26897
#
# Velocity S-wave (km/s) = 3.38148 3.87444 3.63633
# Velocity P-wave (km/s) = 5.07227 5.93047 5.51808
#
# Compressibility (1/GPa) = 0.03791754
#
# Stress axis : x y z
#
# Youngs Moduli (GPa) = 56.45034 94.81713 59.82482
#
# Poissons Ratio (x) = 0.30685 -0.04215
# Poissons Ratio (y) = 0.18269 0.05970
# Poissons Ratio (z) = -0.03977 0.09462
#
# Static dielectric constant tensor:
#      x y z
#    x 2.044800 0.002720 0.005180 
#    y 0.002720 2.000940 0.005280 
#    z 0.005180 0.005280 2.003450 
# 
# From -- ./inp_files/239002.got.cif
#   From: 2010.05.17/outbox.cif.g08.bks.cpg/sg2_120_cif.got.tgz:239002.got - 2010.06.03 11:33:40.
