data_PCOD9059668
_publ_section_title
;
Structure prediction by ZEFSAII (Michael W. Deem and Ramdas Pophale) SiO2 
 PCOD9059668
Probable space group: P -1
;
_chemical_formula_sum "Si O2"
_cell_formula_units_Z 14
_cell_length_a 8.497371
_cell_length_b 7.754074
_cell_length_c 11.659012
_cell_angle_alpha 100.589564
_cell_angle_beta 131.528146
_cell_angle_gamma 91.999247
_cell_volume 552.336014
_symmetry_space_group_name_H-M "P -1"
_symmetry_group_IT_number 2
_symmetry_cell_setting 'triclinic'
loop_
_space_group_symop_operation_xyz
x,y,z
-x,-y,-z
loop_
_atom_site_type_symbol
_atom_site_label
_atom_site_fract_x
_atom_site_fract_y
_atom_site_fract_z
Si Si1 0.053998 0.509855 0.893520
Si Si2 0.819073 0.184882 0.185945
Si Si3 0.692900 0.400392 0.544321
Si Si4 0.514261 0.600907 0.870135
Si Si5 0.234274 0.062166 0.067166
Si Si6 0.172475 0.306642 0.540833
Si Si7 0.444207 0.004411 0.608222
O O1 0.059070 0.690132 0.844154
O O2 0.848247 0.380730 0.722066
O O3 0.287754 0.463855 0.982808
O O4 0.000000 0.500000 0.000000
O O5 0.605795 0.258713 0.111780
O O6 0.936442 0.197183 0.368270
O O7 0.783826 0.994851 0.082348
O O8 0.500000 0.500000 0.500000
O O9 0.814839 0.533191 0.524411
O O10 0.650140 0.205232 0.445217
O O11 0.317946 0.431049 0.724158
O O12 0.651967 0.725466 0.850239
O O13 0.375016 0.956729 0.201219
O O14 0.000000 0.000000 0.000000
O O15 0.303570 0.151996 0.568114
O O16 0.500000 0.000000 0.500000
#
# Coordination Sequence:
#
# PCOD9059668 Si02
#       7
#     2   2   2   2   2   2   2
#     4  11  25  41  73 106 141 188 249 298 368 433
#     4  11  26  47  72 106 146 197 244 300 373 440
#     4  11  23  42  66 107 146 190 240 305 366 434
#     4  12  25  48  74 101 151 196 242 307 370 439
#     4  12  27  45  71 110 145 188 249 306 365 438
#     4  11  24  46  71 102 146 194 244 298 366 444
#     4  12  25  41  71 105 147 188 242 304 373 432
#
# _framework density 25.346889999999998
#
# number of rings (size 3 to 8) (size 9 to 14) (size 15 to 20)
#    0.000    0.571    2.857    4.714    8.000    0.000 
#    0.000    0.714    0.000    0.000    0.000    0.000 
#    0.000    0.000    0.000    0.000    0.000    0.000 
#
# Total GULP energy -78001.935514 kJ/mol
# GULP energy per Si atom -5571.566822 kJ/mol
# Density = 2.528920 g / cm^3
# Si number density = 25.346890 Si / 1000 Ang^3
#
#
#
# Elastic Constant Matrix: (Units=GPa)
#
#
# Indices 1 2 3 4 5 6 
#
# 1 77.9612 16.5510 52.2787 10.7030 5.4219 -18.9558
# 2 16.5510 108.6711 31.2073 5.1632 7.8634 -12.6626
# 3 52.2787 31.2073 176.2442 -1.8549 16.0746 -16.5825
# 4 10.7030 5.1632 -1.8549 50.3910 -5.2187 -3.0060
# 5 5.4219 7.8634 16.0746 -5.2187 24.4885 -5.7749
# 6 -18.9558 -12.6626 -16.5825 -3.0060 -5.7749 36.5383
#
#
#
# Elastic Compliance Matrix: (Units=1/GPa)
#
#
# Indices 1 2 3 4 5 6 
#
# 1 0.018258 -0.000454 -0.004732 -0.003588 0.000068 0.006883
# 2 -0.000454 0.010096 -0.001267 -0.001055 -0.001995 0.002286
# 3 -0.004732 -0.001267 0.007626 0.001083 -0.003288 0.000137
# 4 -0.003588 -0.001055 0.001083 0.021340 0.005167 0.000837
# 5 0.000068 -0.001995 -0.003288 0.005167 0.046030 0.005552
# 6 0.006883 0.002286 0.000137 0.000837 0.005552 0.032740
#
#
# Mechanical properties :
#
#
# Convention : Reuss Voigt Hill
#
# Bulk Modulus (GPa) = 43.33940 62.55005 52.94473
# Shear Modulus (GPa) = 31.91094 39.80621 35.85858
#
# Velocity S-wave (km/s) = 3.55204 3.96720 3.76535
# Velocity P-wave (km/s) = 5.82738 6.76137 6.31167
#
# Compressibility (1/GPa) = 0.02307369
#
# Stress axis : x y z
#
# Youngs Moduli (GPa) = 54.77183 99.04938 131.13098
#
# Poissons Ratio (x) = 0.04500 0.62046
# Poissons Ratio (y) = 0.02489 0.16613
# Poissons Ratio (z) = 0.25916 0.12549
#
# Static dielectric constant tensor:
#      x y z
#    x 2.073470 0.131880 0.044860 
#    y 0.131880 2.111050 0.250520 
#    z 0.044860 0.250520 2.455070 
# 
# From -- ./inp_files/380159.got.cif
#   From: 2010.05.17/outbox.cif.g08.bks.cpg/sg2_191_cif.got.tgz:380159.got - 2010.06.03 11:33:40.
