data_PCOD9059431
_publ_section_title
;
Structure prediction by ZEFSAII (Michael W. Deem and Ramdas Pophale) SiO2 
 PCOD9059431
Probable space group: P -1
;
_chemical_formula_sum "Si O2"
_cell_formula_units_Z 16
_cell_length_a 28.804978
_cell_length_b 8.780783
_cell_length_c 14.282813
_cell_angle_alpha 126.688459
_cell_angle_beta 20.881882
_cell_angle_gamma 138.471209
_cell_volume 770.125010
_symmetry_space_group_name_H-M "P -1"
_symmetry_group_IT_number 2
_symmetry_cell_setting 'triclinic'
loop_
_space_group_symop_operation_xyz
x,y,z
-x,-y,-z
loop_
_atom_site_type_symbol
_atom_site_label
_atom_site_fract_x
_atom_site_fract_y
_atom_site_fract_z
Si Si1 0.039852 0.824978 0.894167
Si Si2 0.612094 0.916472 0.177087
Si Si3 0.568230 0.478589 0.173245
Si Si4 0.381940 0.067187 0.222552
Si Si5 0.235076 0.910987 0.233764
Si Si6 0.828299 0.591244 0.857428
Si Si7 0.749562 0.226028 0.196200
Si Si8 0.739550 0.882060 0.237480
O O1 0.196766 0.890906 0.560550
O O2 0.107422 0.920014 0.906288
O O3 0.880917 0.524372 0.078950
O O4 0.000000 0.000000 0.000000
O O5 0.559845 0.696046 0.263715
O O6 0.445484 0.885203 0.464361
O O7 0.761936 0.175299 0.045678
O O8 0.673839 0.898869 0.955174
O O9 0.494493 0.339390 0.161391
O O10 0.437408 0.273805 0.424921
O O11 0.760883 0.597689 0.884512
O O12 0.333511 0.034169 0.192120
O O13 0.500000 0.000000 0.000000
O O14 0.237706 0.689737 0.119529
O O15 0.033469 0.779405 0.563593
O O16 0.751885 0.678583 0.102078
O O17 0.762985 0.057062 0.175449
#
# Coordination Sequence:
#
# PCOD9059431 Si02
#       8
#     2   2   2   2   2   2   2   2
#     4  11  25  44  72  99 136 176 227 280 338 402
#     4  11  26  40  66 100 134 173 224 280 334 400
#     4  11  23  44  70  99 132 180 223 278 336 399
#     4  11  24  45  69  98 134 183 222 272 341 407
#     4  11  26  42  65  97 138 181 222 275 339 406
#     4  11  23  41  68  96 133 179 225 272 337 401
#     4  11  24  42  66 102 133 170 226 280 335 395
#     4  11  23  43  71  97 133 175 225 281 335 395
#
# _framework density 20.775849000000001
#
# number of rings (size 3 to 8) (size 9 to 14) (size 15 to 20)
#    0.000    1.000    2.500    3.750   10.500    1.000 
#    2.250    0.000    0.000    0.000    0.000    0.000 
#    0.000    0.000    0.000    0.000    0.000    0.000 
#
# Total GULP energy -89317.922561 kJ/mol
# GULP energy per Si atom -5582.370160 kJ/mol
# Density = 2.072856 g / cm^3
# Si number density = 20.775849 Si / 1000 Ang^3
#
#
#
# Elastic Constant Matrix: (Units=GPa)
#
#
# Indices 1 2 3 4 5 6 
#
# 1 173.8940 58.0373 54.5962 -11.3186 -14.9102 28.5694
# 2 58.0373 108.1381 37.3869 4.3000 -5.6371 25.4801
# 3 54.5962 37.3869 67.4508 5.9840 -18.8741 -2.9944
# 4 -11.3186 4.3000 5.9840 17.8881 -1.1211 -15.0478
# 5 -14.9102 -5.6371 -18.8741 -1.1211 31.8950 -1.5127
# 6 28.5694 25.4801 -2.9944 -15.0478 -1.5127 43.0986
#
#
#
# Elastic Compliance Matrix: (Units=1/GPa)
#
#
# Indices 1 2 3 4 5 6 
#
# 1 0.009785 -0.002013 -0.007570 0.006074 -0.000224 -0.003709
# 2 -0.002013 0.017085 -0.008273 -0.015356 -0.004061 -0.014845
# 3 -0.007570 -0.008273 0.029941 -0.002144 0.013197 0.011704
# 4 0.006074 -0.015356 -0.002144 0.097212 0.004123 0.038990
# 5 -0.000224 -0.004061 0.013197 0.004123 0.038782 0.006267
# 6 -0.003709 -0.014845 0.011704 0.038990 0.006267 0.049084
#
#
# Mechanical properties :
#
#
# Convention : Reuss Voigt Hill
#
# Bulk Modulus (GPa) = 47.39931 72.16928 59.78430
# Shear Modulus (GPa) = 17.56628 31.87384 24.72006
#
# Velocity S-wave (km/s) = 2.91093 3.92111 3.45316
# Velocity P-wave (km/s) = 5.84484 7.43725 6.68860
#
# Compressibility (1/GPa) = 0.02109735
#
# Stress axis : x y z
#
# Youngs Moduli (GPa) = 102.19845 58.53009 33.39847
#
# Poissons Ratio (x) = 0.11785 0.25283
# Poissons Ratio (y) = 0.20577 0.27632
# Poissons Ratio (z) = 0.77366 0.48425
#
# Static dielectric constant tensor:
#      x y z
#    x 1.794320 0.024570 0.011140 
#    y 0.024570 1.753870 0.016390 
#    z 0.011140 0.016390 1.728180 
# 
# From -- ./inp_files/544885.got.cif
#   From: 2010.05.17/outbox.cif.g08.bks.cpg/sg2_273_cif.got.tgz:544885.got - 2010.06.03 11:33:40.
