data_PCOD9059046
_publ_section_title
;
Structure prediction by ZEFSAII (Michael W. Deem and Ramdas Pophale) SiO2 
 PCOD9059046
Probable space group: P -1
;
_chemical_formula_sum "Si O2"
_cell_formula_units_Z 16
_cell_length_a 11.046612
_cell_length_b 5.405878
_cell_length_c 11.613428
_cell_angle_alpha 68.311962
_cell_angle_beta 89.185170
_cell_angle_gamma 74.948137
_cell_volume 619.723539
_symmetry_space_group_name_H-M "P -1"
_symmetry_group_IT_number 2
_symmetry_cell_setting 'triclinic'
loop_
_space_group_symop_operation_xyz
x,y,z
-x,-y,-z
loop_
_atom_site_type_symbol
_atom_site_label
_atom_site_fract_x
_atom_site_fract_y
_atom_site_fract_z
Si Si1 0.763165 0.704398 0.707578
Si Si2 0.013061 0.738648 0.279452
Si Si3 0.863950 0.175857 0.521016
Si Si4 0.539997 0.625508 0.156685
Si Si5 0.927147 0.306809 0.092746
Si Si6 0.315607 0.599786 0.041700
Si Si7 0.533193 0.672069 0.578707
Si Si8 0.771414 0.617685 0.258951
O O1 0.904716 0.509131 0.754186
O O2 0.696048 0.663214 0.835472
O O3 0.678921 0.601049 0.630398
O O4 0.783236 0.990175 0.612800
O O5 0.082498 0.661792 0.411348
O O6 0.864427 0.781025 0.281329
O O7 0.023771 0.028232 0.183190
O O8 0.782451 0.374623 0.393036
O O9 0.000000 0.000000 0.500000
O O10 0.397551 0.753406 0.092520
O O11 0.532982 0.401549 0.292695
O O12 0.631182 0.780211 0.193989
O O13 0.611299 0.497271 0.061458
O O14 0.844510 0.470002 0.170785
O O15 0.825290 0.235097 0.019511
O O16 0.000000 0.500000 0.000000
O O17 0.500000 0.500000 0.500000
O O18 0.500000 0.000000 0.500000
#
# Coordination Sequence:
#
# PCOD9059046 Si02
#       8
#     2   2   2   2   2   2   2   2
#     4  11  25  42  73 101 141 187 241 301 369 437
#     4  12  24  39  65 101 135 182 238 295 376 437
#     4  12  23  40  62 100 142 181 228 299 366 444
#     4   9  21  44  73  97 142 187 242 301 361 437
#     4  11  23  42  66  94 139 181 235 301 367 434
#     4   9  20  44  69  96 134 188 241 297 362 437
#     4  11  26  49  77 112 147 194 250 306 370 444
#     4  11  23  40  64  98 134 182 231 295 365 440
#
# _framework density 25.817964
#
# number of rings (size 3 to 8) (size 9 to 14) (size 15 to 20)
#    0.000    1.250    2.500    2.625    3.500    2.000 
#    4.500    0.625    5.500    0.000    0.000    0.000 
#    0.000    0.000    0.000    0.000    0.000    0.000 
#
# Total GULP energy -89427.865086 kJ/mol
# GULP energy per Si atom -5589.241568 kJ/mol
# Density = 2.575920 g / cm^3
# Si number density = 25.817964 Si / 1000 Ang^3
#
#
#
# Elastic Constant Matrix: (Units=GPa)
#
#
# Indices 1 2 3 4 5 6 
#
# 1 156.3583 23.3226 56.0712 10.4999 22.9921 41.9346
# 2 23.3226 64.7619 39.5728 -2.5171 -10.7589 16.5508
# 3 56.0712 39.5728 178.8187 -1.5835 -18.2456 13.7542
# 4 10.4999 -2.5171 -1.5835 40.1038 10.7748 7.1964
# 5 22.9921 -10.7589 -18.2456 10.7748 50.4992 7.9374
# 6 41.9346 16.5508 13.7542 7.1964 7.9374 32.2581
#
#
#
# Elastic Compliance Matrix: (Units=1/GPa)
#
#
# Indices 1 2 3 4 5 6 
#
# 1 0.011534 0.000334 -0.003148 0.000354 -0.004377 -0.012825
# 2 0.000334 0.021141 -0.003436 0.001937 0.004482 -0.011351
# 3 -0.003148 -0.003436 0.007512 -0.000295 0.003174 0.001937
# 4 0.000354 0.001937 -0.000295 0.027341 -0.004703 -0.006271
# 5 -0.004377 0.004482 0.003174 -0.004703 0.025397 -0.003162
# 6 -0.012825 -0.011351 0.001937 -0.006271 -0.003162 0.054847
#
#
# Mechanical properties :
#
#
# Convention : Reuss Voigt Hill
#
# Bulk Modulus (GPa) = 36.11690 70.87470 53.49580
# Shear Modulus (GPa) = 29.49836 43.30371 36.40104
#
# Velocity S-wave (km/s) = 3.38383 4.09989 3.75895
# Velocity P-wave (km/s) = 5.41170 7.06565 6.29325
#
# Compressibility (1/GPa) = 0.02768787
#
# Stress axis : x y z
#
# Youngs Moduli (GPa) = 86.70001 47.30146 133.12375
#
# Poissons Ratio (x) = -0.01579 0.41902
# Poissons Ratio (y) = -0.02894 0.45737
# Poissons Ratio (z) = 0.27289 0.16251
#
# Static dielectric constant tensor:
#      x y z
#    x 2.134230 0.059420 -0.011040 
#    y 0.059420 2.072190 0.067210 
#    z -0.011040 0.067210 2.045600 
# 
# From -- ./inp_files/409865.got.cif
#   From: 2010.05.17/outbox.cif.g08.bks.cpg/sg2_205_cif.got.tgz:409865.got - 2010.06.03 11:33:40.
