data_PCOD9059624
_publ_section_title
;
Structure prediction by ZEFSAII (Michael W. Deem and Ramdas Pophale) SiO2 
 PCOD9059624
Probable space group: P -1
;
_chemical_formula_sum "Si O2"
_cell_formula_units_Z 12
_cell_length_a 6.325507
_cell_length_b 20.983920
_cell_length_c 5.773323
_cell_angle_alpha 95.847651
_cell_angle_beta 104.430341
_cell_angle_gamma 130.531552
_cell_volume 526.582883
_symmetry_space_group_name_H-M "P -1"
_symmetry_group_IT_number 2
_symmetry_cell_setting 'triclinic'
loop_
_space_group_symop_operation_xyz
x,y,z
-x,-y,-z
loop_
_atom_site_type_symbol
_atom_site_label
_atom_site_fract_x
_atom_site_fract_y
_atom_site_fract_z
Si Si1 0.081559 0.632855 0.643385
Si Si2 0.851075 0.222104 0.519773
Si Si3 0.703263 0.891952 0.349705
Si Si4 0.747254 0.768792 0.062219
Si Si5 0.708839 0.103127 0.068427
Si Si6 0.840153 0.538048 0.039385
O O1 0.065345 0.704727 0.603694
O O2 0.998701 0.583882 0.353167
O O3 0.432428 0.688963 0.821486
O O4 0.905977 0.584298 0.820709
O O5 0.509730 0.156688 0.500827
O O6 0.837671 0.152267 0.362506
O O7 0.108677 0.265757 0.800395
O O8 0.713980 0.820784 0.247649
O O9 0.497264 0.884597 0.097810
O O10 0.000000 0.000000 0.500000
O O11 0.002999 0.849108 0.993421
O O12 0.500000 0.000000 0.000000
O O13 0.500000 0.500000 0.000000
O O14 0.000000 0.500000 0.000000
#
# Coordination Sequence:
#
# PCOD9059624 Si02
#       6
#     2   2   2   2   2   2
#     4  12  28  52  86 118 162 207 263 339 398 507
#     4  11  26  44  69 109 149 202 273 318 399 456
#     4  11  23  42  63  98 151 209 270 328 384 451
#     4  11  26  44  70 107 150 205 265 326 394 457
#     4  11  24  39  65 102 148 208 270 329 381 454
#     4  12  31  59  90 128 165 210 259 330 430 515
#
# _framework density 22.788436999999998
#
# number of rings (size 3 to 8) (size 9 to 14) (size 15 to 20)
#    0.000    0.667    1.667    4.000   11.667    4.000 
#    0.000    0.000    0.000    0.000    0.000    0.000 
#    0.000    0.000    0.000    0.000    0.000    0.000 
#
# Total GULP energy -66812.509958 kJ/mol
# GULP energy per Si atom -5567.709163 kJ/mol
# Density = 2.273657 g / cm^3
# Si number density = 22.788437 Si / 1000 Ang^3
#
#
#
# Elastic Constant Matrix: (Units=GPa)
#
#
# Indices 1 2 3 4 5 6 
#
# 1 128.5279 61.5219 71.6540 6.3299 -6.2153 36.4939
# 2 61.5219 124.3332 69.7496 -35.8098 6.2494 2.9434
# 3 71.6540 69.7496 165.1698 11.2150 -13.0858 30.0148
# 4 6.3299 -35.8098 11.2150 44.6600 4.6225 0.2612
# 5 -6.2153 6.2494 -13.0858 4.6225 32.3627 5.4019
# 6 36.4939 2.9434 30.0148 0.2612 5.4019 34.0104
#
#
#
# Elastic Compliance Matrix: (Units=1/GPa)
#
#
# Indices 1 2 3 4 5 6 
#
# 1 0.053990 -0.065822 0.030140 -0.073744 0.060467 -0.087873
# 2 -0.065822 0.106078 -0.053724 0.116680 -0.091974 0.122572
# 3 0.030140 -0.053724 0.036027 -0.061249 0.050673 -0.067063
# 4 -0.073744 0.116680 -0.061249 0.151977 -0.106337 0.138806
# 5 0.060467 -0.091974 0.050673 -0.106337 0.115852 -0.119227
# 6 -0.087873 0.122572 -0.067063 0.138806 -0.119227 0.190140
#
#
# Mechanical properties :
#
#
# Convention : Reuss Voigt Hill
#
# Bulk Modulus (GPa) = 57.86089 91.54244 74.70167
# Shear Modulus (GPa) = 5.96206 36.54697 21.25451
#
# Velocity S-wave (km/s) = 1.61924 4.00903 3.05731
# Velocity P-wave (km/s) = 5.37973 7.85414 6.73161
#
# Compressibility (1/GPa) = 0.01728283
#
# Stress axis : x y z
#
# Youngs Moduli (GPa) = 18.52181 9.42703 27.75731
#
# Poissons Ratio (x) = 0.62050 -0.83660
# Poissons Ratio (y) = 1.21914 1.49124
# Poissons Ratio (z) = -0.55825 0.50646
#
# Static dielectric constant tensor:
#      x y z
#    x 1.219710 -0.064340 -0.035810 
#    y -0.064340 1.853030 -0.015330 
#    z -0.035810 -0.015330 1.906280 
# 
# From -- ./inp_files/3227.got.cif
#   From: 2010.05.17/outbox.cif.g08.bks.cpg/sg2_2_cif.got.tgz:3227.got - 2010.06.03 11:33:40.
