data_PCOD9059674
_publ_section_title
;
Structure prediction by ZEFSAII (Michael W. Deem and Ramdas Pophale) SiO2 
 PCOD9059674
Probable space group: P -1
;
_chemical_formula_sum "Si O2"
_cell_formula_units_Z 14
_cell_length_a 10.034532
_cell_length_b 9.585320
_cell_length_c 18.512188
_cell_angle_alpha 41.947446
_cell_angle_beta 143.277917
_cell_angle_gamma 113.598233
_cell_volume 620.396898
_symmetry_space_group_name_H-M "P -1"
_symmetry_group_IT_number 2
_symmetry_cell_setting 'triclinic'
loop_
_space_group_symop_operation_xyz
x,y,z
-x,-y,-z
loop_
_atom_site_type_symbol
_atom_site_label
_atom_site_fract_x
_atom_site_fract_y
_atom_site_fract_z
Si Si1 0.904976 0.771835 0.015394
Si Si2 0.586050 0.283076 0.676767
Si Si3 0.124712 0.556260 0.463407
Si Si4 0.909549 0.725943 0.780741
Si Si5 0.617816 0.294616 0.943028
Si Si6 0.325347 0.116083 0.968836
Si Si7 0.381049 0.776837 0.586381
O O1 0.776623 0.822152 0.019085
O O2 0.191243 0.725336 0.171857
O O3 0.930332 0.535899 0.082523
O O4 0.728840 0.022137 0.801826
O O5 0.500000 0.500000 0.500000
O O6 0.337287 0.334798 0.594837
O O7 0.268036 0.696519 0.501066
O O8 0.000000 0.500000 0.500000
O O9 0.901681 0.718941 0.248469
O O10 0.656993 0.745544 0.699282
O O11 0.810056 0.941597 0.596261
O O12 0.096386 0.752892 0.907621
O O13 0.547247 0.180415 0.023732
O O14 0.430045 0.578055 0.744283
O O15 0.592437 0.151419 0.918964
#
# Coordination Sequence:
#
# PCOD9059674 Si02
#       7
#     2   2   2   2   2   2   2
#     4  11  25  43  66 101 136 174 226 278 341 408
#     4  11  24  42  68  98 139 177 223 281 345 399
#     4  12  22  42  73 101 132 178 235 285 328 398
#     4  11  25  42  65  96 137 180 219 275 341 408
#     4  11  24  43  66  98 134 177 227 276 337 397
#     4  11  24  42  71 100 133 178 230 283 336 400
#     4  11  23  42  66  97 133 177 226 277 335 402
#
# _framework density 22.566199000000001
#
# number of rings (size 3 to 8) (size 9 to 14) (size 15 to 20)
#    0.000    0.857    5.714    1.286    4.000    1.714 
#    0.000    0.714    0.000    0.000    0.000    0.000 
#    0.000    0.000    0.000    0.000    0.000    0.000 
#
# Total GULP energy -78329.355469 kJ/mol
# GULP energy per Si atom -5594.953962 kJ/mol
# Density = 2.251484 g / cm^3
# Si number density = 22.566199 Si / 1000 Ang^3
#
#
#
# Elastic Constant Matrix: (Units=GPa)
#
#
# Indices 1 2 3 4 5 6 
#
# 1 92.5456 20.1581 32.5348 -14.7400 -0.1986 7.8160
# 2 20.1581 92.3814 43.4774 -22.7120 4.8800 21.8802
# 3 32.5348 43.4774 152.1432 -36.3979 -5.0325 6.6716
# 4 -14.7400 -22.7120 -36.3979 51.8406 8.2872 6.7914
# 5 -0.1986 4.8800 -5.0325 8.2872 36.9982 -2.1628
# 6 7.8160 21.8802 6.6716 6.7914 -2.1628 24.5996
#
#
#
# Elastic Compliance Matrix: (Units=1/GPa)
#
#
# Indices 1 2 3 4 5 6 
#
# 1 0.012264 -0.000048 -0.001744 0.002978 -0.001083 -0.004298
# 2 -0.000048 0.019784 -0.002405 0.010688 -0.006527 -0.020454
# 3 -0.001744 -0.002405 0.008813 0.004700 0.000398 -0.000959
# 4 0.002978 0.010688 0.004700 0.032417 -0.009272 -0.021492
# 5 -0.001083 -0.006527 0.000398 -0.009272 0.030675 0.011298
# 6 -0.004298 -0.020454 -0.000959 -0.021492 0.011298 0.067396
#
#
# Mechanical properties :
#
#
# Convention : Reuss Voigt Hill
#
# Bulk Modulus (GPa) = 30.80103 58.82341 44.81222
# Shear Modulus (GPa) = 26.23783 38.74770 32.49276
#
# Velocity S-wave (km/s) = 3.41354 4.14825 3.79870
# Velocity P-wave (km/s) = 5.40511 7.00483 6.25631
#
# Compressibility (1/GPa) = 0.03246644
#
# Stress axis : x y z
#
# Youngs Moduli (GPa) = 81.53961 50.54594 113.47396
#
# Poissons Ratio (x) = 0.00242 0.19787
# Poissons Ratio (y) = 0.00391 0.27295
# Poissons Ratio (z) = 0.14219 0.12158
#
# Static dielectric constant tensor:
#      x y z
#    x 1.842910 0.021270 -0.031830 
#    y 0.021270 1.840930 -0.027340 
#    z -0.031830 -0.027340 1.898780 
# 
# From -- ./inp_files/593985.got.cif
#   From: 2010.05.17/outbox.cif.g08.bks.cpg/sg2_297_cif.got.tgz:593985.got - 2010.06.03 11:33:40.
