data_PCOD9059618
_publ_section_title
;
Structure prediction by ZEFSAII (Michael W. Deem and Ramdas Pophale) SiO2 
 PCOD9059618
Probable space group: P -1
;
_chemical_formula_sum "Si O2"
_cell_formula_units_Z 16
_cell_length_a 25.367972
_cell_length_b 25.475906
_cell_length_c 16.379481
_cell_angle_alpha 158.491110
_cell_angle_beta 22.248165
_cell_angle_gamma 168.631247
_cell_volume 751.707503
_symmetry_space_group_name_H-M "P -1"
_symmetry_group_IT_number 2
_symmetry_cell_setting 'triclinic'
loop_
_space_group_symop_operation_xyz
x,y,z
-x,-y,-z
loop_
_atom_site_type_symbol
_atom_site_label
_atom_site_fract_x
_atom_site_fract_y
_atom_site_fract_z
Si Si1 0.360682 0.939872 0.408067
Si Si2 0.908607 0.267589 0.329289
Si Si3 0.115522 0.659202 0.847260
Si Si4 0.493896 0.322017 0.960819
Si Si5 0.490281 0.596862 0.475220
Si Si6 0.721529 0.303147 0.157205
Si Si7 0.000980 0.126547 0.615229
Si Si8 0.709988 0.800273 0.101870
O O1 0.233438 0.827158 0.517478
O O2 0.172197 0.668766 0.233298
O O3 0.674194 0.174539 0.288098
O O4 0.337314 0.085122 0.626403
O O5 0.000000 0.500000 0.500000
O O6 0.197944 0.440211 0.165518
O O7 0.678377 0.968177 0.180350
O O8 0.244997 0.694500 0.791209
O O9 0.079408 0.793318 0.113662
O O10 0.501468 0.458197 0.210033
O O11 0.328401 0.219967 0.969420
O O12 0.365026 0.613331 0.623163
O O13 0.293560 0.403530 0.554983
O O14 0.784746 0.900884 0.527235
O O15 0.000000 0.500000 0.000000
O O16 0.500000 0.000000 0.000000
O O17 0.000000 0.000000 0.500000
O O18 0.500000 0.500000 0.000000
O O19 0.000000 0.000000 0.000000
#
# Coordination Sequence:
#
# PCOD9059618 Si02
#       8
#     2   2   2   2   2   2   2   2
#     4  11  25  41  67 100 134 173 228 271 330 404
#     4  11  24  47  70  96 136 178 227 287 332 390
#     4  12  24  44  67 102 137 178 228 273 342 404
#     4  11  25  43  68 102 132 172 231 274 331 407
#     4  12  25  46  70 102 137 180 229 275 345 407
#     4  12  23  44  70  96 140 182 222 285 331 402
#     4  12  27  47  69  99 141 178 225 287 337 402
#     4  11  23  42  62  95 138 173 211 270 331 394
#
# _framework density 21.284873999999999
#
# number of rings (size 3 to 8) (size 9 to 14) (size 15 to 20)
#    0.000    0.500    2.500    6.750    3.500    3.000 
#    0.000    0.000    0.000    0.000    0.000    0.000 
#    0.000    0.000    0.000    0.000    0.000    0.000 
#
# Total GULP energy -89547.859062 kJ/mol
# GULP energy per Si atom -5596.741191 kJ/mol
# Density = 2.123643 g / cm^3
# Si number density = 21.284874 Si / 1000 Ang^3
#
#
#
# Elastic Constant Matrix: (Units=GPa)
#
#
# Indices 1 2 3 4 5 6 
#
# 1 46.5146 -0.4265 39.5001 1.0503 -18.3858 -15.8136
# 2 -0.4265 126.2247 26.8891 8.5414 2.0889 -5.5116
# 3 39.5001 26.8891 135.7996 20.1389 4.3891 -3.7267
# 4 1.0503 8.5414 20.1389 51.8637 -5.1776 2.1114
# 5 -18.3858 2.0889 4.3891 -5.1776 27.4658 7.2899
# 6 -15.8136 -5.5116 -3.7267 2.1114 7.2899 41.0108
#
#
#
# Elastic Compliance Matrix: (Units=1/GPa)
#
#
# Indices 1 2 3 4 5 6 
#
# 1 0.059659 0.003840 -0.020491 0.009651 0.041059 0.013863
# 2 0.003840 0.008611 -0.002771 -0.000331 0.001740 0.002094
# 3 -0.020491 -0.002771 0.015263 -0.006523 -0.016201 -0.003671
# 4 0.009651 -0.000331 -0.006523 0.022869 0.011894 -0.000208
# 5 0.041059 0.001740 -0.016201 0.011894 0.068094 0.001877
# 6 0.013863 0.002094 -0.003671 -0.000208 0.001877 0.029354
#
#
# Mechanical properties :
#
#
# Convention : Reuss Voigt Hill
#
# Bulk Modulus (GPa) = 22.37792 48.94049 35.65920
# Shear Modulus (GPa) = 19.41048 40.23981 29.82514
#
# Velocity S-wave (km/s) = 3.02311 4.35275 3.74737
# Velocity P-wave (km/s) = 4.76675 6.95017 5.95931
#
# Compressibility (1/GPa) = 0.04468691
#
# Stress axis : x y z
#
# Youngs Moduli (GPa) = 16.76184 116.13350 65.51753
#
# Poissons Ratio (x) = -0.44590 1.34253
# Poissons Ratio (y) = -0.06436 0.18158
# Poissons Ratio (z) = 0.34347 0.32186
#
# Static dielectric constant tensor:
#      x y z
#    x 1.784300 0.006710 -0.021590 
#    y 0.006710 1.717340 0.020740 
#    z -0.021590 0.020740 1.728180 
# 
# From -- ./inp_files/579963.got.cif
#   From: 2010.05.17/outbox.cif.g08.bks.cpg/sg2_290_cif.got.tgz:579963.got - 2010.06.03 11:33:40.
