data_PCOD9059925
_publ_section_title
;
Structure prediction by ZEFSAII (Michael W. Deem and Ramdas Pophale) SiO2 
 PCOD9059925
Probable space group: P -1
;
_chemical_formula_sum "Si O2"
_cell_formula_units_Z 14
_cell_length_a 6.736036
_cell_length_b 10.551585
_cell_length_c 13.851077
_cell_angle_alpha 45.497643
_cell_angle_beta 54.012018
_cell_angle_gamma 58.665760
_cell_volume 558.072958
_symmetry_space_group_name_H-M "P -1"
_symmetry_group_IT_number 2
_symmetry_cell_setting 'triclinic'
loop_
_space_group_symop_operation_xyz
x,y,z
-x,-y,-z
loop_
_atom_site_type_symbol
_atom_site_label
_atom_site_fract_x
_atom_site_fract_y
_atom_site_fract_z
Si Si1 0.058170 0.014931 0.089352
Si Si2 0.483513 0.357882 0.495883
Si Si3 0.288938 0.049780 0.619924
Si Si4 0.962247 0.695612 0.605984
Si Si5 0.245286 0.597538 0.278109
Si Si6 0.766158 0.668161 0.055384
Si Si7 0.277569 0.388857 0.107321
O O1 0.169026 0.809434 0.195009
O O2 0.848657 0.074678 0.203328
O O3 0.241508 0.157490 0.969650
O O4 0.000000 0.000000 0.000000
O O5 0.500000 0.500000 0.500000
O O6 0.393345 0.168803 0.609555
O O7 0.271667 0.481924 0.427671
O O8 0.777272 0.303921 0.417102
O O9 0.082355 0.175004 0.542839
O O10 0.500000 0.000000 0.500000
O O11 0.926650 0.492421 0.695755
O O12 0.748452 0.735271 0.727063
O O13 0.539024 0.560875 0.186523
O O14 0.718746 0.731401 0.924837
O O15 0.024805 0.537073 0.079182
O O16 0.500000 0.500000 0.000000
#
# Coordination Sequence:
#
# PCOD9059925 Si02
#       7
#     2   2   2   2   2   2   2
#     4  12  28  47  72 102 152 194 238 301 365 427
#     4  11  24  45  77  97 137 188 242 298 360 423
#     4  11  29  48  69 109 149 187 244 299 362 438
#     4  11  23  45  74 100 139 188 237 297 358 425
#     4  11  23  45  69 105 137 181 248 296 347 437
#     4  11  25  41  70 104 144 184 240 293 361 431
#     4  11  23  42  71 104 139 188 239 293 360 428
#
# _framework density 25.086328000000002
#
# number of rings (size 3 to 8) (size 9 to 14) (size 15 to 20)
#    0.000    0.857    2.857    3.000    6.000    2.857 
#    5.143    0.000    0.000    0.000    0.000    0.000 
#    0.000    0.000    0.000    0.000    0.000    0.000 
#
# Total GULP energy -77998.654420 kJ/mol
# GULP energy per Si atom -5571.332459 kJ/mol
# Density = 2.502923 g / cm^3
# Si number density = 25.086328 Si / 1000 Ang^3
#
#
#
# Elastic Constant Matrix: (Units=GPa)
#
#
# Indices 1 2 3 4 5 6 
#
# 1 129.6522 4.3204 47.8257 3.5984 -13.8662 14.8757
# 2 4.3204 32.9110 -10.9905 0.9345 7.5547 0.8687
# 3 47.8257 -10.9905 95.5600 19.4284 5.7855 -4.1414
# 4 3.5984 0.9345 19.4284 35.5037 6.3810 -3.4095
# 5 -13.8662 7.5547 5.7855 6.3810 44.2738 11.3710
# 6 14.8757 0.8687 -4.1414 -3.4095 11.3710 50.1953
#
#
#
# Elastic Compliance Matrix: (Units=1/GPa)
#
#
# Indices 1 2 3 4 5 6 
#
# 1 0.012061 -0.005617 -0.007611 0.001298 0.006981 -0.005598
# 2 -0.005617 0.036056 0.008272 -0.002839 -0.009531 0.003689
# 3 -0.007611 0.008272 0.017289 -0.007381 -0.006127 0.004426
# 4 0.001298 -0.002839 -0.007381 0.032963 -0.003427 0.002071
# 5 0.006981 -0.009531 -0.006127 -0.003427 0.030125 -0.009467
# 6 -0.005598 0.003689 0.004426 0.002071 -0.009467 0.024168
#
#
# Mechanical properties :
#
#
# Convention : Reuss Voigt Hill
#
# Bulk Modulus (GPa) = 18.02029 37.82605 27.92317
# Shear Modulus (GPa) = 27.61354 40.45906 34.03630
#
# Velocity S-wave (km/s) = 3.32134 4.02032 3.68743
# Velocity P-wave (km/s) = 4.68052 6.05489 5.41152
#
# Compressibility (1/GPa) = 0.05549300
#
# Stress axis : x y z
#
# Youngs Moduli (GPa) = 82.91439 27.73491 57.84152
#
# Poissons Ratio (x) = 0.15578 0.44025
# Poissons Ratio (y) = 0.46570 -0.47846
# Poissons Ratio (z) = 0.63108 -0.22942
#
# Static dielectric constant tensor:
#      x y z
#    x 2.463820 0.626970 -0.365050 
#    y 0.626970 3.348160 -0.761430 
#    z -0.365050 -0.761430 2.955430 
# 
# From -- ./inp_files/126883.got.cif
#   From: 2010.05.17/outbox.cif.g08.bks.cpg/sg2_64_cif.got.tgz:126883.got - 2010.06.03 11:33:40.
