data_PCOD9059749
_publ_section_title
;
Structure prediction by ZEFSAII (Michael W. Deem and Ramdas Pophale) SiO2 
 PCOD9059749
Probable space group: P -1
;
_chemical_formula_sum "Si O2"
_cell_formula_units_Z 16
_cell_length_a 9.640886
_cell_length_b 9.390861
_cell_length_c 13.816579
_cell_angle_alpha 64.583507
_cell_angle_beta 131.609274
_cell_angle_gamma 124.628940
_cell_volume 766.862950
_symmetry_space_group_name_H-M "P -1"
_symmetry_group_IT_number 2
_symmetry_cell_setting 'triclinic'
loop_
_space_group_symop_operation_xyz
x,y,z
-x,-y,-z
loop_
_atom_site_type_symbol
_atom_site_label
_atom_site_fract_x
_atom_site_fract_y
_atom_site_fract_z
Si Si1 0.191829 0.364344 0.931319
Si Si2 0.635247 0.059353 0.950805
Si Si3 0.320430 0.746579 0.787835
Si Si4 0.849119 0.400832 0.872537
Si Si5 0.366790 0.389743 0.382765
Si Si6 0.978200 0.962978 0.189834
Si Si7 0.005437 0.920816 0.628504
Si Si8 0.591894 0.744796 0.759336
O O1 0.279825 0.562991 0.874305
O O2 0.142905 0.220236 0.866720
O O3 0.970032 0.326886 0.881153
O O4 0.321667 0.338562 0.089315
O O5 0.650850 0.241749 0.867470
O O6 0.528793 0.902164 0.875197
O O7 0.500000 0.000000 0.000000
O O8 0.863935 0.083429 0.070435
O O9 0.147436 0.814325 0.714345
O O10 0.382320 0.741669 0.706317
O O11 0.785193 0.528735 0.746649
O O12 0.000000 0.500000 0.000000
O O13 0.500000 0.500000 0.500000
O O14 0.461825 0.363178 0.333998
O O15 0.224898 0.205740 0.414876
O O16 0.938461 0.950124 0.290758
O O17 0.214559 0.071404 0.233185
O O18 0.000000 0.000000 0.500000
#
# Coordination Sequence:
#
# PCOD9059749 Si02
#       8
#     2   2   2   2   2   2   2   2
#     4  12  22  40  69 104 138 171 217 286 346 398
#     4  12  23  35  67 103 133 175 223 270 346 403
#     4  12  25  41  67 105 136 170 224 284 342 404
#     4  12  22  42  70  97 140 179 227 285 339 402
#     4  11  26  46  69  96 135 187 230 273 345 410
#     4  11  23  43  67  99 140 176 216 281 345 401
#     4  11  26  50  66  92 136 183 230 279 334 409
#     4  11  23  42  68 101 140 173 222 282 343 407
#
# _framework density 20.864224
#
# number of rings (size 3 to 8) (size 9 to 14) (size 15 to 20)
#    0.000    0.500    6.250    3.000    1.750    1.000 
#    2.250    2.500    0.000    0.000    0.000    0.000 
#    0.000    0.000    0.000    0.000    0.000    0.000 
#
# Total GULP energy -89268.364830 kJ/mol
# GULP energy per Si atom -5579.272802 kJ/mol
# Density = 2.081674 g / cm^3
# Si number density = 20.864224 Si / 1000 Ang^3
#
#
#
# Elastic Constant Matrix: (Units=GPa)
#
#
# Indices 1 2 3 4 5 6 
#
# 1 113.8827 21.1964 27.9780 6.9460 -36.2235 -9.6103
# 2 21.1964 105.0444 54.5172 4.0371 -28.5627 -2.8462
# 3 27.9780 54.5172 111.7433 14.7276 -40.0885 -11.0101
# 4 6.9460 4.0371 14.7276 38.5815 -0.0097 -13.3556
# 5 -36.2235 -28.5627 -40.0885 -0.0097 34.3323 4.4403
# 6 -9.6103 -2.8462 -11.0101 -13.3556 4.4403 36.3736
#
#
#
# Elastic Compliance Matrix: (Units=1/GPa)
#
#
# Indices 1 2 3 4 5 6 
#
# 1 0.014466 0.000748 0.003905 -0.003749 0.020287 0.001209
# 2 0.000748 0.013522 -0.004273 -0.000267 0.007180 -0.001012
# 3 0.003905 -0.004273 0.019402 -0.007283 0.023078 0.001079
# 4 -0.003749 -0.000267 -0.007283 0.033084 -0.014049 0.010647
# 5 0.020287 0.007180 0.023078 -0.014049 0.083767 -0.002477
# 6 0.001209 -0.001012 0.001079 0.010647 -0.002477 0.032271
#
#
# Mechanical properties :
#
#
# Convention : Reuss Voigt Hill
#
# Bulk Modulus (GPa) = 20.76955 59.78375 40.27665
# Shear Modulus (GPa) = 23.60688 36.98938 30.29813
#
# Velocity S-wave (km/s) = 3.36736 4.21510 3.81485
# Velocity P-wave (km/s) = 5.00949 7.23916 6.22497
#
# Compressibility (1/GPa) = 0.04814741
#
# Stress axis : x y z
#
# Youngs Moduli (GPa) = 69.12762 73.95585 51.54237
#
# Poissons Ratio (x) = -0.05529 -0.20125
# Poissons Ratio (y) = -0.05168 0.22024
# Poissons Ratio (z) = -0.26991 0.31601
#
# Static dielectric constant tensor:
#      x y z
#    x 1.864710 -0.091810 -0.052360 
#    y -0.091810 1.840060 0.062800 
#    z -0.052360 0.062800 1.779250 
# 
# From -- ./inp_files/296243.got.cif
#   From: 2010.05.17/outbox.cif.g08.bks.cpg/sg2_149_cif.got.tgz:296243.got - 2010.06.03 11:33:40.
