data_PCOD9059879
_publ_section_title
;
Structure prediction by ZEFSAII (Michael W. Deem and Ramdas Pophale) SiO2 
 PCOD9059879
Probable space group: P -1
;
_chemical_formula_sum "Si O2"
_cell_formula_units_Z 14
_cell_length_a 11.886323
_cell_length_b 17.180230
_cell_length_c 9.654126
_cell_angle_alpha 42.032472
_cell_angle_beta 127.668319
_cell_angle_gamma 152.757445
_cell_volume 596.376971
_symmetry_space_group_name_H-M "P -1"
_symmetry_group_IT_number 2
_symmetry_cell_setting 'triclinic'
loop_
_space_group_symop_operation_xyz
x,y,z
-x,-y,-z
loop_
_atom_site_type_symbol
_atom_site_label
_atom_site_fract_x
_atom_site_fract_y
_atom_site_fract_z
Si Si1 0.689213 0.813487 0.906493
Si Si2 0.108328 0.200366 0.524907
Si Si3 0.114626 0.292792 0.803027
Si Si4 0.413676 0.010415 0.285650
Si Si5 0.825242 0.325427 0.980813
Si Si6 0.847803 0.650879 0.929246
Si Si7 0.394985 0.590460 0.401541
O O1 0.586580 0.849547 0.876508
O O2 0.440204 0.580506 0.978889
O O3 0.847342 0.811650 0.090255
O O4 0.852186 0.985529 0.683136
O O5 0.219878 0.388283 0.441882
O O6 0.322634 0.247404 0.639147
O O7 0.095627 0.227608 0.318461
O O8 0.094521 0.262747 0.990524
O O9 0.345573 0.519028 0.616673
O O10 0.872905 0.199430 0.691662
O O11 0.500000 0.000000 0.500000
O O12 0.608304 0.110298 0.181036
O O13 0.691049 0.337816 0.781944
O O14 0.989166 0.353941 0.970865
O O15 0.000000 0.500000 0.000000
#
# Coordination Sequence:
#
# PCOD9059879 Si02
#       7
#     2   2   2   2   2   2   2
#     4  12  24  45  76 101 141 190 233 278 355 416
#     4  11  23  43  73 102 138 183 237 288 337 423
#     4  12  27  46  70 107 144 178 233 299 346 409
#     4  12  25  46  74 105 135 187 241 286 341 427
#     4  12  23  44  71  99 139 190 230 282 352 416
#     4  12  27  48  68 105 150 179 229 295 354 406
#     4  11  23  42  70 105 139 181 239 289 338 414
#
# _framework density 23.475083000000001
#
# number of rings (size 3 to 8) (size 9 to 14) (size 15 to 20)
#    0.000    0.286    5.714    3.429    2.000    1.714 
#    2.571    0.000    0.000    0.000    0.000    0.000 
#    0.000    0.000    0.000    0.000    0.000    0.000 
#
# Total GULP energy -78406.753846 kJ/mol
# GULP energy per Si atom -5600.482418 kJ/mol
# Density = 2.342165 g / cm^3
# Si number density = 23.475083 Si / 1000 Ang^3
#
#
#
# Elastic Constant Matrix: (Units=GPa)
#
#
# Indices 1 2 3 4 5 6 
#
# 1 105.3002 26.2799 39.7416 8.2997 -2.5917 26.5121
# 2 26.2799 46.8438 16.3600 -9.6308 -11.9319 31.0772
# 3 39.7416 16.3600 138.0593 9.1481 -9.7839 13.8178
# 4 8.2997 -9.6308 9.1481 33.5434 8.5461 -7.6226
# 5 -2.5917 -11.9319 -9.7839 8.5461 43.9779 2.3105
# 6 26.5121 31.0772 13.8178 -7.6226 2.3105 37.5787
#
#
#
# Elastic Compliance Matrix: (Units=1/GPa)
#
#
# Indices 1 2 3 4 5 6 
#
# 1 0.013388 -0.002344 -0.002362 -0.005390 0.001085 -0.007798
# 2 -0.002344 0.060154 -0.000455 0.002303 0.018186 -0.048577
# 3 -0.002362 -0.000455 0.008509 -0.002858 0.002281 -0.001806
# 4 -0.005390 0.002303 -0.002858 0.037153 -0.008126 0.010985
# 5 0.001085 0.018186 0.002281 -0.008126 0.030884 -0.020191
# 6 -0.007798 -0.048577 -0.001806 0.010985 -0.020191 0.076419
#
#
# Mechanical properties :
#
#
# Convention : Reuss Voigt Hill
#
# Bulk Modulus (GPa) = 13.94146 50.55183 32.24664
# Shear Modulus (GPa) = 19.17623 36.87479 28.02551
#
# Velocity S-wave (km/s) = 2.86121 3.96764 3.45895
# Velocity P-wave (km/s) = 4.10695 6.52461 5.45149
#
# Compressibility (1/GPa) = 0.07172851
#
# Stress axis : x y z
#
# Youngs Moduli (GPa) = 74.69383 16.62387 117.52531
#
# Poissons Ratio (x) = 0.03897 0.27754
# Poissons Ratio (y) = 0.17512 0.05352
# Poissons Ratio (z) = 0.17639 0.00757
#
# Static dielectric constant tensor:
#      x y z
#    x 1.863430 -0.026690 -0.017840 
#    y -0.026690 1.958730 0.012820 
#    z -0.017840 0.012820 1.868960 
# 
# From -- ./inp_files/158583.got.cif
#   From: 2010.05.17/outbox.cif.g08.bks.cpg/sg2_80_cif.got.tgz:158583.got - 2010.06.03 11:33:40.
