data_PCOD9059582
_publ_section_title
;
Structure prediction by ZEFSAII (Michael W. Deem and Ramdas Pophale) SiO2 
 PCOD9059582
Probable space group: P -1
;
_chemical_formula_sum "Si O2"
_cell_formula_units_Z 16
_cell_length_a 20.516266
_cell_length_b 11.413234
_cell_length_c 17.204214
_cell_angle_alpha 31.013717
_cell_angle_beta 21.488619
_cell_angle_gamma 42.449492
_cell_volume 721.443056
_symmetry_space_group_name_H-M "P -1"
_symmetry_group_IT_number 2
_symmetry_cell_setting 'triclinic'
loop_
_space_group_symop_operation_xyz
x,y,z
-x,-y,-z
loop_
_atom_site_type_symbol
_atom_site_label
_atom_site_fract_x
_atom_site_fract_y
_atom_site_fract_z
Si Si1 0.514663 0.667909 0.812272
Si Si2 0.566944 0.224487 0.719895
Si Si3 0.159412 0.239786 0.165992
Si Si4 0.404053 0.682452 0.193147
Si Si5 0.815851 0.455138 0.179379
Si Si6 0.997229 0.579456 0.244984
Si Si7 0.897984 0.061814 0.208283
Si Si8 0.124976 0.742179 0.181144
O O1 0.505012 0.507383 0.836382
O O2 0.721235 0.859780 0.481387
O O3 0.500000 0.500000 0.000000
O O4 0.341899 0.777499 0.940883
O O5 0.664576 0.324469 0.636535
O O6 0.648231 0.394087 0.461280
O O7 0.356884 0.209563 0.979849
O O8 0.548115 0.951369 0.873115
O O9 0.127563 0.444983 0.137525
O O10 0.160238 0.321452 0.029907
O O11 0.000000 0.000000 0.500000
O O12 0.207235 0.614645 0.403562
O O13 0.807807 0.226996 0.265132
O O14 0.000000 0.500000 0.000000
O O15 0.091291 0.696687 0.152642
O O16 0.983713 0.775206 0.085220
O O17 0.028982 0.951639 0.178729
O O18 0.000000 0.500000 0.500000
#
# Coordination Sequence:
#
# PCOD9059582 Si02
#       8
#     2   2   2   2   2   2   2   2
#     4  12  24  46  69 104 140 180 238 290 347 421
#     4  11  23  42  69 104 137 189 232 283 356 416
#     4  11  23  43  69 101 136 184 235 285 348 425
#     4  11  23  41  73  96 145 182 227 293 350 415
#     4  11  26  47  69 101 145 180 231 298 352 410
#     4  11  23  46  66 102 141 180 229 293 350 418
#     4  11  25  47  71  97 145 183 229 294 351 416
#     4  12  25  43  71  99 134 185 230 286 354 412
#
# _framework density 22.177772000000001
#
# number of rings (size 3 to 8) (size 9 to 14) (size 15 to 20)
#    0.000    0.750    3.750    3.750    1.750    1.500 
#   13.500    0.000    0.000    0.000    0.000    0.000 
#    0.000    0.000    0.000    0.000    0.000    0.000 
#
# Total GULP energy -89418.621681 kJ/mol
# GULP energy per Si atom -5588.663855 kJ/mol
# Density = 2.212729 g / cm^3
# Si number density = 22.177772 Si / 1000 Ang^3
#
#
#
# Elastic Constant Matrix: (Units=GPa)
#
#
# Indices 1 2 3 4 5 6 
#
# 1 64.6409 7.7186 22.9539 -12.2736 4.4922 -9.5019
# 2 7.7186 79.7171 24.2312 -1.2417 -3.8909 -10.4621
# 3 22.9539 24.2312 102.5763 -1.4369 5.2044 -5.2283
# 4 -12.2736 -1.2417 -1.4369 36.8271 -6.3634 -5.0025
# 5 4.4922 -3.8909 5.2044 -6.3634 48.1052 3.0158
# 6 -9.5019 -10.4621 -5.2283 -5.0025 3.0158 41.3660
#
#
#
# Elastic Compliance Matrix: (Units=1/GPa)
#
#
# Indices 1 2 3 4 5 6 
#
# 1 0.018839 0.000031 -0.003852 0.006638 -0.000757 0.004706
# 2 0.000031 0.014020 -0.003215 0.001033 0.001417 0.003168
# 3 -0.003852 -0.003215 0.011402 -0.001209 -0.001274 -0.000310
# 4 0.006638 0.001033 -0.001209 0.030620 0.003326 0.005094
# 5 -0.000757 0.001417 -0.001274 0.003326 0.021623 -0.001151
# 6 0.004706 0.003168 -0.000310 0.005094 -0.001151 0.026717
#
#
# Mechanical properties :
#
#
# Convention : Reuss Voigt Hill
#
# Bulk Modulus (GPa) = 33.12410 39.63796 36.38103
# Shear Modulus (GPa) = 33.93159 38.06170 35.99665
#
# Velocity S-wave (km/s) = 3.91574 4.14721 4.03314
# Velocity P-wave (km/s) = 5.95081 6.39094 6.17480
#
# Compressibility (1/GPa) = 0.03018950
#
# Stress axis : x y z
#
# Youngs Moduli (GPa) = 53.08169 71.32910 87.70372
#
# Poissons Ratio (x) = -0.00220 0.33780
# Poissons Ratio (y) = -0.00163 0.28193
# Poissons Ratio (z) = 0.20445 0.22929
#
# Static dielectric constant tensor:
#      x y z
#    x 1.974770 0.033380 0.025600 
#    y 0.033380 1.875500 0.014740 
#    z 0.025600 0.014740 1.721870 
# 
# From -- ./inp_files/577911.got.cif
#   From: 2010.05.17/outbox.cif.g08.bks.cpg/sg2_289_cif.got.tgz:577911.got - 2010.06.03 11:33:40.
