data_PCOD9059055
_publ_section_title
;
Structure prediction by ZEFSAII (Michael W. Deem and Ramdas Pophale) SiO2 
 PCOD9059055
Probable space group: P -1
;
_chemical_formula_sum "Si O2"
_cell_formula_units_Z 16
_cell_length_a 5.466954
_cell_length_b 13.994618
_cell_length_c 11.690354
_cell_angle_alpha 46.212071
_cell_angle_beta 83.366042
_cell_angle_gamma 69.320977
_cell_volume 592.984645
_symmetry_space_group_name_H-M "P -1"
_symmetry_group_IT_number 2
_symmetry_cell_setting 'triclinic'
loop_
_space_group_symop_operation_xyz
x,y,z
-x,-y,-z
loop_
_atom_site_type_symbol
_atom_site_label
_atom_site_fract_x
_atom_site_fract_y
_atom_site_fract_z
Si Si1 0.438802 0.728649 0.978409
Si Si2 0.131869 0.751396 0.190589
Si Si3 0.467119 0.004542 0.315278
Si Si4 0.263976 0.001959 0.090673
Si Si5 0.983011 0.491762 0.178565
Si Si6 0.495286 0.724157 0.596686
Si Si7 0.935056 0.239406 0.240093
Si Si8 0.741506 0.411794 0.474920
O O1 0.384121 0.897832 0.826057
O O2 0.244320 0.710522 0.906797
O O3 0.373893 0.683810 0.145360
O O4 0.756750 0.639588 0.023160
O O5 0.056977 0.673127 0.363649
O O6 0.167869 0.883905 0.142510
O O7 0.910686 0.829739 0.045304
O O8 0.325329 0.967561 0.245766
O O9 0.225270 0.114167 0.312054
O O10 0.632376 0.842189 0.481726
O O11 0.500000 0.000000 0.000000
O O12 0.942099 0.377267 0.190391
O O13 0.893263 0.476864 0.326437
O O14 0.303402 0.422880 0.234072
O O15 0.251398 0.806701 0.626074
O O16 0.381429 0.675731 0.529701
O O17 0.500000 0.500000 0.500000
#
# Coordination Sequence:
#
# PCOD9059055 Si02
#       8
#     2   2   2   2   2   2   2   2
#     4  12  25  44  73 104 136 182 233 283 346 411
#     4  11  23  41  67 101 138 175 225 275 343 410
#     4  12  25  43  73 102 138 182 230 288 346 407
#     4  11  23  40  65 103 138 174 220 284 343 404
#     4  11  27  47  70 102 140 183 232 286 343 411
#     4  11  27  47  70 103 140 180 233 287 344 411
#     4  11  26  48  70  98 136 185 237 288 341 406
#     4  11  24  44  71  99 140 182 222 274 347 415
#
# _framework density 26.982149
#
# number of rings (size 3 to 8) (size 9 to 14) (size 15 to 20)
#    0.000    0.750    5.000    1.500    1.750    9.500 
#    0.000    0.000    0.000    0.000    0.000    0.000 
#    0.000    0.000    0.000    0.000    0.000    0.000 
#
# Total GULP energy -89352.534695 kJ/mol
# GULP energy per Si atom -5584.533418 kJ/mol
# Density = 2.692074 g / cm^3
# Si number density = 26.982149 Si / 1000 Ang^3
#
#
#
# Elastic Constant Matrix: (Units=GPa)
#
#
# Indices 1 2 3 4 5 6 
#
# 1 29.4549 4.4873 -8.1165 3.6811 12.7173 -6.4057
# 2 4.4873 110.6260 30.2667 26.2230 7.5665 -0.1263
# 3 -8.1165 30.2667 80.9640 13.9071 4.5119 12.3517
# 4 3.6811 26.2230 13.9071 53.1964 -0.1583 1.2506
# 5 12.7173 7.5665 4.5119 -0.1583 37.1414 10.4236
# 6 -6.4057 -0.1263 12.3517 1.2506 10.4236 47.6842
#
#
#
# Elastic Compliance Matrix: (Units=1/GPa)
#
#
# Indices 1 2 3 4 5 6 
#
# 1 0.046257 -0.001027 0.005447 -0.004387 -0.018845 0.009035
# 2 -0.001027 0.011296 -0.003642 -0.004583 -0.001912 0.001373
# 3 0.005447 -0.003642 0.015220 -0.002505 -0.002234 -0.002666
# 4 -0.004387 -0.004583 -0.002505 0.022054 0.003178 -0.001226
# 5 -0.018845 -0.001912 -0.002234 0.003178 0.036887 -0.010105
# 6 0.009035 0.001373 -0.002666 -0.001226 -0.010105 0.025120
#
#
# Mechanical properties :
#
#
# Convention : Reuss Voigt Hill
#
# Bulk Modulus (GPa) = 13.45371 30.47998 21.96685
# Shear Modulus (GPa) = 27.76918 40.56492 34.16705
#
# Velocity S-wave (km/s) = 3.21155 3.88157 3.56235
# Velocity P-wave (km/s) = 4.33001 5.60444 5.00793
#
# Compressibility (1/GPa) = 0.07432895
#
# Stress axis : x y z
#
# Youngs Moduli (GPa) = 21.61829 88.52510 65.70301
#
# Poissons Ratio (x) = 0.09094 -0.35786
# Poissons Ratio (y) = 0.02221 0.23926
# Poissons Ratio (z) = -0.11775 0.32237
#
# Static dielectric constant tensor:
#      x y z
#    x 2.216720 -0.050080 0.051230 
#    y -0.050080 2.097090 -0.134470 
#    z 0.051230 -0.134470 2.266960 
# 
# From -- ./inp_files/78400.got.cif
#   From: 2010.05.17/outbox.cif.g08.bks.cpg/sg2_40_cif.got.tgz:78400.got - 2010.06.03 11:33:40.
