data_PCOD9059527
_publ_section_title
;
Structure prediction by ZEFSAII (Michael W. Deem and Ramdas Pophale) SiO2 
 PCOD9059527
Probable space group: P -1
;
_chemical_formula_sum "Si O2"
_cell_formula_units_Z 16
_cell_length_a 11.804990
_cell_length_b 14.530703
_cell_length_c 9.290870
_cell_angle_alpha 88.123885
_cell_angle_beta 102.124423
_cell_angle_gamma 151.425237
_cell_volume 704.963817
_symmetry_space_group_name_H-M "P -1"
_symmetry_group_IT_number 2
_symmetry_cell_setting 'triclinic'
loop_
_space_group_symop_operation_xyz
x,y,z
-x,-y,-z
loop_
_atom_site_type_symbol
_atom_site_label
_atom_site_fract_x
_atom_site_fract_y
_atom_site_fract_z
Si Si1 0.524978 0.711802 0.196817
Si Si2 0.236296 0.364258 0.967826
Si Si3 0.434762 0.304747 0.474820
Si Si4 0.208568 0.950112 0.359120
Si Si5 0.549341 0.104786 0.201011
Si Si6 0.020889 0.716797 0.595927
Si Si7 0.299419 0.734860 0.074823
Si Si8 0.956221 0.844829 0.778220
O O1 0.319608 0.521795 0.045323
O O2 0.546793 0.668127 0.349763
O O3 0.426559 0.744751 0.203352
O O4 0.802573 0.917491 0.190588
O O5 0.091668 0.210117 0.066143
O O6 0.500000 0.500000 0.000000
O O7 0.055334 0.240267 0.789529
O O8 0.723816 0.492735 0.490007
O O9 0.290073 0.283486 0.355482
O O10 0.268770 0.095401 0.419398
O O11 0.176086 0.861589 0.491822
O O12 0.428371 0.074401 0.301205
O O13 0.831714 0.266334 0.302890
O O14 0.370593 0.887595 0.139795
O O15 0.572693 0.177437 0.054897
O O16 0.019545 0.795795 0.712386
O O17 0.000000 0.500000 0.000000
#
# Coordination Sequence:
#
# PCOD9059527 Si02
#       8
#     2   2   2   2   2   2   2   2
#     4  12  24  44  73 101 136 184 233 278 347 420
#     4  12  28  45  69 106 144 179 230 293 349 405
#     4  12  26  43  74 103 136 187 236 278 348 419
#     4  12  27  45  69 106 145 177 232 296 345 402
#     4  11  25  44  68 103 142 179 232 293 341 407
#     4  12  25  45  72  99 139 188 231 286 344 411
#     4  11  23  41  71 100 137 185 230 278 351 412
#     4  12  25  45  74 100 140 184 234 283 343 420
#
# _framework density 22.696199
#
# number of rings (size 3 to 8) (size 9 to 14) (size 15 to 20)
#    0.000    0.250    3.750    4.875    3.500    6.500 
#    0.000    0.000    0.000    0.000    0.000    0.000 
#    0.000    0.000    0.000    0.000    0.000    0.000 
#
# Total GULP energy -89671.112845 kJ/mol
# GULP energy per Si atom -5604.444553 kJ/mol
# Density = 2.264454 g / cm^3
# Si number density = 22.696199 Si / 1000 Ang^3
#
#
#
# Elastic Constant Matrix: (Units=GPa)
#
#
# Indices 1 2 3 4 5 6 
#
# 1 41.3595 -2.6143 3.8275 4.1004 9.4678 9.7048
# 2 -2.6143 100.9548 5.3028 9.2123 -1.0613 6.5669
# 3 3.8275 5.3028 74.7659 -1.4118 3.3781 2.9956
# 4 4.1004 9.2123 -1.4118 49.7900 6.2662 0.9357
# 5 9.4678 -1.0613 3.3781 6.2662 34.7068 3.1238
# 6 9.7048 6.5669 2.9956 0.9357 3.1238 35.0324
#
#
#
# Elastic Compliance Matrix: (Units=1/GPa)
#
#
# Indices 1 2 3 4 5 6 
#
# 1 0.027685 0.001314 -0.000959 -0.001599 -0.006481 -0.007213
# 2 0.001314 0.010321 -0.000777 -0.002074 0.000608 -0.002231
# 3 -0.000959 -0.000777 0.013573 0.000766 -0.001162 -0.000666
# 4 -0.001599 -0.002074 0.000766 0.021059 -0.003551 0.000520
# 5 -0.006481 0.000608 -0.001162 -0.003551 0.031437 -0.000928
# 6 -0.007213 -0.002231 -0.000666 0.000520 -0.000928 0.031087
#
#
# Mechanical properties :
#
#
# Convention : Reuss Voigt Hill
#
# Bulk Modulus (GPa) = 19.70974 25.56802 22.63888
# Shear Modulus (GPa) = 32.69774 37.94347 35.32060
#
# Velocity S-wave (km/s) = 3.79973 4.09320 3.94919
# Velocity P-wave (km/s) = 5.28712 5.79904 5.54899
#
# Compressibility (1/GPa) = 0.05073633
#
# Stress axis : x y z
#
# Youngs Moduli (GPa) = 36.12113 96.88916 73.67622
#
# Poissons Ratio (x) = -0.12734 0.07064
# Poissons Ratio (y) = -0.04747 0.05721
# Poissons Ratio (z) = 0.03463 0.07524
#
# Static dielectric constant tensor:
#      x y z
#    x 1.840160 -0.003370 -0.014080 
#    y -0.003370 1.837660 0.031950 
#    z -0.014080 0.031950 1.797160 
# 
# From -- ./inp_files/272967.got.cif
#   From: 2010.05.17/outbox.cif.g08.bks.cpg/sg2_137_cif.got.tgz:272967.got - 2010.06.03 11:33:40.
