data_PCOD9059583
_publ_section_title
;
Structure prediction by ZEFSAII (Michael W. Deem and Ramdas Pophale) SiO2 
 PCOD9059583
Probable space group: P -1
;
_chemical_formula_sum "Si O2"
_cell_formula_units_Z 14
_cell_length_a 7.082989
_cell_length_b 19.334640
_cell_length_c 5.005107
_cell_angle_alpha 69.917797
_cell_angle_beta 71.247378
_cell_angle_gamma 54.796059
_cell_volume 519.160396
_symmetry_space_group_name_H-M "P -1"
_symmetry_group_IT_number 2
_symmetry_cell_setting 'triclinic'
loop_
_space_group_symop_operation_xyz
x,y,z
-x,-y,-z
loop_
_atom_site_type_symbol
_atom_site_label
_atom_site_fract_x
_atom_site_fract_y
_atom_site_fract_z
Si Si1 0.559241 0.573395 0.416867
Si Si2 0.733828 0.726867 0.497990
Si Si3 0.278558 0.032054 0.242873
Si Si4 0.910112 0.612760 0.070720
Si Si5 0.719499 0.349288 0.055429
Si Si6 0.226776 0.872322 0.600501
Si Si7 0.961320 0.817474 0.508080
O O1 0.500000 0.500000 0.500000
O O2 0.816976 0.549091 0.247551
O O3 0.494722 0.608503 0.697615
O O4 0.378992 0.648598 0.193810
O O5 0.745438 0.692496 0.242220
O O6 0.869178 0.647336 0.743886
O O7 0.474614 0.787318 0.652989
O O8 0.869342 0.778995 0.379984
O O9 0.269289 0.096819 0.386325
O O10 0.011909 0.093565 0.165680
O O11 0.269499 0.950448 0.456065
O O12 0.500000 0.000000 0.000000
O O13 0.835421 0.408442 0.929371
O O14 0.088767 0.740404 0.774606
O O15 0.143061 0.850648 0.386077
#
# Coordination Sequence:
#
# PCOD9059583 Si02
#       7
#     2   2   2   2   2   2   2
#     4  12  26  45  73 104 141 177 222 279 338 414
#     4  11  23  41  73  98 134 181 233 283 337 402
#     4   9  20  39  64  96 136 177 230 280 341 397
#     4  11  25  44  70 105 135 178 227 279 339 407
#     4  11  24  44  69 104 138 180 228 274 341 405
#     4   9  20  39  63  92 133 176 224 284 339 389
#     4   9  20  40  65  94 133 177 227 280 331 402
#
# _framework density 26.966618
#
# number of rings (size 3 to 8) (size 9 to 14) (size 15 to 20)
#    0.857    0.857    0.000    4.714    4.000    1.714 
#    0.000    2.143    0.000    0.000    0.000    0.000 
#    0.000    0.000    0.000    0.000    0.000    0.000 
#
# Total GULP energy -78296.103392 kJ/mol
# GULP energy per Si atom -5592.578814 kJ/mol
# Density = 2.690524 g / cm^3
# Si number density = 26.966618 Si / 1000 Ang^3
#
#
#
# Elastic Constant Matrix: (Units=GPa)
#
#
# Indices 1 2 3 4 5 6 
#
# 1 130.8132 16.1707 30.6497 -3.6635 -10.3319 5.1610
# 2 16.1707 110.7392 15.2090 -2.7024 1.9452 9.5796
# 3 30.6497 15.2090 81.4526 9.6812 -20.7418 2.7171
# 4 -3.6635 -2.7024 9.6812 24.6144 0.2908 -16.8655
# 5 -10.3319 1.9452 -20.7418 0.2908 55.3397 0.7334
# 6 5.1610 9.5796 2.7171 -16.8655 0.7334 50.8026
#
#
#
# Elastic Compliance Matrix: (Units=1/GPa)
#
#
# Indices 1 2 3 4 5 6 
#
# 1 0.008615 -0.000769 -0.003345 0.002754 0.000362 0.000358
# 2 -0.000769 0.009550 -0.001828 0.000731 -0.001150 -0.001366
# 3 -0.003345 -0.001828 0.016616 -0.009707 0.005765 -0.003510
# 4 0.002754 0.000731 -0.009707 0.058360 -0.003715 0.019530
# 5 0.000362 -0.001150 0.005765 -0.003715 0.020381 -0.001656
# 6 0.000358 -0.001366 -0.003510 0.019530 -0.001656 0.026600
#
#
# Mechanical properties :
#
#
# Convention : Reuss Voigt Hill
#
# Bulk Modulus (GPa) = 43.67428 49.67377 46.67403
# Shear Modulus (GPa) = 31.32087 43.54972 37.43529
#
# Velocity S-wave (km/s) = 3.41173 4.02300 3.72991
# Velocity P-wave (km/s) = 5.63478 6.32771 5.99127
#
# Compressibility (1/GPa) = 0.02289677
#
# Stress axis : x y z
#
# Youngs Moduli (GPa) = 116.07737 104.71513 60.18259
#
# Poissons Ratio (x) = 0.08049 0.20132
# Poissons Ratio (y) = 0.08922 0.11002
# Poissons Ratio (z) = 0.38831 0.19143
#
# Static dielectric constant tensor:
#      x y z
#    x 2.081630 0.019670 -0.022140 
#    y 0.019670 2.128770 -0.022260 
#    z -0.022140 -0.022260 2.124880 
# 
# From -- ./inp_files/52645.got.cif
#   From: 2010.05.17/outbox.cif.g08.bks.cpg/sg2_27_cif.got.tgz:52645.got - 2010.06.03 11:33:40.
