data_PCOD9059323
_publ_section_title
;
Structure prediction by ZEFSAII (Michael W. Deem and Ramdas Pophale) SiO2 
 PCOD9059323
Probable space group: P -1
;
_chemical_formula_sum "Si O2"
_cell_formula_units_Z 10
_cell_length_a 22.743694
_cell_length_b 9.136195
_cell_length_c 19.722489
_cell_angle_alpha 142.539673
_cell_angle_beta 169.580460
_cell_angle_gamma 36.925919
_cell_volume 444.206644
_symmetry_space_group_name_H-M "P -1"
_symmetry_group_IT_number 2
_symmetry_cell_setting 'triclinic'
loop_
_space_group_symop_operation_xyz
x,y,z
-x,-y,-z
loop_
_atom_site_type_symbol
_atom_site_label
_atom_site_fract_x
_atom_site_fract_y
_atom_site_fract_z
Si Si1 0.575835 0.223975 0.622575
Si Si2 0.836869 0.551521 0.557985
Si Si3 0.132743 0.736767 0.314970
Si Si4 0.427293 0.220495 0.050568
Si Si5 0.399199 0.933724 0.562258
O O1 0.275420 0.451011 0.366983
O O2 0.645934 0.144077 0.595088
O O3 0.500000 0.000000 0.500000
O O4 0.886470 0.330958 0.044465
O O5 0.592963 0.442365 0.290554
O O6 0.638588 0.774136 0.372435
O O7 0.046283 0.329502 0.671845
O O8 0.381625 0.847476 0.687340
O O9 0.146365 0.855081 0.300012
O O10 0.762858 0.797538 0.945137
O O11 0.500000 0.000000 0.000000
#
# Coordination Sequence:
#
# PCOD9059323 Si02
#       5
#     2   2   2   2   2
#     4  11  23  41  65  95 133 176 205 243 309 387
#     4  11  24  42  65  95 126 167 214 252 308 386
#     4  11  24  40  62  95 126 164 213 259 309 369
#     4  11  24  47  69  88 120 169 218 265 313 370
#     4  12  23  40  62  97 134 162 199 261 314 370
#
# _framework density 22.512046999999999
#
# number of rings (size 3 to 8) (size 9 to 14) (size 15 to 20)
#    0.000    0.800    0.000    9.600    0.000    4.800 
#    0.000    6.000    0.000    0.000    0.000    0.000 
#    0.000    0.000    0.000    0.000    0.000    0.000 
#
# Total GULP energy -56051.562081 kJ/mol
# GULP energy per Si atom -5605.156208 kJ/mol
# Density = 2.246081 g / cm^3
# Si number density = 22.512047 Si / 1000 Ang^3
#
#
#
# Elastic Constant Matrix: (Units=GPa)
#
#
# Indices 1 2 3 4 5 6 
#
# 1 107.0224 24.0493 -1.6473 15.2166 -4.7512 -3.8306
# 2 24.0493 81.9620 2.9401 -11.2922 -20.4283 -4.7266
# 3 -1.6473 2.9401 37.8092 -7.9301 10.3673 0.7378
# 4 15.2166 -11.2922 -7.9301 37.7961 -2.9441 12.9139
# 5 -4.7512 -20.4283 10.3673 -2.9441 34.5603 5.6450
# 6 -3.8306 -4.7266 0.7378 12.9139 5.6450 50.7852
#
#
#
# Elastic Compliance Matrix: (Units=1/GPa)
#
#
# Indices 1 2 3 4 5 6 
#
# 1 0.011389 -0.004714 -0.000052 -0.007013 -0.002202 0.002449
# 2 -0.004714 0.017611 -0.003038 0.008130 0.011699 -0.002040
# 3 -0.000052 -0.003038 0.030607 0.005013 -0.010419 -0.000848
# 4 -0.007013 0.008130 0.005013 0.036722 0.007095 -0.009971
# 5 -0.002202 0.011699 -0.010419 0.007095 0.040125 -0.005190
# 6 0.002449 -0.002040 -0.000848 -0.009971 -0.005190 0.022810
#
#
# Mechanical properties :
#
#
# Convention : Reuss Voigt Hill
#
# Bulk Modulus (GPa) = 22.72681 30.83089 26.77885
# Shear Modulus (GPa) = 26.37984 38.05843 32.21914
#
# Velocity S-wave (km/s) = 3.42688 4.11613 3.78722
# Velocity P-wave (km/s) = 5.07694 6.02619 5.57182
#
# Compressibility (1/GPa) = 0.04400090
#
# Stress axis : x y z
#
# Youngs Moduli (GPa) = 87.80167 56.78193 32.67191
#
# Poissons Ratio (x) = 0.26766 0.00170
# Poissons Ratio (y) = 0.41389 0.09924
# Poissons Ratio (z) = 0.00456 0.17248
#
# Static dielectric constant tensor:
#      x y z
#    x 1.814950 -0.016090 -0.023860 
#    y -0.016090 1.820580 -0.018890 
#    z -0.023860 -0.018890 1.839710 
# 
# From -- ./inp_files/3961.got.cif
#   From: 2010.05.17/outbox.cif.g08.bks.cpg/sg2_2_cif.got.tgz:3961.got - 2010.06.03 11:33:40.
