data_PCOD9059605
_publ_section_title
;
Structure prediction by ZEFSAII (Michael W. Deem and Ramdas Pophale) SiO2 
 PCOD9059605
Probable space group: P -1
;
_chemical_formula_sum "Si O2"
_cell_formula_units_Z 16
_cell_length_a 5.547550
_cell_length_b 9.501618
_cell_length_c 14.549792
_cell_angle_alpha 102.023897
_cell_angle_beta 72.254235
_cell_angle_gamma 72.047672
_cell_volume 655.067234
_symmetry_space_group_name_H-M "P -1"
_symmetry_group_IT_number 2
_symmetry_cell_setting 'triclinic'
loop_
_space_group_symop_operation_xyz
x,y,z
-x,-y,-z
loop_
_atom_site_type_symbol
_atom_site_label
_atom_site_fract_x
_atom_site_fract_y
_atom_site_fract_z
Si Si1 0.795291 0.679272 0.072798
Si Si2 0.167622 0.146060 0.253300
Si Si3 0.800222 0.753097 0.396937
Si Si4 0.349998 0.538664 0.619555
Si Si5 0.201376 0.673895 0.184098
Si Si6 0.058407 0.134338 0.062483
Si Si7 0.536032 0.627218 0.788339
Si Si8 0.247362 0.020904 0.420716
O O1 0.492692 0.686850 0.134980
O O2 0.968930 0.724055 0.138482
O O3 0.758207 0.799785 0.009953
O O4 0.000000 0.500000 0.000000
O O5 0.161145 0.077453 0.145025
O O6 0.366867 0.237337 0.232565
O O7 0.240533 0.030634 0.313971
O O8 0.870092 0.283005 0.328546
O O9 0.792173 0.583443 0.367411
O O10 0.783091 0.810004 0.511703
O O11 0.050107 0.755871 0.306768
O O12 0.526036 0.882505 0.401815
O O13 0.500000 0.500000 0.500000
O O14 0.542292 0.526538 0.683036
O O15 0.287372 0.487969 0.168687
O O16 0.775372 0.287471 0.129583
O O17 0.000000 0.000000 0.000000
O O18 0.000000 0.000000 0.500000
#
# Coordination Sequence:
#
# PCOD9059605 Si02
#       8
#     2   2   2   2   2   2   2   2
#     4  12  26  48  81 112 153 206 264 333 396 464
#     4  11  25  47  77 107 151 202 256 325 389 478
#     4  11  26  46  72 115 155 204 259 322 391 478
#     4  11  23  41  75 111 150 201 259 317 390 467
#     4  12  26  46  82 114 151 202 269 330 388 468
#     4  11  28  51  75 111 155 205 261 329 405 472
#     4  11  24  45  74 112 152 194 265 328 386 471
#     4  11  27  47  74 109 162 204 255 315 401 483
#
# _framework density 24.424972
#
# number of rings (size 3 to 8) (size 9 to 14) (size 15 to 20)
#    0.000    0.750    2.500    3.375    7.000    6.500 
#    0.000    0.000    0.000    0.000    0.000    0.000 
#    0.000    0.000    0.000    0.000    0.000    0.000 
#
# Total GULP energy -89673.885752 kJ/mol
# GULP energy per Si atom -5604.617859 kJ/mol
# Density = 2.436938 g / cm^3
# Si number density = 24.424972 Si / 1000 Ang^3
#
#
#
# Elastic Constant Matrix: (Units=GPa)
#
#
# Indices 1 2 3 4 5 6 
#
# 1 122.4516 29.6009 72.2921 -14.7011 -16.6253 9.6246
# 2 29.6009 77.9865 59.1081 -13.1265 8.1257 15.2685
# 3 72.2921 59.1081 161.4056 -19.4071 -4.2027 6.5611
# 4 -14.7011 -13.1265 -19.4071 42.8184 1.5813 -2.9011
# 5 -16.6253 8.1257 -4.2027 1.5813 58.4234 -0.2911
# 6 9.6246 15.2685 6.5611 -2.9011 -0.2911 43.9236
#
#
#
# Elastic Compliance Matrix: (Units=1/GPa)
#
#
# Indices 1 2 3 4 5 6 
#
# 1 0.011843 -0.000675 -0.004735 0.001496 0.003075 -0.001534
# 2 -0.000675 0.019972 -0.006553 0.002668 -0.003542 -0.005663
# 3 -0.004735 -0.006553 0.010817 0.001378 0.000314 0.001793
# 4 0.001496 0.002668 0.001378 0.025344 -0.000531 0.000209
# 5 0.003075 -0.003542 0.000314 -0.000531 0.018524 0.000598
# 6 -0.001534 -0.005663 0.001793 0.000209 0.000598 0.024822
#
#
# Mechanical properties :
#
#
# Convention : Reuss Voigt Hill
#
# Bulk Modulus (GPa) = 53.45644 75.98288 64.71966
# Shear Modulus (GPa) = 35.34000 42.42259 38.88130
#
# Velocity S-wave (km/s) = 3.80791 4.17208 3.99415
# Velocity P-wave (km/s) = 6.42395 7.37459 6.91562
#
# Compressibility (1/GPa) = 0.01870682
#
# Stress axis : x y z
#
# Youngs Moduli (GPa) = 84.44139 50.06894 92.44669
#
# Poissons Ratio (x) = 0.03378 0.43772
# Poissons Ratio (y) = 0.05697 0.60581
# Poissons Ratio (z) = 0.39982 0.32811
#
# Static dielectric constant tensor:
#      x y z
#    x 2.002970 -0.019750 0.042000 
#    y -0.019750 1.940520 0.007930 
#    z 0.042000 0.007930 1.955430 
# 
# From -- ./inp_files/480617.got.cif
#   From: 2010.05.17/outbox.cif.g08.bks.cpg/sg2_241_cif.got.tgz:480617.got - 2010.06.03 11:33:40.
