data_PCOD9059383
_publ_section_title
;
Structure prediction by ZEFSAII (Michael W. Deem and Ramdas Pophale) SiO2 
 PCOD9059383
Probable space group: P -1
;
_chemical_formula_sum "Si O2"
_cell_formula_units_Z 12
_cell_length_a 8.934700
_cell_length_b 15.154358
_cell_length_c 11.942252
_cell_angle_alpha 28.526437
_cell_angle_beta 141.541755
_cell_angle_gamma 129.244951
_cell_volume 471.856104
_symmetry_space_group_name_H-M "P -1"
_symmetry_group_IT_number 2
_symmetry_cell_setting 'triclinic'
loop_
_space_group_symop_operation_xyz
x,y,z
-x,-y,-z
loop_
_atom_site_type_symbol
_atom_site_label
_atom_site_fract_x
_atom_site_fract_y
_atom_site_fract_z
Si Si1 0.087071 0.304950 0.706632
Si Si2 0.547568 0.702682 0.267134
Si Si3 0.402697 0.114891 0.688280
Si Si4 0.274575 0.736635 0.658065
Si Si5 0.020991 0.883471 0.934144
Si Si6 0.247793 0.327146 0.133759
O O1 0.317074 0.313755 0.754122
O O2 0.000000 0.500000 0.500000
O O3 0.880178 0.274824 0.532563
O O4 0.112167 0.149557 0.990185
O O5 0.500000 0.500000 0.500000
O O6 0.691434 0.762991 0.393255
O O7 0.359273 0.902048 0.915392
O O8 0.304173 0.207489 0.412102
O O9 0.700138 0.108326 0.876152
O O10 0.546221 0.730675 0.777558
O O11 0.258494 0.543212 0.926872
O O12 0.142578 0.928807 0.422695
O O13 0.995261 0.712560 0.026207
#
# Coordination Sequence:
#
# PCOD9059383 Si02
#       6
#     2   2   2   2   2   2
#     4  12  22  43  77 104 138 188 235 289 351 413
#     4  11  26  44  74 102 140 195 234 280 354 420
#     4  11  25  49  73 103 144 186 233 289 350 423
#     4  11  23  41  67 110 144 175 232 297 350 409
#     4  12  23  44  78 104 139 182 235 292 353 410
#     4  11  25  41  69 111 142 176 234 293 352 415
#
# _framework density 25.431481000000002
#
# number of rings (size 3 to 8) (size 9 to 14) (size 15 to 20)
#    0.000    0.667    5.000    3.000    0.000    1.333 
#    0.000    4.167    3.667    0.000    0.000    0.000 
#    0.000    0.000    0.000    0.000    0.000    0.000 
#
# Total GULP energy -67154.958436 kJ/mol
# GULP energy per Si atom -5596.246536 kJ/mol
# Density = 2.537360 g / cm^3
# Si number density = 25.431481 Si / 1000 Ang^3
#
#
#
# Elastic Constant Matrix: (Units=GPa)
#
#
# Indices 1 2 3 4 5 6 
#
# 1 115.0296 13.9952 35.8704 -23.8355 -26.5390 -1.6442
# 2 13.9952 69.9624 29.7809 -24.2366 -25.6134 -3.0682
# 3 35.8704 29.7809 120.6836 -17.3173 -39.7924 4.9721
# 4 -23.8355 -24.2366 -17.3173 44.1387 -5.4408 -1.0439
# 5 -26.5390 -25.6134 -39.7924 -5.4408 55.2997 -12.0306
# 6 -1.6442 -3.0682 4.9721 -1.0439 -12.0306 37.9246
#
#
#
# Elastic Compliance Matrix: (Units=1/GPa)
#
#
# Indices 1 2 3 4 5 6 
#
# 1 0.013057 0.005705 -0.000222 0.011560 0.010940 0.004845
# 2 0.005705 0.028319 0.000870 0.021751 0.020707 0.009592
# 3 -0.000222 0.000870 0.012376 0.006521 0.010250 0.001869
# 4 0.011560 0.021751 0.006521 0.047050 0.027423 0.011401
# 5 0.010940 0.020707 0.010250 0.027423 0.046550 0.016328
# 6 0.004845 0.009592 0.001869 0.011401 0.016328 0.032602
#
#
# Mechanical properties :
#
#
# Convention : Reuss Voigt Hill
#
# Bulk Modulus (GPa) = 15.04755 51.66318 33.35537
# Shear Modulus (GPa) = 26.39893 42.54120 34.47007
#
# Velocity S-wave (km/s) = 3.22536 4.09440 3.68558
# Velocity P-wave (km/s) = 4.44976 6.53536 5.59067
#
# Compressibility (1/GPa) = 0.06645598
#
# Stress axis : x y z
#
# Youngs Moduli (GPa) = 76.58577 35.31260 80.80272
#
# Poissons Ratio (x) = -0.20146 0.01798
# Poissons Ratio (y) = -0.43692 -0.07028
# Poissons Ratio (z) = 0.01704 -0.03071
#
# Static dielectric constant tensor:
#      x y z
#    x 2.088900 0.070210 0.076700 
#    y 0.070210 2.004870 -0.075040 
#    z 0.076700 -0.075040 2.105520 
# 
# From -- ./inp_files/398331.got.cif
#   From: 2010.05.17/outbox.cif.g08.bks.cpg/sg2_200_cif.got.tgz:398331.got - 2010.06.03 11:33:40.
