data_PCOD9059770
_publ_section_title
;
Structure prediction by ZEFSAII (Michael W. Deem and Ramdas Pophale) SiO2 
 PCOD9059770
Probable space group: P -1
;
_chemical_formula_sum "Si O2"
_cell_formula_units_Z 16
_cell_length_a 24.574944
_cell_length_b 13.381765
_cell_length_c 7.961475
_cell_angle_alpha 130.178390
_cell_angle_beta 129.383053
_cell_angle_gamma 22.494982
_cell_volume 758.715684
_symmetry_space_group_name_H-M "P -1"
_symmetry_group_IT_number 2
_symmetry_cell_setting 'triclinic'
loop_
_space_group_symop_operation_xyz
x,y,z
-x,-y,-z
loop_
_atom_site_type_symbol
_atom_site_label
_atom_site_fract_x
_atom_site_fract_y
_atom_site_fract_z
Si Si1 0.325613 0.967621 0.408897
Si Si2 0.859260 0.214368 0.339204
Si Si3 0.197127 0.272498 0.840009
Si Si4 0.334108 0.291731 0.037772
Si Si5 0.176166 0.462863 0.577631
Si Si6 0.662082 0.440959 0.488627
Si Si7 0.902139 0.870458 0.958614
Si Si8 0.121656 0.135665 0.701295
O O1 0.273720 0.086876 0.625557
O O2 0.276013 0.174635 0.427932
O O3 0.241464 0.974741 0.198029
O O4 0.495069 0.678814 0.416618
O O5 0.823615 0.411858 0.406157
O O6 0.726370 0.377979 0.366186
O O7 0.000000 0.000000 0.500000
O O8 0.894279 0.037921 0.090097
O O9 0.180914 0.185482 0.850054
O O10 0.036011 0.582340 0.823193
O O11 0.285167 0.261209 0.043678
O O12 0.315109 0.468622 0.254797
O O13 0.233985 0.424136 0.825704
O O14 0.500000 0.000000 0.000000
O O15 0.015297 0.666722 0.470703
O O16 0.756246 0.165984 0.432453
O O17 0.924129 0.817408 0.145438
#
# Coordination Sequence:
#
# PCOD9059770 Si02
#       8
#     2   2   2   2   2   2   2   2
#     4  11  25  43  65  97 136 173 219 278 330 392
#     4  11  23  44  67 100 134 174 218 279 331 386
#     4  11  23  42  68  94 131 176 222 266 326 396
#     4  11  24  45  65  97 135 174 218 272 331 394
#     4  11  23  44  66  99 130 173 231 260 335 396
#     4  11  24  47  64  97 144 166 221 286 322 394
#     4  11  23  42  68  98 134 171 224 273 329 392
#     4  11  25  41  68 100 129 173 225 277 323 393
#
# _framework density 21.088266999999998
#
# number of rings (size 3 to 8) (size 9 to 14) (size 15 to 20)
#    0.000    1.000    6.250    1.500    1.750    4.500 
#    4.500    0.000    0.000    0.000    0.000    0.000 
#    0.000    0.000    0.000    0.000    0.000    0.000 
#
# Total GULP energy -89416.346377 kJ/mol
# GULP energy per Si atom -5588.521649 kJ/mol
# Density = 2.104027 g / cm^3
# Si number density = 21.088267 Si / 1000 Ang^3
#
#
#
# Elastic Constant Matrix: (Units=GPa)
#
#
# Indices 1 2 3 4 5 6 
#
# 1 -118.8897 -62.3173 70.4683 -120.3081 -50.1864 -118.1000
# 2 -62.3173 96.2090 60.2481 -49.5681 -24.4704 -69.5973
# 3 70.4683 60.2481 31.4381 40.2072 46.6079 34.1570
# 4 -120.3081 -49.5681 40.2072 -40.2099 -44.2666 -59.7676
# 5 -50.1864 -24.4704 46.6079 -44.2666 13.8454 -39.4335
# 6 -118.1000 -69.5973 34.1570 -59.7676 -39.4335 -26.7587
#
#
#
# Elastic Compliance Matrix: (Units=1/GPa)
#
#
# Indices 1 2 3 4 5 6 
#
# 1 0.013906 -0.005355 0.009948 -0.004470 -0.014886 -0.002825
# 2 -0.005355 0.009158 -0.004455 -0.004809 0.001976 0.001960
# 3 0.009948 -0.004455 0.024509 0.006177 -0.014780 0.006948
# 4 -0.004470 -0.004809 0.006177 0.026927 -0.003162 -0.015364
# 5 -0.014886 0.001976 -0.014780 -0.003162 0.038534 -0.008030
# 6 -0.002825 0.001960 0.006948 -0.015364 -0.008030 0.025019
#
#
# Mechanical properties :
#
#
# Convention : Reuss Voigt Hill
#
# Bulk Modulus (GPa) = 20.89912 16.17284 18.53598
# Shear Modulus (GPa) = 32.52524 -14.60075 8.96225
#
# Velocity S-wave (km/s) = 3.93152 -2.63413 2.06376
# Velocity P-wave (km/s) = 5.52639 1.25131 3.80626
#
# Compressibility (1/GPa) = 0.04784891
#
# Stress axis : x y z
#
# Youngs Moduli (GPa) = 71.91160 109.19765 40.80123
#
# Poissons Ratio (x) = 0.58480 -0.40591
# Poissons Ratio (y) = 0.38512 0.18176
# Poissons Ratio (z) = -0.71540 0.48646
#
# Static dielectric constant tensor:
#      x y z
#    x 1.799680 0.011040 -0.015370 
#    y 0.011040 1.729610 0.025360 
#    z -0.015370 0.025360 1.793850 
# 
# From -- ./inp_files/357345.got.cif
#   From: 2010.05.17/outbox.cif.g08.bks.cpg/sg2_179_cif.got.tgz:357345.got - 2010.06.03 11:33:40.
