data_PCOD9059282
_publ_section_title
;
Structure prediction by ZEFSAII (Michael W. Deem and Ramdas Pophale) SiO2 
 PCOD9059282
Probable space group: P -1
;
_chemical_formula_sum "Si O2"
_cell_formula_units_Z 12
_cell_length_a 8.750213
_cell_length_b 14.072163
_cell_length_c 9.166575
_cell_angle_alpha 111.177918
_cell_angle_beta 31.231960
_cell_angle_gamma 118.949705
_cell_volume 508.660230
_symmetry_space_group_name_H-M "P -1"
_symmetry_group_IT_number 2
_symmetry_cell_setting 'triclinic'
loop_
_space_group_symop_operation_xyz
x,y,z
-x,-y,-z
loop_
_atom_site_type_symbol
_atom_site_label
_atom_site_fract_x
_atom_site_fract_y
_atom_site_fract_z
Si Si1 0.856422 0.323796 0.770649
Si Si2 0.044685 0.020609 0.647840
Si Si3 0.043428 0.255191 0.876860
Si Si4 0.536276 0.108230 0.751298
Si Si5 0.714295 0.599749 0.783132
Si Si6 0.339750 0.737962 0.527569
O O1 0.802656 0.205848 0.675703
O O2 0.954537 0.318880 0.853500
O O3 0.125835 0.414458 0.507401
O O4 0.521600 0.337490 0.029691
O O5 0.051655 0.140510 0.746230
O O6 0.346386 0.990928 0.426016
O O7 0.000000 0.000000 0.500000
O O8 0.763853 0.935770 0.923948
O O9 0.396177 0.314069 0.685099
O O10 0.788175 0.234474 0.200974
O O11 0.492522 0.162507 0.666129
O O12 0.022841 0.664355 0.662659
O O13 0.500000 0.500000 0.000000
#
# Coordination Sequence:
#
# PCOD9059282 Si02
#       6
#     2   2   2   2   2   2
#     4  11  23  42  70  96 129 174 220 260 332 392
#     4  12  24  38  64  95 133 177 236 257 300 384
#     4  12  25  41  65 100 138 173 214 279 326 366
#     4  11  23  41  64  91 132 184 224 259 308 386
#     4  11  24  47  73  95 123 171 221 265 327 420
#     4  11  25  44  64  97 137 169 215 279 339 373
#
# _framework density 23.591384000000001
#
# number of rings (size 3 to 8) (size 9 to 14) (size 15 to 20)
#    0.000    0.667    1.667    8.000    2.333    4.000 
#    0.000    5.000    0.000    0.000    0.000    0.000 
#    0.000    0.000    0.000    0.000    0.000    0.000 
#
# Total GULP energy -67184.515363 kJ/mol
# GULP energy per Si atom -5598.709614 kJ/mol
# Density = 2.353769 g / cm^3
# Si number density = 23.591384 Si / 1000 Ang^3
#
#
#
# Elastic Constant Matrix: (Units=GPa)
#
#
# Indices 1 2 3 4 5 6 
#
# 1 164.6907 44.5987 72.2706 -29.6397 23.0131 -30.8885
# 2 44.5987 33.4058 31.8112 -14.3178 -5.9350 -10.9093
# 3 72.2706 31.8112 195.9440 -23.5238 20.9332 -10.8729
# 4 -29.6397 -14.3178 -23.5238 22.7927 2.7428 -7.9646
# 5 23.0131 -5.9350 20.9332 2.7428 45.0227 7.4727
# 6 -30.8885 -10.9093 -10.8729 -7.9646 7.4727 17.0178
#
#
#
# Elastic Compliance Matrix: (Units=1/GPa)
#
#
# Indices 1 2 3 4 5 6 
#
# 1 -0.003618 -0.021626 -0.003521 -0.039155 0.010600 -0.045660
# 2 -0.021626 0.061253 -0.006288 -0.005334 0.025301 -0.017611
# 3 -0.003521 -0.006288 0.006407 -0.004835 -0.000310 -0.008456
# 4 -0.039155 -0.005334 -0.004835 -0.066197 0.047038 -0.129214
# 5 0.010600 0.025301 -0.000310 0.047038 0.008521 0.053533
# 6 -0.045660 -0.017611 -0.008456 -0.129214 0.053533 -0.124788
#
#
# Mechanical properties :
#
#
# Convention : Reuss Voigt Hill
#
# Bulk Modulus (GPa) = 855.17351 76.82241 465.99796
# Shear Modulus (GPa) = -90.64459 33.32398 -28.66031
#
# Velocity S-wave (km/s) = -6.20533 3.76247 -3.48927
# Velocity P-wave (km/s) = 17.66181 7.17700 13.48052
#
# Compressibility (1/GPa) = 0.00116935
#
# Stress axis : x y z
#
# Youngs Moduli (GPa) = -276.40046 16.32572 156.08908
#
# Poissons Ratio (x) = 0.35307 0.54964
# Poissons Ratio (y) = -5.97757 0.98154
# Poissons Ratio (z) = -0.97330 0.10266
#
# Static dielectric constant tensor:
#      x y z
#    x 1.909190 0.022730 -0.006060 
#    y 0.022730 1.962270 -0.001980 
#    z -0.006060 -0.001980 1.911790 
# 
# From -- ./inp_files/126405.got.cif
#   From: 2010.05.17/outbox.cif.g08.bks.cpg/sg2_64_cif.got.tgz:126405.got - 2010.06.03 11:33:40.
