data_PCOD9059751
_publ_section_title
;
Structure prediction by ZEFSAII (Michael W. Deem and Ramdas Pophale) SiO2 
 PCOD9059751
Probable space group: P -1
;
_chemical_formula_sum "Si O2"
_cell_formula_units_Z 12
_cell_length_a 10.602188
_cell_length_b 11.622291
_cell_length_c 11.937500
_cell_angle_alpha 37.281326
_cell_angle_beta 37.278226
_cell_angle_gamma 36.118644
_cell_volume 474.573325
_symmetry_space_group_name_H-M "P -1"
_symmetry_group_IT_number 2
_symmetry_cell_setting 'triclinic'
loop_
_space_group_symop_operation_xyz
x,y,z
-x,-y,-z
loop_
_atom_site_type_symbol
_atom_site_label
_atom_site_fract_x
_atom_site_fract_y
_atom_site_fract_z
Si Si1 0.563751 0.139784 0.255715
Si Si2 0.241119 0.988588 0.377566
Si Si3 0.401913 0.886486 0.023620
Si Si4 0.888242 0.228676 0.094784
Si Si5 0.913199 0.603470 0.674315
Si Si6 0.445149 0.436429 0.401729
O O1 0.593237 0.096771 0.132230
O O2 0.312833 0.361054 0.266754
O O3 0.500000 0.000000 0.500000
O O4 0.805293 0.142210 0.113911
O O5 0.374554 0.079143 0.133073
O O6 0.153251 0.160775 0.411313
O O7 0.442961 0.736826 0.443174
O O8 0.000000 0.000000 0.500000
O O9 0.441368 0.664525 0.221954
O O10 0.132576 0.056557 0.106927
O O11 0.917000 0.439663 0.891946
O O12 0.650480 0.297217 0.278101
O O13 0.175784 0.491678 0.525669
#
# Coordination Sequence:
#
# PCOD9059751 Si02
#       6
#     2   2   2   2   2   2
#     4  11  23  42  68 101 142 185 227 270 332 401
#     4  11  25  48  73 100 133 177 229 286 346 404
#     4  11  24  46  66 102 138 178 232 279 332 408
#     4  12  23  44  70 100 144 180 224 278 332 404
#     4  11  25  45  66 104 139 177 230 280 332 402
#     4  12  24  45  74  94 143 178 223 285 338 397
#
# _framework density 25.285872999999999
#
# number of rings (size 3 to 8) (size 9 to 14) (size 15 to 20)
#    0.000    0.667    5.000    5.000    0.000    2.000 
#    0.000    1.667    0.000    0.000    0.000    0.000 
#    0.000    0.000    0.000    0.000    0.000    0.000 
#
# Total GULP energy -66892.060360 kJ/mol
# GULP energy per Si atom -5574.338363 kJ/mol
# Density = 2.522832 g / cm^3
# Si number density = 25.285873 Si / 1000 Ang^3
#
#
#
# Elastic Constant Matrix: (Units=GPa)
#
#
# Indices 1 2 3 4 5 6 
#
# 1 77.4399 32.8321 21.2862 15.7264 -20.9801 -8.8010
# 2 32.8321 179.6891 53.4414 12.8380 -16.1074 -31.1979
# 3 21.2862 53.4414 137.3705 7.2913 -17.6507 0.7367
# 4 15.7264 12.8380 7.2913 79.0470 -8.0379 -7.5875
# 5 -20.9801 -16.1074 -17.6507 -8.0379 44.8527 21.8972
# 6 -8.8010 -31.1979 0.7367 -7.5875 21.8972 21.3395
#
#
#
# Elastic Compliance Matrix: (Units=1/GPa)
#
#
# Indices 1 2 3 4 5 6 
#
# 1 0.017047 -0.004452 0.000988 -0.002766 0.013045 -0.013881
# 2 -0.004452 0.012883 -0.006761 0.001052 -0.017079 0.035131
# 3 0.000988 -0.006761 0.011895 -0.001135 0.015101 -0.025786
# 4 -0.002766 0.001052 -0.001135 0.013632 -0.003004 0.008367
# 5 0.013045 -0.017079 0.015101 -0.003004 0.076161 -0.099329
# 6 -0.013881 0.035131 -0.025786 0.008367 -0.099329 0.198287
#
#
# Mechanical properties :
#
#
# Convention : Reuss Voigt Hill
#
# Bulk Modulus (GPa) = 46.78099 67.73544 57.25822
# Shear Modulus (GPa) = 13.98678 48.17716 31.08197
#
# Velocity S-wave (km/s) = 2.35446 4.36971 3.50983
# Velocity P-wave (km/s) = 5.09238 7.23223 6.25450
#
# Compressibility (1/GPa) = 0.02137620
#
# Stress axis : x y z
#
# Youngs Moduli (GPa) = 58.66007 77.62438 84.06551
#
# Poissons Ratio (x) = 0.34555 -0.08303
# Poissons Ratio (y) = 0.26113 0.56833
# Poissons Ratio (z) = -0.05793 0.52479
#
# Static dielectric constant tensor:
#      x y z
#    x 2.363550 0.092140 0.115920 
#    y 0.092140 1.988450 -0.019820 
#    z 0.115920 -0.019820 2.010450 
# 
# From -- ./inp_files/455155.got.cif
#   From: 2010.05.17/outbox.cif.g08.bks.cpg/sg2_228_cif.got.tgz:455155.got - 2010.06.03 11:33:40.
