data_PCOD9059617
_publ_section_title
;
Structure prediction by ZEFSAII (Michael W. Deem and Ramdas Pophale) SiO2 
 PCOD9059617
Probable space group: P -1
;
_chemical_formula_sum "Si O2"
_cell_formula_units_Z 16
_cell_length_a 8.824929
_cell_length_b 14.990109
_cell_length_c 22.230921
_cell_angle_alpha 160.819912
_cell_angle_beta 44.574292
_cell_angle_gamma 130.128749
_cell_volume 672.976147
_symmetry_space_group_name_H-M "P -1"
_symmetry_group_IT_number 2
_symmetry_cell_setting 'triclinic'
loop_
_space_group_symop_operation_xyz
x,y,z
-x,-y,-z
loop_
_atom_site_type_symbol
_atom_site_label
_atom_site_fract_x
_atom_site_fract_y
_atom_site_fract_z
Si Si1 0.146622 0.489374 0.132762
Si Si2 0.746450 0.527292 0.425693
Si Si3 0.545170 0.227164 0.070919
Si Si4 0.257306 0.950421 0.322084
Si Si5 0.950045 0.741892 0.620849
Si Si6 0.774847 0.179957 0.088202
Si Si7 0.482566 0.504600 0.877929
Si Si8 0.636664 0.933402 0.291694
O O1 0.092290 0.770296 0.288844
O O2 0.984803 0.272114 0.056495
O O3 0.278177 0.539417 0.187817
O O4 0.299827 0.317383 0.932135
O O5 0.500000 0.500000 0.500000
O O6 0.883113 0.589018 0.483327
O O7 0.797163 0.258797 0.200987
O O8 0.792004 0.764526 0.516905
O O9 0.534746 0.418352 0.137743
O O10 0.745448 0.979766 0.844155
O O11 0.316054 0.109051 0.066481
O O12 0.594415 0.336239 0.192728
O O13 0.362049 0.754364 0.112298
O O14 0.412140 0.035978 0.387173
O O15 0.000000 0.500000 0.500000
O O16 0.170682 0.882005 0.641705
O O17 0.387795 0.221640 0.737711
#
# Coordination Sequence:
#
# PCOD9059617 Si02
#       8
#     2   2   2   2   2   2   2   2
#     4   9  19  37  61  94 122 158 201 244 306 358
#     4  12  23  41  61  86 122 163 203 249 308 357
#     4  11  23  42  61  91 122 158 206 250 299 356
#     4   9  18  36  64  90 123 157 201 251 298 357
#     4  12  24  40  63  92 121 155 206 249 301 360
#     4  11  24  41  59  90 124 162 198 252 305 355
#     4   9  18  38  65  92 119 157 204 250 295 356
#     4   9  19  36  64  92 121 157 201 253 293 357
#
# _framework density 23.774988
#
# number of rings (size 3 to 8) (size 9 to 14) (size 15 to 20)
#    0.000    1.750    3.750    2.250    0.000    3.500 
#    4.500    0.000    0.000    3.000    0.000    0.000 
#    0.000    0.000    0.000    0.000    0.000    0.000 
#
# Total GULP energy -89151.068308 kJ/mol
# GULP energy per Si atom -5571.941769 kJ/mol
# Density = 2.372088 g / cm^3
# Si number density = 23.774988 Si / 1000 Ang^3
#
#
#
# Elastic Constant Matrix: (Units=GPa)
#
#
# Indices 1 2 3 4 5 6 
#
# 1 114.6158 48.3105 29.6187 25.6869 11.6274 -19.9045
# 2 48.3105 126.4948 22.0199 38.9141 -17.6325 -4.7973
# 3 29.6187 22.0199 49.4123 14.5192 2.5789 -3.1755
# 4 25.6869 38.9141 14.5192 39.7585 -7.7225 2.4087
# 5 11.6274 -17.6325 2.5789 -7.7225 33.6561 10.3912
# 6 -19.9045 -4.7973 -3.1755 2.4087 10.3912 46.7833
#
#
#
# Elastic Compliance Matrix: (Units=1/GPa)
#
#
# Indices 1 2 3 4 5 6 
#
# 1 0.016261 -0.004524 -0.004313 -0.007438 -0.012223 0.009260
# 2 -0.004524 0.013304 -0.001353 -0.008060 0.007366 -0.001874
# 3 -0.004313 -0.001353 0.025270 -0.005669 -0.002648 0.000622
# 4 -0.007438 -0.008060 -0.005669 0.042680 0.011384 -0.009102
# 5 -0.012223 0.007366 -0.002648 0.011384 0.045327 -0.015279
# 6 0.009260 -0.001874 0.000622 -0.009102 -0.015279 0.029027
#
#
# Mechanical properties :
#
#
# Convention : Reuss Voigt Hill
#
# Bulk Modulus (GPa) = 29.02301 54.49124 41.75713
# Shear Modulus (GPa) = 24.54178 36.74449 30.64314
#
# Velocity S-wave (km/s) = 3.21635 3.93556 3.59399
# Velocity P-wave (km/s) = 5.10168 6.60461 5.90119
#
# Compressibility (1/GPa) = 0.03445542
#
# Stress axis : x y z
#
# Youngs Moduli (GPa) = 61.49591 75.16399 39.57250
#
# Poissons Ratio (x) = 0.34005 0.17066
# Poissons Ratio (y) = 0.27822 0.05356
# Poissons Ratio (z) = 0.26520 0.10173
#
# Static dielectric constant tensor:
#      x y z
#    x 1.892370 0.016580 -0.049160 
#    y 0.016580 2.032550 -0.116390 
#    z -0.049160 -0.116390 2.033730 
# 
# From -- ./inp_files/237889.got.cif
#   From: 2010.05.17/outbox.cif.g08.bks.cpg/sg2_119_cif.got.tgz:237889.got - 2010.06.03 11:33:40.
