data_PCOD9059889
_publ_section_title
;
Structure prediction by ZEFSAII (Michael W. Deem and Ramdas Pophale) SiO2 
 PCOD9059889
Probable space group: P -1
;
_chemical_formula_sum "Si O2"
_cell_formula_units_Z 12
_cell_length_a 11.336692
_cell_length_b 20.449108
_cell_length_c 8.565523
_cell_angle_alpha 43.223098
_cell_angle_beta 125.425545
_cell_angle_gamma 155.416771
_cell_volume 541.196653
_symmetry_space_group_name_H-M "P -1"
_symmetry_group_IT_number 2
_symmetry_cell_setting 'triclinic'
loop_
_space_group_symop_operation_xyz
x,y,z
-x,-y,-z
loop_
_atom_site_type_symbol
_atom_site_label
_atom_site_fract_x
_atom_site_fract_y
_atom_site_fract_z
Si Si1 0.837719 0.616209 0.827033
Si Si2 0.841087 0.797907 0.055615
Si Si3 0.368696 0.982156 0.074851
Si Si4 0.056649 0.574750 0.243259
Si Si5 0.246990 0.754106 0.637948
Si Si6 0.106122 0.952504 0.337791
O O1 0.501771 0.421408 0.850979
O O2 0.047496 0.685599 0.738151
O O3 0.958079 0.792926 0.621306
O O4 0.881236 0.573136 0.084055
O O5 0.937669 0.844902 0.230054
O O6 0.049802 0.844883 0.042661
O O7 0.904194 0.943363 0.803293
O O8 0.600289 0.200453 0.904861
O O9 0.341466 0.892808 0.351759
O O10 0.500000 0.000000 0.000000
O O11 0.000000 0.500000 0.500000
O O12 0.942517 0.432628 0.277578
O O13 0.549472 0.878502 0.709588
#
# Coordination Sequence:
#
# PCOD9059889 Si02
#       6
#     2   2   2   2   2   2
#     4  12  24  43  75 109 140 182 238 291 349 415
#     4  11  26  42  70 111 143 176 234 297 353 406
#     4  12  26  48  71  97 144 192 235 284 352 426
#     4  12  26  44  71 103 139 188 238 283 346 424
#     4  12  24  44  74 105 140 188 236 285 349 421
#     4  11  23  42  70 109 142 178 227 298 348 406
#
# _framework density 22.173088
#
# number of rings (size 3 to 8) (size 9 to 14) (size 15 to 20)
#    0.000    0.333    6.667    2.500    4.667    0.000 
#    0.000    4.167    0.000    0.000    0.000    0.000 
#    0.000    0.000    0.000    0.000    0.000    0.000 
#
# Total GULP energy -67235.388207 kJ/mol
# GULP energy per Si atom -5602.949017 kJ/mol
# Density = 2.212262 g / cm^3
# Si number density = 22.173088 Si / 1000 Ang^3
#
#
#
# Elastic Constant Matrix: (Units=GPa)
#
#
# Indices 1 2 3 4 5 6 
#
# 1 71.0917 33.0238 35.9504 12.7341 1.3343 16.5944
# 2 33.0238 151.2166 42.8388 -0.7390 -7.2283 26.1081
# 3 35.9504 42.8388 165.9183 9.1204 -0.4485 1.9336
# 4 12.7341 -0.7390 9.1204 40.9421 -0.9235 12.7158
# 5 1.3343 -7.2283 -0.4485 -0.9235 28.8122 0.7368
# 6 16.5944 26.1081 1.9336 12.7158 0.7368 34.2294
#
#
#
# Elastic Compliance Matrix: (Units=1/GPa)
#
#
# Indices 1 2 3 4 5 6 
#
# 1 0.018753 -0.002240 -0.003236 -0.003344 -0.001437 -0.005926
# 2 -0.002240 0.009015 -0.001948 0.003543 0.002629 -0.007052
# 3 -0.003236 -0.001948 0.007284 -0.001676 -0.000363 0.003273
# 4 -0.003344 0.003543 -0.001676 0.029702 0.002278 -0.012070
# 5 -0.001437 0.002629 -0.000363 0.002278 0.035575 -0.002900
# 6 -0.005926 -0.007052 0.003273 -0.012070 -0.002900 0.041828
#
#
# Mechanical properties :
#
#
# Convention : Reuss Voigt Hill
#
# Bulk Modulus (GPa) = 49.49558 67.98362 58.73960
# Shear Modulus (GPa) = 30.53644 39.22430 34.88037
#
# Velocity S-wave (km/s) = 3.71507 4.21052 3.97053
# Velocity P-wave (km/s) = 6.38539 7.37326 6.89703
#
# Compressibility (1/GPa) = 0.02020382
#
# Stress axis : x y z
#
# Youngs Moduli (GPa) = 53.32568 110.93067 137.28683
#
# Poissons Ratio (x) = 0.24854 0.44423
# Poissons Ratio (y) = 0.11947 0.26737
# Poissons Ratio (z) = 0.17255 0.21604
#
# Static dielectric constant tensor:
#      x y z
#    x 1.808470 -0.032970 0.003760 
#    y -0.032970 1.809180 0.015300 
#    z 0.003760 0.015300 1.829420 
# 
# From -- ./inp_files/275175.got.cif
#   From: 2010.05.17/outbox.cif.g08.bks.cpg/sg2_138_cif.got.tgz:275175.got - 2010.06.03 11:33:40.
