data_PCOD9059558
_publ_section_title
;
Structure prediction by ZEFSAII (Michael W. Deem and Ramdas Pophale) SiO2 
 PCOD9059558
Probable space group: P -1
;
_chemical_formula_sum "Si O2"
_cell_formula_units_Z 14
_cell_length_a 18.672484
_cell_length_b 6.706223
_cell_length_c 9.104614
_cell_angle_alpha 102.920791
_cell_angle_beta 46.927733
_cell_angle_gamma 125.569140
_cell_volume 647.866421
_symmetry_space_group_name_H-M "P -1"
_symmetry_group_IT_number 2
_symmetry_cell_setting 'triclinic'
loop_
_space_group_symop_operation_xyz
x,y,z
-x,-y,-z
loop_
_atom_site_type_symbol
_atom_site_label
_atom_site_fract_x
_atom_site_fract_y
_atom_site_fract_z
Si Si1 0.422454 0.515723 0.236217
Si Si2 0.116933 0.574467 0.757740
Si Si3 0.194929 0.462785 0.912121
Si Si4 0.701896 0.839912 0.363405
Si Si5 0.022940 0.302247 0.372872
Si Si6 0.837964 0.704828 0.573516
Si Si7 0.407257 0.023750 0.722243
O O1 0.380149 0.334835 0.411578
O O2 0.299908 0.449326 0.318261
O O3 0.517027 0.795324 0.218381
O O4 0.500000 0.500000 0.000000
O O5 0.192005 0.529110 0.758961
O O6 0.092841 0.389303 0.628671
O O7 0.201388 0.876112 0.658833
O O8 0.000000 0.500000 0.000000
O O9 0.231623 0.273312 0.819765
O O10 0.294657 0.742020 0.886470
O O11 0.066348 0.347607 0.151653
O O12 0.635963 0.864054 0.320189
O O13 0.137290 0.336546 0.302303
O O14 0.000000 0.500000 0.500000
O O15 0.906672 0.007656 0.508147
O O16 0.500000 0.000000 0.500000
#
# Coordination Sequence:
#
# PCOD9059558 Si02
#       7
#     2   2   2   2   2   2   2
#     4  12  27  44  71 101 141 186 233 289 343 410
#     4  11  23  41  72 105 134 172 233 292 342 418
#     4  11  24  42  71 100 132 181 233 278 354 416
#     4  11  24  44  71  98 140 181 227 287 348 411
#     4  11  27  45  71  97 140 185 224 288 360 414
#     4  11  26  47  64 103 143 172 237 285 344 420
#     4  11  24  46  69 101 138 180 237 280 342 421
#
# _framework density 21.609390999999999
#
# number of rings (size 3 to 8) (size 9 to 14) (size 15 to 20)
#    0.000    0.857    2.857    3.000    8.000    3.429 
#    0.000    2.143    0.000    0.000    0.000    0.000 
#    0.000    0.000    0.000    0.000    0.000    0.000 
#
# Total GULP energy -78214.615387 kJ/mol
# GULP energy per Si atom -5586.758242 kJ/mol
# Density = 2.156021 g / cm^3
# Si number density = 21.609391 Si / 1000 Ang^3
#
#
#
# Elastic Constant Matrix: (Units=GPa)
#
#
# Indices 1 2 3 4 5 6 
#
# 1 93.6884 37.2339 5.0072 5.4741 -6.7342 0.7157
# 2 37.2339 109.1520 15.0328 20.3092 1.2803 -7.4948
# 3 5.0072 15.0328 85.9114 24.8602 -0.9696 -12.6786
# 4 5.4741 20.3092 24.8602 38.7863 -2.4141 1.7534
# 5 -6.7342 1.2803 -0.9696 -2.4141 29.8893 7.6444
# 6 0.7157 -7.4948 -12.6786 1.7534 7.6444 35.2809
#
#
#
# Elastic Compliance Matrix: (Units=1/GPa)
#
#
# Indices 1 2 3 4 5 6 
#
# 1 0.012805 -0.004757 -0.000641 0.001439 0.003797 -0.002395
# 2 -0.004757 0.012209 0.000540 -0.006435 -0.003087 0.003873
# 3 -0.000641 0.000540 0.015642 -0.010664 -0.002252 0.006767
# 4 0.001439 -0.006435 -0.010664 0.036483 0.005295 -0.008189
# 5 0.003797 -0.003087 -0.002252 0.005295 0.037329 -0.009894
# 6 -0.002395 0.003873 0.006767 -0.008189 -0.009894 0.034197
#
#
# Mechanical properties :
#
#
# Convention : Reuss Voigt Hill
#
# Bulk Modulus (GPa) = 32.31998 44.81107 38.56552
# Shear Modulus (GPa) = 29.63912 36.22316 32.93114
#
# Velocity S-wave (km/s) = 3.70751 4.09867 3.90799
# Velocity P-wave (km/s) = 5.77204 6.57120 6.18454
#
# Compressibility (1/GPa) = 0.03094061
#
# Stress axis : x y z
#
# Youngs Moduli (GPa) = 78.09174 81.90554 63.93117
#
# Poissons Ratio (x) = 0.38959 0.04097
# Poissons Ratio (y) = 0.37145 -0.03449
# Poissons Ratio (z) = 0.05005 -0.04419
#
# Static dielectric constant tensor:
#      x y z
#    x 2.045310 -0.113470 0.279700 
#    y -0.113470 1.863010 -0.175670 
#    z 0.279700 -0.175670 2.148510 
# 
# From -- ./inp_files/35124.got.cif
#   From: 2010.05.17/outbox.cif.g08.bks.cpg/sg2_18_cif.got.tgz:35124.got - 2010.06.03 11:33:40.
