data_PCOD9059676
_publ_section_title
;
Structure prediction by ZEFSAII (Michael W. Deem and Ramdas Pophale) SiO2 
 PCOD9059676
Probable space group: P -1
;
_chemical_formula_sum "Si O2"
_cell_formula_units_Z 16
_cell_length_a 7.963197
_cell_length_b 8.666527
_cell_length_c 12.998426
_cell_angle_alpha 50.409498
_cell_angle_beta 80.581376
_cell_angle_gamma 72.567905
_cell_volume 659.091116
_symmetry_space_group_name_H-M "P -1"
_symmetry_group_IT_number 2
_symmetry_cell_setting 'triclinic'
loop_
_space_group_symop_operation_xyz
x,y,z
-x,-y,-z
loop_
_atom_site_type_symbol
_atom_site_label
_atom_site_fract_x
_atom_site_fract_y
_atom_site_fract_z
Si Si1 0.766354 0.350048 0.096287
Si Si2 0.810086 0.010221 0.063163
Si Si3 0.596795 0.300557 0.332143
Si Si4 0.160347 0.255279 0.172043
Si Si5 0.223664 0.453966 0.416873
Si Si6 0.304964 0.855540 0.194689
Si Si7 0.304955 0.370156 0.682704
Si Si8 0.846049 0.889033 0.542307
O O1 0.777438 0.153890 0.105682
O O2 0.611160 0.377598 0.182427
O O3 0.948208 0.316500 0.157360
O O4 0.765175 0.549497 0.943629
O O5 0.795087 0.781935 0.188504
O O6 0.676043 0.115368 0.941241
O O7 0.000000 0.000000 0.000000
O O8 0.403839 0.360556 0.374499
O O9 0.705840 0.420321 0.342933
O O10 0.691943 0.058099 0.429333
O O11 0.214745 0.166357 0.316428
O O12 0.225960 0.078263 0.156419
O O13 0.182809 0.698315 0.295380
O O14 0.257069 0.409212 0.552221
O O15 0.097870 0.320907 0.440701
O O16 0.488865 0.753163 0.274873
O O17 0.000000 0.000000 0.500000
#
# Coordination Sequence:
#
# PCOD9059676 Si02
#       8
#     2   2   2   2   2   2   2   2
#     4  11  24  42  67  98 138 177 223 277 343 400
#     4  12  25  43  68 101 139 181 228 279 342 410
#     4  11  23  45  70  98 137 184 222 284 341 397
#     4  11  23  42  66  97 137 177 224 279 337 401
#     4  11  25  46  70 101 138 180 231 283 335 410
#     4  11  23  46  70  99 136 181 232 279 336 407
#     4  11  25  45  71  99 138 185 229 280 339 402
#     4  12  24  41  67 101 136 174 227 279 343 404
#
# _framework density 24.275853000000001
#
# number of rings (size 3 to 8) (size 9 to 14) (size 15 to 20)
#    0.000    0.750    2.500    6.000    1.750    3.000 
#    0.000    5.625    0.000    0.000    0.000    0.000 
#    0.000    0.000    0.000    0.000    0.000    0.000 
#
# Total GULP energy -89734.777994 kJ/mol
# GULP energy per Si atom -5608.423625 kJ/mol
# Density = 2.422060 g / cm^3
# Si number density = 24.275853 Si / 1000 Ang^3
#
#
#
# Elastic Constant Matrix: (Units=GPa)
#
#
# Indices 1 2 3 4 5 6 
#
# 1 70.5217 21.7599 14.2468 2.4169 -10.3480 9.6302
# 2 21.7599 87.5193 7.0327 9.0429 -22.6386 17.9157
# 3 14.2468 7.0327 119.6446 12.1184 -19.4320 12.4655
# 4 2.4169 9.0429 12.1184 51.9496 6.3148 -0.0967
# 5 -10.3480 -22.6386 -19.4320 6.3148 26.5695 -0.8546
# 6 9.6302 17.9157 12.4655 -0.0967 -0.8546 43.5330
#
#
#
# Elastic Compliance Matrix: (Units=1/GPa)
#
#
# Indices 1 2 3 4 5 6 
#
# 1 0.015959 -0.002496 -0.000909 -0.000523 0.003479 -0.002176
# 2 -0.002496 0.019040 0.003801 -0.006446 0.019306 -0.008007
# 3 -0.000909 0.003801 0.011113 -0.004677 0.011985 -0.004320
# 4 -0.000523 -0.006446 -0.004677 0.023259 -0.014520 0.003874
# 5 0.003479 0.019306 0.011985 -0.014520 0.067308 -0.010857
# 6 -0.002176 -0.008007 -0.004320 0.003874 -0.010857 0.027780
#
#
# Mechanical properties :
#
#
# Convention : Reuss Voigt Hill
#
# Bulk Modulus (GPa) = 21.31975 40.41826 30.86901
# Shear Modulus (GPa) = 27.88574 40.05350 33.96962
#
# Velocity S-wave (km/s) = 3.39293 4.06634 3.74480
# Velocity P-wave (km/s) = 4.91433 6.22355 5.60728
#
# Compressibility (1/GPa) = 0.04690487
#
# Stress axis : x y z
#
# Youngs Moduli (GPa) = 62.65974 52.52063 89.98287
#
# Poissons Ratio (x) = 0.13107 0.08179
# Poissons Ratio (y) = 0.15637 -0.34200
# Poissons Ratio (z) = 0.05696 -0.19962
#
# Static dielectric constant tensor:
#      x y z
#    x 2.029160 0.029340 -0.009020 
#    y 0.029340 1.868390 -0.022550 
#    z -0.009020 -0.022550 1.864730 
# 
# From -- ./inp_files/243862.got.cif
#   From: 2010.05.17/outbox.cif.g08.bks.cpg/sg2_122_cif.got.tgz:243862.got - 2010.06.03 11:33:40.
