data_PCOD9059620
_publ_section_title
;
Structure prediction by ZEFSAII (Michael W. Deem and Ramdas Pophale) SiO2 
 PCOD9059620
Probable space group: P -1
;
_chemical_formula_sum "Si O2"
_cell_formula_units_Z 16
_cell_length_a 10.694155
_cell_length_b 5.252294
_cell_length_c 14.997165
_cell_angle_alpha 96.301291
_cell_angle_beta 77.527759
_cell_angle_gamma 54.655833
_cell_volume 641.112354
_symmetry_space_group_name_H-M "P -1"
_symmetry_group_IT_number 2
_symmetry_cell_setting 'triclinic'
loop_
_space_group_symop_operation_xyz
x,y,z
-x,-y,-z
loop_
_atom_site_type_symbol
_atom_site_label
_atom_site_fract_x
_atom_site_fract_y
_atom_site_fract_z
Si Si1 0.641271 0.116846 0.456696
Si Si2 0.314628 0.326907 0.260075
Si Si3 0.352293 0.222298 0.726377
Si Si4 0.186337 0.287423 0.924437
Si Si5 0.808986 0.056884 0.799222
Si Si6 0.153826 0.785201 0.659653
Si Si7 0.322474 0.660374 0.987662
Si Si8 0.823207 0.594922 0.531157
O O1 0.500000 0.500000 0.500000
O O2 0.813402 0.983371 0.379153
O O3 0.589498 0.987775 0.382187
O O4 0.691045 0.976136 0.542701
O O5 0.316372 0.587680 0.214889
O O6 0.219019 0.488935 0.373885
O O7 0.491569 0.995816 0.243562
O O8 0.226629 0.197143 0.220684
O O9 0.206424 0.291023 0.814059
O O10 0.283058 0.572214 0.710314
O O11 0.279419 0.424573 0.955156
O O12 0.000000 0.500000 0.000000
O O13 0.282145 0.914164 0.926722
O O14 0.804664 0.118480 0.905955
O O15 0.978860 0.931340 0.726569
O O16 0.190150 0.565948 0.559302
O O17 0.500000 0.500000 0.000000
O O18 0.000000 0.500000 0.500000
#
# Coordination Sequence:
#
# PCOD9059620 Si02
#       8
#     2   2   2   2   2   2   2   2
#     4  11  25  42  69  98 142 183 231 288 346 415
#     4  12  26  44  71 103 141 185 239 287 346 422
#     4  11  27  44  70 104 141 184 237 285 356 417
#     4  12  27  47  77 107 144 189 239 299 357 433
#     4  12  27  45  73 104 139 185 235 294 352 416
#     4  11  25  42  69  98 143 184 233 290 348 415
#     4  12  26  49  75 105 146 185 240 298 365 422
#     4  11  23  42  63 101 137 182 233 286 344 411
#
# _framework density 24.956623
#
# number of rings (size 3 to 8) (size 9 to 14) (size 15 to 20)
#    0.000    0.500    1.250    6.000   10.500    3.000 
#    0.000    0.000    0.000    0.000    0.000    0.000 
#    0.000    0.000    0.000    0.000    0.000    0.000 
#
# Total GULP energy -89490.329181 kJ/mol
# GULP energy per Si atom -5593.145574 kJ/mol
# Density = 2.489982 g / cm^3
# Si number density = 24.956623 Si / 1000 Ang^3
#
#
#
# Elastic Constant Matrix: (Units=GPa)
#
#
# Indices 1 2 3 4 5 6 
#
# 1 88.8401 21.5883 0.6560 13.0923 -2.4208 1.2648
# 2 21.5883 72.1351 9.7719 -13.4112 2.6246 -2.4280
# 3 0.6560 9.7719 123.7869 -6.6317 -1.6467 4.6327
# 4 13.0923 -13.4112 -6.6317 43.0108 -2.1545 -8.6768
# 5 -2.4208 2.6246 -1.6467 -2.1545 31.5178 2.3510
# 6 1.2648 -2.4280 4.6327 -8.6768 2.3510 34.2620
#
#
#
# Elastic Compliance Matrix: (Units=1/GPa)
#
#
# Indices 1 2 3 4 5 6 
#
# 1 0.013547 -0.005362 0.000130 -0.006229 0.001259 -0.002562
# 2 -0.005362 0.017181 -0.001084 0.007459 -0.001655 0.003564
# 3 0.000130 -0.001084 0.008250 0.000713 0.000659 -0.001062
# 4 -0.006229 0.007459 0.000713 0.029220 0.000336 0.008039
# 5 0.001259 -0.001655 0.000659 0.000336 0.032197 -0.002377
# 6 -0.002562 0.003564 -0.001062 0.008039 -0.002377 0.031877
#
#
# Mechanical properties :
#
#
# Convention : Reuss Voigt Hill
#
# Bulk Modulus (GPa) = 37.95441 38.75494 38.35468
# Shear Modulus (GPa) = 32.53390 38.60786 35.57088
#
# Velocity S-wave (km/s) = 3.61448 3.93746 3.77942
# Velocity P-wave (km/s) = 5.71493 6.01947 5.86918
#
# Compressibility (1/GPa) = 0.02634740
#
# Stress axis : x y z
#
# Youngs Moduli (GPa) = 73.81718 58.20280 121.21243
#
# Poissons Ratio (x) = 0.31209 -0.01581
# Poissons Ratio (y) = 0.39581 0.13136
# Poissons Ratio (z) = -0.00963 0.06308
#
# Static dielectric constant tensor:
#      x y z
#    x 2.114310 0.055990 -0.008760 
#    y 0.055990 2.064810 0.018960 
#    z -0.008760 0.018960 1.955480 
# 
# From -- ./inp_files/98253.got.cif
#   From: 2010.05.17/outbox.cif.g08.bks.cpg/sg2_50_cif.got.tgz:98253.got - 2010.06.03 11:33:40.
