data_PCOD9059278
_publ_section_title
;
Structure prediction by ZEFSAII (Michael W. Deem and Ramdas Pophale) SiO2 
 PCOD9059278
Probable space group: P -1
;
_chemical_formula_sum "Si O2"
_cell_formula_units_Z 16
_cell_length_a 5.352076
_cell_length_b 11.497639
_cell_length_c 24.444519
_cell_angle_alpha 142.038576
_cell_angle_beta 72.546045
_cell_angle_gamma 85.351014
_cell_volume 742.299233
_symmetry_space_group_name_H-M "P -1"
_symmetry_group_IT_number 2
_symmetry_cell_setting 'triclinic'
loop_
_space_group_symop_operation_xyz
x,y,z
-x,-y,-z
loop_
_atom_site_type_symbol
_atom_site_label
_atom_site_fract_x
_atom_site_fract_y
_atom_site_fract_z
Si Si1 0.211742 0.149150 0.241238
Si Si2 0.601662 0.995293 0.428980
Si Si3 0.846803 0.283853 0.908363
Si Si4 0.172544 0.674763 0.954380
Si Si5 0.695243 0.199735 0.704993
Si Si6 0.512057 0.941206 0.039860
Si Si7 0.491149 0.006463 0.726561
Si Si8 0.374610 0.388117 0.508086
O O1 0.469383 0.071996 0.242810
O O2 0.936639 0.394799 0.367954
O O3 0.146361 0.948935 0.174902
O O4 0.323279 0.143131 0.170339
O O5 0.537535 0.227723 0.491388
O O6 0.500000 0.000000 0.500000
O O7 0.414180 0.915705 0.374643
O O8 0.975979 0.833707 0.341500
O O9 0.500000 0.500000 0.000000
O O10 0.923119 0.346052 0.985483
O O11 0.129989 0.208042 0.819089
O O12 0.414412 0.453314 0.823858
O O13 0.356549 0.796628 0.998131
O O14 0.861370 0.810045 0.990247
O O15 0.703409 0.097117 0.726406
O O16 0.500000 0.000000 0.000000
O O17 0.619087 0.789839 0.600025
O O18 0.500000 0.500000 0.500000
#
# Coordination Sequence:
#
# PCOD9059278 Si02
#       8
#     2   2   2   2   2   2   2   2
#     4  11  23  41  63  98 139 184 237 294 365 434
#     4  11  26  49  70 104 141 188 245 304 363 436
#     4  11  24  38  66 101 145 183 226 291 370 438
#     4  11  24  43  67  99 136 180 233 290 361 433
#     4  11  25  42  73 100 138 182 236 296 365 434
#     4  11  25  45  66  97 137 187 244 299 355 432
#     4  11  23  41  67 102 143 185 234 299 371 438
#     4  11  23  42  71 102 141 187 241 300 366 439
#
# _framework density 21.554649000000001
#
# number of rings (size 3 to 8) (size 9 to 14) (size 15 to 20)
#    0.000    1.000    2.500    3.375    8.750    4.000 
#    0.000    1.250    0.000    0.000    0.000    0.000 
#    0.000    0.000    0.000    0.000    0.000    0.000 
#
# Total GULP energy -89256.601480 kJ/mol
# GULP energy per Si atom -5578.537593 kJ/mol
# Density = 2.150559 g / cm^3
# Si number density = 21.554649 Si / 1000 Ang^3
#
#
#
# Elastic Constant Matrix: (Units=GPa)
#
#
# Indices 1 2 3 4 5 6 
#
# 1 94.8223 43.9478 45.7399 -3.3089 -10.2131 -17.9614
# 2 43.9478 116.6258 59.4185 -34.6679 -6.3191 -19.2312
# 3 45.7399 59.4185 175.7311 -9.3473 -21.4320 -12.4596
# 4 -3.3089 -34.6679 -9.3473 36.9069 1.0457 1.2876
# 5 -10.2131 -6.3191 -21.4320 1.0457 36.0293 -3.5229
# 6 -17.9614 -19.2312 -12.4596 1.2876 -3.5229 37.5492
#
#
#
# Elastic Compliance Matrix: (Units=1/GPa)
#
#
# Indices 1 2 3 4 5 6 
#
# 1 0.014654 -0.005003 -0.001691 -0.004043 0.002807 0.004288
# 2 -0.005003 0.017453 -0.003514 0.014899 -0.000407 0.004831
# 3 -0.001691 -0.003514 0.007690 -0.001617 0.003558 0.000332
# 4 -0.004043 0.014899 -0.001617 0.040196 -0.000294 0.003754
# 5 0.002807 -0.000407 0.003558 -0.000294 0.031117 0.005244
# 6 0.004288 0.004831 0.000332 0.003754 0.005244 0.031631
#
#
# Mechanical properties :
#
#
# Convention : Reuss Voigt Hill
#
# Bulk Modulus (GPa) = 51.59577 76.15461 63.87519
# Shear Modulus (GPa) = 29.47795 37.96861 33.72328
#
# Velocity S-wave (km/s) = 3.70211 4.20158 3.95973
# Velocity P-wave (km/s) = 6.50102 7.67759 7.11367
#
# Compressibility (1/GPa) = 0.01938143
#
# Stress axis : x y z
#
# Youngs Moduli (GPa) = 68.23975 57.29598 130.03318
#
# Poissons Ratio (x) = 0.28666 0.21992
# Poissons Ratio (y) = 0.34141 0.45691
# Poissons Ratio (z) = 0.11541 0.20133
#
# Static dielectric constant tensor:
#      x y z
#    x 1.833120 0.030010 -0.029060 
#    y 0.030010 1.859270 -0.049260 
#    z -0.029060 -0.049260 1.763530 
# 
# From -- ./inp_files/118255.got.cif
#   From: 2010.05.17/outbox.cif.g08.bks.cpg/sg2_60_cif.got.tgz:118255.got - 2010.06.03 11:33:40.
