data_PCOD9059559
_publ_section_title
;
Structure prediction by ZEFSAII (Michael W. Deem and Ramdas Pophale) SiO2 
 PCOD9059559
Probable space group: P -1
;
_chemical_formula_sum "Si O2"
_cell_formula_units_Z 16
_cell_length_a 14.371420
_cell_length_b 14.732798
_cell_length_c 8.175705
_cell_angle_alpha 133.255680
_cell_angle_beta 41.058516
_cell_angle_gamma 132.643328
_cell_volume 779.947550
_symmetry_space_group_name_H-M "P -1"
_symmetry_group_IT_number 2
_symmetry_cell_setting 'triclinic'
loop_
_space_group_symop_operation_xyz
x,y,z
-x,-y,-z
loop_
_atom_site_type_symbol
_atom_site_label
_atom_site_fract_x
_atom_site_fract_y
_atom_site_fract_z
Si Si1 0.060490 0.327616 0.203837
Si Si2 0.668680 0.742033 0.389079
Si Si3 0.729553 0.777442 0.734606
Si Si4 0.023295 0.896409 0.703573
Si Si5 0.451681 0.859963 0.303185
Si Si6 0.588171 0.484789 0.695852
Si Si7 0.207622 0.621285 0.514176
Si Si8 0.361187 0.994377 0.295911
O O1 0.146785 0.479475 0.327957
O O2 0.985272 0.235197 0.343525
O O3 0.936061 0.329497 0.236338
O O4 0.184657 0.268952 0.904484
O O5 0.713746 0.779444 0.562600
O O6 0.537373 0.602220 0.369062
O O7 0.611311 0.851170 0.511606
O O8 0.679003 0.627237 0.680002
O O9 0.887318 0.858456 0.707834
O O10 0.603908 0.832892 0.035548
O O11 0.179425 0.948054 0.458559
O O12 0.000000 0.000000 0.000000
O O13 0.336585 0.735442 0.391520
O O14 0.375248 0.890257 0.280561
O O15 0.500000 0.000000 0.500000
O O16 0.708400 0.410919 0.480929
O O17 0.500000 0.500000 0.000000
O O18 0.500000 0.000000 0.000000
#
# Coordination Sequence:
#
# PCOD9059559 Si02
#       8
#     2   2   2   2   2   2   2   2
#     4  11  23  44  72  99 139 183 239 299 342 421
#     4  12  25  46  67 100 148 185 229 294 366 415
#     4  12  26  44  68 105 141 182 232 291 363 422
#     4  12  24  46  76  99 136 191 242 287 346 433
#     4  12  24  41  69 103 135 183 238 283 345 422
#     4  12  22  43  74 102 133 186 239 291 346 430
#     4  11  23  41  72 105 134 175 248 293 336 407
#     4  12  26  47  67 103 147 183 228 297 359 422
#
# _framework density 20.514199999999999
#
# number of rings (size 3 to 8) (size 9 to 14) (size 15 to 20)
#    0.000    0.250    7.500    1.875    0.000    0.500 
#    4.500    0.625    0.000    0.000    0.000    0.000 
#    0.000    0.000    0.000    0.000    0.000    0.000 
#
# Total GULP energy -89269.917722 kJ/mol
# GULP energy per Si atom -5579.369858 kJ/mol
# Density = 2.046751 g / cm^3
# Si number density = 20.514200 Si / 1000 Ang^3
#
#
#
# Elastic Constant Matrix: (Units=GPa)
#
#
# Indices 1 2 3 4 5 6 
#
# 1 110.6040 37.6351 29.4207 -2.1874 -23.4334 17.5825
# 2 37.6351 130.2366 46.7100 -0.5850 1.6223 10.2957
# 3 29.4207 46.7100 94.6803 -4.6345 -29.6329 13.1829
# 4 -2.1874 -0.5850 -4.6345 27.9435 2.4968 -13.6542
# 5 -23.4334 1.6223 -29.6329 2.4968 34.1052 0.1432
# 6 17.5825 10.2957 13.1829 -13.6542 0.1432 47.8317
#
#
#
# Elastic Compliance Matrix: (Units=1/GPa)
#
#
# Indices 1 2 3 4 5 6 
#
# 1 0.013096 -0.004320 0.002212 -0.002233 0.011311 -0.005165
# 2 -0.004320 0.011791 -0.007909 0.000168 -0.010419 0.001309
# 3 0.002212 -0.007909 0.020695 -0.000843 0.019960 -0.005115
# 4 -0.002233 0.000168 -0.000843 0.042377 -0.005432 0.013130
# 5 0.011311 -0.010419 0.019960 -0.005432 0.055367 -0.009133
# 6 -0.005165 0.001309 -0.005115 0.013130 -0.009133 0.027709
#
#
# Mechanical properties :
#
#
# Convention : Reuss Voigt Hill
#
# Bulk Modulus (GPa) = 39.14583 62.56139 50.85361
# Shear Modulus (GPa) = 25.05195 36.75975 30.90585
#
# Velocity S-wave (km/s) = 3.49836 4.23770 3.88565
# Velocity P-wave (km/s) = 5.95330 7.38288 6.70629
#
# Compressibility (1/GPa) = 0.02554550
#
# Stress axis : x y z
#
# Youngs Moduli (GPa) = 76.35732 84.81304 48.32175
#
# Poissons Ratio (x) = 0.36643 -0.10688
# Poissons Ratio (y) = 0.32989 0.38220
# Poissons Ratio (z) = -0.16889 0.67083
#
# Static dielectric constant tensor:
#      x y z
#    x 1.699310 -0.011420 -0.022800 
#    y -0.011420 1.724860 -0.020880 
#    z -0.022800 -0.020880 1.716780 
# 
# From -- ./inp_files/271559.got.cif
#   From: 2010.05.17/outbox.cif.g08.bks.cpg/sg2_136_cif.got.tgz:271559.got - 2010.06.03 11:33:40.
