data_PCOD9059530
_publ_section_title
;
Structure prediction by ZEFSAII (Michael W. Deem and Ramdas Pophale) SiO2 
 PCOD9059530
Probable space group: P -1
;
_chemical_formula_sum "Si O2"
_cell_formula_units_Z 12
_cell_length_a 9.743032
_cell_length_b 8.499683
_cell_length_c 9.564018
_cell_angle_alpha 56.204844
_cell_angle_beta 120.861470
_cell_angle_gamma 107.263199
_cell_volume 564.928769
_symmetry_space_group_name_H-M "P -1"
_symmetry_group_IT_number 2
_symmetry_cell_setting 'triclinic'
loop_
_space_group_symop_operation_xyz
x,y,z
-x,-y,-z
loop_
_atom_site_type_symbol
_atom_site_label
_atom_site_fract_x
_atom_site_fract_y
_atom_site_fract_z
Si Si1 0.758332 0.028975 0.172779
Si Si2 0.640814 0.612359 0.939140
Si Si3 0.045617 0.602301 0.829362
Si Si4 0.140506 0.394167 0.546150
Si Si5 0.565442 0.024993 0.797972
Si Si6 0.537872 0.390336 0.431992
O O1 0.885080 0.187480 0.208308
O O2 0.615085 0.004062 0.223388
O O3 0.835799 0.824331 0.292217
O O4 0.671216 0.091834 0.953058
O O5 0.632475 0.827101 0.878792
O O6 0.600334 0.601225 0.758972
O O7 0.500000 0.500000 0.000000
O O8 0.808635 0.515920 0.100683
O O9 0.904039 0.605057 0.641992
O O10 0.000000 0.500000 0.000000
O O11 0.305249 0.508146 0.598980
O O12 0.000000 0.500000 0.500000
O O13 0.568984 0.176950 0.601561
O O14 0.500000 0.500000 0.500000
#
# Coordination Sequence:
#
# PCOD9059530 Si02
#       6
#     2   2   2   2   2   2
#     4  11  23  43  69  97 134 177 219 275 338 385
#     4  12  24  44  70 100 132 176 227 272 326 395
#     4  12  26  44  67  99 137 174 218 274 339 396
#     4  12  26  44  67  99 137 174 218 274 339 396
#     4  11  23  41  71 101 128 171 233 279 316 389
#     4  12  24  44  70 100 132 176 227 272 326 395
#
# _framework density 21.241616
#
# number of rings (size 3 to 8) (size 9 to 14) (size 15 to 20)
#    0.000    0.333    3.333    7.000    0.000    1.333 
#    0.000    3.333    0.000    0.000    0.000    0.000 
#    0.000    0.000    0.000    0.000    0.000    0.000 
#
# Total GULP energy -67221.364488 kJ/mol
# GULP energy per Si atom -5601.780374 kJ/mol
# Density = 2.119327 g / cm^3
# Si number density = 21.241616 Si / 1000 Ang^3
#
#
#
# Elastic Constant Matrix: (Units=GPa)
#
#
# Indices 1 2 3 4 5 6 
#
# 1 65.3689 10.3695 -10.2529 -11.1610 6.0078 -12.3841
# 2 10.3695 92.3796 18.9219 -13.0658 -1.5527 1.8902
# 3 -10.2529 18.9219 96.7110 -1.4048 3.0472 6.3133
# 4 -11.1610 -13.0658 -1.4048 53.5091 -0.6914 6.2400
# 5 6.0078 -1.5527 3.0472 -0.6914 28.2955 2.4010
# 6 -12.3841 1.8902 6.3133 6.2400 2.4010 32.6999
#
#
#
# Elastic Compliance Matrix: (Units=1/GPa)
#
#
# Indices 1 2 3 4 5 6 
#
# 1 0.018071 -0.002330 0.002134 0.002444 -0.004682 0.006444
# 2 -0.002330 0.012030 -0.002503 0.002607 0.001633 -0.001712
# 3 0.002134 -0.002503 0.011186 0.000237 -0.001694 -0.001128
# 4 0.002444 0.002607 0.000237 0.020213 0.000360 -0.003154
# 5 -0.004682 0.001633 -0.001694 0.000360 0.036983 -0.004325
# 6 0.006444 -0.001712 -0.001128 -0.003154 -0.004325 0.034258
#
#
# Mechanical properties :
#
#
# Convention : Reuss Voigt Hill
#
# Bulk Modulus (GPa) = 27.86344 32.50406 30.18375
# Shear Modulus (GPa) = 33.31062 38.59565 35.95314
#
# Velocity S-wave (km/s) = 3.96432 4.26723 4.11856
# Velocity P-wave (km/s) = 5.83954 6.29399 6.07102
#
# Compressibility (1/GPa) = 0.03588932
#
# Stress axis : x y z
#
# Youngs Moduli (GPa) = 55.33879 83.12398 89.39417
#
# Poissons Ratio (x) = 0.19371 -0.19077
# Poissons Ratio (y) = 0.12896 0.22372
# Poissons Ratio (z) = -0.11810 0.20803
#
# Static dielectric constant tensor:
#      x y z
#    x 1.733080 -0.019340 -0.015330 
#    y -0.019340 1.757700 -0.006690 
#    z -0.015330 -0.006690 1.754770 
# 
# From -- ./inp_files/145278.got.cif
#   From: 2010.05.17/outbox.cif.g08.bks.cpg/sg2_73_cif.got.tgz:145278.got - 2010.06.03 11:33:40.
