data_PCOD9059980
_publ_section_title
;
Structure prediction by ZEFSAII (Michael W. Deem and Ramdas Pophale) SiO2 
 PCOD9059980
Probable space group: P -1
;
_chemical_formula_sum "Si O2"
_cell_formula_units_Z 14
_cell_length_a 10.246569
_cell_length_b 9.441495
_cell_length_c 8.738939
_cell_angle_alpha 63.719552
_cell_angle_beta 60.023054
_cell_angle_gamma 59.334408
_cell_volume 609.557737
_symmetry_space_group_name_H-M "P -1"
_symmetry_group_IT_number 2
_symmetry_cell_setting 'triclinic'
loop_
_space_group_symop_operation_xyz
x,y,z
-x,-y,-z
loop_
_atom_site_type_symbol
_atom_site_label
_atom_site_fract_x
_atom_site_fract_y
_atom_site_fract_z
Si Si1 0.181000 0.779766 0.868382
Si Si2 0.261757 0.517868 0.710280
Si Si3 0.324688 0.137504 0.212172
Si Si4 0.836511 0.768383 0.079529
Si Si5 0.415573 0.686056 0.029636
Si Si6 0.696202 0.928686 0.415169
Si Si7 0.385733 0.741127 0.366371
O O1 0.264285 0.587749 0.845552
O O2 0.244865 0.775645 0.003489
O O3 0.243301 0.913846 0.686324
O O4 0.992560 0.817630 0.949589
O O5 0.130849 0.431732 0.817722
O O6 0.247022 0.688316 0.549357
O O7 0.432732 0.374068 0.626575
O O8 0.473293 0.201826 0.105630
O O9 0.243393 0.182664 0.409893
O O10 0.369560 0.934642 0.282363
O O11 0.249747 0.193255 0.057445
O O12 0.751392 0.848998 0.252221
O O13 0.500000 0.500000 0.000000
O O14 0.385063 0.677991 0.227081
O O15 0.500000 0.000000 0.500000
#
# Coordination Sequence:
#
# PCOD9059980 Si02
#       7
#     2   2   2   2   2   2   2
#     4  12  25  48  69 106 150 183 234 305 371 420
#     4  11  24  43  71 101 143 189 236 295 363 420
#     4  12  25  46  76 106 142 192 246 290 356 438
#     4  12  28  48  73 105 151 190 229 305 376 422
#     4  12  24  41  74 111 140 187 248 300 350 433
#     4  12  26  44  77 108 140 185 251 297 344 433
#     4  11  23  42  72 106 137 184 248 300 342 422
#
# _framework density 22.967472000000001
#
# number of rings (size 3 to 8) (size 9 to 14) (size 15 to 20)
#    0.000    0.286    5.714    3.000    4.000    0.571 
#    2.571    0.714    0.000    0.000    0.000    0.000 
#    0.000    0.000    0.000    0.000    0.000    0.000 
#
# Total GULP energy -78084.735941 kJ/mol
# GULP energy per Si atom -5577.481139 kJ/mol
# Density = 2.291520 g / cm^3
# Si number density = 22.967472 Si / 1000 Ang^3
#
#
#
# Elastic Constant Matrix: (Units=GPa)
#
#
# Indices 1 2 3 4 5 6 
#
# 1 129.1433 37.8215 61.9703 -3.3830 -14.8366 39.7345
# 2 37.8215 101.5467 42.8397 -2.3114 -4.0619 39.5436
# 3 61.9703 42.8397 123.3757 6.6432 -1.9177 22.3742
# 4 -3.3830 -2.3114 6.6432 21.2766 6.1524 -3.7570
# 5 -14.8366 -4.0619 -1.9177 6.1524 41.1072 -4.1774
# 6 39.7345 39.5436 22.3742 -3.7570 -4.1774 32.4199
#
#
#
# Elastic Compliance Matrix: (Units=1/GPa)
#
#
# Indices 1 2 3 4 5 6 
#
# 1 0.016061 0.004843 -0.005881 0.000090 0.003851 -0.021027
# 2 0.004843 0.021061 -0.004523 -0.000804 0.000843 -0.028487
# 3 -0.005881 -0.004523 0.012175 -0.004290 -0.000984 0.003698
# 4 0.000090 -0.000804 -0.004290 0.051899 -0.007107 0.008930
# 5 0.003851 0.000843 -0.000984 -0.007107 0.026567 -0.002470
# 6 -0.021027 -0.028487 0.003698 0.008930 -0.002470 0.089528
#
#
# Mechanical properties :
#
#
# Convention : Reuss Voigt Hill
#
# Bulk Modulus (GPa) = 26.19478 71.03652 48.61565
# Shear Modulus (GPa) = 20.73519 33.05635 26.89577
#
# Velocity S-wave (km/s) = 3.00793 3.79788 3.42576
# Velocity P-wave (km/s) = 4.84701 7.08719 6.07131
#
# Compressibility (1/GPa) = 0.03817555
#
# Stress axis : x y z
#
# Youngs Moduli (GPa) = 62.26187 47.48179 82.13742
#
# Poissons Ratio (x) = -0.22996 0.48303
# Poissons Ratio (y) = -0.30155 0.37151
# Poissons Ratio (z) = 0.36615 0.21476
#
# Static dielectric constant tensor:
#      x y z
#    x 1.861190 -0.033400 0.025630 
#    y -0.033400 1.923900 0.027470 
#    z 0.025630 0.027470 1.929490 
# 
# From -- ./inp_files/157113.got.cif
#   From: 2010.05.17/outbox.cif.g08.bks.cpg/sg2_79_cif.got.tgz:157113.got - 2010.06.03 11:33:40.
