data_PCOD9059138
_publ_section_title
;
Structure prediction by ZEFSAII (Michael W. Deem and Ramdas Pophale) SiO2 
 PCOD9059138
Probable space group: P -1
;
_chemical_formula_sum "Si O2"
_cell_formula_units_Z 16
_cell_length_a 14.258413
_cell_length_b 10.318425
_cell_length_c 12.589715
_cell_angle_alpha 141.715600
_cell_angle_beta 114.344240
_cell_angle_gamma 42.853091
_cell_volume 719.566773
_symmetry_space_group_name_H-M "P -1"
_symmetry_group_IT_number 2
_symmetry_cell_setting 'triclinic'
loop_
_space_group_symop_operation_xyz
x,y,z
-x,-y,-z
loop_
_atom_site_type_symbol
_atom_site_label
_atom_site_fract_x
_atom_site_fract_y
_atom_site_fract_z
Si Si1 0.831660 0.270310 0.472632
Si Si2 0.622128 0.583766 0.378152
Si Si3 0.046406 0.266101 0.459058
Si Si4 0.479328 0.631466 0.959438
Si Si5 0.210470 0.647571 0.060768
Si Si6 0.364715 0.172708 0.133195
Si Si7 0.918238 0.432950 0.865441
Si Si8 0.289985 0.220310 0.632080
O O1 0.735526 0.358668 0.379812
O O2 0.706559 0.504145 0.653130
O O3 0.924454 0.343800 0.531209
O O4 0.952959 0.918772 0.337911
O O5 0.601145 0.418965 0.183455
O O6 0.682343 0.693957 0.409930
O O7 0.452916 0.893756 0.533703
O O8 0.173734 0.202624 0.545503
O O9 0.000000 0.500000 0.500000
O O10 0.086946 0.008192 0.236384
O O11 0.648937 0.429605 0.880269
O O12 0.500000 0.500000 0.000000
O O13 0.408656 0.964247 0.120564
O O14 0.168461 0.555163 0.074262
O O15 0.237643 0.471971 0.855212
O O16 0.215464 0.288761 0.090798
O O17 0.500000 0.000000 0.000000
O O18 0.000000 0.500000 0.000000
#
# Coordination Sequence:
#
# PCOD9059138 Si02
#       8
#     2   2   2   2   2   2   2   2
#     4  11  26  47  73 108 149 197 252 315 374 452
#     4  11  23  41  69 107 149 193 249 301 373 446
#     4  11  24  42  67 105 154 196 242 304 387 449
#     4  12  24  44  76 110 148 191 247 315 369 440
#     4  11  24  44  70 105 144 191 253 305 366 456
#     4  12  27  49  76 105 147 200 250 309 379 448
#     4  11  26  52  72 103 147 193 254 311 377 447
#     4  11  23  40  68 105 149 197 241 304 374 452
#
# _framework density 22.235602
#
# number of rings (size 3 to 8) (size 9 to 14) (size 15 to 20)
#    0.000    0.750    5.000    1.875    5.250    0.500 
#    2.250    1.250    0.000    0.000    0.000    0.000 
#    0.000    0.000    0.000    0.000    0.000    0.000 
#
# Total GULP energy -89276.934639 kJ/mol
# GULP energy per Si atom -5579.808415 kJ/mol
# Density = 2.218499 g / cm^3
# Si number density = 22.235602 Si / 1000 Ang^3
#
#
#
# Elastic Constant Matrix: (Units=GPa)
#
#
# Indices 1 2 3 4 5 6 
#
# 1 80.1968 31.0613 46.2573 6.6729 7.0422 -17.3621
# 2 31.0613 97.5554 7.6364 -10.2334 -15.4535 -11.3504
# 3 46.2573 7.6364 73.7024 -16.3251 -34.5422 -1.0724
# 4 6.6729 -10.2334 -16.3251 32.4451 -15.1932 19.5238
# 5 7.0422 -15.4535 -34.5422 -15.1932 22.0771 3.0885
# 6 -17.3621 -11.3504 -1.0724 19.5238 3.0885 33.0919
#
#
#
# Elastic Compliance Matrix: (Units=1/GPa)
#
#
# Indices 1 2 3 4 5 6 
#
# 1 0.006200 0.000574 0.005181 0.010776 0.014519 -0.004095
# 2 0.000574 0.010107 -0.004029 -0.004693 -0.003586 0.006741
# 3 0.005181 -0.004029 0.001770 -0.013992 -0.012851 0.010848
# 4 0.010776 -0.004693 -0.013992 0.010417 -0.021367 -0.000561
# 5 0.014519 -0.003586 -0.012851 -0.021367 0.000754 0.018507
# 6 -0.004095 0.006741 0.010848 -0.000561 0.018507 0.029338
#
#
# Mechanical properties :
#
#
# Convention : Reuss Voigt Hill
#
# Bulk Modulus (GPa) = 46.44916 46.81829 46.63372
# Shear Modulus (GPa) = 80.24277 28.62279 54.43278
#
# Velocity S-wave (km/s) = 6.01381 3.59172 4.95310
# Velocity P-wave (km/s) = 8.31601 6.18885 7.33000
#
# Compressibility (1/GPa) = 0.02152891
#
# Stress axis : x y z
#
# Youngs Moduli (GPa) = 161.28155 98.93934 565.12202
#
# Poissons Ratio (x) = -0.05681 -2.92799
# Poissons Ratio (y) = -0.09261 2.27713
# Poissons Ratio (z) = -0.83563 0.39867
#
# Static dielectric constant tensor:
#      x y z
#    x 1.669940 -0.012010 -0.026480 
#    y -0.012010 1.887520 0.013460 
#    z -0.026480 0.013460 1.875300 
# 
# From -- ./inp_files/532801.got.cif
#   From: 2010.05.17/outbox.cif.g08.bks.cpg/sg2_267_cif.got.tgz:532801.got - 2010.06.03 11:33:40.
