data_PCOD9059444
_publ_section_title
;
Structure prediction by ZEFSAII (Michael W. Deem and Ramdas Pophale) SiO2 
 PCOD9059444
Probable space group: P -1
;
_chemical_formula_sum "Si O2"
_cell_formula_units_Z 16
_cell_length_a 12.164763
_cell_length_b 7.017906
_cell_length_c 12.329758
_cell_angle_alpha 141.832880
_cell_angle_beta 94.125711
_cell_angle_gamma 91.690274
_cell_volume 642.424396
_symmetry_space_group_name_H-M "P -1"
_symmetry_group_IT_number 2
_symmetry_cell_setting 'triclinic'
loop_
_space_group_symop_operation_xyz
x,y,z
-x,-y,-z
loop_
_atom_site_type_symbol
_atom_site_label
_atom_site_fract_x
_atom_site_fract_y
_atom_site_fract_z
Si Si1 0.734752 0.145830 0.664794
Si Si2 0.126651 0.777754 0.593037
Si Si3 0.096783 0.302854 0.556769
Si Si4 0.147820 0.431201 0.970491
Si Si5 0.104443 0.843231 0.968682
Si Si6 0.552939 0.853629 0.689934
Si Si7 0.333328 0.250761 0.132964
Si Si8 0.343846 0.139900 0.825863
O O1 0.828338 0.401788 0.840534
O O2 0.662689 0.373732 0.699163
O O3 0.808586 0.911208 0.511394
O O4 0.657357 0.958042 0.665968
O O5 0.109800 0.442082 0.497438
O O6 0.037389 0.801208 0.501696
O O7 0.259968 0.866692 0.638011
O O8 0.103640 0.066822 0.798673
O O9 0.122744 0.590158 0.766924
O O10 0.084357 0.641932 0.985661
O O11 0.274710 0.427938 0.927962
O O12 0.212687 0.095809 0.097066
O O13 0.000000 0.000000 0.000000
O O14 0.500000 0.500000 0.500000
O O15 0.582905 0.849657 0.817632
O O16 0.465476 0.100361 0.778164
O O17 0.344025 0.137313 0.957611
#
# Coordination Sequence:
#
# PCOD9059444 Si02
#       8
#     2   2   2   2   2   2   2   2
#     4  11  25  45  71 103 140 186 231 287 354 406
#     4   9  21  40  67  97 128 185 224 276 343 407
#     4  11  23  41  68  99 144 176 225 290 346 409
#     4   9  22  43  67  99 133 181 234 274 343 418
#     4  12  26  43  69 104 142 186 233 285 348 422
#     4  12  26  44  72 104 138 179 237 296 342 412
#     4  11  25  47  69 104 138 185 236 283 346 424
#     4   9  21  46  68  95 137 181 231 278 341 405
#
# _framework density 24.905654999999999
#
# number of rings (size 3 to 8) (size 9 to 14) (size 15 to 20)
#    0.750    0.750    2.500    1.125    5.250    5.500 
#    2.250    0.000    0.000    0.000    0.000    0.000 
#    0.000    0.000    0.000    0.000    0.000    0.000 
#
# Total GULP energy -89348.314860 kJ/mol
# GULP energy per Si atom -5584.269679 kJ/mol
# Density = 2.484897 g / cm^3
# Si number density = 24.905655 Si / 1000 Ang^3
#
#
#
# Elastic Constant Matrix: (Units=GPa)
#
#
# Indices 1 2 3 4 5 6 
#
# 1 98.7184 43.0322 15.1835 7.2594 -9.3229 -12.9606
# 2 43.0322 86.8212 25.2635 3.5765 -7.2472 -10.5295
# 3 15.1835 25.2635 52.5852 21.6939 2.5488 0.5912
# 4 7.2594 3.5765 21.6939 34.1537 -11.2131 -0.8044
# 5 -9.3229 -7.2472 2.5488 -11.2131 36.0174 6.3309
# 6 -12.9606 -10.5295 0.5912 -0.8044 6.3309 46.7894
#
#
#
# Elastic Compliance Matrix: (Units=1/GPa)
#
#
# Indices 1 2 3 4 5 6 
#
# 1 0.013357 -0.006041 -0.000489 -0.001360 0.001480 0.002123
# 2 -0.006041 0.017777 -0.010114 0.007436 0.004702 0.001947
# 3 -0.000489 -0.010114 0.034972 -0.025080 -0.012156 -0.001640
# 4 -0.001360 0.007436 -0.025080 0.050881 0.018769 -0.000051
# 5 0.001480 0.004702 -0.012156 0.018769 0.036319 -0.002970
# 6 0.002123 0.001947 -0.001640 -0.000051 -0.002970 0.022820
#
#
# Mechanical properties :
#
#
# Convention : Reuss Voigt Hill
#
# Bulk Modulus (GPa) = 30.47153 45.00926 37.74039
# Shear Modulus (GPa) = 22.69084 33.70178 28.19631
#
# Velocity S-wave (km/s) = 3.02167 3.68255 3.36836
# Velocity P-wave (km/s) = 4.94321 6.01603 5.50582
#
# Compressibility (1/GPa) = 0.03281751
#
# Stress axis : x y z
#
# Youngs Moduli (GPa) = 74.86830 56.25128 28.59469
#
# Poissons Ratio (x) = 0.33981 0.01398
# Poissons Ratio (y) = 0.45227 0.28921
# Poissons Ratio (z) = 0.03661 0.56894
#
# Static dielectric constant tensor:
#      x y z
#    x 2.016850 0.031300 0.010330 
#    y 0.031300 2.010640 -0.014100 
#    z 0.010330 -0.014100 1.945840 
# 
# From -- ./inp_files/516487.got.cif
#   From: 2010.05.17/outbox.cif.g08.bks.cpg/sg2_259_cif.got.tgz:516487.got - 2010.06.03 11:33:40.
