data_PCOD9059006
_publ_section_title
;
Structure prediction by ZEFSAII (Michael W. Deem and Ramdas Pophale) SiO2 
 PCOD9059006
Probable space group: P -1
;
_chemical_formula_sum "Si O2"
_cell_formula_units_Z 14
_cell_length_a 9.452576
_cell_length_b 5.141589
_cell_length_c 19.988322
_cell_angle_alpha 73.120938
_cell_angle_beta 55.394056
_cell_angle_gamma 71.250167
_cell_volume 749.874673
_symmetry_space_group_name_H-M "P -1"
_symmetry_group_IT_number 2
_symmetry_cell_setting 'triclinic'
loop_
_space_group_symop_operation_xyz
x,y,z
-x,-y,-z
loop_
_atom_site_type_symbol
_atom_site_label
_atom_site_fract_x
_atom_site_fract_y
_atom_site_fract_z
Si Si1 0.414286 0.814298 0.986102
Si Si2 0.136047 0.606638 0.408255
Si Si3 0.308083 0.103132 0.324332
Si Si4 0.882911 0.433683 0.099343
Si Si5 0.484983 0.164928 0.823296
Si Si6 0.157382 0.623191 0.256917
Si Si7 0.023725 0.815350 0.134589
O O1 0.454366 0.908472 0.894814
O O2 0.500000 0.500000 0.000000
O O3 0.209112 0.852833 0.051435
O O4 0.500000 0.000000 0.000000
O O5 0.000000 0.500000 0.500000
O O6 0.706324 0.653855 0.634902
O O7 0.942246 0.302551 0.651331
O O8 0.206881 0.870723 0.395387
O O9 0.209442 0.287738 0.274712
O O10 0.481975 0.934190 0.255026
O O11 0.683179 0.595339 0.136152
O O12 0.963184 0.564813 0.131733
O O13 0.897560 0.107363 0.130480
O O14 0.000000 0.500000 0.000000
O O15 0.659636 0.268440 0.793298
O O16 0.057922 0.740790 0.208681
#
# Coordination Sequence:
#
# PCOD9059006 Si02
#       7
#     2   2   2   2   2   2   2
#     4  12  24  35  61  82 110 154 204 250 296 332
#     4   9  18  34  59  95 124 139 176 242 304 347
#     4   9  20  33  59  86 119 145 191 226 292 347
#     4  12  28  41  55  80 120 163 204 251 293 333
#     4  11  23  40  57  83 118 158 202 241 291 351
#     4   9  22  37  64  87 117 149 200 238 294 350
#     4  12  25  41  57  84 115 155 209 247 294 335
#
# _framework density 18.669785000000001
#
# number of rings (size 3 to 8) (size 9 to 14) (size 15 to 20)
#    0.857    0.571    2.857    2.571    6.000    0.000 
#    0.000    0.000    0.000    0.000    0.000   14.000 
#    0.000    0.000    0.000    0.000    0.000    0.000 
#
# Total GULP energy -78064.097330 kJ/mol
# GULP energy per Si atom -5576.006952 kJ/mol
# Density = 1.862729 g / cm^3
# Si number density = 18.669785 Si / 1000 Ang^3
#
#
#
# Elastic Constant Matrix: (Units=GPa)
#
#
# Indices 1 2 3 4 5 6 
#
# 1 42.8389 0.3676 10.5411 -0.4184 6.8200 2.5122
# 2 0.3676 105.7851 16.3320 -4.4863 -10.0692 0.3034
# 3 10.5411 16.3320 107.7409 -13.8257 2.8993 -13.0496
# 4 -0.4184 -4.4863 -13.8257 28.7466 5.6755 -3.3852
# 5 6.8200 -10.0692 2.8993 5.6755 13.9762 -0.8480
# 6 2.5122 0.3034 -13.0496 -3.3852 -0.8480 30.1689
#
#
#
# Elastic Compliance Matrix: (Units=1/GPa)
#
#
# Indices 1 2 3 4 5 6 
#
# 1 0.026338 -0.000991 -0.002273 0.001481 -0.013902 -0.003391
# 2 -0.000991 0.010567 -0.001989 -0.001177 0.008941 -0.000765
# 3 -0.002273 -0.001989 0.011538 0.006913 -0.005171 0.005830
# 4 0.001481 -0.001177 0.006913 0.042720 -0.019921 0.007112
# 5 -0.013902 0.008941 -0.005171 -0.019921 0.093892 -0.000765
# 6 -0.003391 -0.000765 0.005830 0.007112 -0.000765 0.036735
#
#
# Mechanical properties :
#
#
# Convention : Reuss Voigt Hill
#
# Bulk Modulus (GPa) = 26.36067 34.53847 30.44957
# Shear Modulus (GPa) = 20.41303 29.85330 25.13316
#
# Velocity S-wave (km/s) = 3.31021 4.00311 3.67303
# Velocity P-wave (km/s) = 5.36284 6.31715 5.85945
#
# Compressibility (1/GPa) = 0.03793530
#
# Stress axis : x y z
#
# Youngs Moduli (GPa) = 37.96851 94.63419 86.67085
#
# Poissons Ratio (x) = 0.09381 0.19702
# Poissons Ratio (y) = 0.03764 0.17240
# Poissons Ratio (z) = 0.08631 0.18824
#
# Static dielectric constant tensor:
#      x y z
#    x 1.662900 0.005660 0.009970 
#    y 0.005660 1.701200 0.019320 
#    z 0.009970 0.019320 1.656880 
# 
# From -- ./inp_files/585094.got.cif
#   From: 2010.05.17/outbox.cif.g08.bks.cpg/sg2_293_cif.got.tgz:585094.got - 2010.06.03 11:33:40.
