data_PCOD9059764
_publ_section_title
;
Structure prediction by ZEFSAII (Michael W. Deem and Ramdas Pophale) SiO2 
 PCOD9059764
Probable space group: P -1
;
_chemical_formula_sum "Si O2"
_cell_formula_units_Z 16
_cell_length_a 16.869942
_cell_length_b 17.185178
_cell_length_c 9.213724
_cell_angle_alpha 150.614419
_cell_angle_beta 139.997667
_cell_angle_gamma 31.328747
_cell_volume 679.023492
_symmetry_space_group_name_H-M "P -1"
_symmetry_group_IT_number 2
_symmetry_cell_setting 'triclinic'
loop_
_space_group_symop_operation_xyz
x,y,z
-x,-y,-z
loop_
_atom_site_type_symbol
_atom_site_label
_atom_site_fract_x
_atom_site_fract_y
_atom_site_fract_z
Si Si1 0.224576 0.238196 0.471668
Si Si2 0.155249 0.818332 0.354116
Si Si3 0.121004 0.591530 0.693698
Si Si4 0.657153 0.441220 0.552054
Si Si5 0.282732 0.048466 0.966231
Si Si6 0.113579 0.793188 0.736446
Si Si7 0.903381 0.720683 0.165831
Si Si8 0.619428 0.837805 0.129543
O O1 0.217967 0.391659 0.599751
O O2 0.340334 0.169090 0.654939
O O3 0.052467 0.341371 0.454284
O O4 0.258786 0.064562 0.131363
O O5 0.227426 0.645652 0.291893
O O6 0.268152 0.883944 0.611905
O O7 0.123647 0.747489 0.049694
O O8 0.000000 0.000000 0.500000
O O9 0.167382 0.619348 0.646040
O O10 0.500000 0.500000 0.500000
O O11 0.736219 0.281498 0.271792
O O12 0.640591 0.635504 0.796331
O O13 0.145465 0.245863 0.015460
O O14 0.447077 0.004094 0.110526
O O15 0.001148 0.797565 0.469841
O O16 0.000000 0.000000 0.000000
O O17 0.743340 0.843305 0.225244
O O18 0.000000 0.500000 0.000000
#
# Coordination Sequence:
#
# PCOD9059764 Si02
#       8
#     2   2   2   2   2   2   2   2
#     4  11  24  41  70 104 143 183 241 303 359 424
#     4  12  23  42  72 102 140 191 253 293 355 439
#     4  11  23  42  68 107 137 183 248 304 354 419
#     4  12  26  48  73 105 151 200 238 300 375 441
#     4  12  26  43  70 104 143 190 238 303 361 437
#     4  12  26  45  75 109 145 189 250 309 356 427
#     4  12  25  46  74 104 141 191 246 299 361 436
#     4  12  25  46  71 103 148 188 240 296 375 439
#
# _framework density 23.563248999999999
#
# number of rings (size 3 to 8) (size 9 to 14) (size 15 to 20)
#    0.000    0.250    6.250    3.750    1.750    0.000 
#    2.250    0.625    0.000    0.000    0.000    0.000 
#    0.000    0.000    0.000    0.000    0.000    0.000 
#
# Total GULP energy -89477.428586 kJ/mol
# GULP energy per Si atom -5592.339287 kJ/mol
# Density = 2.350962 g / cm^3
# Si number density = 23.563249 Si / 1000 Ang^3
#
#
#
# Elastic Constant Matrix: (Units=GPa)
#
#
# Indices 1 2 3 4 5 6 
#
# 1 127.7598 27.5016 32.1957 -5.6797 -11.6209 -12.4934
# 2 27.5016 98.0273 39.5311 -24.7520 -4.3355 -9.2497
# 3 32.1957 39.5311 110.2241 -16.6821 -14.5059 -0.3334
# 4 -5.6797 -24.7520 -16.6821 37.0172 6.9149 -1.2795
# 5 -11.6209 -4.3355 -14.5059 6.9149 35.1096 -0.7066
# 6 -12.4934 -9.2497 -0.3334 -1.2795 -0.7066 42.0280
#
#
#
# Elastic Compliance Matrix: (Units=1/GPa)
#
#
# Indices 1 2 3 4 5 6 
#
# 1 0.009054 -0.001703 -0.001873 -0.000933 0.002243 0.002311
# 2 -0.001703 0.014407 -0.003669 0.008163 -0.001851 0.002853
# 3 -0.001873 -0.003669 0.011652 0.001844 0.003355 -0.001159
# 4 -0.000933 0.008163 0.001844 0.034223 -0.005229 0.002488
# 5 0.002243 -0.001851 0.003355 -0.005229 0.031425 0.000655
# 6 0.002311 0.002853 -0.001159 0.002488 0.000655 0.025186
#
#
# Mechanical properties :
#
#
# Convention : Reuss Voigt Hill
#
# Bulk Modulus (GPa) = 48.48781 59.38536 53.93658
# Shear Modulus (GPa) = 33.94122 38.61648 36.27885
#
# Velocity S-wave (km/s) = 3.79942 4.05266 3.92808
# Velocity P-wave (km/s) = 6.31426 6.86702 6.59643
#
# Compressibility (1/GPa) = 0.02062374
#
# Stress axis : x y z
#
# Youngs Moduli (GPa) = 110.44428 69.40983 85.81912
#
# Poissons Ratio (x) = 0.11822 0.16073
# Poissons Ratio (y) = 0.18811 0.31487
# Poissons Ratio (z) = 0.20685 0.25467
#
# Static dielectric constant tensor:
#      x y z
#    x 1.945420 -0.008450 -0.003420 
#    y -0.008450 1.928030 0.080590 
#    z -0.003420 0.080590 1.948940 
# 
# From -- ./inp_files/218931.got.cif
#   From: 2010.05.17/outbox.cif.g08.bks.cpg/sg2_110_cif.got.tgz:218931.got - 2010.06.03 11:33:40.
