data_PCOD9059056
_publ_section_title
;
Structure prediction by ZEFSAII (Michael W. Deem and Ramdas Pophale) SiO2 
 PCOD9059056
Probable space group: P -1
;
_chemical_formula_sum "Si O2"
_cell_formula_units_Z 16
_cell_length_a 12.686995
_cell_length_b 8.410347
_cell_length_c 8.362895
_cell_angle_alpha 116.950808
_cell_angle_beta 73.326676
_cell_angle_gamma 120.282491
_cell_volume 684.912615
_symmetry_space_group_name_H-M "P -1"
_symmetry_group_IT_number 2
_symmetry_cell_setting 'triclinic'
loop_
_space_group_symop_operation_xyz
x,y,z
-x,-y,-z
loop_
_atom_site_type_symbol
_atom_site_label
_atom_site_fract_x
_atom_site_fract_y
_atom_site_fract_z
Si Si1 0.111153 0.829399 0.640165
Si Si2 0.365615 0.479344 0.524611
Si Si3 0.558457 0.421488 0.800611
Si Si4 0.619073 0.128358 0.115223
Si Si5 0.752897 0.384672 0.901164
Si Si6 0.615211 0.967701 0.373843
Si Si7 0.015845 0.452106 0.707014
Si Si8 0.841282 0.735432 0.244016
O O1 0.252021 0.900014 0.552610
O O2 0.095549 0.683275 0.731094
O O3 0.005513 0.686010 0.502356
O O4 0.103874 0.039517 0.740521
O O5 0.500000 0.500000 0.500000
O O6 0.351907 0.456513 0.327227
O O7 0.375981 0.684579 0.695739
O O8 0.250898 0.307209 0.584873
O O9 0.636625 0.323208 0.809547
O O10 0.439069 0.265722 0.688209
O O11 0.500000 0.500000 0.000000
O O12 0.632148 0.994332 0.187152
O O13 0.723241 0.225537 0.982538
O O14 0.500000 0.000000 0.000000
O O15 0.881187 0.427147 0.790436
O O16 0.767294 0.589651 0.067466
O O17 0.500000 0.000000 0.500000
O O18 0.066872 0.355982 0.776623
#
# Coordination Sequence:
#
# PCOD9059056 Si02
#       8
#     2   2   2   2   2   2   2   2
#     4  11  25  45  72 103 136 189 241 295 357 428
#     4  11  24  41  66  97 144 186 228 294 359 420
#     4  12  24  42  67 102 145 184 234 294 360 425
#     4  11  23  40  65 103 142 185 232 285 358 429
#     4  11  24  44  70 102 143 188 235 294 361 427
#     4  12  23  41  70 101 143 185 234 292 360 428
#     4  11  26  46  74  99 142 186 244 299 354 424
#     4  11  25  47  69 104 144 182 243 295 356 431
#
# _framework density 23.360645000000002
#
# number of rings (size 3 to 8) (size 9 to 14) (size 15 to 20)
#    0.000    0.750    2.500    6.000    3.500    0.500 
#    0.000    0.000    0.000    0.000    0.000    0.000 
#    0.000    0.000    0.000    0.000    0.000    0.000 
#
# Total GULP energy -89229.566406 kJ/mol
# GULP energy per Si atom -5576.847900 kJ/mol
# Density = 2.330747 g / cm^3
# Si number density = 23.360645 Si / 1000 Ang^3
#
#
#
# Elastic Constant Matrix: (Units=GPa)
#
#
# Indices 1 2 3 4 5 6 
#
# 1 108.2811 27.6881 11.1032 -6.0155 -6.2440 -1.6602
# 2 27.6881 156.8329 28.2120 0.8585 -2.9526 -1.8092
# 3 11.1032 28.2120 74.0560 -5.9146 1.1165 0.9857
# 4 -6.0155 0.8585 -5.9146 30.3101 5.8853 1.1798
# 5 -6.2440 -2.9526 1.1165 5.8853 40.4342 -5.8880
# 6 -1.6602 -1.8092 0.9857 1.1798 -5.8880 37.7567
#
#
#
# Elastic Compliance Matrix: (Units=1/GPa)
#
#
# Indices 1 2 3 4 5 6 
#
# 1 0.009890 -0.001584 -0.000779 0.001587 0.001279 0.000529
# 2 -0.001584 0.007145 -0.002592 -0.001154 0.000585 0.000468
# 3 -0.000779 -0.002592 0.014886 0.003108 -0.001296 -0.000846
# 4 0.001587 -0.001154 0.003108 0.035057 -0.005318 -0.001991
# 5 0.001279 0.000585 -0.001296 -0.005318 0.026423 0.004405
# 6 0.000529 0.000468 -0.000846 -0.001991 0.004405 0.027302
#
#
# Mechanical properties :
#
#
# Convention : Reuss Voigt Hill
#
# Bulk Modulus (GPa) = 45.43011 52.57517 49.00264
# Shear Modulus (GPa) = 36.24497 39.84465 38.04481
#
# Velocity S-wave (km/s) = 3.94323 4.13441 4.03995
# Velocity P-wave (km/s) = 6.34205 6.73393 6.54093
#
# Compressibility (1/GPa) = 0.02201183
#
# Stress axis : x y z
#
# Youngs Moduli (GPa) = 101.10938 139.96106 67.17549
#
# Poissons Ratio (x) = 0.22177 0.05232
# Poissons Ratio (y) = 0.16021 0.17409
# Poissons Ratio (z) = 0.07875 0.36271
#
# Static dielectric constant tensor:
#      x y z
#    x 1.858660 -0.048100 -0.006340 
#    y -0.048100 1.959380 0.007860 
#    z -0.006340 0.007860 1.929820 
# 
# From -- ./inp_files/245432.got.cif
#   From: 2010.05.17/outbox.cif.g08.bks.cpg/sg2_123_cif.got.tgz:245432.got - 2010.06.03 11:33:40.
