data_PCOD9059861
_publ_section_title
;
Structure prediction by ZEFSAII (Michael W. Deem and Ramdas Pophale) SiO2 
 PCOD9059861
Probable space group: P -1
;
_chemical_formula_sum "Si O2"
_cell_formula_units_Z 13
_cell_length_a 8.740951
_cell_length_b 9.653598
_cell_length_c 11.097819
_cell_angle_alpha 121.601427
_cell_angle_beta 91.834624
_cell_angle_gamma 48.009260
_cell_volume 512.285602
_symmetry_space_group_name_H-M "P -1"
_symmetry_group_IT_number 2
_symmetry_cell_setting 'triclinic'
loop_
_space_group_symop_operation_xyz
x,y,z
-x,-y,-z
loop_
_atom_site_type_symbol
_atom_site_label
_atom_site_fract_x
_atom_site_fract_y
_atom_site_fract_z
Si Si1 0.071154 0.096103 0.203621
Si Si2 0.825432 0.479715 0.811059
Si Si3 0.000000 0.500000 0.000000
Si Si4 0.640041 0.996997 0.404470
Si Si5 0.208213 0.626971 0.906809
Si Si6 0.245729 0.292528 0.334503
Si Si7 0.745375 0.164163 0.679569
O O1 0.240326 0.112702 0.206147
O O2 0.850109 0.323746 0.216060
O O3 0.056004 0.074522 0.336693
O O4 0.173772 0.842183 0.042864
O O5 0.772708 0.579312 0.722929
O O6 0.773539 0.333912 0.754116
O O7 0.111625 0.286670 0.765007
O O8 0.743924 0.664048 0.997070
O O9 0.965631 0.347694 0.012563
O O10 0.459903 0.167918 0.369971
O O11 0.736946 0.076349 0.512925
O O12 0.500000 0.000000 0.500000
O O13 0.520585 0.646738 0.191501
O O14 0.000000 0.500000 0.500000
#
# Coordination Sequence:
#
# PCOD9059861 Si02
#       7
#     2   2   1   2   2   2   2
#     4  11  23  42  70 102 134 182 227 276 346 404
#     4  12  27  44  68 106 138 179 230 287 337 411
#     4  12  24  46  72 102 142 176 232 280 346 408
#     4  12  24  43  72  97 132 183 231 279 340 403
#     4  11  25  45  70 102 139 182 226 287 337 415
#     4  12  24  44  72 102 138 183 231 282 341 405
#     4  12  25  46  70  98 142 181 227 285 347 400
#
# _framework density 25.376470000000001
#
# number of rings (size 3 to 8) (size 9 to 14) (size 15 to 20)
#    0.000    0.308    6.154    2.769    0.000    1.846 
#    0.000    2.308    0.000    0.000    0.000    0.000 
#    0.000    0.000    0.000    0.000    0.000    0.000 
#
# Total GULP energy -72611.519479 kJ/mol
# GULP energy per Si atom -5585.501498 kJ/mol
# Density = 2.531871 g / cm^3
# Si number density = 25.376470 Si / 1000 Ang^3
#
#
#
# Elastic Constant Matrix: (Units=GPa)
#
#
# Indices 1 2 3 4 5 6 
#
# 1 148.5899 66.8492 66.7977 -11.0714 29.7803 12.1259
# 2 66.8492 174.1159 48.3066 -65.4692 5.9927 -2.9947
# 3 66.7977 48.3066 82.8826 -13.7195 28.1360 -6.7968
# 4 -11.0714 -65.4692 -13.7195 55.7646 -10.9199 5.9902
# 5 29.7803 5.9927 28.1360 -10.9199 60.1428 -2.3232
# 6 12.1259 -2.9947 -6.7968 5.9902 -2.3232 58.1871
#
#
#
# Elastic Compliance Matrix: (Units=1/GPa)
#
#
# Indices 1 2 3 4 5 6 
#
# 1 0.012822 -0.004690 -0.007574 -0.005123 -0.003400 -0.003406
# 2 -0.004690 0.014600 -0.003967 0.016368 0.005688 -0.000193
# 3 -0.007574 -0.003967 0.022715 -0.002323 -0.006749 0.003997
# 4 -0.005123 0.016368 -0.002323 0.037470 0.008724 -0.001870
# 5 -0.003400 0.005688 -0.006749 0.008724 0.022493 0.000213
# 6 -0.003406 -0.000193 0.003997 -0.001870 0.000213 0.018554
#
#
# Mechanical properties :
#
#
# Convention : Reuss Voigt Hill
#
# Bulk Modulus (GPa) = 56.57043 85.49946 71.03495
# Shear Modulus (GPa) = 29.93888 49.72791 39.83340
#
# Velocity S-wave (km/s) = 3.43853 4.43155 3.96624
# Velocity P-wave (km/s) = 6.17297 7.74276 7.00200
#
# Compressibility (1/GPa) = 0.01767708
#
# Stress axis : x y z
#
# Youngs Moduli (GPa) = 77.98976 68.49366 44.02331
#
# Poissons Ratio (x) = 0.32121 0.33341
# Poissons Ratio (y) = 0.36575 0.17464
# Poissons Ratio (z) = 0.59066 0.27171
#
# Static dielectric constant tensor:
#      x y z
#    x 1.946330 -0.011470 0.054890 
#    y -0.011470 2.028080 0.025210 
#    z 0.054890 0.025210 2.493200 
# 
# From -- ./inp_files/376900.got.cif
#   From: 2010.05.17/outbox.cif.g08.bks.cpg/sg2_189_cif.got.tgz:376900.got - 2010.06.03 11:33:40.
