data_PCOD9059351
_publ_section_title
;
Structure prediction by ZEFSAII (Michael W. Deem and Ramdas Pophale) SiO2 
 PCOD9059351
Probable space group: P -1
;
_chemical_formula_sum "Si O2"
_cell_formula_units_Z 16
_cell_length_a 9.525706
_cell_length_b 20.000358
_cell_length_c 5.259469
_cell_angle_alpha 92.687937
_cell_angle_beta 114.739228
_cell_angle_gamma 50.676934
_cell_volume 669.163129
_symmetry_space_group_name_H-M "P -1"
_symmetry_group_IT_number 2
_symmetry_cell_setting 'triclinic'
loop_
_space_group_symop_operation_xyz
x,y,z
-x,-y,-z
loop_
_atom_site_type_symbol
_atom_site_label
_atom_site_fract_x
_atom_site_fract_y
_atom_site_fract_z
Si Si1 0.043945 0.719173 0.152286
Si Si2 0.513165 0.450183 0.746252
Si Si3 0.146023 0.448296 0.359213
Si Si4 0.554368 0.917706 0.373182
Si Si5 0.751683 0.159930 0.343576
Si Si6 0.004833 0.798599 0.646362
Si Si7 0.110168 0.010064 0.862615
Si Si8 0.322335 0.258969 0.288525
O O1 0.251896 0.646444 0.126996
O O2 0.097734 0.723143 0.481355
O O3 0.941136 0.800377 0.888011
O O4 0.877337 0.707322 0.021504
O O5 0.500000 0.500000 0.500000
O O6 0.335976 0.445443 0.558063
O O7 0.500000 0.500000 0.000000
O O8 0.240432 0.345433 0.405390
O O9 0.000000 0.500000 0.500000
O O10 0.000000 0.500000 0.000000
O O11 0.590773 0.831940 0.509957
O O12 0.765451 0.873716 0.370334
O O13 0.500000 0.000000 0.500000
O O14 0.333689 0.974624 0.080277
O O15 0.825791 0.191972 0.202357
O O16 0.812025 0.067659 0.296661
O O17 0.515453 0.230948 0.265926
O O18 0.935638 0.116284 0.681292
O O19 0.000000 0.000000 0.000000
#
# Coordination Sequence:
#
# PCOD9059351 Si02
#       8
#     2   2   2   2   2   2   2   2
#     4  11  25  46  69 106 147 189 244 301 367 448
#     4  12  25  47  79 114 149 193 245 314 387 456
#     4  12  28  51  81 115 154 199 252 317 386 455
#     4  11  25  45  73 104 147 201 248 308 369 443
#     4  11  25  41  67 102 136 196 243 311 367 440
#     4  11  26  43  69 101 143 197 245 302 365 438
#     4  11  23  41  66  95 144 186 251 303 369 434
#     4  11  25  47  73 110 148 198 250 307 378 450
#
# _framework density 23.910463
#
# number of rings (size 3 to 8) (size 9 to 14) (size 15 to 20)
#    0.000    0.750    1.250    5.250    7.000    6.500 
#    0.000    0.000    0.000    0.000    0.000    0.000 
#    0.000    0.000    0.000    0.000    0.000    0.000 
#
# Total GULP energy -89145.741085 kJ/mol
# GULP energy per Si atom -5571.608818 kJ/mol
# Density = 2.385604 g / cm^3
# Si number density = 23.910463 Si / 1000 Ang^3
#
#
#
# Elastic Constant Matrix: (Units=GPa)
#
#
# Indices 1 2 3 4 5 6 
#
# 1 142.0962 34.8346 37.3739 1.9493 31.6956 -14.6120
# 2 34.8346 114.9987 34.8874 28.0601 8.5393 -8.7386
# 3 37.3739 34.8874 109.1355 27.9945 17.2035 1.4453
# 4 1.9493 28.0601 27.9945 37.6341 -0.8105 4.5425
# 5 31.6956 8.5393 17.2035 -0.8105 58.1290 -3.9471
# 6 -14.6120 -8.7386 1.4453 4.5425 -3.9471 50.6560
#
#
#
# Elastic Compliance Matrix: (Units=1/GPa)
#
#
# Indices 1 2 3 4 5 6 
#
# 1 0.009278 -0.002304 -0.002606 0.002877 -0.003787 0.001800
# 2 -0.002304 0.011871 -0.000859 -0.008356 -0.000205 0.002141
# 3 -0.002606 -0.000859 0.013003 -0.008870 -0.002471 -0.000668
# 4 0.002877 -0.008356 -0.008870 0.039756 0.002586 -0.003722
# 5 -0.003787 -0.000205 -0.002471 0.002586 0.020084 0.000276
# 6 0.001800 0.002141 -0.000668 -0.003722 0.000276 0.021004
#
#
# Mechanical properties :
#
#
# Convention : Reuss Voigt Hill
#
# Bulk Modulus (GPa) = 44.21620 64.49136 54.35378
# Shear Modulus (GPa) = 37.29388 46.55944 41.92666
#
# Velocity S-wave (km/s) = 3.95363 4.41754 4.19201
# Velocity P-wave (km/s) = 6.27488 7.28355 6.79795
#
# Compressibility (1/GPa) = 0.02261614
#
# Stress axis : x y z
#
# Youngs Moduli (GPa) = 107.78244 84.24026 76.90415
#
# Poissons Ratio (x) = 0.19408 0.20038
# Poissons Ratio (y) = 0.24831 0.06602
# Poissons Ratio (z) = 0.28083 0.07232
#
# Static dielectric constant tensor:
#      x y z
#    x 4.103390 1.548050 5.045440 
#    y 1.548050 2.968550 3.675330 
#    z 5.045440 3.675330 14.485090 
# 
# From -- ./inp_files/53316.got.cif
#   From: 2010.05.17/outbox.cif.g08.bks.cpg/sg2_27_cif.got.tgz:53316.got - 2010.06.03 11:33:40.
