data_PCOD9059789
_publ_section_title
;
Structure prediction by ZEFSAII (Michael W. Deem and Ramdas Pophale) SiO2 
 PCOD9059789
Probable space group: P -1
;
_chemical_formula_sum "Si O2"
_cell_formula_units_Z 14
_cell_length_a 11.522512
_cell_length_b 19.150867
_cell_length_c 11.094630
_cell_angle_alpha 21.437108
_cell_angle_beta 124.818476
_cell_angle_gamma 135.488917
_cell_volume 584.684254
_symmetry_space_group_name_H-M "P -1"
_symmetry_group_IT_number 2
_symmetry_cell_setting 'triclinic'
loop_
_space_group_symop_operation_xyz
x,y,z
-x,-y,-z
loop_
_atom_site_type_symbol
_atom_site_label
_atom_site_fract_x
_atom_site_fract_y
_atom_site_fract_z
Si Si1 0.789948 0.851641 0.612643
Si Si2 0.001005 0.287571 0.646635
Si Si3 0.721242 0.357615 0.375174
Si Si4 0.716094 0.792410 0.396133
Si Si5 0.605925 0.041525 0.307823
Si Si6 0.658816 0.351353 0.612150
Si Si7 0.158305 0.498565 0.147176
O O1 0.739216 0.885243 0.396417
O O2 0.713465 0.931629 0.538539
O O3 0.709059 0.574870 0.020501
O O4 0.000000 0.000000 0.500000
O O5 0.917566 0.432650 0.362774
O O6 0.152076 0.389343 0.674153
O O7 0.086783 0.337936 0.485318
O O8 0.839070 0.016487 0.019608
O O9 0.655311 0.249270 0.644008
O O10 0.599976 0.173046 0.493865
O O11 0.510159 0.649830 0.470995
O O12 0.780419 0.626062 0.698958
O O13 0.656307 0.203194 0.958848
O O14 0.677098 0.229919 0.155195
O O15 0.000000 0.500000 0.000000
#
# Coordination Sequence:
#
# PCOD9059789 Si02
#       7
#     2   2   2   2   2   2   2
#     4  12  24  41  69  99 138 179 227 282 338 399
#     4  11  24  43  72 100 136 181 226 280 338 405
#     4  12  22  43  69 105 137 175 230 279 343 398
#     4  12  24  46  71  99 138 178 228 282 334 409
#     4  11  23  42  68  98 137 176 223 282 333 404
#     4  11  23  42  71 103 139 173 227 282 340 398
#     4  11  26  49  68  98 139 181 228 278 342 406
#
# _framework density 23.944548999999999
#
# number of rings (size 3 to 8) (size 9 to 14) (size 15 to 20)
#    0.000    0.571    2.857    6.857    0.000    2.286 
#    2.571    1.429    0.000    0.000    0.000    0.000 
#    0.000    0.000    0.000    0.000    0.000    0.000 
#
# Total GULP energy -78414.723852 kJ/mol
# GULP energy per Si atom -5601.051704 kJ/mol
# Density = 2.389005 g / cm^3
# Si number density = 23.944549 Si / 1000 Ang^3
#
#
#
# Elastic Constant Matrix: (Units=GPa)
#
#
# Indices 1 2 3 4 5 6 
#
# 1 78.2399 26.4260 5.6679 -7.9937 18.4025 16.6349
# 2 26.4260 129.0528 9.3311 -13.2947 0.4043 27.2483
# 3 5.6679 9.3311 65.4443 1.8491 3.8594 1.9823
# 4 -7.9937 -13.2947 1.8491 28.8366 3.8023 -5.1044
# 5 18.4025 0.4043 3.8594 3.8023 41.4953 5.5000
# 6 16.6349 27.2483 1.9823 -5.1044 5.5000 53.4945
#
#
#
# Elastic Compliance Matrix: (Units=1/GPa)
#
#
# Indices 1 2 3 4 5 6 
#
# 1 0.016265 -0.002266 -0.000694 0.003958 -0.007122 -0.002768
# 2 -0.002266 0.009420 -0.001187 0.002933 0.001272 -0.003901
# 3 -0.000694 -0.001187 0.015608 -0.001572 -0.001014 0.000196
# 4 0.003958 0.002933 -0.001572 0.038203 -0.005341 0.001528
# 5 -0.007122 0.001272 -0.001014 -0.005341 0.028066 -0.001791
# 6 -0.002768 -0.003901 0.000196 0.001528 -0.001791 0.021864
#
#
# Mechanical properties :
#
#
# Convention : Reuss Voigt Hill
#
# Bulk Modulus (GPa) = 30.30232 39.50964 34.90598
# Shear Modulus (GPa) = 33.62060 40.18610 36.90335
#
# Velocity S-wave (km/s) = 3.75120 4.10115 3.93007
# Velocity P-wave (km/s) = 5.60756 6.24197 5.93325
#
# Compressibility (1/GPa) = 0.03300078
#
# Stress axis : x y z
#
# Youngs Moduli (GPa) = 61.48217 106.15363 64.07091
#
# Poissons Ratio (x) = 0.24054 0.04443
# Poissons Ratio (y) = 0.13931 0.07603
# Poissons Ratio (z) = 0.04264 0.12596
#
# Static dielectric constant tensor:
#      x y z
#    x 1.877020 0.003320 -0.034140 
#    y 0.003320 1.900050 -0.022620 
#    z -0.034140 -0.022620 1.979740 
# 
# From -- ./inp_files/154663.got.cif
#   From: 2010.05.17/outbox.cif.g08.bks.cpg/sg2_78_cif.got.tgz:154663.got - 2010.06.03 11:33:40.
