data_PCOD9059671
_publ_section_title
;
Structure prediction by ZEFSAII (Michael W. Deem and Ramdas Pophale) SiO2 
 PCOD9059671
Probable space group: P -1
;
_chemical_formula_sum "Si O2"
_cell_formula_units_Z 14
_cell_length_a 19.864910
_cell_length_b 7.471132
_cell_length_c 7.641800
_cell_angle_alpha 141.295996
_cell_angle_beta 60.332782
_cell_angle_gamma 119.844722
_cell_volume 603.126294
_symmetry_space_group_name_H-M "P -1"
_symmetry_group_IT_number 2
_symmetry_cell_setting 'triclinic'
loop_
_space_group_symop_operation_xyz
x,y,z
-x,-y,-z
loop_
_atom_site_type_symbol
_atom_site_label
_atom_site_fract_x
_atom_site_fract_y
_atom_site_fract_z
Si Si1 0.773865 0.178554 0.368584
Si Si2 0.181988 0.757397 0.007002
Si Si3 0.585850 0.454229 0.301311
Si Si4 0.661327 0.914333 0.835379
Si Si5 0.942750 0.197246 0.306277
Si Si6 0.087019 0.138913 0.565734
Si Si7 0.325583 0.399148 0.045003
O O1 0.768350 0.287107 0.260969
O O2 0.867362 0.247894 0.334970
O O3 0.713759 0.324279 0.663503
O O4 0.742675 0.834834 0.141531
O O5 0.112216 0.466696 0.862201
O O6 0.252863 0.864768 0.133838
O O7 0.143070 0.044942 0.272954
O O8 0.500000 0.500000 0.500000
O O9 0.644925 0.678449 0.521921
O O10 0.603902 0.527350 0.129072
O O11 0.599218 0.128028 0.071621
O O12 0.657818 0.744165 0.898381
O O13 0.000000 0.500000 0.500000
O O14 0.905092 0.059474 0.429087
O O15 0.000000 0.000000 0.000000
O O16 0.000000 0.000000 0.500000
#
# Coordination Sequence:
#
# PCOD9059671 Si02
#       7
#     2   2   2   2   2   2   2
#     4  11  23  43  67  95 135 179 231 294 344 413
#     4  11  23  42  66  94 129 177 231 288 340 410
#     4  12  27  46  75 109 146 185 236 294 354 437
#     4  11  25  46  72 104 146 185 237 292 355 424
#     4  12  25  41  60  92 135 179 226 285 349 408
#     4  12  24  39  64  95 131 180 229 283 346 409
#     4  11  25  45  70 106 139 186 236 288 355 421
#
# _framework density 23.212385000000001
#
# number of rings (size 3 to 8) (size 9 to 14) (size 15 to 20)
#    0.000    0.571    0.000    9.429    6.000    1.143 
#    0.000    0.000    0.000    0.000    0.000    0.000 
#    0.000    0.000    0.000    0.000    0.000    0.000 
#
# Total GULP energy -78166.755676 kJ/mol
# GULP energy per Si atom -5583.339691 kJ/mol
# Density = 2.315955 g / cm^3
# Si number density = 23.212385 Si / 1000 Ang^3
#
#
#
# Elastic Constant Matrix: (Units=GPa)
#
#
# Indices 1 2 3 4 5 6 
#
# 1 63.1146 11.6859 11.7052 -4.2669 -1.6515 -9.3157
# 2 11.6859 63.1920 17.6809 -16.8438 11.4855 -10.5398
# 3 11.7052 17.6809 126.2622 -1.7014 1.5423 -7.7107
# 4 -4.2669 -16.8438 -1.7014 40.4096 14.9183 -3.2680
# 5 -1.6515 11.4855 1.5423 14.9183 39.0435 -2.9115
# 6 -9.3157 -10.5398 -7.7107 -3.2680 -2.9115 33.6012
#
#
#
# Elastic Compliance Matrix: (Units=1/GPa)
#
#
# Indices 1 2 3 4 5 6 
#
# 1 0.017133 -0.002362 -0.001028 0.000528 0.001554 0.003959
# 2 -0.002362 0.024267 -0.002414 0.014859 -0.012315 0.006781
# 3 -0.001028 -0.002414 0.008383 -0.000978 0.000773 0.000853
# 4 0.000528 0.014859 -0.000978 0.038308 -0.018447 0.006710
# 5 0.001554 -0.012315 0.000773 -0.018447 0.036176 -0.001914
# 6 0.003959 0.006781 0.000853 0.006710 -0.001914 0.033668
#
#
# Mechanical properties :
#
#
# Convention : Reuss Voigt Hill
#
# Bulk Modulus (GPa) = 26.19551 37.19029 31.69290
# Shear Modulus (GPa) = 27.43207 36.71063 32.07135
#
# Velocity S-wave (km/s) = 3.44144 3.98114 3.72109
# Velocity P-wave (km/s) = 5.20586 6.09829 5.66966
#
# Compressibility (1/GPa) = 0.03817448
#
# Stress axis : x y z
#
# Youngs Moduli (GPa) = 58.36735 41.20778 119.29079
#
# Poissons Ratio (x) = 0.09734 0.12258
# Poissons Ratio (y) = 0.13788 0.28802
# Poissons Ratio (z) = 0.05998 0.09949
#
# Static dielectric constant tensor:
#      x y z
#    x 1.816390 0.036860 -0.051370 
#    y 0.036860 1.913000 -0.016310 
#    z -0.051370 -0.016310 1.932420 
# 
# From -- ./inp_files/343959.got.cif
#   From: 2010.05.17/outbox.cif.g08.bks.cpg/sg2_172_cif.got.tgz:343959.got - 2010.06.03 11:33:40.
