data_PCOD9059834
_publ_section_title
;
Structure prediction by ZEFSAII (Michael W. Deem and Ramdas Pophale) SiO2 
 PCOD9059834
Probable space group: P -1
;
_chemical_formula_sum "Si O2"
_cell_formula_units_Z 16
_cell_length_a 8.962248
_cell_length_b 10.375775
_cell_length_c 14.116530
_cell_angle_alpha 44.219887
_cell_angle_beta 102.709963
_cell_angle_gamma 123.192072
_cell_volume 731.966220
_symmetry_space_group_name_H-M "P -1"
_symmetry_group_IT_number 2
_symmetry_cell_setting 'triclinic'
loop_
_space_group_symop_operation_xyz
x,y,z
-x,-y,-z
loop_
_atom_site_type_symbol
_atom_site_label
_atom_site_fract_x
_atom_site_fract_y
_atom_site_fract_z
Si Si1 0.335579 0.816435 0.001549
Si Si2 0.499152 0.312714 0.329243
Si Si3 0.273417 0.162204 0.717422
Si Si4 0.079100 0.848428 0.257543
Si Si5 0.053729 0.510264 0.281838
Si Si6 0.275207 0.827794 0.478606
Si Si7 0.671303 0.617102 0.579214
Si Si8 0.427227 0.334429 0.987367
O O1 0.282769 0.957144 0.857814
O O2 0.153840 0.628771 0.134977
O O3 0.423339 0.709902 0.009365
O O4 0.500000 0.000000 0.000000
O O5 0.611201 0.284668 0.442544
O O6 0.325480 0.297835 0.360362
O O7 0.611392 0.541500 0.165401
O O8 0.418985 0.095657 0.366592
O O9 0.462929 0.393753 0.655753
O O10 0.276264 0.192892 0.589270
O O11 0.097271 0.149152 0.741346
O O12 0.039972 0.681994 0.254140
O O13 0.150706 0.780299 0.394364
O O14 0.246042 0.096168 0.117319
O O15 0.195400 0.463549 0.373278
O O16 0.852800 0.275359 0.390189
O O17 0.500000 0.500000 0.000000
#
# Coordination Sequence:
#
# PCOD9059834 Si02
#       8
#     2   2   2   2   2   2   2   2
#     4  12  24  45  67  99 134 177 223 275 335 393
#     4  11  25  45  68  95 134 176 225 266 342 398
#     4  11  25  41  67 103 134 174 222 278 334 389
#     4  12  25  43  68 101 136 173 225 278 332 396
#     4  12  24  43  70  98 134 172 227 280 328 394
#     4  11  26  44  67  99 131 177 222 281 328 397
#     4  11  23  42  69  96 132 176 221 277 332 397
#     4  12  25  46  70  95 138 180 218 272 341 401
#
# _framework density 21.858931999999999
#
# number of rings (size 3 to 8) (size 9 to 14) (size 15 to 20)
#    0.000    0.500    6.250    1.125    7.000    1.000 
#    2.250    0.625    0.000    0.000    0.000    0.000 
#    0.000    0.000    0.000    0.000    0.000    0.000 
#
# Total GULP energy -89478.521004 kJ/mol
# GULP energy per Si atom -5592.407563 kJ/mol
# Density = 2.180918 g / cm^3
# Si number density = 21.858932 Si / 1000 Ang^3
#
#
#
# Elastic Constant Matrix: (Units=GPa)
#
#
# Indices 1 2 3 4 5 6 
#
# 1 136.2397 27.6422 59.5492 -3.1104 2.3808 -9.8702
# 2 27.6422 37.5546 16.5748 -4.1559 8.3416 -15.7938
# 3 59.5492 16.5748 183.2977 -7.5913 8.6835 -2.1713
# 4 -3.1104 -4.1559 -7.5913 22.2322 2.8044 -5.9091
# 5 2.3808 8.3416 8.6835 2.8044 44.6048 -1.7797
# 6 -9.8702 -15.7938 -2.1713 -5.9091 -1.7797 26.1721
#
#
#
# Elastic Compliance Matrix: (Units=1/GPa)
#
#
# Indices 1 2 3 4 5 6 
#
# 1 0.009780 -0.006774 -0.002686 -0.001194 0.001311 -0.000803
# 2 -0.006774 0.048090 -0.000708 0.016726 -0.008364 0.029615
# 3 -0.002686 -0.000708 0.006509 0.001698 -0.001122 -0.000593
# 4 -0.001194 0.016726 0.001698 0.055072 -0.005987 0.021811
# 5 0.001311 -0.008364 -0.001122 -0.005987 0.024335 -0.004343
# 6 -0.000803 0.029615 -0.000593 0.021811 -0.004343 0.060357
#
#
# Mechanical properties :
#
#
# Convention : Reuss Voigt Hill
#
# Bulk Modulus (GPa) = 22.70522 62.73603 42.72062
# Shear Modulus (GPa) = 20.90657 35.49023 28.19840
#
# Velocity S-wave (km/s) = 3.09598 4.03377 3.59558
# Velocity P-wave (km/s) = 4.81558 7.10336 6.06826
#
# Compressibility (1/GPa) = 0.04404273
#
# Stress axis : x y z
#
# Youngs Moduli (GPa) = 102.24891 20.79433 153.64218
#
# Poissons Ratio (x) = 0.14086 0.41265
# Poissons Ratio (y) = 0.69265 0.10878
# Poissons Ratio (z) = 0.27462 0.01472
#
# Static dielectric constant tensor:
#      x y z
#    x 1.792250 0.010910 -0.007480 
#    y 0.010910 1.813780 0.014930 
#    z -0.007480 0.014930 1.804090 
# 
# From -- ./inp_files/498777.got.cif
#   From: 2010.05.17/outbox.cif.g08.bks.cpg/sg2_250_cif.got.tgz:498777.got - 2010.06.03 11:33:40.
