data_PCOD9059938
_publ_section_title
;
Structure prediction by ZEFSAII (Michael W. Deem and Ramdas Pophale) SiO2 
 PCOD9059938
Probable space group: P -1
;
_chemical_formula_sum "Si O2"
_cell_formula_units_Z 16
_cell_length_a 18.422691
_cell_length_b 24.727829
_cell_length_c 15.362072
_cell_angle_alpha 160.799211
_cell_angle_beta 31.355779
_cell_angle_gamma 159.403354
_cell_volume 781.868231
_symmetry_space_group_name_H-M "P -1"
_symmetry_group_IT_number 2
_symmetry_cell_setting 'triclinic'
loop_
_space_group_symop_operation_xyz
x,y,z
-x,-y,-z
loop_
_atom_site_type_symbol
_atom_site_label
_atom_site_fract_x
_atom_site_fract_y
_atom_site_fract_z
Si Si1 0.874956 0.969607 0.659989
Si Si2 0.839257 0.739750 0.018550
Si Si3 0.399355 0.152348 0.605193
Si Si4 0.054493 0.674751 0.131600
Si Si5 0.534237 0.999067 0.363099
Si Si6 0.620388 0.494910 0.294940
Si Si7 0.002710 0.597109 0.552802
Si Si8 0.247069 0.786923 0.920191
O O1 0.671619 0.675287 0.443236
O O2 0.803667 0.084067 0.876298
O O3 0.000000 0.000000 0.500000
O O4 0.036466 0.123513 0.810523
O O5 0.635002 0.436631 0.780935
O O6 0.002022 0.788271 0.865218
O O7 0.749711 0.822134 0.189890
O O8 0.283586 0.963280 0.354926
O O9 0.403079 0.015247 0.465938
O O10 0.860655 0.633714 0.276103
O O11 0.097657 0.641203 0.939172
O O12 0.000000 0.500000 0.000000
O O13 0.500000 0.000000 0.500000
O O14 0.778679 0.261544 0.497728
O O15 0.493920 0.776068 0.031549
O O16 0.500000 0.500000 0.500000
O O17 0.000000 0.500000 0.500000
O O18 0.819843 0.398959 0.369369
O O19 0.500000 0.000000 0.000000
#
# Coordination Sequence:
#
# PCOD9059938 Si02
#       8
#     2   2   2   2   2   2   2   2
#     4  12  24  45  71 102 142 184 249 301 353 436
#     4  11  23  42  71 106 136 184 240 294 361 425
#     4  11  23  42  73  98 142 183 237 292 365 419
#     4  12  25  46  70 100 145 189 237 296 368 434
#     4  12  27  47  70 103 147 194 242 291 369 434
#     4  12  27  44  72 101 141 192 239 295 369 428
#     4  12  24  45  74 101 145 186 239 295 358 435
#     4  12  27  45  74 110 142 187 246 301 363 434
#
# _framework density 20.463806000000002
#
# number of rings (size 3 to 8) (size 9 to 14) (size 15 to 20)
#    0.000    0.250    6.250    2.250    3.500    1.000 
#    0.000    0.625    0.000    0.000    0.000    0.000 
#    0.000    0.000    0.000    0.000    0.000    0.000 
#
# Total GULP energy -89232.156373 kJ/mol
# GULP energy per Si atom -5577.009773 kJ/mol
# Density = 2.041723 g / cm^3
# Si number density = 20.463806 Si / 1000 Ang^3
#
#
#
# Elastic Constant Matrix: (Units=GPa)
#
#
# Indices 1 2 3 4 5 6 
#
# 1 91.5767 53.8338 47.7759 -13.4736 14.0260 1.3752
# 2 53.8338 113.3611 29.5766 -15.7454 9.7591 -7.6729
# 3 47.7759 29.5766 107.7434 -9.9604 11.1079 -7.5020
# 4 -13.4736 -15.7454 -9.9604 46.7324 3.5591 3.8002
# 5 14.0260 9.7591 11.1079 3.5591 40.5748 6.5575
# 6 1.3752 -7.6729 -7.5020 3.8002 6.5575 42.7688
#
#
#
# Elastic Compliance Matrix: (Units=1/GPa)
#
#
# Indices 1 2 3 4 5 6 
#
# 1 0.019165 -0.007092 -0.006226 0.002257 -0.002972 -0.002726
# 2 -0.007092 0.012729 0.000157 0.002166 -0.001253 0.002539
# 3 -0.006226 0.000157 0.012442 0.000833 -0.001787 0.002611
# 4 0.002257 0.002166 0.000833 0.023304 -0.003398 -0.001087
# 5 -0.002972 -0.001253 -0.001787 -0.003398 0.027465 -0.004352
# 6 -0.002726 0.002539 0.002611 -0.001087 -0.004352 0.025146
#
#
# Mechanical properties :
#
#
# Convention : Reuss Voigt Hill
#
# Bulk Modulus (GPa) = 55.51357 63.89487 59.70422
# Shear Modulus (GPa) = 32.76975 38.11486 35.44231
#
# Velocity S-wave (km/s) = 4.00603 4.32041 4.16619
# Velocity P-wave (km/s) = 6.97024 7.49527 7.23752
#
# Compressibility (1/GPa) = 0.01801361
#
# Stress axis : x y z
#
# Youngs Moduli (GPa) = 52.17728 78.56063 80.37206
#
# Poissons Ratio (x) = 0.55716 0.50041
# Poissons Ratio (y) = 0.37004 -0.01260
# Poissons Ratio (z) = 0.32487 -0.01232
#
# Static dielectric constant tensor:
#      x y z
#    x 1.683360 -0.006600 0.010460 
#    y -0.006600 1.749550 0.011180 
#    z 0.010460 0.011180 1.797640 
# 
# From -- ./inp_files/539303.got.cif
#   From: 2010.05.17/outbox.cif.g08.bks.cpg/sg2_270_cif.got.tgz:539303.got - 2010.06.03 11:33:40.
