data_PCOD9059076
_publ_section_title
;
Structure prediction by ZEFSAII (Michael W. Deem and Ramdas Pophale) SiO2 
 PCOD9059076
Probable space group: P -1
;
_chemical_formula_sum "Si O2"
_cell_formula_units_Z 16
_cell_length_a 8.149769
_cell_length_b 24.854258
_cell_length_c 5.630903
_cell_angle_alpha 89.527841
_cell_angle_beta 91.905625
_cell_angle_gamma 37.601400
_cell_volume 694.434435
_symmetry_space_group_name_H-M "P -1"
_symmetry_group_IT_number 2
_symmetry_cell_setting 'triclinic'
loop_
_space_group_symop_operation_xyz
x,y,z
-x,-y,-z
loop_
_atom_site_type_symbol
_atom_site_label
_atom_site_fract_x
_atom_site_fract_y
_atom_site_fract_z
Si Si1 0.643613 0.418614 0.840546
Si Si2 0.465503 0.780064 0.157766
Si Si3 0.441953 0.070517 0.284285
Si Si4 0.091920 0.086101 0.020215
Si Si5 0.181271 0.245300 0.139560
Si Si6 0.047305 0.355793 0.497279
Si Si7 0.099015 0.501977 0.754584
Si Si8 0.233290 0.952219 0.327098
O O1 0.420665 0.430804 0.773866
O O2 0.776531 0.418910 0.634069
O O3 0.500000 0.500000 0.000000
O O4 0.907180 0.322642 0.975483
O O5 0.699111 0.693259 0.328210
O O6 0.363325 0.861913 0.269777
O O7 0.608571 0.763625 0.928513
O O8 0.194105 0.819307 0.087544
O O9 0.192785 0.095372 0.244989
O O10 0.337902 0.148932 0.126943
O O11 0.541055 0.069471 0.534293
O O12 0.689588 0.974704 0.177042
O O13 0.093672 0.024712 0.117361
O O14 0.103498 0.281836 0.400184
O O15 0.013171 0.408058 0.286448
O O16 0.000000 0.500000 0.500000
O O17 0.000000 0.500000 0.000000
O O18 0.000000 0.000000 0.500000
#
# Coordination Sequence:
#
# PCOD9059076 Si02
#       8
#     2   2   2   2   2   2   2   2
#     4  11  24  47  78 103 140 193 244 293 363 449
#     4  11  23  40  66 100 131 181 242 291 342 421
#     4  11  23  41  62  95 136 181 228 291 354 410
#     4  11  24  40  63  95 141 180 227 290 353 408
#     4  11  23  42  71  99 135 182 247 293 344 431
#     4  11  25  45  76 103 139 189 244 294 354 449
#     4  12  28  48  76 113 149 185 236 306 380 446
#     4  12  21  38  64  92 125 188 238 279 340 422
#
# _framework density 23.040333
#
# number of rings (size 3 to 8) (size 9 to 14) (size 15 to 20)
#    0.000    0.750    5.000    2.625    3.500    1.000 
#    0.000    0.000    0.000    0.000    0.000    0.000 
#    0.000    0.000    0.000    0.000    0.000    0.000 
#
# Total GULP energy -89345.015924 kJ/mol
# GULP energy per Si atom -5584.063495 kJ/mol
# Density = 2.298789 g / cm^3
# Si number density = 23.040333 Si / 1000 Ang^3
#
#
#
# Elastic Constant Matrix: (Units=GPa)
#
#
# Indices 1 2 3 4 5 6 
#
# 1 106.1724 31.1204 42.4780 -12.0077 12.9939 -25.9077
# 2 31.1204 106.3963 29.2659 -9.2795 -6.7579 -30.7314
# 3 42.4780 29.2659 83.4247 -0.8141 -4.0332 -14.0341
# 4 -12.0077 -9.2795 -0.8141 51.6535 0.6612 5.0392
# 5 12.9939 -6.7579 -4.0332 0.6612 47.7266 -10.4097
# 6 -25.9077 -30.7314 -14.0341 5.0392 -10.4097 36.9114
#
#
#
# Elastic Compliance Matrix: (Units=1/GPa)
#
#
# Indices 1 2 3 4 5 6 
#
# 1 0.014178 -0.000813 -0.006113 0.002542 -0.003289 0.005675
# 2 -0.000813 0.013896 -0.002353 0.001121 0.004417 0.011197
# 3 -0.006113 -0.002353 0.016215 -0.001721 0.002939 0.000979
# 4 0.002542 0.001121 -0.001721 0.020241 -0.001185 -0.001034
# 5 -0.003289 0.004417 0.002939 -0.001185 0.024844 0.009654
# 6 0.005675 0.011197 0.000979 -0.001034 0.009654 0.043633
#
#
# Mechanical properties :
#
#
# Convention : Reuss Voigt Hill
#
# Bulk Modulus (GPa) = 38.86456 55.74687 47.30572
# Shear Modulus (GPa) = 31.22214 40.13356 35.67785
#
# Velocity S-wave (km/s) = 3.68517 4.17811 3.93936
# Velocity P-wave (km/s) = 5.91709 6.89372 6.42399
#
# Compressibility (1/GPa) = 0.02573038
#
# Stress axis : x y z
#
# Youngs Moduli (GPa) = 70.53351 71.96158 61.67169
#
# Poissons Ratio (x) = 0.05854 0.37701
# Poissons Ratio (y) = 0.05738 0.14509
# Poissons Ratio (z) = 0.43118 0.16930
#
# Static dielectric constant tensor:
#      x y z
#    x 1.905340 0.025290 0.011640 
#    y 0.025290 1.915780 -0.026840 
#    z 0.011640 -0.026840 1.939530 
# 
# From -- ./inp_files/56427.got.cif
#   From: 2010.05.17/outbox.cif.g08.bks.cpg/sg2_29_cif.got.tgz:56427.got - 2010.06.03 11:33:40.
