data_PCOD9059026
_publ_section_title
;
Structure prediction by ZEFSAII (Michael W. Deem and Ramdas Pophale) SiO2 
 PCOD9059026
Probable space group: P -1
;
_chemical_formula_sum "Si O2"
_cell_formula_units_Z 10
_cell_length_a 24.674379
_cell_length_b 8.921700
_cell_length_c 9.555357
_cell_angle_alpha 51.053622
_cell_angle_beta 148.141043
_cell_angle_gamma 149.796367
_cell_volume 512.623540
_symmetry_space_group_name_H-M "P -1"
_symmetry_group_IT_number 2
_symmetry_cell_setting 'triclinic'
loop_
_space_group_symop_operation_xyz
x,y,z
-x,-y,-z
loop_
_atom_site_type_symbol
_atom_site_label
_atom_site_fract_x
_atom_site_fract_y
_atom_site_fract_z
Si Si1 0.452478 0.365270 0.131812
Si Si2 0.479542 0.184013 0.792099
Si Si3 0.098957 0.774498 0.170425
Si Si4 0.701290 0.547951 0.788530
Si Si5 0.128700 0.597008 0.835834
O O1 0.427087 0.518838 0.078464
O O2 0.606514 0.480203 0.479457
O O3 0.500000 0.500000 0.000000
O O4 0.284083 0.978063 0.986346
O O5 0.557136 0.319248 0.727656
O O6 0.278708 0.937573 0.500117
O O7 0.500000 0.000000 0.000000
O O8 0.980374 0.610782 0.142677
O O9 0.158652 0.079162 0.079598
O O10 0.000000 0.500000 0.000000
O O11 0.788927 0.475022 0.999988
O O12 0.000000 0.500000 0.500000
#
# Coordination Sequence:
#
# PCOD9059026 Si02
#       5
#     2   2   2   2   2
#     4  11  23  41  64  92 123 164 207 248 303 372
#     4  11  23  42  64  89 122 166 207 245 301 373
#     4  11  23  40  62  91 122 158 203 256 305 352
#     4  11  23  43  64  88 125 168 203 247 306 370
#     4  12  24  40  62  94 125 158 204 258 305 355
#
# _framework density 19.507493
#
# number of rings (size 3 to 8) (size 9 to 14) (size 15 to 20)
#    0.000    0.800    0.000   10.800    0.000    3.200 
#    0.000    4.000    0.000    0.000    0.000    0.000 
#    0.000    0.000    0.000    0.000    0.000    0.000 
#
# Total GULP energy -55948.552883 kJ/mol
# GULP energy per Si atom -5594.855288 kJ/mol
# Density = 1.946309 g / cm^3
# Si number density = 19.507493 Si / 1000 Ang^3
#
#
#
# Elastic Constant Matrix: (Units=GPa)
#
#
# Indices 1 2 3 4 5 6 
#
# 1 109.5297 33.0688 47.2728 -4.3271 15.8583 -4.6503
# 2 33.0688 136.6509 53.6244 10.1147 12.5632 -24.4481
# 3 47.2728 53.6244 85.7269 -5.5209 3.8014 -28.7475
# 4 -4.3271 10.1147 -5.5209 41.1314 -1.9412 -0.9363
# 5 15.8583 12.5632 3.8014 -1.9412 37.2502 -3.7256
# 6 -4.6503 -24.4481 -28.7475 -0.9363 -3.7256 60.1899
#
#
#
# Elastic Compliance Matrix: (Units=1/GPa)
#
#
# Indices 1 2 3 4 5 6 
#
# 1 0.013257 -0.000153 -0.008061 0.000037 -0.005088 -0.003202
# 2 -0.000153 0.010527 -0.006250 -0.003558 -0.002929 0.001042
# 3 -0.008061 -0.006250 0.022799 0.004132 0.004234 0.008054
# 4 0.000037 -0.003558 0.004132 0.025875 0.002218 0.001071
# 5 -0.005088 -0.002929 0.004234 0.002218 0.029915 0.002326
# 6 -0.003202 0.001042 0.008054 0.001071 0.002326 0.020797
#
#
# Mechanical properties :
#
#
# Convention : Reuss Voigt Hill
#
# Bulk Modulus (GPa) = 56.64077 66.64884 61.64480
# Shear Modulus (GPa) = 31.64906 40.91040 36.27973
#
# Velocity S-wave (km/s) = 4.03228 4.58445 4.31720
# Velocity P-wave (km/s) = 7.12583 7.89068 7.51799
#
# Compressibility (1/GPa) = 0.01765513
#
# Stress axis : x y z
#
# Youngs Moduli (GPa) = 75.43043 94.99680 43.86231
#
# Poissons Ratio (x) = 0.01453 0.35356
# Poissons Ratio (y) = 0.01153 0.27415
# Poissons Ratio (z) = 0.60801 0.59375
#
# Static dielectric constant tensor:
#      x y z
#    x 1.663330 -0.002630 -0.011050 
#    y -0.002630 1.673770 0.002620 
#    z -0.011050 0.002620 1.664570 
# 
# From -- ./inp_files/58093.got.cif
#   From: 2010.05.17/outbox.cif.g08.bks.cpg/sg2_30_cif.got.tgz:58093.got - 2010.06.03 11:33:40.
