data_PCOD9059264
_publ_section_title
;
Structure prediction by ZEFSAII (Michael W. Deem and Ramdas Pophale) SiO2 
 PCOD9059264
Probable space group: P -1
;
_chemical_formula_sum "Si O2"
_cell_formula_units_Z 14
_cell_length_a 11.163261
_cell_length_b 8.052771
_cell_length_c 12.717828
_cell_angle_alpha 129.038216
_cell_angle_beta 65.699739
_cell_angle_gamma 136.295925
_cell_volume 611.508118
_symmetry_space_group_name_H-M "P -1"
_symmetry_group_IT_number 2
_symmetry_cell_setting 'triclinic'
loop_
_space_group_symop_operation_xyz
x,y,z
-x,-y,-z
loop_
_atom_site_type_symbol
_atom_site_label
_atom_site_fract_x
_atom_site_fract_y
_atom_site_fract_z
Si Si1 0.425208 0.253707 0.014107
Si Si2 0.522660 0.654221 0.733003
Si Si3 0.278030 0.734958 0.348219
Si Si4 0.012524 0.266248 0.605142
Si Si5 0.254135 0.706238 0.117627
Si Si6 0.190313 0.610339 0.867783
Si Si7 0.637726 0.338147 0.487365
O O1 0.568197 0.222492 0.951919
O O2 0.253385 0.918953 0.936276
O O3 0.500000 0.500000 0.000000
O O4 0.431949 0.363899 0.170933
O O5 0.339899 0.589504 0.778205
O O6 0.542214 0.464718 0.580624
O O7 0.672783 0.975490 0.769526
O O8 0.218640 0.570810 0.192595
O O9 0.276026 0.612172 0.409998
O O10 0.145034 0.793152 0.424498
O O11 0.481986 0.015186 0.381054
O O12 0.025420 0.373808 0.761719
O O13 0.200879 0.518462 0.590101
O O14 0.000000 0.000000 0.500000
O O15 0.154641 0.562755 0.986802
#
# Coordination Sequence:
#
# PCOD9059264 Si02
#       7
#     2   2   2   2   2   2   2
#     4   9  16  30  57  90 120 157 202 247 303 364
#     4   9  17  32  57  85 117 157 200 245 298 360
#     4  11  24  40  63  90 123 165 205 255 310 363
#     4  12  25  41  64  92 124 164 209 253 302 368
#     4   9  18  35  57  86 118 153 201 247 299 362
#     4   9  20  36  58  90 124 157 202 257 301 359
#     4  11  23  41  62  89 125 163 205 255 309 360
#
# _framework density 22.894217000000001
#
# number of rings (size 3 to 8) (size 9 to 14) (size 15 to 20)
#    0.000    2.000    0.000    6.429    0.000    3.429 
#    0.000    2.857    0.000    5.143    0.000    0.000 
#    0.000    0.000    0.000    0.000    0.000    0.000 
#
# Total GULP energy -78041.378433 kJ/mol
# GULP energy per Si atom -5574.384174 kJ/mol
# Density = 2.284211 g / cm^3
# Si number density = 22.894217 Si / 1000 Ang^3
#
#
#
# Elastic Constant Matrix: (Units=GPa)
#
#
# Indices 1 2 3 4 5 6 
#
# 1 84.6391 3.9161 29.3659 -3.3849 21.8094 -4.5382
# 2 3.9161 47.6923 25.3035 -17.8560 16.5910 -8.2126
# 3 29.3659 25.3035 105.7998 -23.6427 36.1100 -19.7776
# 4 -3.3849 -17.8560 -23.6427 34.2534 -5.1646 4.0889
# 5 21.8094 16.5910 36.1100 -5.1646 39.3292 -8.6279
# 6 -4.5382 -8.2126 -19.7776 4.0889 -8.6279 30.6484
#
#
#
# Elastic Compliance Matrix: (Units=1/GPa)
#
#
# Indices 1 2 3 4 5 6 
#
# 1 0.014249 0.002379 -0.002239 0.000131 -0.006981 -0.000680
# 2 0.002379 0.030686 -0.000427 0.013838 -0.011339 0.003261
# 3 -0.002239 -0.000427 0.017487 0.009061 -0.012077 0.006230
# 4 0.000131 0.013838 0.009061 0.041198 -0.008447 0.001701
# 5 -0.006981 -0.011339 -0.012077 -0.008447 0.044450 0.001774
# 6 -0.000680 0.003261 0.006230 0.001701 0.001774 0.037694
#
#
# Mechanical properties :
#
#
# Convention : Reuss Voigt Hill
#
# Bulk Modulus (GPa) = 16.16901 39.47801 27.82351
# Shear Modulus (GPa) = 24.15978 32.81592 28.48785
#
# Velocity S-wave (km/s) = 3.25203 3.79010 3.53133
# Velocity P-wave (km/s) = 4.60204 6.03608 5.36717
#
# Compressibility (1/GPa) = 0.06184672
#
# Stress axis : x y z
#
# Youngs Moduli (GPa) = 70.17857 32.58815 57.18569
#
# Poissons Ratio (x) = -0.07751 0.12804
# Poissons Ratio (y) = -0.16692 0.02444
# Poissons Ratio (z) = 0.15713 0.01392
#
# Static dielectric constant tensor:
#      x y z
#    x 1.931500 0.027420 -0.030960 
#    y 0.027420 1.928720 -0.076610 
#    z -0.030960 -0.076610 1.950400 
# 
# From -- ./inp_files/415620.got.cif
#   From: 2010.05.17/outbox.cif.g08.bks.cpg/sg2_208_cif.got.tgz:415620.got - 2010.06.03 11:33:40.
