data_PCOD9059610
_publ_section_title
;
Structure prediction by ZEFSAII (Michael W. Deem and Ramdas Pophale) SiO2 
 PCOD9059610
Probable space group: P -1
;
_chemical_formula_sum "Si O2"
_cell_formula_units_Z 16
_cell_length_a 21.835923
_cell_length_b 13.401086
_cell_length_c 18.313693
_cell_angle_alpha 32.085664
_cell_angle_beta 162.147514
_cell_angle_gamma 155.523303
_cell_volume 672.994776
_symmetry_space_group_name_H-M "P -1"
_symmetry_group_IT_number 2
_symmetry_cell_setting 'triclinic'
loop_
_space_group_symop_operation_xyz
x,y,z
-x,-y,-z
loop_
_atom_site_type_symbol
_atom_site_label
_atom_site_fract_x
_atom_site_fract_y
_atom_site_fract_z
Si Si1 0.049518 0.583397 0.281788
Si Si2 0.650593 0.951027 0.890096
Si Si3 0.839026 0.897773 0.603715
Si Si4 0.534242 0.799499 0.172235
Si Si5 0.382290 0.191820 0.440397
Si Si6 0.803407 0.942902 0.903230
Si Si7 0.861328 0.534137 0.383987
Si Si8 0.356806 0.473184 0.607804
O O1 0.204505 0.868872 0.268417
O O2 0.085225 0.529696 0.437219
O O3 0.139918 0.470940 0.400198
O O4 0.756413 0.453449 0.007869
O O5 0.497512 0.052617 0.664829
O O6 0.717730 0.955783 0.878506
O O7 0.444384 0.667832 0.854161
O O8 0.932780 0.114459 0.146202
O O9 0.668956 0.843346 0.374801
O O10 0.663385 0.751531 0.565845
O O11 0.009485 0.184556 0.640513
O O12 0.684800 0.773273 0.296606
O O13 0.500000 0.000000 0.000000
O O14 0.574210 0.410884 0.466835
O O15 0.091965 0.031707 0.177202
O O16 0.606218 0.671968 0.816999
O O17 0.000000 0.500000 0.500000
#
# Coordination Sequence:
#
# PCOD9059610 Si02
#       8
#     2   2   2   2   2   2   2   2
#     4  12  25  47  77 109 146 184 246 303 357 433
#     4  11  23  44  73 106 147 176 235 303 369 423
#     4  11  27  47  66 103 148 191 244 289 348 442
#     4  12  29  52  69 101 148 203 245 287 348 439
#     4  11  23  42  73 106 141 186 229 303 369 411
#     4  11  23  41  76 116 142 172 243 313 363 419
#     4  12  24  45  74 105 143 191 233 301 370 417
#     4  12  25  43  77 110 142 191 241 301 365 421
#
# _framework density 23.774328000000001
#
# number of rings (size 3 to 8) (size 9 to 14) (size 15 to 20)
#    0.000    0.500    6.250    1.875    1.750    2.000 
#    4.500    1.250    0.000    0.000    0.000    0.000 
#    0.000    0.000    0.000    0.000    0.000    0.000 
#
# Total GULP energy -89611.499354 kJ/mol
# GULP energy per Si atom -5600.718710 kJ/mol
# Density = 2.372022 g / cm^3
# Si number density = 23.774328 Si / 1000 Ang^3
#
#
#
# Elastic Constant Matrix: (Units=GPa)
#
#
# Indices 1 2 3 4 5 6 
#
# 1 105.2162 9.4139 55.7825 -0.9767 18.3485 2.4204
# 2 9.4139 58.5354 13.1977 -16.8012 7.8338 -16.8162
# 3 55.7825 13.1977 137.2837 -10.0263 12.2141 -13.2199
# 4 -0.9767 -16.8012 -10.0263 36.1522 -6.8647 4.7225
# 5 18.3485 7.8338 12.2141 -6.8647 46.7528 -8.0685
# 6 2.4204 -16.8162 -13.2199 4.7225 -8.0685 32.9693
#
#
#
# Elastic Compliance Matrix: (Units=1/GPa)
#
#
# Indices 1 2 3 4 5 6 
#
# 1 0.013612 -0.002571 -0.005562 -0.002576 -0.004757 -0.005336
# 2 -0.002571 0.023208 0.000537 0.009485 0.000262 0.010947
# 3 -0.005562 0.000537 0.010050 0.002411 0.000600 0.004514
# 4 -0.002576 0.009485 0.002411 0.033144 0.004044 0.002236
# 5 -0.004757 0.000262 0.000600 0.004044 0.024718 0.006193
# 6 -0.005336 0.010947 0.004514 0.002236 0.006193 0.039312
#
#
# Mechanical properties :
#
#
# Convention : Reuss Voigt Hill
#
# Bulk Modulus (GPa) = 31.56772 50.86929 41.21851
# Shear Modulus (GPa) = 29.44727 38.01761 33.73244
#
# Velocity S-wave (km/s) = 3.52322 4.00322 3.77086
# Velocity P-wave (km/s) = 5.46421 6.54300 6.02779
#
# Compressibility (1/GPa) = 0.03167792
#
# Stress axis : x y z
#
# Youngs Moduli (GPa) = 73.46606 43.08808 99.50190
#
# Poissons Ratio (x) = 0.11076 0.55347
# Poissons Ratio (y) = 0.18885 -0.05343
# Poissons Ratio (z) = 0.40865 -0.02314
#
# Static dielectric constant tensor:
#      x y z
#    x 1.886110 0.022220 0.020850 
#    y 0.022220 1.960930 -0.001450 
#    z 0.020850 -0.001450 1.927660 
# 
# From -- ./inp_files/577964.got.cif
#   From: 2010.05.17/outbox.cif.g08.bks.cpg/sg2_289_cif.got.tgz:577964.got - 2010.06.03 11:33:40.
