data_PCOD9059402
_publ_section_title
;
Structure prediction by ZEFSAII (Michael W. Deem and Ramdas Pophale) SiO2 
 PCOD9059402
Probable space group: P -1
;
_chemical_formula_sum "Si O2"
_cell_formula_units_Z 16
_cell_length_a 13.096108
_cell_length_b 11.112652
_cell_length_c 12.130180
_cell_angle_alpha 105.557762
_cell_angle_beta 71.611188
_cell_angle_gamma 156.897926
_cell_volume 656.152400
_symmetry_space_group_name_H-M "P -1"
_symmetry_group_IT_number 2
_symmetry_cell_setting 'triclinic'
loop_
_space_group_symop_operation_xyz
x,y,z
-x,-y,-z
loop_
_atom_site_type_symbol
_atom_site_label
_atom_site_fract_x
_atom_site_fract_y
_atom_site_fract_z
Si Si1 0.936776 0.791755 0.648845
Si Si2 0.691040 0.415559 0.430507
Si Si3 0.809283 0.204456 0.173481
Si Si4 0.990543 0.666980 0.183893
Si Si5 0.441065 0.619462 0.864802
Si Si6 0.723232 0.495094 0.882250
Si Si7 0.402080 0.461159 0.633385
Si Si8 0.784531 0.182754 0.436688
O O1 0.765785 0.585427 0.547660
O O2 0.790157 0.628753 0.775359
O O3 0.123519 0.865682 0.600252
O O4 0.102394 0.093508 0.653756
O O5 0.936770 0.633343 0.325632
O O6 0.538922 0.334398 0.371211
O O7 0.492765 0.107558 0.475775
O O8 0.909265 0.436998 0.139975
O O9 0.770938 0.190818 0.313347
O O10 0.028014 0.327348 0.124454
O O11 0.529376 0.861739 0.139056
O O12 0.798816 0.553867 0.149986
O O13 0.290592 0.015736 0.137097
O O14 0.495061 0.557576 0.751630
O O15 0.351740 0.495050 0.988511
O O16 0.500000 0.500000 0.500000
O O17 0.000000 0.500000 0.500000
#
# Coordination Sequence:
#
# PCOD9059402 Si02
#       8
#     2   2   2   2   2   2   2   2
#     4  11  23  42  65  98 134 180 224 274 339 402
#     4  11  23  41  68 100 135 176 221 283 342 401
#     4  11  24  42  67 101 136 186 224 272 338 403
#     4  11  25  41  69  98 138 176 229 280 336 397
#     4  11  26  46  65 101 131 179 231 281 334 394
#     4  11  25  44  67  95 139 178 231 276 330 406
#     4  11  23  43  72  97 133 174 226 285 338 399
#     4  11  24  38  66 102 142 175 217 277 343 407
#
# _framework density 24.38458
#
# number of rings (size 3 to 8) (size 9 to 14) (size 15 to 20)
#    0.000    1.000    2.500    3.375    8.750    5.500 
#    0.000    0.000    0.000    6.750    0.000    0.000 
#    0.000    0.000    0.000    0.000    0.000    0.000 
#
# Total GULP energy -89433.061394 kJ/mol
# GULP energy per Si atom -5589.566337 kJ/mol
# Density = 2.432908 g / cm^3
# Si number density = 24.384580 Si / 1000 Ang^3
#
#
#
# Elastic Constant Matrix: (Units=GPa)
#
#
# Indices 1 2 3 4 5 6 
#
# 1 57.5533 3.1866 6.3781 -11.6189 7.7439 3.5409
# 2 3.1866 138.3152 33.3749 -29.1754 4.7823 0.5028
# 3 6.3781 33.3749 203.5649 -50.6882 -12.0474 -3.8493
# 4 -11.6189 -29.1754 -50.6882 13.7582 9.0895 -3.6516
# 5 7.7439 4.7823 -12.0474 9.0895 21.1462 -0.2223
# 6 3.5409 0.5028 -3.8493 -3.6516 -0.2223 25.6546
#
#
#
# Elastic Compliance Matrix: (Units=1/GPa)
#
#
# Indices 1 2 3 4 5 6 
#
# 1 0.012526 -0.004729 -0.006349 -0.027656 0.004685 -0.006485
# 2 -0.004729 0.003861 -0.005545 -0.021739 0.007009 -0.003288
# 3 -0.006349 -0.005545 0.000947 -0.023601 0.014241 -0.002109
# 4 -0.027656 -0.021739 -0.023601 -0.124366 0.054882 -0.016524
# 5 0.004685 0.007009 0.014241 0.054882 0.028611 0.009412
# 6 -0.006485 -0.003288 -0.002109 -0.016524 0.009412 0.037352
#
#
# Mechanical properties :
#
#
# Convention : Reuss Voigt Hill
#
# Bulk Modulus (GPa) = -62.84715 53.92364 -4.46176
# Shear Modulus (GPa) = -380.87476 35.87805 -172.49835
#
# Velocity S-wave (km/s) = -12.51136 3.83997 -8.41988
# Velocity P-wave (km/s) = 15.31474 6.46702 9.81629
#
# Compressibility (1/GPa) = -0.01591162
#
# Stress axis : x y z
#
# Youngs Moduli (GPa) = 79.83335 258.99608 1056.34421
#
# Poissons Ratio (x) = 1.22468 6.70668
# Poissons Ratio (y) = 0.37750 5.85765
# Poissons Ratio (z) = 0.50686 1.43619
#
# Static dielectric constant tensor:
#      x y z
#    x 2.131040 0.060370 -0.075800 
#    y 0.060370 1.865790 0.002930 
#    z -0.075800 0.002930 1.963910 
# 
# From -- ./inp_files/70456.got.cif
#   From: 2010.05.17/outbox.cif.g08.bks.cpg/sg2_36_cif.got.tgz:70456.got - 2010.06.03 11:33:40.
