data_PCOD9059303
_publ_section_title
;
Structure prediction by ZEFSAII (Michael W. Deem and Ramdas Pophale) SiO2 
 PCOD9059303
Probable space group: P -1
;
_chemical_formula_sum "Si O2"
_cell_formula_units_Z 16
_cell_length_a 11.173836
_cell_length_b 11.723121
_cell_length_c 11.551403
_cell_angle_alpha 81.432335
_cell_angle_beta 49.613428
_cell_angle_gamma 120.719378
_cell_volume 673.997459
_symmetry_space_group_name_H-M "P -1"
_symmetry_group_IT_number 2
_symmetry_cell_setting 'triclinic'
loop_
_space_group_symop_operation_xyz
x,y,z
-x,-y,-z
loop_
_atom_site_type_symbol
_atom_site_label
_atom_site_fract_x
_atom_site_fract_y
_atom_site_fract_z
Si Si1 0.604089 0.674489 0.842488
Si Si2 0.413141 0.330836 0.422268
Si Si3 0.272127 0.128547 0.875798
Si Si4 0.273296 0.690502 0.014687
Si Si5 0.529714 0.998874 0.289538
Si Si6 0.088363 0.707263 0.788322
Si Si7 0.021451 0.102370 0.238682
Si Si8 0.770032 0.546057 0.376215
O O1 0.590036 0.653365 0.715926
O O2 0.896465 0.859452 0.685551
O O3 0.500000 0.500000 0.000000
O O4 0.423021 0.677559 0.990153
O O5 0.686921 0.498004 0.298885
O O6 0.235654 0.326950 0.592165
O O7 0.269357 0.123293 0.564905
O O8 0.520565 0.337731 0.627374
O O9 0.322935 0.022820 0.853964
O O10 0.228585 0.151132 0.027239
O O11 0.000000 0.000000 0.000000
O O12 0.115548 0.518219 0.045483
O O13 0.038743 0.634327 0.217229
O O14 0.495041 0.910010 0.796245
O O15 0.715181 0.162882 0.247965
O O16 0.265742 0.797708 0.547309
O O17 0.965733 0.760793 0.837242
#
# Coordination Sequence:
#
# PCOD9059303 Si02
#       8
#     2   2   2   2   2   2   2   2
#     4  12  27  47  67  97 140 194 236 279 346 419
#     4  11  25  44  72 106 136 181 235 290 350 419
#     4  12  22  43  70 105 140 178 223 287 356 410
#     4  12  26  43  67 103 139 184 231 288 350 410
#     4  11  24  40  67 105 138 177 221 293 358 407
#     4  11  23  41  65 101 143 172 228 288 351 415
#     4  12  24  46  71  99 142 187 234 278 345 429
#     4  11  25  44  71 110 142 171 234 297 356 408
#
# _framework density 23.738962999999998
#
# number of rings (size 3 to 8) (size 9 to 14) (size 15 to 20)
#    0.000    0.500    5.000    3.000    7.000    0.000 
#    0.000    6.250    0.000    0.000    0.000    0.000 
#    0.000    0.000    0.000    0.000    0.000    0.000 
#
# Total GULP energy -89543.982670 kJ/mol
# GULP energy per Si atom -5596.498917 kJ/mol
# Density = 2.368493 g / cm^3
# Si number density = 23.738963 Si / 1000 Ang^3
#
#
#
# Elastic Constant Matrix: (Units=GPa)
#
#
# Indices 1 2 3 4 5 6 
#
# 1 109.9895 30.2692 29.3218 6.9160 0.7214 -21.8515
# 2 30.2692 86.8463 28.3322 8.7436 0.1721 -27.1522
# 3 29.3218 28.3322 63.9610 16.8277 6.5535 -5.6523
# 4 6.9160 8.7436 16.8277 31.6369 -6.3119 0.6372
# 5 0.7214 0.1721 6.5535 -6.3119 43.3544 3.5141
# 6 -21.8515 -27.1522 -5.6523 0.6372 3.5141 54.2917
#
#
#
# Elastic Compliance Matrix: (Units=1/GPa)
#
#
# Indices 1 2 3 4 5 6 
#
# 1 0.011300 -0.001521 -0.004292 0.000212 0.000228 0.003323
# 2 -0.001521 0.016125 -0.005489 -0.001336 0.000038 0.006894
# 3 -0.004292 -0.005489 0.023244 -0.010847 -0.004869 -0.001610
# 4 0.000212 -0.001336 -0.010847 0.039266 0.007574 -0.002663
# 5 0.000228 0.000038 -0.004869 0.007574 0.025071 -0.002108
# 6 0.003323 0.006894 -0.001610 -0.002663 -0.002108 0.023204
#
#
# Mechanical properties :
#
#
# Convention : Reuss Voigt Hill
#
# Bulk Modulus (GPa) = 35.63064 48.51590 42.07327
# Shear Modulus (GPa) = 29.38254 37.38153 33.38203
#
# Velocity S-wave (km/s) = 3.52196 3.97254 3.75402
# Velocity P-wave (km/s) = 5.61969 6.44384 6.04582
#
# Compressibility (1/GPa) = 0.02806573
#
# Stress axis : x y z
#
# Youngs Moduli (GPa) = 88.49596 62.01497 43.02229
#
# Poissons Ratio (x) = 0.09433 0.18465
# Poissons Ratio (y) = 0.13461 0.23613
# Poissons Ratio (z) = 0.37981 0.34038
#
# Static dielectric constant tensor:
#      x y z
#    x 1.894480 0.023240 -0.011400 
#    y 0.023240 1.911130 0.011860 
#    z -0.011400 0.011860 1.989590 
# 
# From -- ./inp_files/428104.got.cif
#   From: 2010.05.17/outbox.cif.g08.bks.cpg/sg2_215_cif.got.tgz:428104.got - 2010.06.03 11:33:40.
