data_PCOD9059858
_publ_section_title
;
Structure prediction by ZEFSAII (Michael W. Deem and Ramdas Pophale) SiO2 
 PCOD9059858
Probable space group: P -1
;
_chemical_formula_sum "Si O2"
_cell_formula_units_Z 16
_cell_length_a 11.154490
_cell_length_b 8.542071
_cell_length_c 13.459573
_cell_angle_alpha 97.107190
_cell_angle_beta 59.548912
_cell_angle_gamma 135.021213
_cell_volume 721.130185
_symmetry_space_group_name_H-M "P -1"
_symmetry_group_IT_number 2
_symmetry_cell_setting 'triclinic'
loop_
_space_group_symop_operation_xyz
x,y,z
-x,-y,-z
loop_
_atom_site_type_symbol
_atom_site_label
_atom_site_fract_x
_atom_site_fract_y
_atom_site_fract_z
Si Si1 0.530980 0.349861 0.132346
Si Si2 0.722430 0.045284 0.939279
Si Si3 0.122762 0.144050 0.060360
Si Si4 0.825157 0.143931 0.288226
Si Si5 0.825091 0.980309 0.597842
Si Si6 0.764119 0.279082 0.123341
Si Si7 0.508914 0.695994 0.523374
Si Si8 0.038190 0.427337 0.672504
O O1 0.481474 0.182297 0.053738
O O2 0.665761 0.367690 0.158104
O O3 0.314201 0.205354 0.266459
O O4 0.654636 0.597108 0.050386
O O5 0.847910 0.991125 0.903518
O O6 0.875588 0.275986 0.821697
O O7 0.664189 0.073003 0.070027
O O8 0.998095 0.168505 0.177330
O O9 0.000000 0.000000 0.000000
O O10 0.757553 0.192672 0.225882
O O11 0.919376 0.350744 0.343165
O O12 0.629264 0.882475 0.395870
O O13 0.933252 0.233208 0.613802
O O14 0.661998 0.863921 0.566158
O O15 0.000000 0.000000 0.500000
O O16 0.000000 0.500000 0.000000
O O17 0.500000 0.500000 0.500000
O O18 0.266528 0.547768 0.613874
#
# Coordination Sequence:
#
# PCOD9059858 Si02
#       8
#     2   2   2   2   2   2   2   2
#     4  11  25  42  69 101 142 185 231 295 365 413
#     4  11  23  42  70 101 144 182 232 296 357 423
#     4  12  24  41  67 106 139 185 236 289 353 428
#     4  12  26  42  73 106 141 189 241 292 358 431
#     4  11  26  47  72 104 137 190 240 298 354 423
#     4  12  21  44  70 102 140 180 233 285 357 432
#     4  12  26  46  75 102 143 191 244 300 361 421
#     4  11  24  47  71 102 144 188 243 296 356 428
#
# _framework density 22.187394999999999
#
# number of rings (size 3 to 8) (size 9 to 14) (size 15 to 20)
#    0.000    0.500    5.000    2.625    5.250    1.500 
#    0.000    1.250    0.000    0.000    0.000    0.000 
#    0.000    0.000    0.000    0.000    0.000    0.000 
#
# Total GULP energy -89501.345790 kJ/mol
# GULP energy per Si atom -5593.834112 kJ/mol
# Density = 2.213690 g / cm^3
# Si number density = 22.187395 Si / 1000 Ang^3
#
#
#
# Elastic Constant Matrix: (Units=GPa)
#
#
# Indices 1 2 3 4 5 6 
#
# 1 57.1236 15.2848 -5.1690 8.0466 -1.1029 7.8040
# 2 15.2848 139.0662 39.0562 1.2174 5.1406 4.0423
# 3 -5.1690 39.0562 84.0202 -5.1418 0.5397 4.3536
# 4 8.0466 1.2174 -5.1418 44.0808 -7.4938 3.2973
# 5 -1.1029 5.1406 0.5397 -7.4938 43.4624 4.5594
# 6 7.8040 4.0423 4.3536 3.2973 4.5594 40.7670
#
#
#
# Elastic Compliance Matrix: (Units=1/GPa)
#
#
# Indices 1 2 3 4 5 6 
#
# 1 0.019345 -0.002715 0.002461 -0.002790 0.000672 -0.003546
# 2 -0.002715 0.008723 -0.004257 -0.000459 -0.001156 0.000276
# 3 0.002461 -0.004257 0.014218 0.001606 0.000854 -0.001793
# 4 -0.002790 -0.000459 0.001606 0.024290 0.004366 -0.002045
# 5 0.000672 -0.001156 0.000854 0.004366 0.024237 -0.003169
# 6 -0.003546 0.000276 -0.001793 -0.002045 -0.003169 0.025892
#
#
# Mechanical properties :
#
#
# Convention : Reuss Voigt Hill
#
# Bulk Modulus (GPa) = 30.06180 42.06157 36.06168
# Shear Modulus (GPa) = 36.54536 41.06458 38.80497
#
# Velocity S-wave (km/s) = 4.06288 4.30677 4.18660
# Velocity P-wave (km/s) = 5.96555 6.61283 6.29751
#
# Compressibility (1/GPa) = 0.03326481
#
# Stress axis : x y z
#
# Youngs Moduli (GPa) = 51.69189 114.63296 70.33425
#
# Poissons Ratio (x) = 0.31119 -0.17308
# Poissons Ratio (y) = 0.14033 0.29941
# Poissons Ratio (z) = -0.12720 0.48799
#
# Static dielectric constant tensor:
#      x y z
#    x 1.879190 0.032540 -0.013760 
#    y 0.032540 1.884870 0.064000 
#    z -0.013760 0.064000 1.825790 
# 
# From -- ./inp_files/434241.got.cif
#   From: 2010.05.17/outbox.cif.g08.bks.cpg/sg2_218_cif.got.tgz:434241.got - 2010.06.03 11:33:40.
