data_PCOD9059422
_publ_section_title
;
Structure prediction by ZEFSAII (Michael W. Deem and Ramdas Pophale) SiO2 
 PCOD9059422
Probable space group: P -1
;
_chemical_formula_sum "Si O2"
_cell_formula_units_Z 16
_cell_length_a 5.786994
_cell_length_b 14.872146
_cell_length_c 11.506253
_cell_angle_alpha 128.108852
_cell_angle_beta 110.134934
_cell_angle_gamma 88.973139
_cell_volume 705.757960
_symmetry_space_group_name_H-M "P -1"
_symmetry_group_IT_number 2
_symmetry_cell_setting 'triclinic'
loop_
_space_group_symop_operation_xyz
x,y,z
-x,-y,-z
loop_
_atom_site_type_symbol
_atom_site_label
_atom_site_fract_x
_atom_site_fract_y
_atom_site_fract_z
Si Si1 0.621571 0.331297 0.116742
Si Si2 0.023738 0.407997 0.596785
Si Si3 0.523494 0.786810 0.250773
Si Si4 0.484507 0.628465 0.640542
Si Si5 0.897211 0.239726 0.638618
Si Si6 0.714756 0.091931 0.038853
Si Si7 0.520985 0.970887 0.669220
Si Si8 0.793104 0.799432 0.641654
O O1 0.827566 0.457002 0.253845
O O2 0.417748 0.351958 0.194214
O O3 0.690266 0.221453 0.104483
O O4 0.556085 0.290209 0.942217
O O5 0.185959 0.317609 0.515301
O O6 0.815414 0.388723 0.444498
O O7 0.901386 0.354608 0.654266
O O8 0.286679 0.755154 0.277939
O O9 0.813164 0.771366 0.303061
O O10 0.526589 0.923192 0.330671
O O11 0.500000 0.500000 0.500000
O O12 0.612923 0.740003 0.671088
O O13 0.751891 0.124777 0.445205
O O14 0.960794 0.120837 0.186606
O O15 0.500000 0.000000 0.000000
O O16 0.673179 0.029419 0.856331
O O17 0.692308 0.880948 0.597587
#
# Coordination Sequence:
#
# PCOD9059422 Si02
#       8
#     2   2   2   2   2   2   2   2
#     4  11  25  47  71 112 149 193 247 304 377 449
#     4  12  25  45  73 108 148 191 248 306 380 445
#     4  11  29  49  76 107 148 204 254 315 366 437
#     4  12  23  42  74 108 146 189 240 301 376 455
#     4  12  26  50  75 105 150 198 261 311 368 438
#     4  11  23  41  68 105 153 188 235 303 377 457
#     4  11  24  45  72 106 141 197 252 308 371 440
#     4  12  23  43  72 110 152 192 240 305 381 458
#
# _framework density 22.670662
#
# number of rings (size 3 to 8) (size 9 to 14) (size 15 to 20)
#    0.000    0.500    3.750    4.500    0.000    7.000 
#    0.000    0.000    0.000    0.000    0.000    0.000 
#    0.000    0.000    0.000    0.000    0.000    0.000 
#
# Total GULP energy -89140.339399 kJ/mol
# GULP energy per Si atom -5571.271212 kJ/mol
# Density = 2.261906 g / cm^3
# Si number density = 22.670662 Si / 1000 Ang^3
#
#
#
# Elastic Constant Matrix: (Units=GPa)
#
#
# Indices 1 2 3 4 5 6 
#
# 1 99.7320 52.4584 65.8815 -0.5901 3.0844 0.8439
# 2 52.4584 128.3003 58.9773 14.9623 10.0411 8.8321
# 3 65.8815 58.9773 153.1671 9.7914 6.3316 -5.2849
# 4 -0.5901 14.9623 9.7914 29.8572 4.4752 -1.8329
# 5 3.0844 10.0411 6.3316 4.4752 43.3840 6.0408
# 6 0.8439 8.8321 -5.2849 -1.8329 6.0408 29.1221
#
#
#
# Elastic Compliance Matrix: (Units=1/GPa)
#
#
# Indices 1 2 3 4 5 6 
#
# 1 0.016044 -0.004616 -0.005407 0.004379 0.000240 0.000180
# 2 -0.004616 0.011693 -0.002275 -0.005306 -0.000947 -0.003963
# 3 -0.005407 -0.002275 0.009979 -0.001967 -0.000716 0.002682
# 4 0.004379 -0.005306 -0.001967 0.037628 -0.003258 0.004169
# 5 0.000240 -0.000947 -0.000716 -0.003258 0.024405 -0.005117
# 6 0.000180 -0.003963 0.002682 0.004169 -0.005117 0.037345
#
#
# Mechanical properties :
#
#
# Convention : Reuss Voigt Hill
#
# Bulk Modulus (GPa) = 76.22835 81.75932 78.99383
# Shear Modulus (GPa) = 30.10891 34.06480 32.08686
#
# Velocity S-wave (km/s) = 3.64826 3.88054 3.76619
# Velocity P-wave (km/s) = 7.17242 7.49802 7.33703
#
# Compressibility (1/GPa) = 0.01311848
#
# Stress axis : x y z
#
# Youngs Moduli (GPa) = 62.32981 85.51907 100.21470
#
# Poissons Ratio (x) = 0.39476 0.54187
# Poissons Ratio (y) = 0.28772 0.22803
# Poissons Ratio (z) = 0.33702 0.19459
#
# Static dielectric constant tensor:
#      x y z
#    x 2.166870 -0.436950 -0.165060 
#    y -0.436950 2.975940 0.208650 
#    z -0.165060 0.208650 1.918750 
# 
# From -- ./inp_files/94651.got.cif
#   From: 2010.05.17/outbox.cif.g08.bks.cpg/sg2_48_cif.got.tgz:94651.got - 2010.06.03 11:33:40.
