data_PCOD9059589
_publ_section_title
;
Structure prediction by ZEFSAII (Michael W. Deem and Ramdas Pophale) SiO2 
 PCOD9059589
Probable space group: P -1
;
_chemical_formula_sum "Si O2"
_cell_formula_units_Z 16
_cell_length_a 9.537639
_cell_length_b 12.536378
_cell_length_c 9.354860
_cell_angle_alpha 97.173309
_cell_angle_beta 42.616119
_cell_angle_gamma 100.359598
_cell_volume 744.949661
_symmetry_space_group_name_H-M "P -1"
_symmetry_group_IT_number 2
_symmetry_cell_setting 'triclinic'
loop_
_space_group_symop_operation_xyz
x,y,z
-x,-y,-z
loop_
_atom_site_type_symbol
_atom_site_label
_atom_site_fract_x
_atom_site_fract_y
_atom_site_fract_z
Si Si1 0.638418 0.961833 0.756107
Si Si2 0.629615 0.228325 0.165505
Si Si3 0.242704 0.281182 0.030244
Si Si4 0.321774 0.717056 0.188976
Si Si5 0.767871 0.519302 0.716384
Si Si6 0.374577 0.419410 0.465713
Si Si7 0.983779 0.150766 0.415956
Si Si8 0.046855 0.375766 0.925622
O O1 0.479261 0.893963 0.753472
O O2 0.806738 0.884565 0.675092
O O3 0.791785 0.056273 0.576436
O O4 0.500000 0.000000 0.000000
O O5 0.480388 0.312797 0.343673
O O6 0.651176 0.232999 0.978705
O O7 0.850521 0.283046 0.067636
O O8 0.235925 0.373929 0.170839
O O9 0.062666 0.186689 0.203483
O O10 0.472916 0.245546 0.863139
O O11 0.201447 0.338631 0.922599
O O12 0.315892 0.588571 0.153318
O O13 0.112837 0.749147 0.422124
O O14 0.645573 0.523349 0.660373
O O15 0.000000 0.500000 0.500000
O O16 0.500000 0.500000 0.500000
O O17 0.148963 0.379977 0.694302
O O18 0.000000 0.500000 0.000000
#
# Coordination Sequence:
#
# PCOD9059589 Si02
#       8
#     2   2   2   2   2   2   2   2
#     4  11  23  45  72 109 134 172 234 304 350 404
#     4  12  25  42  68 102 137 184 228 281 358 408
#     4  12  24  44  63 102 137 190 231 283 340 411
#     4  12  23  39  68 103 135 177 233 287 339 411
#     4  12  23  37  65  93 137 180 234 275 337 406
#     4  12  25  43  62  98 141 185 226 275 341 414
#     4  11  23  41  74 101 136 168 234 298 346 397
#     4  12  27  43  64  97 150 190 225 275 341 417
#
# _framework density 21.477961000000001
#
# number of rings (size 3 to 8) (size 9 to 14) (size 15 to 20)
#    0.000    0.250    6.250    3.375    1.750    1.000 
#    0.000    0.625    0.000    3.750    0.000    0.000 
#    0.000    0.000    0.000    0.000    0.000    0.000 
#
# Total GULP energy -89360.810503 kJ/mol
# GULP energy per Si atom -5585.050656 kJ/mol
# Density = 2.142908 g / cm^3
# Si number density = 21.477961 Si / 1000 Ang^3
#
#
#
# Elastic Constant Matrix: (Units=GPa)
#
#
# Indices 1 2 3 4 5 6 
#
# 1 78.9215 24.2488 8.6149 7.8833 -5.1732 3.7272
# 2 24.2488 85.6339 16.3101 -9.8464 -7.2560 12.9906
# 3 8.6149 16.3101 86.8632 6.0426 -30.3024 -5.1132
# 4 7.8833 -9.8464 6.0426 43.0366 -3.7886 -3.9358
# 5 -5.1732 -7.2560 -30.3024 -3.7886 35.0105 -8.8836
# 6 3.7272 12.9906 -5.1132 -3.9358 -8.8836 35.3386
#
#
#
# Elastic Compliance Matrix: (Units=1/GPa)
#
#
# Indices 1 2 3 4 5 6 
#
# 1 0.014447 -0.004398 -0.000127 -0.003588 0.000686 -0.000152
# 2 -0.004398 0.014734 -0.003458 0.004036 -0.001519 -0.005385
# 3 -0.000127 -0.003458 0.018879 -0.001109 0.017595 0.008316
# 4 -0.003588 0.004036 -0.001109 0.025411 0.002663 0.002234
# 5 0.000686 -0.001519 0.017595 0.002663 0.047757 0.015334
# 6 -0.000152 -0.005385 0.008316 0.002234 0.015334 0.035600
#
#
# Mechanical properties :
#
#
# Convention : Reuss Voigt Hill
#
# Bulk Modulus (GPa) = 31.15888 38.86292 35.01090
# Shear Modulus (GPa) = 27.24937 36.16014 31.70476
#
# Velocity S-wave (km/s) = 3.56576 4.10761 3.84624
# Velocity P-wave (km/s) = 5.61175 6.37419 6.00508
#
# Compressibility (1/GPa) = 0.03209357
#
# Stress axis : x y z
#
# Youngs Moduli (GPa) = 69.22073 67.87098 52.96955
#
# Poissons Ratio (x) = 0.29849 0.00672
# Poissons Ratio (y) = 0.30443 0.18317
# Poissons Ratio (z) = 0.00879 0.23469
#
# Static dielectric constant tensor:
#      x y z
#    x 1.817900 0.058110 -0.075770 
#    y 0.058110 1.832510 -0.046570 
#    z -0.075770 -0.046570 1.813050 
# 
# From -- ./inp_files/188205.got.cif
#   From: 2010.05.17/outbox.cif.g08.bks.cpg/sg2_95_cif.got.tgz:188205.got - 2010.06.03 11:33:40.
