data_PCOD9059971
_publ_section_title
;
Structure prediction by ZEFSAII (Michael W. Deem and Ramdas Pophale) SiO2 
 PCOD9059971
Probable space group: P -1
;
_chemical_formula_sum "Si O2"
_cell_formula_units_Z 16
_cell_length_a 17.682689
_cell_length_b 5.038777
_cell_length_c 10.135680
_cell_angle_alpha 64.179395
_cell_angle_beta 56.440059
_cell_angle_gamma 79.266915
_cell_volume 675.618313
_symmetry_space_group_name_H-M "P -1"
_symmetry_group_IT_number 2
_symmetry_cell_setting 'triclinic'
loop_
_space_group_symop_operation_xyz
x,y,z
-x,-y,-z
loop_
_atom_site_type_symbol
_atom_site_label
_atom_site_fract_x
_atom_site_fract_y
_atom_site_fract_z
Si Si1 0.409012 0.660721 0.533390
Si Si2 0.303614 0.138262 0.652879
Si Si3 0.763373 0.438369 0.589637
Si Si4 0.460029 0.074702 0.163515
Si Si5 0.812300 0.334599 0.987196
Si Si6 0.879202 0.958925 0.497816
Si Si7 0.083505 0.069873 0.217794
Si Si8 0.354300 0.609807 0.052979
O O1 0.500000 0.500000 0.500000
O O2 0.331317 0.393403 0.675828
O O3 0.385121 0.928270 0.591589
O O4 0.417013 0.806342 0.348549
O O5 0.284426 0.320025 0.501666
O O6 0.219318 0.923224 0.825217
O O7 0.808176 0.209705 0.499744
O O8 0.698967 0.264677 0.797292
O O9 0.838760 0.642374 0.553987
O O10 0.388886 0.312982 0.146958
O O11 0.551702 0.212630 0.118932
O O12 0.500000 0.000000 0.000000
O O13 0.867020 0.615492 0.936964
O O14 0.719702 0.423154 0.983963
O O15 0.874612 0.187171 0.849995
O O16 0.974733 0.047128 0.317004
O O17 0.895461 0.951205 0.641524
#
# Coordination Sequence:
#
# PCOD9059971 Si02
#       8
#     2   2   2   2   2   2   2   2
#     4  12  26  46  66  92 137 183 224 275 333 391
#     4  12  27  45  66  98 135 177 229 265 333 403
#     4  12  23  44  69  98 134 179 217 272 333 396
#     4  11  26  40  66  96 132 170 227 281 323 383
#     4  12  25  43  70  98 135 176 219 273 332 391
#     4  11  23  42  72 103 132 171 217 275 339 390
#     4  11  23  43  69 105 134 166 221 278 327 402
#     4  11  24  41  64  98 128 173 222 276 325 382
#
# _framework density 23.682009000000001
#
# number of rings (size 3 to 8) (size 9 to 14) (size 15 to 20)
#    0.000    0.500    3.750    4.125    7.000    2.000 
#    0.000    3.750    0.000    0.000    0.000    0.000 
#    0.000    0.000    0.000    0.000    0.000    0.000 
#
# Total GULP energy -89582.368224 kJ/mol
# GULP energy per Si atom -5598.898014 kJ/mol
# Density = 2.362811 g / cm^3
# Si number density = 23.682009 Si / 1000 Ang^3
#
#
#
# Elastic Constant Matrix: (Units=GPa)
#
#
# Indices 1 2 3 4 5 6 
#
# 1 34.8965 25.8059 16.2802 -4.7445 -18.0712 1.7295
# 2 25.8059 115.0820 30.8960 -7.5629 -19.7663 -6.2698
# 3 16.2802 30.8960 94.2162 -13.5875 -13.1186 -11.0617
# 4 -4.7445 -7.5629 -13.5875 36.7147 3.8511 -5.9160
# 5 -18.0712 -19.7663 -13.1186 3.8511 34.8172 -2.8704
# 6 1.7295 -6.2698 -11.0617 -5.9160 -2.8704 28.2700
#
#
#
# Elastic Compliance Matrix: (Units=1/GPa)
#
#
# Indices 1 2 3 4 5 6 
#
# 1 0.044289 -0.006068 -0.003469 0.000761 0.017867 -0.003439
# 2 -0.006068 0.011195 -0.001804 0.001001 0.002632 0.002625
# 3 -0.003469 -0.001804 0.013596 0.005006 0.002273 0.006411
# 4 0.000761 0.001001 0.005006 0.030762 0.000155 0.008588
# 5 0.017867 0.002632 0.002273 0.000155 0.040703 0.004545
# 6 -0.003439 0.002625 0.006411 0.008588 0.004545 0.040933
#
#
# Mechanical properties :
#
#
# Convention : Reuss Voigt Hill
#
# Bulk Modulus (GPa) = 21.55268 43.35099 32.45184
# Shear Modulus (GPa) = 22.76591 31.37454 27.07023
#
# Velocity S-wave (km/s) = 3.10387 3.64376 3.38460
# Velocity P-wave (km/s) = 4.68679 6.00399 5.38581
#
# Compressibility (1/GPa) = 0.04639793
#
# Stress axis : x y z
#
# Youngs Moduli (GPa) = 22.57905 89.32258 73.55153
#
# Poissons Ratio (x) = 0.54205 0.25516
# Poissons Ratio (y) = 0.13702 0.13265
# Poissons Ratio (z) = 0.07833 0.16109
#
# Static dielectric constant tensor:
#      x y z
#    x 1.952070 0.003150 -0.012150 
#    y 0.003150 1.905250 0.014000 
#    z -0.012150 0.014000 1.885100 
# 
# From -- ./inp_files/128280.got.cif
#   From: 2010.05.17/outbox.cif.g08.bks.cpg/sg2_65_cif.got.tgz:128280.got - 2010.06.03 11:33:40.
