data_PCOD9059967
_publ_section_title
;
Structure prediction by ZEFSAII (Michael W. Deem and Ramdas Pophale) SiO2 
 PCOD9059967
Probable space group: P -1
;
_chemical_formula_sum "Si O2"
_cell_formula_units_Z 13
_cell_length_a 17.635088
_cell_length_b 13.466716
_cell_length_c 8.737733
_cell_angle_alpha 49.863053
_cell_angle_beta 125.387275
_cell_angle_gamma 159.834614
_cell_volume 544.221037
_symmetry_space_group_name_H-M "P -1"
_symmetry_group_IT_number 2
_symmetry_cell_setting 'triclinic'
loop_
_space_group_symop_operation_xyz
x,y,z
-x,-y,-z
loop_
_atom_site_type_symbol
_atom_site_label
_atom_site_fract_x
_atom_site_fract_y
_atom_site_fract_z
Si Si1 0.535677 0.912956 0.535922
Si Si2 0.582270 0.561871 0.371073
Si Si3 0.692353 0.842035 0.827127
Si Si4 0.861951 0.137948 0.160828
Si Si5 0.093150 0.230549 0.566076
Si Si6 0.000000 0.000000 0.000000
Si Si7 0.705017 0.180111 0.129438
O O1 0.665689 0.958962 0.725241
O O2 0.291008 0.547040 0.580914
O O3 0.500000 0.000000 0.500000
O O4 0.653349 0.089940 0.335995
O O5 0.500000 0.500000 0.500000
O O6 0.386333 0.255441 0.346409
O O7 0.773175 0.696386 0.462149
O O8 0.697817 0.839654 0.167440
O O9 0.500000 0.500000 0.000000
O O10 0.913410 0.039370 0.900812
O O11 0.732931 0.086661 0.151442
O O12 0.969784 0.180692 0.372399
O O13 0.063653 0.452363 0.988796
O O14 0.964442 0.986275 0.786914
O O15 0.500000 0.000000 0.000000
#
# Coordination Sequence:
#
# PCOD9059967 Si02
#       7
#     2   2   2   2   2   1   2
#     4  11  24  46  70 102 145 188 230 290 356 419
#     4  11  23  42  72 101 139 179 231 293 347 412
#     4  11  24  48  69 102 145 181 231 296 351 414
#     4  11  24  44  72 102 135 186 239 283 358 415
#     4  11  23  44  67 103 141 181 231 295 349 415
#     4  12  22  44  74  94 144 188 224 288 364 410
#     4  11  24  46  70  95 142 187 230 293 342 417
#
# _framework density 23.887353000000001
#
# number of rings (size 3 to 8) (size 9 to 14) (size 15 to 20)
#    0.000    0.923    4.615    4.154    0.000    2.462 
#    0.000    1.538    0.000    0.000    0.000    0.000 
#    0.000    0.000    0.000    0.000    0.000    0.000 
#
# Total GULP energy -72448.693849 kJ/mol
# GULP energy per Si atom -5572.976450 kJ/mol
# Density = 2.383298 g / cm^3
# Si number density = 23.887353 Si / 1000 Ang^3
#
#
#
# Elastic Constant Matrix: (Units=GPa)
#
#
# Indices 1 2 3 4 5 6 
#
# 1 203.6357 28.5844 58.9930 0.1616 44.4752 20.4845
# 2 28.5844 50.2821 4.2475 0.7824 26.8534 1.7975
# 3 58.9930 4.2475 134.2443 15.1674 22.6010 27.3515
# 4 0.1616 0.7824 15.1674 33.5175 8.5424 9.1455
# 5 44.4752 26.8534 22.6010 8.5424 56.7939 -1.2787
# 6 20.4845 1.7975 27.3515 9.1455 -1.2787 35.3212
#
#
#
# Elastic Compliance Matrix: (Units=1/GPa)
#
#
# Indices 1 2 3 4 5 6 
#
# 1 0.006998 -0.001247 -0.001877 0.002986 -0.004671 -0.003484
# 2 -0.001247 0.027751 0.002416 0.002760 -0.013606 -0.003768
# 3 -0.001877 0.002416 0.010407 -0.001991 -0.003666 -0.006710
# 4 0.002986 0.002760 -0.001991 0.035480 -0.008408 -0.009821
# 5 -0.004671 -0.013606 -0.003666 -0.008408 0.030637 0.009526
# 6 -0.003484 -0.003768 -0.006710 -0.009821 0.009526 0.038608
#
#
# Mechanical properties :
#
#
# Convention : Reuss Voigt Hill
#
# Bulk Modulus (GPa) = 22.86210 63.53464 43.19837
# Shear Modulus (GPa) = 30.14328 44.88234 37.51281
#
# Velocity S-wave (km/s) = 3.55617 4.33935 3.96713
# Velocity P-wave (km/s) = 5.14328 7.19458 6.25361
#
# Compressibility (1/GPa) = 0.04374051
#
# Stress axis : x y z
#
# Youngs Moduli (GPa) = 142.90409 36.03505 96.09180
#
# Poissons Ratio (x) = 0.04493 0.18035
# Poissons Ratio (y) = 0.17819 -0.23219
# Poissons Ratio (z) = 0.26820 -0.08707
#
# Static dielectric constant tensor:
#      x y z
#    x 1.921380 -0.018580 -0.060930 
#    y -0.018580 2.009580 0.002670 
#    z -0.060930 0.002670 2.034340 
# 
# From -- ./inp_files/306566.got.cif
#   From: 2010.05.17/outbox.cif.g08.bks.cpg/sg2_154_cif.got.tgz:306566.got - 2010.06.03 11:33:40.
