data_PCOD9059580
_publ_section_title
;
Structure prediction by ZEFSAII (Michael W. Deem and Ramdas Pophale) SiO2 
 PCOD9059580
Probable space group: P -1
;
_chemical_formula_sum "Si O2"
_cell_formula_units_Z 14
_cell_length_a 5.300375
_cell_length_b 9.852449
_cell_length_c 11.383110
_cell_angle_alpha 85.530611
_cell_angle_beta 107.471390
_cell_angle_gamma 72.849821
_cell_volume 532.696840
_symmetry_space_group_name_H-M "P -1"
_symmetry_group_IT_number 2
_symmetry_cell_setting 'triclinic'
loop_
_space_group_symop_operation_xyz
x,y,z
-x,-y,-z
loop_
_atom_site_type_symbol
_atom_site_label
_atom_site_fract_x
_atom_site_fract_y
_atom_site_fract_z
Si Si1 0.283508 0.704738 0.284900
Si Si2 0.777579 0.940002 0.277444
Si Si3 0.022885 0.409901 0.129033
Si Si4 0.371853 0.771659 0.855502
Si Si5 0.653699 0.840770 0.487431
Si Si6 0.311453 0.886963 0.079928
Si Si7 0.887566 0.534080 0.618748
O O1 0.453221 0.778927 0.386025
O O2 0.350878 0.732293 0.159121
O O3 0.315813 0.554786 0.364435
O O4 0.965663 0.812601 0.232485
O O5 0.863864 0.869314 0.420894
O O6 0.461557 0.960714 0.190168
O O7 0.815052 0.093048 0.257712
O O8 0.357085 0.318708 0.174307
O O9 0.934442 0.501776 0.232073
O O10 0.822401 0.313605 0.114038
O O11 0.000000 0.500000 0.000000
O O12 0.456882 0.844878 0.977242
O O13 0.787834 0.707531 0.599371
O O14 0.500000 0.000000 0.500000
O O15 0.000000 0.000000 0.000000
O O16 0.000000 0.500000 0.500000
#
# Coordination Sequence:
#
# PCOD9059580 Si02
#       7
#     2   2   2   2   2   2   2
#     4  11  25  45  73 108 150 202 264 326 390 476
#     4  11  24  41  71 109 147 196 264 323 391 466
#     4  12  30  51  78 114 160 212 260 335 404 475
#     4  12  26  46  77 112 160 202 266 326 402 467
#     4  11  26  46  73 107 149 200 262 330 400 466
#     4  11  23  41  73 111 156 206 260 325 399 483
#     4  12  27  50  78 113 154 210 267 324 399 484
#
# _framework density 26.281366999999999
#
# number of rings (size 3 to 8) (size 9 to 14) (size 15 to 20)
#    0.000    0.571    2.857    3.857    8.000    4.000 
#    0.000    0.000    0.000    0.000    0.000    0.000 
#    0.000    0.000    0.000    0.000    0.000    0.000 
#
# Total GULP energy -78079.221017 kJ/mol
# GULP energy per Si atom -5577.087215 kJ/mol
# Density = 2.622155 g / cm^3
# Si number density = 26.281367 Si / 1000 Ang^3
#
#
#
# Elastic Constant Matrix: (Units=GPa)
#
#
# Indices 1 2 3 4 5 6 
#
# 1 77.4380 30.1938 36.0190 -25.7896 -23.0480 -6.1083
# 2 30.1938 136.9485 55.6726 -40.3002 -24.2721 14.3307
# 3 36.0190 55.6726 156.5794 -30.9890 -41.0011 8.0103
# 4 -25.7896 -40.3002 -30.9890 59.5380 11.9477 -8.1037
# 5 -23.0480 -24.2721 -41.0011 11.9477 48.4416 -9.1601
# 6 -6.1083 14.3307 8.0103 -8.1037 -9.1601 47.4038
#
#
#
# Elastic Compliance Matrix: (Units=1/GPa)
#
#
# Indices 1 2 3 4 5 6 
#
# 1 0.018258 -0.001199 -0.001132 0.005879 0.006661 0.005199
# 2 -0.001199 0.010221 -0.001946 0.004865 0.001359 -0.001821
# 3 -0.001132 -0.001946 0.009237 0.001861 0.005911 0.000342
# 4 0.005879 0.004865 0.001861 0.023740 0.001586 0.003337
# 5 0.006661 0.001359 0.005911 0.001586 0.030154 0.005547
# 6 0.005199 -0.001821 0.000342 0.003337 0.005547 0.023900
#
#
# Mechanical properties :
#
#
# Convention : Reuss Voigt Hill
#
# Bulk Modulus (GPa) = 34.29080 68.30408 51.29744
# Shear Modulus (GPa) = 37.37325 47.68204 42.52765
#
# Velocity S-wave (km/s) = 3.77509 4.26407 4.02701
# Velocity P-wave (km/s) = 5.66371 7.09148 6.41742
#
# Compressibility (1/GPa) = 0.02916234
#
# Stress axis : x y z
#
# Youngs Moduli (GPa) = 54.77043 97.84076 108.25539
#
# Poissons Ratio (x) = 0.11727 0.12254
# Poissons Ratio (y) = 0.06565 0.21070
# Poissons Ratio (z) = 0.06200 0.19043
#
# Static dielectric constant tensor:
#      x y z
#    x 2.729610 -0.113260 -0.467060 
#    y -0.113260 2.225040 0.110990 
#    z -0.467060 0.110990 2.644350 
# 
# From -- ./inp_files/360681.got.cif
#   From: 2010.05.17/outbox.cif.g08.bks.cpg/sg2_181_cif.got.tgz:360681.got - 2010.06.03 11:33:40.
