data_PCOD9059423
_publ_section_title
;
Structure prediction by ZEFSAII (Michael W. Deem and Ramdas Pophale) SiO2 
 PCOD9059423
Probable space group: P -1
;
_chemical_formula_sum "Si O2"
_cell_formula_units_Z 14
_cell_length_a 8.154718
_cell_length_b 19.487229
_cell_length_c 9.529685
_cell_angle_alpha 59.964858
_cell_angle_beta 52.879030
_cell_angle_gamma 32.949772
_cell_volume 656.712892
_symmetry_space_group_name_H-M "P -1"
_symmetry_group_IT_number 2
_symmetry_cell_setting 'triclinic'
loop_
_space_group_symop_operation_xyz
x,y,z
-x,-y,-z
loop_
_atom_site_type_symbol
_atom_site_label
_atom_site_fract_x
_atom_site_fract_y
_atom_site_fract_z
Si Si1 0.686764 0.113686 0.453988
Si Si2 0.832068 0.118097 0.056901
Si Si3 0.399873 0.366164 0.409308
Si Si4 0.205320 0.368043 0.956190
Si Si5 0.802869 0.354592 0.023563
Si Si6 0.584888 0.380506 0.578690
Si Si7 0.900921 0.800865 0.249386
O O1 0.780118 0.104799 0.255367
O O2 0.478693 0.249693 0.484532
O O3 0.451116 0.109892 0.597068
O O4 0.000000 0.000000 0.500000
O O5 0.490695 0.251466 0.030470
O O6 0.069268 0.121201 0.909863
O O7 0.000000 0.000000 0.000000
O O8 0.608905 0.351218 0.433649
O O9 0.000000 0.500000 0.500000
O O10 0.601864 0.337385 0.197854
O O11 0.343475 0.379729 0.745598
O O12 0.020663 0.344325 0.024542
O O13 0.000000 0.500000 0.000000
O O14 0.997190 0.281419 0.854201
O O15 0.500000 0.500000 0.000000
O O16 0.500000 0.500000 0.500000
O O17 0.857811 0.288103 0.652620
#
# Coordination Sequence:
#
# PCOD9059423 Si02
#       7
#     2   2   2   2   2   2   2
#     4  12  29  49  75 107 147 194 249 303 366 438
#     4  11  28  51  72 106 148 193 245 302 369 438
#     4  12  26  45  74 109 148 188 244 306 365 438
#     4  11  25  42  74 107 144 185 246 300 367 433
#     4  12  23  43  71 109 147 193 237 303 369 434
#     4  11  23  41  68 106 146 186 236 299 364 430
#     4  11  26  47  73 105 146 191 250 297 366 440
#
# _framework density 21.318297999999999
#
# number of rings (size 3 to 8) (size 9 to 14) (size 15 to 20)
#    0.000    0.571    1.429    6.857   12.000    2.286 
#    0.000    0.000    0.000    0.000    0.000    0.000 
#    0.000    0.000    0.000    0.000    0.000    0.000 
#
# Total GULP energy -78024.562810 kJ/mol
# GULP energy per Si atom -5573.183058 kJ/mol
# Density = 2.126978 g / cm^3
# Si number density = 21.318298 Si / 1000 Ang^3
#
#
#
# Elastic Constant Matrix: (Units=GPa)
#
#
# Indices 1 2 3 4 5 6 
#
# 1 104.6071 36.9795 62.2734 7.5514 -4.7563 5.0630
# 2 36.9795 114.3977 62.6393 6.6304 7.7791 6.5509
# 3 62.2734 62.6393 161.9754 -11.0007 -15.6045 -10.8971
# 4 7.5514 6.6304 -11.0007 15.7992 3.8266 5.9576
# 5 -4.7563 7.7791 -15.6045 3.8266 48.0004 5.8007
# 6 5.0630 6.5509 -10.8971 5.9576 5.8007 27.6236
#
#
#
# Elastic Compliance Matrix: (Units=1/GPa)
#
#
# Indices 1 2 3 4 5 6 
#
# 1 0.014251 -0.000612 -0.006038 -0.009841 0.000680 -0.002869
# 2 -0.000612 0.012879 -0.005734 -0.007229 -0.003073 -0.003000
# 3 -0.006038 -0.005734 0.012041 0.011422 0.002832 0.004158
# 4 -0.009841 -0.007229 0.011422 0.082959 -0.001551 -0.009542
# 5 0.000680 -0.003073 0.002832 -0.001551 0.022772 -0.002726
# 6 -0.002869 -0.003000 0.004158 -0.009542 -0.002726 0.041709
#
#
# Mechanical properties :
#
#
# Convention : Reuss Voigt Hill
#
# Bulk Modulus (GPa) = 69.43361 78.30717 73.87039
# Shear Modulus (GPa) = 23.12892 32.89050 28.00971
#
# Velocity S-wave (km/s) = 3.29740 3.93215 3.62868
# Velocity P-wave (km/s) = 6.86570 7.57812 7.23069
#
# Compressibility (1/GPa) = 0.01440225
#
# Stress axis : x y z
#
# Youngs Moduli (GPa) = 70.17234 77.64758 83.04890
#
# Poissons Ratio (x) = 0.04751 0.50146
# Poissons Ratio (y) = 0.04293 0.47621
# Poissons Ratio (z) = 0.42371 0.44524
#
# Static dielectric constant tensor:
#      x y z
#    x 2.074110 0.121750 0.651430 
#    y 0.121750 1.772110 0.177580 
#    z 0.651430 0.177580 3.979360 
# 
# From -- ./inp_files/223364.got.cif
#   From: 2010.05.17/outbox.cif.g08.bks.cpg/sg2_112_cif.got.tgz:223364.got - 2010.06.03 11:33:40.
