data_PCOD9059754
_publ_section_title
;
Structure prediction by ZEFSAII (Michael W. Deem and Ramdas Pophale) SiO2 
 PCOD9059754
Probable space group: P -1
;
_chemical_formula_sum "Si O2"
_cell_formula_units_Z 12
_cell_length_a 11.996612
_cell_length_b 8.326372
_cell_length_c 8.818938
_cell_angle_alpha 101.916315
_cell_angle_beta 140.936309
_cell_angle_gamma 63.313643
_cell_volume 479.916428
_symmetry_space_group_name_H-M "P -1"
_symmetry_group_IT_number 2
_symmetry_cell_setting 'triclinic'
loop_
_space_group_symop_operation_xyz
x,y,z
-x,-y,-z
loop_
_atom_site_type_symbol
_atom_site_label
_atom_site_fract_x
_atom_site_fract_y
_atom_site_fract_z
Si Si1 0.024479 0.348843 0.874475
Si Si2 0.680883 0.049623 0.825478
Si Si3 0.442015 0.475847 0.602759
Si Si4 0.379201 0.091437 0.738594
Si Si5 0.968823 0.134617 0.352831
Si Si6 0.253210 0.441433 0.859224
O O1 0.145226 0.371240 0.859637
O O2 0.796594 0.400247 0.598989
O O3 0.000000 0.500000 0.000000
O O4 0.139573 0.156815 0.056351
O O5 0.524583 0.251983 0.637481
O O6 0.525112 0.001987 0.737597
O O7 0.806807 0.114285 0.078954
O O8 0.500000 0.500000 0.500000
O O9 0.564682 0.540061 0.861954
O O10 0.319995 0.303884 0.758493
O O11 0.188757 0.062630 0.504630
O O12 0.500000 0.000000 0.000000
O O13 0.889448 0.355072 0.318930
O O14 0.000000 0.000000 0.500000
#
# Coordination Sequence:
#
# PCOD9059754 Si02
#       6
#     2   2   2   2   2   2
#     4  12  25  47  72 100 139 185 235 284 340 409
#     4  11  27  45  73 105 137 185 230 282 355 410
#     4  11  26  49  70 102 141 184 234 290 338 408
#     4  12  23  42  70 104 140 177 225 280 350 414
#     4  11  23  42  68 102 141 180 222 282 346 414
#     4  11  25  45  70 103 139 182 229 282 349 410
#
# _framework density 25.004352999999998
#
# number of rings (size 3 to 8) (size 9 to 14) (size 15 to 20)
#    0.000    0.667    5.000    1.500    2.333    6.667 
#    0.000    0.000    0.000    0.000    0.000    0.000 
#    0.000    0.000    0.000    0.000    0.000    0.000 
#
# Total GULP energy -66975.428491 kJ/mol
# GULP energy per Si atom -5581.285708 kJ/mol
# Density = 2.494744 g / cm^3
# Si number density = 25.004353 Si / 1000 Ang^3
#
#
#
# Elastic Constant Matrix: (Units=GPa)
#
#
# Indices 1 2 3 4 5 6 
#
# 1 64.3402 14.1735 38.0536 -10.0534 26.0663 4.5574
# 2 14.1735 102.6797 6.5206 -36.3446 3.5418 6.0123
# 3 38.0536 6.5206 101.6463 -8.4860 50.1070 5.6714
# 4 -10.0534 -36.3446 -8.4860 53.2265 2.1681 -6.0573
# 5 26.0663 3.5418 50.1070 2.1681 42.0985 1.6432
# 6 4.5574 6.0123 5.6714 -6.0573 1.6432 28.0119
#
#
#
# Elastic Compliance Matrix: (Units=1/GPa)
#
#
# Indices 1 2 3 4 5 6 
#
# 1 0.022326 -0.001351 -0.002706 0.003124 -0.010591 -0.001498
# 2 -0.001351 0.013169 0.001971 0.009077 -0.003051 -0.000864
# 3 -0.002706 0.001971 0.025905 0.005916 -0.029541 -0.002215
# 4 0.003124 0.009077 0.005916 0.027309 -0.011260 0.002912
# 5 -0.010591 -0.003051 -0.029541 -0.011260 0.066229 0.002039
# 6 -0.001498 -0.000864 -0.002215 0.002912 0.002039 0.037087
#
#
# Mechanical properties :
#
#
# Convention : Reuss Voigt Hill
#
# Bulk Modulus (GPa) = 17.47409 42.90683 30.19046
# Shear Modulus (GPa) = 23.22641 38.66194 30.94418
#
# Velocity S-wave (km/s) = 3.05108 3.93645 3.52170
# Velocity P-wave (km/s) = 4.40633 6.15287 5.35134
#
# Compressibility (1/GPa) = 0.05722758
#
# Stress axis : x y z
#
# Youngs Moduli (GPa) = 44.79173 75.93461 38.60328
#
# Poissons Ratio (x) = 0.10260 0.10446
# Poissons Ratio (y) = 0.06052 -0.07610
# Poissons Ratio (z) = 0.12121 -0.14969
#
# Static dielectric constant tensor:
#      x y z
#    x 2.014520 0.039440 -0.035410 
#    y 0.039440 2.110910 -0.100720 
#    z -0.035410 -0.100720 1.986030 
# 
# From -- ./inp_files/172849.got.cif
#   From: 2010.05.17/outbox.cif.g08.bks.cpg/sg2_87_cif.got.tgz:172849.got - 2010.06.03 11:33:40.
