data_PCOD9059275
_publ_section_title
;
Structure prediction by ZEFSAII (Michael W. Deem and Ramdas Pophale) SiO2 
 PCOD9059275
Probable space group: P -1
;
_chemical_formula_sum "Si O2"
_cell_formula_units_Z 14
_cell_length_a 17.834821
_cell_length_b 9.483519
_cell_length_c 6.597370
_cell_angle_alpha 43.511383
_cell_angle_beta 64.153132
_cell_angle_gamma 66.180895
_cell_volume 684.455711
_symmetry_space_group_name_H-M "P -1"
_symmetry_group_IT_number 2
_symmetry_cell_setting 'triclinic'
loop_
_space_group_symop_operation_xyz
x,y,z
-x,-y,-z
loop_
_atom_site_type_symbol
_atom_site_label
_atom_site_fract_x
_atom_site_fract_y
_atom_site_fract_z
Si Si1 0.764286 0.397780 0.231979
Si Si2 0.392031 0.830950 0.334169
Si Si3 0.539941 0.917023 0.334826
Si Si4 0.119208 0.637380 0.231767
Si Si5 0.851144 0.050018 0.784570
Si Si6 0.030346 0.355596 0.922057
Si Si7 0.709905 0.803081 0.103476
O O1 0.670099 0.337416 0.409435
O O2 0.761537 0.602340 0.155794
O O3 0.825786 0.217548 0.463344
O O4 0.797930 0.421263 0.941498
O O5 0.467932 0.811721 0.419686
O O6 0.437591 0.877431 0.022583
O O7 0.330395 0.051939 0.187549
O O8 0.629231 0.770179 0.367624
O O9 0.500000 0.000000 0.500000
O O10 0.095676 0.464660 0.595284
O O11 0.044833 0.668090 0.120957
O O12 0.127464 0.835397 0.155506
O O13 0.925473 0.869307 0.827436
O O14 0.768307 0.937481 0.018707
O O15 0.000000 0.500000 0.000000
#
# Coordination Sequence:
#
# PCOD9059275 Si02
#       7
#     2   2   2   2   2   2   2
#     4  11  23  41  63  95 126 167 207 259 308 367
#     4   8  20  37  59  86 126 159 205 255 307 354
#     4   9  18  39  61  88 122 167 203 251 310 364
#     4  11  25  40  66  94 121 166 214 244 320 370
#     4  11  23  42  63  92 129 161 206 257 312 365
#     4  11  25  46  65  91 128 162 205 262 307 371
#     4   9  20  39  60  88 129 161 202 258 307 359
#
# _framework density 20.45421
#
# number of rings (size 3 to 8) (size 9 to 14) (size 15 to 20)
#    0.857    1.143    0.000    3.000    2.000    7.429 
#    2.571    0.714    0.000    0.000    0.000    0.000 
#    0.000    0.000    0.000    0.000    0.000    0.000 
#
# Total GULP energy -78020.659447 kJ/mol
# GULP energy per Si atom -5572.904246 kJ/mol
# Density = 2.040765 g / cm^3
# Si number density = 20.454210 Si / 1000 Ang^3
#
#
#
# Elastic Constant Matrix: (Units=GPa)
#
#
# Indices 1 2 3 4 5 6 
#
# 1 95.6293 38.3397 44.9756 1.7466 -19.6442 15.9067
# 2 38.3397 131.1508 50.5590 13.4688 -3.4302 11.9523
# 3 44.9756 50.5590 53.9615 13.0994 3.4938 29.9946
# 4 1.7466 13.4688 13.0994 32.2569 4.1282 8.9838
# 5 -19.6442 -3.4302 3.4938 4.1282 11.9781 -22.5078
# 6 15.9067 11.9523 29.9946 8.9838 -22.5078 10.5056
#
#
#
# Elastic Compliance Matrix: (Units=1/GPa)
#
#
# Indices 1 2 3 4 5 6 
#
# 1 0.015629 -0.002015 -0.005066 0.005876 -0.000690 -0.013410
# 2 -0.002015 0.010702 -0.005877 -0.000249 -0.005403 -0.003705
# 3 -0.005066 -0.005877 0.019907 -0.013363 0.022983 0.018188
# 4 0.005876 -0.000249 -0.013363 0.036205 0.000558 -0.000227
# 5 -0.000690 -0.005403 0.022983 0.000558 0.012154 -0.032866
# 6 -0.013410 -0.003705 0.018188 -0.000227 -0.032866 -0.002440
#
#
# Mechanical properties :
#
#
# Convention : Reuss Voigt Hill
#
# Bulk Modulus (GPa) = 49.21191 60.94337 55.07764
# Shear Modulus (GPa) = 40.04873 20.73927 30.39400
#
# Velocity S-wave (km/s) = 4.42970 3.18769 3.85899
# Velocity P-wave (km/s) = 7.09047 6.58849 6.84408
#
# Compressibility (1/GPa) = 0.02032028
#
# Stress axis : x y z
#
# Youngs Moduli (GPa) = 63.98289 93.44370 50.23308
#
# Poissons Ratio (x) = 0.18831 0.25449
# Poissons Ratio (y) = 0.12894 0.29524
# Poissons Ratio (z) = 0.32416 0.54920
#
# Static dielectric constant tensor:
#      x y z
#    x 1.762400 -0.041640 -0.001070 
#    y -0.041640 1.679470 -0.018720 
#    z -0.001070 -0.018720 1.748760 
# 
# From -- ./inp_files/115838.got.cif
#   From: 2010.05.17/outbox.cif.g08.bks.cpg/sg2_58_cif.got.tgz:115838.got - 2010.06.03 11:33:40.
