data_PCOD9059108
_publ_section_title
;
Structure prediction by ZEFSAII (Michael W. Deem and Ramdas Pophale) SiO2 
 PCOD9059108
Probable space group: P -1
;
_chemical_formula_sum "Si O2"
_cell_formula_units_Z 16
_cell_length_a 10.225566
_cell_length_b 13.357983
_cell_length_c 10.659714
_cell_angle_alpha 34.640935
_cell_angle_beta 93.107527
_cell_angle_gamma 79.504952
_cell_volume 757.630302
_symmetry_space_group_name_H-M "P -1"
_symmetry_group_IT_number 2
_symmetry_cell_setting 'triclinic'
loop_
_space_group_symop_operation_xyz
x,y,z
-x,-y,-z
loop_
_atom_site_type_symbol
_atom_site_label
_atom_site_fract_x
_atom_site_fract_y
_atom_site_fract_z
Si Si1 0.003373 0.363058 0.756326
Si Si2 0.592799 0.369620 0.026512
Si Si3 0.595281 0.847745 0.764058
Si Si4 0.132405 0.862678 0.565923
Si Si5 0.745018 0.005696 0.798665
Si Si6 0.464293 0.805013 0.203499
Si Si7 0.899899 0.524681 0.088095
Si Si8 0.683332 0.417410 0.721653
O O1 0.852533 0.344057 0.783312
O O2 0.000000 0.500000 0.500000
O O3 0.039063 0.435926 0.817605
O O4 0.137472 0.163700 0.943106
O O5 0.489595 0.275370 0.067757
O O6 0.731536 0.209662 0.261313
O O7 0.500000 0.500000 0.000000
O O8 0.644648 0.464254 0.818569
O O9 0.631268 0.944836 0.784961
O O10 0.500000 0.000000 0.500000
O O11 0.748521 0.700623 0.872943
O O12 0.118346 0.674213 0.706136
O O13 0.166492 0.958261 0.347475
O O14 0.000000 0.000000 0.500000
O O15 0.647007 0.172096 0.711855
O O16 0.605744 0.614713 0.436155
O O17 0.381386 0.739526 0.157812
O O18 0.500000 0.000000 0.000000
O O19 0.000000 0.500000 0.000000
#
# Coordination Sequence:
#
# PCOD9059108 Si02
#       8
#     2   2   2   2   2   2   2   2
#     4  11  26  48  70 101 141 187 237 288 356 426
#     4  12  23  42  69 101 137 179 229 288 357 416
#     4  11  23  40  67 102 135 177 232 287 352 423
#     4  12  24  43  66 100 141 179 226 289 353 420
#     4  11  24  44  69  98 139 178 231 282 352 421
#     4  11  25  47  72 100 136 183 237 293 354 415
#     4  11  25  44  69  98 143 184 231 292 352 418
#     4  11  26  46  71 101 143 182 238 291 354 427
#
# _framework density 21.118480000000002
#
# number of rings (size 3 to 8) (size 9 to 14) (size 15 to 20)
#    0.000    0.750    2.500    5.250    1.750    2.500 
#    6.750    0.000    0.000    0.000    0.000    0.000 
#    0.000    0.000    0.000    0.000    0.000    0.000 
#
# Total GULP energy -89358.339800 kJ/mol
# GULP energy per Si atom -5584.896237 kJ/mol
# Density = 2.107041 g / cm^3
# Si number density = 21.118480 Si / 1000 Ang^3
#
#
#
# Elastic Constant Matrix: (Units=GPa)
#
#
# Indices 1 2 3 4 5 6 
#
# 1 113.0203 46.7948 42.8005 9.4857 15.1285 -6.3460
# 2 46.7948 90.7652 15.3111 -8.9221 7.3184 -10.7566
# 3 42.8005 15.3111 82.2220 5.0820 9.6372 8.4077
# 4 9.4857 -8.9221 5.0820 29.5340 -3.8334 -4.2637
# 5 15.1285 7.3184 9.6372 -3.8334 48.4328 -7.1510
# 6 -6.3460 -10.7566 8.4077 -4.2637 -7.1510 27.8439
#
#
#
# Elastic Compliance Matrix: (Units=1/GPa)
#
#
# Indices 1 2 3 4 5 6 
#
# 1 0.014870 -0.006967 -0.005817 -0.006128 -0.002802 0.000796
# 2 -0.006967 0.016225 -0.000767 0.008419 0.001517 0.006590
# 3 -0.005817 -0.000767 0.016612 -0.002695 -0.002731 -0.007752
# 4 -0.006128 0.008419 -0.002695 0.041128 0.005985 0.010505
# 5 -0.002802 0.001517 -0.002731 0.005985 0.023449 0.007710
# 6 0.000796 0.006590 -0.007752 0.010505 0.007710 0.044572
#
#
# Mechanical properties :
#
#
# Convention : Reuss Voigt Hill
#
# Bulk Modulus (GPa) = 48.53138 55.09114 51.81126
# Shear Modulus (GPa) = 26.20191 33.23557 29.71874
#
# Velocity S-wave (km/s) = 3.52619 3.97138 3.75539
# Velocity P-wave (km/s) = 6.29358 6.86822 6.58717
#
# Compressibility (1/GPa) = 0.02060523
#
# Stress axis : x y z
#
# Youngs Moduli (GPa) = 67.25119 61.63302 60.19575
#
# Poissons Ratio (x) = 0.42940 0.35017
# Poissons Ratio (y) = 0.46854 0.04616
# Poissons Ratio (z) = 0.39121 0.04726
#
# Static dielectric constant tensor:
#      x y z
#    x 1.675460 0.095780 0.035050 
#    y 0.095780 1.638510 -0.053540 
#    z 0.035050 -0.053540 1.708800 
# 
# From -- ./inp_files/398148.got.cif
#   From: 2010.05.17/outbox.cif.g08.bks.cpg/sg2_200_cif.got.tgz:398148.got - 2010.06.03 11:33:40.
