data_PCOD9059970
_publ_section_title
;
Structure prediction by ZEFSAII (Michael W. Deem and Ramdas Pophale) SiO2 
 PCOD9059970
Probable space group: P -1
;
_chemical_formula_sum "Si O2"
_cell_formula_units_Z 16
_cell_length_a 8.891313
_cell_length_b 20.647246
_cell_length_c 7.845184
_cell_angle_alpha 79.144214
_cell_angle_beta 115.703679
_cell_angle_gamma 47.492706
_cell_volume 659.182013
_symmetry_space_group_name_H-M "P -1"
_symmetry_group_IT_number 2
_symmetry_cell_setting 'triclinic'
loop_
_space_group_symop_operation_xyz
x,y,z
-x,-y,-z
loop_
_atom_site_type_symbol
_atom_site_label
_atom_site_fract_x
_atom_site_fract_y
_atom_site_fract_z
Si Si1 0.098320 0.713039 0.893728
Si Si2 0.738611 0.176852 0.318195
Si Si3 0.435902 0.946237 0.943533
Si Si4 0.854712 0.716354 0.070061
Si Si5 0.765480 0.524966 0.450229
Si Si6 0.428417 0.171082 0.596199
Si Si7 0.048084 0.099444 0.158019
Si Si8 0.441289 0.722712 0.468037
O O1 0.923430 0.743733 0.627617
O O2 0.881358 0.849756 0.773903
O O3 0.466421 0.611222 0.135265
O O4 0.062718 0.666624 0.035517
O O5 0.605254 0.271275 0.355205
O O6 0.789298 0.169159 0.144283
O O7 0.474256 0.209080 0.181433
O O8 0.106204 0.046629 0.628135
O O9 0.744871 0.820603 0.050276
O O10 0.429403 0.895677 0.118479
O O11 0.500000 0.000000 0.000000
O O12 0.043812 0.605111 0.344977
O O13 0.632425 0.601187 0.523924
O O14 0.000000 0.500000 0.500000
O O15 0.412078 0.253742 0.506148
O O16 0.670860 0.049566 0.647559
O O17 0.887019 0.160049 0.862309
#
# Coordination Sequence:
#
# PCOD9059970 Si02
#       8
#     2   2   2   2   2   2   2   2
#     4  11  24  45  68 102 137 186 235 291 354 418
#     4  12  25  45  73 109 143 190 234 289 355 426
#     4  12  26  42  71 114 147 183 236 288 355 430
#     4  12  25  46  73 101 144 191 232 293 358 417
#     4  11  26  51  74  97 138 192 244 293 352 419
#     4  12  22  42  67 107 147 183 228 298 353 419
#     4  11  23  42  72 102 152 189 229 283 362 422
#     4  11  25  44  72 105 141 183 246 286 346 420
#
# _framework density 24.272507000000001
#
# number of rings (size 3 to 8) (size 9 to 14) (size 15 to 20)
#    0.000    0.500    2.500    6.750    3.500    0.500 
#    0.000    2.500    0.000    0.000    0.000    0.000 
#    0.000    0.000    0.000    0.000    0.000    0.000 
#
# Total GULP energy -89424.061646 kJ/mol
# GULP energy per Si atom -5589.003853 kJ/mol
# Density = 2.421726 g / cm^3
# Si number density = 24.272507 Si / 1000 Ang^3
#
#
#
# Elastic Constant Matrix: (Units=GPa)
#
#
# Indices 1 2 3 4 5 6 
#
# 1 75.1490 -16.1001 21.6889 -3.9462 13.7737 -3.0586
# 2 -16.1001 68.4012 21.8255 -0.7243 10.0983 5.5375
# 3 21.6889 21.8255 89.3594 -9.7227 24.8103 25.9766
# 4 -3.9462 -0.7243 -9.7227 32.3062 0.9292 -1.8137
# 5 13.7737 10.0983 24.8103 0.9292 34.4263 6.9770
# 6 -3.0586 5.5375 25.9766 -1.8137 6.9770 44.6453
#
#
#
# Elastic Compliance Matrix: (Units=1/GPa)
#
#
# Indices 1 2 3 4 5 6 
#
# 1 0.017550 0.006366 -0.005342 0.001103 -0.005981 0.004500
# 2 0.006366 0.018330 -0.005387 -0.000194 -0.004438 0.001983
# 3 -0.005342 -0.005387 0.019442 0.004790 -0.008501 -0.009487
# 4 0.001103 -0.000194 0.004790 0.032621 -0.004586 -0.000645
# 5 -0.005981 -0.004438 -0.008501 -0.004586 0.039242 -0.001232
# 6 0.004500 0.001983 -0.009487 -0.000645 -0.001232 0.028148
#
#
# Mechanical properties :
#
#
# Convention : Reuss Voigt Hill
#
# Bulk Modulus (GPa) = 21.46192 31.97093 26.71642
# Shear Modulus (GPa) = 27.84097 35.97525 31.90811
#
# Velocity S-wave (km/s) = 3.39044 3.85403 3.62964
# Velocity P-wave (km/s) = 4.91813 5.74500 5.34757
#
# Compressibility (1/GPa) = 0.04659415
#
# Stress axis : x y z
#
# Youngs Moduli (GPa) = 56.98084 54.55683 51.43383
#
# Poissons Ratio (x) = -0.34729 0.27476
# Poissons Ratio (y) = -0.36272 0.27709
# Poissons Ratio (z) = 0.30440 0.29392
#
# Static dielectric constant tensor:
#      x y z
#    x 1.949470 -0.028000 -0.008080 
#    y -0.028000 1.985850 0.003590 
#    z -0.008080 0.003590 1.939300 
# 
# From -- ./inp_files/223616.got.cif
#   From: 2010.05.17/outbox.cif.g08.bks.cpg/sg2_112_cif.got.tgz:223616.got - 2010.06.03 11:33:40.
