data_PCOD9059043
_publ_section_title
;
Structure prediction by ZEFSAII (Michael W. Deem and Ramdas Pophale) SiO2 
 PCOD9059043
Probable space group: P -1
;
_chemical_formula_sum "Si O2"
_cell_formula_units_Z 12
_cell_length_a 13.950867
_cell_length_b 8.967651
_cell_length_c 8.328839
_cell_angle_alpha 128.845019
_cell_angle_beta 108.612375
_cell_angle_gamma 42.627472
_cell_volume 529.219317
_symmetry_space_group_name_H-M "P -1"
_symmetry_group_IT_number 2
_symmetry_cell_setting 'triclinic'
loop_
_space_group_symop_operation_xyz
x,y,z
-x,-y,-z
loop_
_atom_site_type_symbol
_atom_site_label
_atom_site_fract_x
_atom_site_fract_y
_atom_site_fract_z
Si Si1 0.939291 0.396075 0.076978
Si Si2 0.581544 0.897736 0.713731
Si Si3 0.913094 0.855764 0.493157
Si Si4 0.231037 0.973275 0.120723
Si Si5 0.683125 0.565204 0.217175
Si Si6 0.807013 0.393805 0.685130
O O1 0.904504 0.666388 0.269297
O O2 0.849899 0.398867 0.164143
O O3 0.111709 0.132235 0.021716
O O4 0.881482 0.395779 0.878073
O O5 0.671457 0.972244 0.802641
O O6 0.621582 0.716618 0.456620
O O7 0.646562 0.691392 0.757946
O O8 0.412950 0.189697 0.801585
O O9 0.859605 0.896486 0.673026
O O10 0.080063 0.705216 0.465011
O O11 0.815440 0.157327 0.565659
O O12 0.324393 0.651298 0.951580
#
# Coordination Sequence:
#
# PCOD9059043 Si02
#       6
#     2   2   2   2   2   2
#     4  12  23  40  68  98 124 163 213 261 313 367
#     4  11  25  45  64  91 132 166 209 259 311 377
#     4  11  23  40  64  96 128 161 209 260 314 364
#     4  12  23  42  69  94 123 168 215 256 307 377
#     4  11  25  42  67  93 125 171 212 252 314 377
#     4  11  25  40  64  97 129 163 205 267 317 363
#
# _framework density 22.674910000000001
#
# number of rings (size 3 to 8) (size 9 to 14) (size 15 to 20)
#    0.000    0.667    5.000    3.000    4.667    0.667 
#    0.000    0.833    0.000    0.000    0.000    0.000 
#    0.000    0.000    0.000    0.000    0.000    0.000 
#
# Total GULP energy -67192.595056 kJ/mol
# GULP energy per Si atom -5599.382921 kJ/mol
# Density = 2.262330 g / cm^3
# Si number density = 22.674910 Si / 1000 Ang^3
#
#
#
# Elastic Constant Matrix: (Units=GPa)
#
#
# Indices 1 2 3 4 5 6 
#
# 1 34.5159 -17.1053 -6.7281 5.1893 5.8176 6.2126
# 2 -17.1053 74.0737 28.5662 19.7246 7.9747 1.4871
# 3 -6.7281 28.5662 80.0570 14.2033 15.8564 7.5200
# 4 5.1893 19.7246 14.2033 31.7422 18.5850 1.4987
# 5 5.8176 7.9747 15.8564 18.5850 25.5146 13.5577
# 6 6.2126 1.4871 7.5200 1.4987 13.5577 30.0924
#
#
#
# Elastic Compliance Matrix: (Units=1/GPa)
#
#
# Indices 1 2 3 4 5 6 
#
# 1 0.039312 0.012528 0.002074 -0.016439 0.003008 -0.009790
# 2 0.012528 0.022646 -0.005090 -0.020263 0.011498 -0.006605
# 3 0.002074 -0.005090 0.016207 0.001568 -0.010266 0.000321
# 4 -0.016439 -0.020263 0.001568 0.085367 -0.069607 0.031112
# 5 0.003008 0.011498 -0.010266 -0.069607 0.117569 -0.048126
# 6 -0.009790 -0.006605 0.000321 0.031112 -0.048126 0.055631
#
#
# Mechanical properties :
#
#
# Convention : Reuss Voigt Hill
#
# Bulk Modulus (GPa) = 10.28922 22.01248 16.15085
# Shear Modulus (GPa) = 14.28147 29.73076 22.00612
#
# Velocity S-wave (km/s) = 2.51238 3.62494 3.11867
# Velocity P-wave (km/s) = 3.60050 5.22008 4.48402
#
# Compressibility (1/GPa) = 0.09718907
#
# Stress axis : x y z
#
# Youngs Moduli (GPa) = 25.43776 44.15696 61.70318
#
# Poissons Ratio (x) = -0.55321 -0.12795
# Poissons Ratio (y) = -0.31869 0.31406
# Poissons Ratio (z) = -0.05275 0.22475
#
# Static dielectric constant tensor:
#      x y z
#    x 1.817720 0.006990 -0.038140 
#    y 0.006990 1.868730 -0.004630 
#    z -0.038140 -0.004630 1.834240 
# 
# From -- ./inp_files/148669.got.cif
#   From: 2010.05.17/outbox.cif.g08.bks.cpg/sg2_75_cif.got.tgz:148669.got - 2010.06.03 11:33:40.
