data_PCOD9059687
_publ_section_title
;
Structure prediction by ZEFSAII (Michael W. Deem and Ramdas Pophale) SiO2 
 PCOD9059687
Probable space group: P -1
;
_chemical_formula_sum "Si O2"
_cell_formula_units_Z 16
_cell_length_a 14.858955
_cell_length_b 5.328216
_cell_length_c 23.788624
_cell_angle_alpha 108.516226
_cell_angle_beta 159.600212
_cell_angle_gamma 76.218449
_cell_volume 612.358045
_symmetry_space_group_name_H-M "P -1"
_symmetry_group_IT_number 2
_symmetry_cell_setting 'triclinic'
loop_
_space_group_symop_operation_xyz
x,y,z
-x,-y,-z
loop_
_atom_site_type_symbol
_atom_site_label
_atom_site_fract_x
_atom_site_fract_y
_atom_site_fract_z
Si Si1 0.353012 0.697536 0.094742
Si Si2 0.432228 0.701004 0.626387
Si Si3 0.217074 0.815348 0.624440
Si Si4 0.290244 0.679998 0.177756
Si Si5 0.361069 0.710357 0.824081
Si Si6 0.666266 0.172714 0.544407
Si Si7 0.846781 0.681801 0.745466
Si Si8 0.137083 0.847837 0.816166
O O1 0.498831 0.995764 0.191079
O O2 0.410687 0.595559 0.183133
O O3 0.470019 0.519042 0.105588
O O4 0.045850 0.699889 0.914108
O O5 0.558523 0.436855 0.691522
O O6 0.297261 0.693519 0.486593
O O7 0.243614 0.695795 0.569262
O O8 0.637895 0.993035 0.764562
O O9 0.190213 0.704355 0.665273
O O10 0.000000 0.000000 0.500000
O O11 0.000000 0.500000 0.000000
O O12 0.196553 0.690216 0.783902
O O13 0.589387 0.967350 0.989958
O O14 0.694778 0.380099 0.628064
O O15 0.345521 0.102986 0.351967
O O16 0.896295 0.002863 0.671670
O O17 0.031888 0.702639 0.801202
#
# Coordination Sequence:
#
# PCOD9059687 Si02
#       8
#     2   2   2   2   2   2   2   2
#     4  11  23  44  69 101 137 182 235 291 360 427
#     4  11  25  44  68 106 141 181 238 289 356 427
#     4  11  24  45  68  96 138 181 232 296 355 426
#     4  11  24  44  72 102 141 189 234 294 357 425
#     4  11  23  42  67 100 136 180 234 291 354 425
#     4  11  25  44  67 103 138 184 237 289 356 423
#     4  11  24  44  70  98 139 183 233 295 353 420
#     4  11  24  41  68  99 139 184 234 291 351 425
#
# _framework density 26.128504
#
# number of rings (size 3 to 8) (size 9 to 14) (size 15 to 20)
#    0.000    1.000    3.750    2.250    1.750    5.000 
#    0.000    0.000    0.000    0.000    0.000    0.000 
#    0.000    0.000    0.000    0.000    0.000    0.000 
#
# Total GULP energy -89265.591512 kJ/mol
# GULP energy per Si atom -5579.099469 kJ/mol
# Density = 2.606903 g / cm^3
# Si number density = 26.128504 Si / 1000 Ang^3
#
#
#
# Elastic Constant Matrix: (Units=GPa)
#
#
# Indices 1 2 3 4 5 6 
#
# 1 187.8309 37.5340 22.0086 -3.5867 5.1384 -3.7639
# 2 37.5340 69.9732 10.6517 -8.4161 4.0517 12.8456
# 3 22.0086 10.6517 95.0861 -22.4383 -10.9427 4.9584
# 4 -3.5867 -8.4161 -22.4383 43.5737 -0.9797 -11.8288
# 5 5.1384 4.0517 -10.9427 -0.9797 40.5685 -12.3902
# 6 -3.7639 12.8456 4.9584 -11.8288 -12.3902 37.5225
#
#
#
# Elastic Compliance Matrix: (Units=1/GPa)
#
#
# Indices 1 2 3 4 5 6 
#
# 1 0.006204 -0.003496 -0.001240 -0.000317 -0.000226 0.001808
# 2 -0.003496 0.018009 -0.001162 0.000461 -0.003956 -0.007523
# 3 -0.001240 -0.001162 0.013031 0.007125 0.004675 0.002341
# 4 -0.000317 0.000461 0.007125 0.029542 0.005703 0.010065
# 5 -0.000226 -0.003956 0.004675 0.005703 0.030295 0.012515
# 6 0.001808 -0.007523 0.002341 0.010065 0.012515 0.036404
#
#
# Mechanical properties :
#
#
# Convention : Reuss Voigt Hill
#
# Bulk Modulus (GPa) = 39.29580 54.80877 47.05228
# Shear Modulus (GPa) = 32.51738 43.17934 37.84836
#
# Velocity S-wave (km/s) = 3.53160 4.06960 3.81011
# Velocity P-wave (km/s) = 5.63042 6.56539 6.11580
#
# Compressibility (1/GPa) = 0.02544801
#
# Stress axis : x y z
#
# Youngs Moduli (GPa) = 161.18092 55.52725 76.73972
#
# Poissons Ratio (x) = 0.19414 0.09512
# Poissons Ratio (y) = 0.56353 0.08920
# Poissons Ratio (z) = 0.19979 0.06454
#
# Static dielectric constant tensor:
#      x y z
#    x 2.077860 -0.027520 -0.031960 
#    y -0.027520 2.138960 0.125730 
#    z -0.031960 0.125730 2.136400 
# 
# From -- ./inp_files/71657.got.cif
#   From: 2010.05.17/outbox.cif.g08.bks.cpg/sg2_36_cif.got.tgz:71657.got - 2010.06.03 11:33:40.
