data_PCOD9059371
_publ_section_title
;
Structure prediction by ZEFSAII (Michael W. Deem and Ramdas Pophale) SiO2 
 PCOD9059371
Probable space group: P -1
;
_chemical_formula_sum "Si O2"
_cell_formula_units_Z 12
_cell_length_a 13.725039
_cell_length_b 8.332654
_cell_length_c 10.522794
_cell_angle_alpha 85.897720
_cell_angle_beta 148.697073
_cell_angle_gamma 110.998624
_cell_volume 510.896928
_symmetry_space_group_name_H-M "P -1"
_symmetry_group_IT_number 2
_symmetry_cell_setting 'triclinic'
loop_
_space_group_symop_operation_xyz
x,y,z
-x,-y,-z
loop_
_atom_site_type_symbol
_atom_site_label
_atom_site_fract_x
_atom_site_fract_y
_atom_site_fract_z
Si Si1 0.041503 0.105019 0.773048
Si Si2 0.868274 0.518204 0.742496
Si Si3 0.094075 0.597574 0.461269
Si Si4 0.437996 0.154828 0.390977
Si Si5 0.545829 0.645605 0.930204
Si Si6 0.646737 0.710252 0.458428
O O1 0.981107 0.265701 0.683723
O O2 0.202294 0.107293 0.066046
O O3 0.204424 0.160693 0.828951
O O4 0.796322 0.898178 0.524672
O O5 0.977579 0.560925 0.722793
O O6 0.628896 0.304829 0.495200
O O7 0.830278 0.681599 0.728940
O O8 0.000000 0.500000 0.000000
O O9 0.366182 0.699103 0.758221
O O10 0.000000 0.500000 0.500000
O O11 0.470393 0.257997 0.557479
O O12 0.500000 0.000000 0.500000
O O13 0.500456 0.491840 0.773016
O O14 0.500000 0.500000 0.000000
#
# Coordination Sequence:
#
# PCOD9059371 Si02
#       6
#     2   2   2   2   2   2
#     4  12  24  45  71  98 148 177 235 293 347 416
#     4  11  23  41  67 102 141 179 238 289 348 419
#     4  11  23  43  71  99 138 188 229 289 349 409
#     4  12  24  43  71 104 145 183 232 291 357 420
#     4  11  25  48  70 101 140 185 237 288 347 422
#     4  11  25  42  69 104 134 186 232 286 360 413
#
# _framework density 23.488102999999999
#
# number of rings (size 3 to 8) (size 9 to 14) (size 15 to 20)
#    0.000    0.667    5.000    4.000    2.333    0.667 
#    0.000    0.833    0.000    0.000    0.000    0.000 
#    0.000    0.000    0.000    0.000    0.000    0.000 
#
# Total GULP energy -66811.552239 kJ/mol
# GULP energy per Si atom -5567.629353 kJ/mol
# Density = 2.343464 g / cm^3
# Si number density = 23.488103 Si / 1000 Ang^3
#
#
#
# Elastic Constant Matrix: (Units=GPa)
#
#
# Indices 1 2 3 4 5 6 
#
# 1 157.1992 49.3303 16.0516 -13.2451 10.1961 14.2304
# 2 49.3303 131.1030 27.3424 -25.8021 8.8626 8.5168
# 3 16.0516 27.3424 64.8979 -22.0040 13.2935 -6.8833
# 4 -13.2451 -25.8021 -22.0040 45.4425 -1.5417 18.7503
# 5 10.1961 8.8626 13.2935 -1.5417 34.3143 -7.3065
# 6 14.2304 8.5168 -6.8833 18.7503 -7.3065 43.8232
#
#
#
# Elastic Compliance Matrix: (Units=1/GPa)
#
#
# Indices 1 2 3 4 5 6 
#
# 1 0.007681 -0.001993 -0.000127 0.002436 -0.002368 -0.003564
# 2 -0.001993 0.010463 -0.001825 0.006365 -0.002129 -0.004751
# 3 -0.000127 -0.001825 0.020745 0.009379 -0.007447 -0.001600
# 4 0.002436 0.006365 0.009379 0.038114 -0.008169 -0.018224
# 5 -0.002368 -0.002129 -0.007447 -0.008169 0.034900 0.009327
# 6 -0.003564 -0.004751 -0.001600 -0.018224 0.009327 0.034001
#
#
# Mechanical properties :
#
#
# Convention : Reuss Voigt Hill
#
# Bulk Modulus (GPa) = 32.25936 59.84983 46.05459
# Shear Modulus (GPa) = 30.46417 42.08105 36.27261
#
# Velocity S-wave (km/s) = 3.60530 4.23731 3.93402
# Velocity P-wave (km/s) = 5.57630 7.03391 6.34709
#
# Compressibility (1/GPa) = 0.03099876
#
# Stress axis : x y z
#
# Youngs Moduli (GPa) = 130.18935 95.57314 48.20417
#
# Poissons Ratio (x) = 0.19044 0.00614
# Poissons Ratio (y) = 0.25942 0.08799
# Poissons Ratio (z) = 0.01658 0.17446
#
# Static dielectric constant tensor:
#      x y z
#    x 1.910810 0.014410 -0.114840 
#    y 0.014410 1.889480 -0.014430 
#    z -0.114840 -0.014430 2.380130 
# 
# From -- ./inp_files/444406.got.cif
#   From: 2010.05.17/outbox.cif.g08.bks.cpg/sg2_223_cif.got.tgz:444406.got - 2010.06.03 11:33:40.
