data_PCOD9059321
_publ_section_title
;
Structure prediction by ZEFSAII (Michael W. Deem and Ramdas Pophale) SiO2 
 PCOD9059321
Probable space group: P -1
;
_chemical_formula_sum "Si O2"
_cell_formula_units_Z 12
_cell_length_a 9.512217
_cell_length_b 21.100630
_cell_length_c 8.651344
_cell_angle_alpha 136.709956
_cell_angle_beta 148.766856
_cell_angle_gamma 40.344844
_cell_volume 567.682095
_symmetry_space_group_name_H-M "P -1"
_symmetry_group_IT_number 2
_symmetry_cell_setting 'triclinic'
loop_
_space_group_symop_operation_xyz
x,y,z
-x,-y,-z
loop_
_atom_site_type_symbol
_atom_site_label
_atom_site_fract_x
_atom_site_fract_y
_atom_site_fract_z
Si Si1 0.155550 0.234318 0.518715
Si Si2 0.250423 0.282405 0.355047
Si Si3 0.670869 0.058203 0.349844
Si Si4 0.787765 0.097285 0.880250
Si Si5 0.815866 0.433074 0.744379
Si Si6 0.366259 0.602555 0.151362
O O1 0.248838 0.281199 0.538325
O O2 0.462224 0.161053 0.756498
O O3 0.964088 0.325174 0.609450
O O4 0.967819 0.170170 0.171454
O O5 0.482734 0.173304 0.331269
O O6 0.369426 0.359615 0.527333
O O7 0.912446 0.312485 0.043774
O O8 0.704959 0.062636 0.575531
O O9 0.000000 0.000000 0.500000
O O10 0.500000 0.000000 0.000000
O O11 0.000000 0.000000 0.000000
O O12 0.500000 0.500000 0.500000
O O13 0.760080 0.416326 0.839953
O O14 0.000000 0.500000 0.000000
O O15 0.500000 0.500000 0.000000
#
# Coordination Sequence:
#
# PCOD9059321 Si02
#       6
#     2   2   2   2   2   2
#     4  11  23  43  66  94 133 176 217 272 330 388
#     4  11  23  42  63  92 127 167 214 264 322 384
#     4  11  23  41  65  94 130 172 216 271 327 384
#     4  11  24  42  66  98 133 176 221 271 331 393
#     4  12  25  43  65  95 130 170 215 270 328 390
#     4  12  24  41  66  95 125 167 214 266 321 387
#
# _framework density 21.138591999999999
#
# number of rings (size 3 to 8) (size 9 to 14) (size 15 to 20)
#    0.000    0.667    0.000   10.000    0.000    4.000 
#    0.000    0.000    0.000    0.000    0.000    0.000 
#    0.000    0.000    0.000    0.000    0.000    0.000 
#
# Total GULP energy -67062.731042 kJ/mol
# GULP energy per Si atom -5588.560920 kJ/mol
# Density = 2.109048 g / cm^3
# Si number density = 21.138592 Si / 1000 Ang^3
#
#
#
# Elastic Constant Matrix: (Units=GPa)
#
#
# Indices 1 2 3 4 5 6 
#
# 1 119.2701 60.5962 40.4414 19.9724 -0.8138 -16.9940
# 2 60.5962 153.6064 51.1725 -13.8977 -14.4304 -30.7691
# 3 40.4414 51.1725 144.9207 -0.6330 16.0827 -7.1966
# 4 19.9724 -13.8977 -0.6330 56.0329 -2.6763 4.1864
# 5 -0.8138 -14.4304 16.0827 -2.6763 32.3668 -3.7858
# 6 -16.9940 -30.7691 -7.1966 4.1864 -3.7858 46.3561
#
#
#
# Elastic Compliance Matrix: (Units=1/GPa)
#
#
# Indices 1 2 3 4 5 6 
#
# 1 0.012541 -0.004724 -0.001635 -0.005843 -0.001270 0.001632
# 2 -0.004724 0.011838 -0.003432 0.004524 0.007921 0.005832
# 3 -0.001635 -0.003432 0.009179 -0.000324 -0.006386 -0.001945
# 4 -0.005843 0.004524 -0.000324 0.021285 0.003696 -0.000810
# 5 -0.001270 0.007921 -0.006386 0.003696 0.038649 0.006623
# 6 0.001632 0.005832 -0.001945 -0.000810 0.006623 0.026353
#
#
# Mechanical properties :
#
#
# Convention : Reuss Voigt Hill
#
# Bulk Modulus (GPa) = 71.54357 80.24638 75.89498
# Shear Modulus (GPa) = 34.70166 44.65696 39.67931
#
# Velocity S-wave (km/s) = 4.05609 4.60127 4.33725
# Velocity P-wave (km/s) = 7.47358 8.14084 7.81433
#
# Compressibility (1/GPa) = 0.01397750
#
# Stress axis : x y z
#
# Youngs Moduli (GPa) = 79.73890 84.47180 108.94247
#
# Poissons Ratio (x) = 0.39900 0.17815
# Poissons Ratio (y) = 0.37665 0.37385
# Poissons Ratio (z) = 0.13039 0.28988
#
# Static dielectric constant tensor:
#      x y z
#    x 1.734070 0.074440 0.008830 
#    y 0.074440 1.833030 -0.038400 
#    z 0.008830 -0.038400 1.724220 
# 
# From -- ./inp_files/205780.got.cif
#   From: 2010.05.17/outbox.cif.g08.bks.cpg/sg2_103_cif.got.tgz:205780.got - 2010.06.03 11:33:40.
