data_PCOD9059807
_publ_section_title
;
Structure prediction by ZEFSAII (Michael W. Deem and Ramdas Pophale) SiO2 
 PCOD9059807
Probable space group: P -1
;
_chemical_formula_sum "Si O2"
_cell_formula_units_Z 15
_cell_length_a 17.076258
_cell_length_b 20.431515
_cell_length_c 8.959371
_cell_angle_alpha 141.592278
_cell_angle_beta 143.405156
_cell_angle_gamma 19.279749
_cell_volume 609.996343
_symmetry_space_group_name_H-M "P -1"
_symmetry_group_IT_number 2
_symmetry_cell_setting 'triclinic'
loop_
_space_group_symop_operation_xyz
x,y,z
-x,-y,-z
loop_
_atom_site_type_symbol
_atom_site_label
_atom_site_fract_x
_atom_site_fract_y
_atom_site_fract_z
Si Si1 0.589111 0.067933 0.409157
Si Si2 0.170911 0.640009 0.119443
Si Si3 0.000000 0.000000 0.000000
Si Si4 0.531313 0.201617 0.857284
Si Si5 0.255834 0.385986 0.225991
Si Si6 0.945787 0.090157 0.738792
Si Si7 0.422362 0.966509 0.124940
Si Si8 0.135485 0.699717 0.511862
O O1 0.647556 0.109362 0.706000
O O2 0.355192 0.273255 0.331933
O O3 0.530228 0.997334 0.269089
O O4 0.836059 0.885234 0.366003
O O5 0.226306 0.641032 0.374903
O O6 0.229429 0.692210 0.184465
O O7 0.316346 0.432887 0.945418
O O8 0.875507 0.821934 0.966641
O O9 0.124358 0.909592 0.207125
O O10 0.839177 0.213717 0.194515
O O11 0.468233 0.135125 0.724375
O O12 0.770632 0.071986 0.081806
O O13 0.226832 0.530676 0.429035
O O14 0.465357 0.206354 0.108546
O O15 0.000000 0.500000 0.000000
O O16 0.000000 0.000000 0.500000
#
# Coordination Sequence:
#
# PCOD9059807 Si02
#       8
#     2   2   1   2   2   2   2   2
#     4  12  25  42  70 106 146 189 241 302 351 433
#     4  11  24  45  71 100 144 191 235 298 363 435
#     4  12  26  50  76 106 140 190 240 306 362 434
#     4  11  26  44  69 106 141 188 242 291 373 429
#     4  12  24  41  72 107 140 193 243 290 359 432
#     4  11  25  48  74 101 141 186 242 306 364 426
#     4  11  23  42  69 102 146 190 235 295 362 433
#     4  12  24  46  73 104 145 187 244 300 356 436
#
# _framework density 24.590309999999999
#
# number of rings (size 3 to 8) (size 9 to 14) (size 15 to 20)
#    0.000    0.533    6.667    1.600    1.867    1.067 
#    0.000    1.333    0.000    0.000    0.000    0.000 
#    0.000    0.000    0.000    0.000    0.000    0.000 
#
# Total GULP energy -83643.999841 kJ/mol
# GULP energy per Si atom -5576.266656 kJ/mol
# Density = 2.453434 g / cm^3
# Si number density = 24.590310 Si / 1000 Ang^3
#
#
#
# Elastic Constant Matrix: (Units=GPa)
#
#
# Indices 1 2 3 4 5 6 
#
# 1 143.8401 45.3552 25.9640 16.2002 -13.9437 41.3619
# 2 45.3552 155.7255 34.4946 28.2582 -1.7953 32.8726
# 3 25.9640 34.4946 78.6907 20.6484 -18.6467 17.3283
# 4 16.2002 28.2582 20.6484 45.8405 9.9956 7.7142
# 5 -13.9437 -1.7953 -18.6467 9.9956 40.6999 4.1296
# 6 41.3619 32.8726 17.3283 7.7142 4.1296 52.4794
#
#
#
# Elastic Compliance Matrix: (Units=1/GPa)
#
#
# Indices 1 2 3 4 5 6 
#
# 1 0.010194 -0.000862 0.000898 -0.003370 0.005478 -0.007727
# 2 -0.000862 0.008461 -0.001459 -0.003797 0.000711 -0.003636
# 3 0.000898 -0.001459 0.019963 -0.010142 0.012476 -0.005877
# 4 -0.003370 -0.003797 -0.010142 0.032245 -0.014372 0.004774
# 5 0.005478 0.000711 0.012476 -0.014372 0.036704 -0.009658
# 6 -0.007727 -0.003636 -0.005877 0.004774 -0.009658 0.029421
#
#
# Mechanical properties :
#
#
# Convention : Reuss Voigt Hill
#
# Bulk Modulus (GPa) = 27.95512 65.54265 46.74888
# Shear Modulus (GPa) = 32.94729 45.96680 39.45704
#
# Velocity S-wave (km/s) = 3.66436 4.32824 4.01006
# Velocity P-wave (km/s) = 5.41262 7.18957 6.36342
#
# Compressibility (1/GPa) = 0.03577162
#
# Stress axis : x y z
#
# Youngs Moduli (GPa) = 98.09335 118.19544 50.09311
#
# Poissons Ratio (x) = 0.10192 -0.04499
# Poissons Ratio (y) = 0.08459 0.07308
# Poissons Ratio (z) = -0.08810 0.17243
#
# Static dielectric constant tensor:
#      x y z
#    x 2.259630 -0.054450 0.129540 
#    y -0.054450 1.907260 -0.057030 
#    z 0.129540 -0.057030 2.119360 
# 
# From -- ./inp_files/36061.got.cif
#   From: 2010.05.17/outbox.cif.g08.bks.cpg/sg2_19_cif.got.tgz:36061.got - 2010.06.03 11:33:40.
