data_PCOD9059576
_publ_section_title
;
Structure prediction by ZEFSAII (Michael W. Deem and Ramdas Pophale) SiO2 
 PCOD9059576
Probable space group: P -1
;
_chemical_formula_sum "Si O2"
_cell_formula_units_Z 14
_cell_length_a 17.688448
_cell_length_b 5.219217
_cell_length_c 10.377325
_cell_angle_alpha 106.429387
_cell_angle_beta 37.340954
_cell_angle_gamma 104.831601
_cell_volume 556.576882
_symmetry_space_group_name_H-M "P -1"
_symmetry_group_IT_number 2
_symmetry_cell_setting 'triclinic'
loop_
_space_group_symop_operation_xyz
x,y,z
-x,-y,-z
loop_
_atom_site_type_symbol
_atom_site_label
_atom_site_fract_x
_atom_site_fract_y
_atom_site_fract_z
Si Si1 0.302418 0.986582 0.805214
Si Si2 0.840932 0.632084 0.380164
Si Si3 0.917394 0.131006 0.518922
Si Si4 0.170247 0.420466 0.153212
Si Si5 0.472309 0.178299 0.369108
Si Si6 0.875582 0.470175 0.051309
Si Si7 0.432189 0.577242 0.237148
O O1 0.372955 0.144666 0.616305
O O2 0.401805 0.804573 0.713501
O O3 0.180921 0.829771 0.884007
O O4 0.255485 0.172521 0.011888
O O5 0.824640 0.666589 0.254407
O O6 0.718829 0.473541 0.577054
O O7 0.862782 0.900766 0.469085
O O8 0.975727 0.501038 0.168024
O O9 0.815963 0.327733 0.736793
O O10 0.025367 0.319592 0.337337
O O11 0.000000 0.000000 0.500000
O O12 0.184687 0.504382 0.000536
O O13 0.465358 0.400076 0.295733
O O14 0.462275 0.888022 0.271630
O O15 0.500000 0.500000 0.000000
#
# Coordination Sequence:
#
# PCOD9059576 Si02
#       7
#     2   2   2   2   2   2   2
#     4  11  24  47  80 114 154 197 269 334 390 465
#     4  11  24  47  75 109 158 195 257 327 399 474
#     4  11  23  45  64 109 154 199 253 312 404 477
#     4  11  23  41  73 107 153 197 259 318 394 475
#     4  11  28  51  81 115 155 210 275 325 386 474
#     4  11  23  45  75 116 147 198 254 329 404 458
#     4  12  28  54  77 114 158 219 262 319 402 477
#
# _framework density 25.153758
#
# number of rings (size 3 to 8) (size 9 to 14) (size 15 to 20)
#    0.000    0.857    4.286    1.286    2.000    5.143 
#    2.571    0.000    0.000    0.000    0.000    0.000 
#    0.000    0.000    0.000    0.000    0.000    0.000 
#
# Total GULP energy -78210.601225 kJ/mol
# GULP energy per Si atom -5586.471516 kJ/mol
# Density = 2.509651 g / cm^3
# Si number density = 25.153758 Si / 1000 Ang^3
#
#
#
# Elastic Constant Matrix: (Units=GPa)
#
#
# Indices 1 2 3 4 5 6 
#
# 1 88.8493 40.1556 62.7188 -8.6783 -2.6226 11.1603
# 2 40.1556 85.6543 26.9009 -1.1851 21.6049 15.2346
# 3 62.7188 26.9009 151.8702 1.2028 10.5852 16.8836
# 4 -8.6783 -1.1851 1.2028 45.0562 11.0089 10.2103
# 5 -2.6226 21.6049 10.5852 11.0089 47.5028 0.0578
# 6 11.1603 15.2346 16.8836 10.2103 0.0578 50.0142
#
#
#
# Elastic Compliance Matrix: (Units=1/GPa)
#
#
# Indices 1 2 3 4 5 6 
#
# 1 0.021177 -0.009159 -0.007607 0.002432 0.006466 0.000129
# 2 -0.009159 0.018818 0.001644 0.002172 -0.009928 -0.004675
# 3 -0.007607 0.001644 0.009895 -0.000421 -0.003272 -0.002054
# 4 0.002432 0.002172 -0.000421 0.025810 -0.006734 -0.006323
# 5 0.006466 -0.009928 -0.003272 -0.006734 0.028209 0.004028
# 6 0.000129 -0.004675 -0.002054 -0.006323 0.004028 0.023369
#
#
# Mechanical properties :
#
#
# Convention : Reuss Voigt Hill
#
# Bulk Modulus (GPa) = 50.90451 65.10272 58.00362
# Shear Modulus (GPa) = 30.47466 41.62123 36.04794
#
# Velocity S-wave (km/s) = 3.48449 4.07218 3.78974
# Velocity P-wave (km/s) = 6.03905 6.93169 6.50071
#
# Compressibility (1/GPa) = 0.01964462
#
# Stress axis : x y z
#
# Youngs Moduli (GPa) = 47.22170 53.13983 101.06292
#
# Poissons Ratio (x) = 0.48670 0.76883
# Poissons Ratio (y) = 0.43250 -0.16611
# Poissons Ratio (z) = 0.35923 -0.08734
#
# Static dielectric constant tensor:
#      x y z
#    x 2.072400 -0.093680 0.037510 
#    y -0.093680 2.184370 -0.063870 
#    z 0.037510 -0.063870 2.051600 
# 
# From -- ./inp_files/323804.got.cif
#   From: 2010.05.17/outbox.cif.g08.bks.cpg/sg2_162_cif.got.tgz:323804.got - 2010.06.03 11:33:40.
