data_PCOD9059950
_publ_section_title
;
Structure prediction by ZEFSAII (Michael W. Deem and Ramdas Pophale) SiO2 
 PCOD9059950
Probable space group: P -1
;
_chemical_formula_sum "Si O2"
_cell_formula_units_Z 15
_cell_length_a 18.168318
_cell_length_b 11.993934
_cell_length_c 17.793708
_cell_angle_alpha 142.395833
_cell_angle_beta 18.815435
_cell_angle_gamma 150.240932
_cell_volume 610.095335
_symmetry_space_group_name_H-M "P -1"
_symmetry_group_IT_number 2
_symmetry_cell_setting 'triclinic'
loop_
_space_group_symop_operation_xyz
x,y,z
-x,-y,-z
loop_
_atom_site_type_symbol
_atom_site_label
_atom_site_fract_x
_atom_site_fract_y
_atom_site_fract_z
Si Si1 0.500000 0.500000 0.000000
Si Si2 0.456761 0.972566 0.615096
Si Si3 0.389180 0.812428 0.819244
Si Si4 0.891419 0.019319 0.925857
Si Si5 0.011883 0.437158 0.369333
Si Si6 0.020389 0.811181 0.480393
Si Si7 0.437077 0.602758 0.524257
Si Si8 0.078788 0.839968 0.264997
O O1 0.664835 0.476643 0.900994
O O2 0.770205 0.770601 0.879736
O O3 0.768625 0.170008 0.451441
O O4 0.500000 0.000000 0.500000
O O5 0.352837 0.728699 0.616832
O O6 0.242045 0.017469 0.881691
O O7 0.355107 0.615653 0.696246
O O8 0.717143 0.015471 0.625986
O O9 0.261461 0.905440 0.938445
O O10 0.231011 0.762913 0.024727
O O11 0.222441 0.225747 0.716807
O O12 0.916335 0.565156 0.479775
O O13 0.000000 0.500000 0.500000
O O14 0.123010 0.832860 0.306610
O O15 0.840234 0.912766 0.702674
O O16 0.258091 0.346867 0.529701
#
# Coordination Sequence:
#
# PCOD9059950 Si02
#       8
#     1   2   2   2   2   2   2   2
#     4  12  22  42  74 104 132 178 230 286 340 400
#     4  11  24  42  67  99 142 177 220 280 351 414
#     4  11  23  42  71  95 131 179 234 289 334 402
#     4  11  24  41  70 102 134 177 228 283 344 406
#     4  12  23  43  72 104 136 177 230 285 338 412
#     4  11  25  44  68 103 139 179 230 286 342 413
#     4  11  24  45  66  99 138 178 234 284 340 409
#     4  11  26  45  68  99 141 187 229 282 347 408
#
# _framework density 24.586321999999999
#
# number of rings (size 3 to 8) (size 9 to 14) (size 15 to 20)
#    0.000    0.800    4.000    3.200    1.867    4.800 
#    0.000    2.667    0.000    0.000    0.000    0.000 
#    0.000    0.000    0.000    0.000    0.000    0.000 
#
# Total GULP energy -83663.833349 kJ/mol
# GULP energy per Si atom -5577.588890 kJ/mol
# Density = 2.453036 g / cm^3
# Si number density = 24.586322 Si / 1000 Ang^3
#
#
#
# Elastic Constant Matrix: (Units=GPa)
#
#
# Indices 1 2 3 4 5 6 
#
# 1 113.7532 16.1189 21.4729 8.9017 28.6665 1.6038
# 2 16.1189 102.6908 18.6196 -9.2265 0.7037 -14.1476
# 3 21.4729 18.6196 80.1031 -4.2386 13.6614 3.4984
# 4 8.9017 -9.2265 -4.2386 31.4594 3.0670 -3.4280
# 5 28.6665 0.7037 13.6614 3.0670 39.4184 1.4701
# 6 1.6038 -14.1476 3.4984 -3.4280 1.4701 44.3688
#
#
#
# Elastic Compliance Matrix: (Units=1/GPa)
#
#
# Indices 1 2 3 4 5 6 
#
# 1 0.011520 -0.001917 -0.001498 -0.003391 -0.007526 -0.000922
# 2 -0.001917 0.011374 -0.002372 0.003856 0.001559 0.004129
# 3 -0.001498 -0.002372 0.014268 0.001862 -0.003900 -0.001554
# 4 -0.003391 0.003856 0.001862 0.034662 -0.001091 0.003920
# 5 -0.007526 0.001559 -0.003900 -0.001091 0.032254 -0.000076
# 6 -0.000922 0.004129 -0.001554 0.003920 -0.000076 0.024316
#
#
# Mechanical properties :
#
#
# Convention : Reuss Voigt Hill
#
# Bulk Modulus (GPa) = 39.08024 45.44110 42.26067
# Shear Modulus (GPa) = 33.67053 39.07172 36.37112
#
# Velocity S-wave (km/s) = 3.70467 3.99076 3.85037
# Velocity P-wave (km/s) = 5.85056 6.30534 6.08220
#
# Compressibility (1/GPa) = 0.02558838
#
# Stress axis : x y z
#
# Youngs Moduli (GPa) = 86.80257 87.92280 70.08475
#
# Poissons Ratio (x) = 0.16852 0.10500
# Poissons Ratio (y) = 0.16638 0.16625
# Poissons Ratio (z) = 0.13005 0.20856
#
# Static dielectric constant tensor:
#      x y z
#    x 1.947090 -0.041270 0.002090 
#    y -0.041270 1.945530 0.105740 
#    z 0.002090 0.105740 2.091490 
# 
# From -- ./inp_files/569220.got.cif
#   From: 2010.05.17/outbox.cif.g08.bks.cpg/sg2_285_cif.got.tgz:569220.got - 2010.06.03 11:33:40.
