data_PCOD9059345
_publ_section_title
;
Structure prediction by ZEFSAII (Michael W. Deem and Ramdas Pophale) SiO2 
 PCOD9059345
Probable space group: P -1
;
_chemical_formula_sum "Si O2"
_cell_formula_units_Z 16
_cell_length_a 7.732191
_cell_length_b 11.615368
_cell_length_c 19.032604
_cell_angle_alpha 42.837985
_cell_angle_beta 141.110411
_cell_angle_gamma 140.123357
_cell_volume 647.620786
_symmetry_space_group_name_H-M "P -1"
_symmetry_group_IT_number 2
_symmetry_cell_setting 'triclinic'
loop_
_space_group_symop_operation_xyz
x,y,z
-x,-y,-z
loop_
_atom_site_type_symbol
_atom_site_label
_atom_site_fract_x
_atom_site_fract_y
_atom_site_fract_z
Si Si1 0.801660 0.138847 0.189437
Si Si2 0.982043 0.158933 0.082678
Si Si3 0.350493 0.533398 0.868346
Si Si4 0.250404 0.116202 0.446881
Si Si5 0.789876 0.428324 0.397872
Si Si6 0.315360 0.577123 0.145666
Si Si7 0.980888 0.283722 0.386690
Si Si8 0.722352 0.821565 0.046044
O O1 0.829807 0.072078 0.148871
O O2 0.930660 0.053031 0.329250
O O3 0.045416 0.363975 0.163110
O O4 0.450902 0.110842 0.096438
O O5 0.339541 0.307007 0.143897
O O6 0.920615 0.987981 0.087143
O O7 0.820620 0.277865 0.941879
O O8 0.137278 0.635491 0.751106
O O9 0.140938 0.315556 0.874819
O O10 0.500000 0.500000 0.000000
O O11 0.518168 0.222385 0.427644
O O12 0.261333 0.259480 0.449187
O O13 0.241766 0.932229 0.562805
O O14 0.618998 0.562111 0.274972
O O15 0.967542 0.407113 0.394447
O O16 0.000000 0.500000 0.500000
O O17 0.425601 0.659338 0.065897
#
# Coordination Sequence:
#
# PCOD9059345 Si02
#       8
#     2   2   2   2   2   2   2   2
#     4  10  17  37  66  95 125 176 221 269 343 401
#     4  11  22  36  66  97 135 174 224 286 334 409
#     4  12  24  42  65  92 137 183 222 282 344 400
#     4  10  24  44  72  96 133 184 230 274 347 410
#     4  11  24  41  71 101 135 180 227 282 345 406
#     4  10  18  37  61  94 132 173 215 275 342 397
#     4  11  24  46  67 100 137 176 234 284 330 417
#     4  11  20  36  61  97 129 171 225 277 334 400
#
# _framework density 24.705817
#
# number of rings (size 3 to 8) (size 9 to 14) (size 15 to 20)
#    0.000    1.250    3.750    4.125    1.750    4.000 
#    0.000    0.000    2.750    0.000    0.000    0.000 
#    0.000    0.000    0.000    0.000    0.000    0.000 
#
# Total GULP energy -89231.567085 kJ/mol
# GULP energy per Si atom -5576.972943 kJ/mol
# Density = 2.464959 g / cm^3
# Si number density = 24.705817 Si / 1000 Ang^3
#
#
#
# Elastic Constant Matrix: (Units=GPa)
#
#
# Indices 1 2 3 4 5 6 
#
# 1 103.5252 21.5171 17.0435 2.5356 -10.6052 -18.2270
# 2 21.5171 100.0546 39.6404 -7.7046 12.3620 -30.5669
# 3 17.0435 39.6404 131.8464 -3.9347 -2.8009 -23.6686
# 4 2.5356 -7.7046 -3.9347 31.4442 -1.9680 -2.0693
# 5 -10.6052 12.3620 -2.8009 -1.9680 33.1812 -10.6361
# 6 -18.2270 -30.5669 -23.6686 -2.0693 -10.6361 28.0143
#
#
#
# Elastic Compliance Matrix: (Units=1/GPa)
#
#
# Indices 1 2 3 4 5 6 
#
# 1 0.012388 -0.000511 0.000709 0.000179 0.007766 0.011063
# 2 -0.000511 0.016104 -0.001850 0.004720 -0.001028 0.015635
# 3 0.000709 -0.001850 0.009717 0.001549 0.004551 0.008494
# 4 0.000179 0.004720 0.001549 0.034072 0.003831 0.010547
# 5 0.007766 -0.001028 0.004551 0.003831 0.041213 0.023707
# 6 0.011063 0.015635 0.008494 0.010547 0.023707 0.076910
#
#
# Mechanical properties :
#
#
# Convention : Reuss Voigt Hill
#
# Bulk Modulus (GPa) = 28.64940 54.64758 41.64849
# Shear Modulus (GPa) = 24.34936 35.67628 30.01282
#
# Velocity S-wave (km/s) = 3.14279 3.80418 3.48919
# Velocity P-wave (km/s) = 4.97904 6.43918 5.75560
#
# Compressibility (1/GPa) = 0.03490474
#
# Stress axis : x y z
#
# Youngs Moduli (GPa) = 80.72292 62.09532 102.91274
#
# Poissons Ratio (x) = 0.03171 -0.07292
# Poissons Ratio (y) = 0.04123 0.19040
# Poissons Ratio (z) = -0.05720 0.11488
#
# Static dielectric constant tensor:
#      x y z
#    x 2.153530 -0.056020 0.050740 
#    y -0.056020 1.968020 -0.009260 
#    z 0.050740 -0.009260 1.997390 
# 
# From -- ./inp_files/588980.got.cif
#   From: 2010.05.17/outbox.cif.g08.bks.cpg/sg2_295_cif.got.tgz:588980.got - 2010.06.03 11:33:40.
