data_PCOD9059081
_publ_section_title
;
Structure prediction by ZEFSAII (Michael W. Deem and Ramdas Pophale) SiO2 
 PCOD9059081
Probable space group: P -1
;
_chemical_formula_sum "Si O2"
_cell_formula_units_Z 14
_cell_length_a 10.932135
_cell_length_b 9.847233
_cell_length_c 13.829064
_cell_angle_alpha 85.370581
_cell_angle_beta 150.732320
_cell_angle_gamma 105.668178
_cell_volume 661.756677
_symmetry_space_group_name_H-M "P -1"
_symmetry_group_IT_number 2
_symmetry_cell_setting 'triclinic'
loop_
_space_group_symop_operation_xyz
x,y,z
-x,-y,-z
loop_
_atom_site_type_symbol
_atom_site_label
_atom_site_fract_x
_atom_site_fract_y
_atom_site_fract_z
Si Si1 0.063826 0.343902 0.449837
Si Si2 0.195014 0.417758 0.756434
Si Si3 0.361354 0.337319 0.459386
Si Si4 0.939638 0.893449 0.238414
Si Si5 0.826637 0.085476 0.007014
Si Si6 0.455989 0.906918 0.376756
Si Si7 0.733510 0.003272 0.263353
O O1 0.192261 0.374955 0.643995
O O2 0.262926 0.344098 0.500591
O O3 0.957365 0.472140 0.347753
O O4 0.819353 0.179325 0.296380
O O5 0.063723 0.267344 0.737478
O O6 0.500000 0.500000 0.000000
O O7 0.500000 0.500000 0.500000
O O8 0.573017 0.258454 0.610633
O O9 0.091999 0.227371 0.219783
O O10 0.731811 0.920679 0.166748
O O11 0.242676 0.012427 0.467931
O O12 0.871556 0.940728 0.084072
O O13 0.765119 0.087197 0.851399
O O14 0.550168 0.075229 0.870826
O O15 0.500000 0.000000 0.500000
O O16 0.000000 0.000000 0.500000
#
# Coordination Sequence:
#
# PCOD9059081 Si02
#       7
#     2   2   2   2   2   2   2
#     4  11  23  43  64  96 140 170 213 278 327 391
#     4  11  25  39  62 101 137 170 208 266 345 397
#     4  11  27  47  67  97 133 182 231 271 326 401
#     4  11  23  40  66 103 129 167 223 277 332 402
#     4  11  23  42  75  97 129 176 220 280 341 390
#     4  11  25  46  69  96 133 175 230 278 324 395
#     4  12  19  40  74 100 129 164 220 279 339 395
#
# _framework density 21.155813999999999
#
# number of rings (size 3 to 8) (size 9 to 14) (size 15 to 20)
#    0.000    0.857    5.714    1.286    4.000    4.000 
#    2.571    0.000    0.000    0.000    0.000    0.000 
#    0.000    0.000    0.000    0.000    0.000    0.000 
#
# Total GULP energy -78255.364939 kJ/mol
# GULP energy per Si atom -5589.668924 kJ/mol
# Density = 2.110766 g / cm^3
# Si number density = 21.155814 Si / 1000 Ang^3
#
#
#
# Elastic Constant Matrix: (Units=GPa)
#
#
# Indices 1 2 3 4 5 6 
#
# 1 98.8435 39.0037 31.8073 -9.5415 -19.2327 -6.7368
# 2 39.0037 187.6545 53.2444 -13.6059 -22.6418 21.1097
# 3 31.8073 53.2444 116.6618 -31.8645 -21.4750 12.9374
# 4 -9.5415 -13.6059 -31.8645 23.5758 16.3516 0.3941
# 5 -19.2327 -22.6418 -21.4750 16.3516 24.7711 5.7414
# 6 -6.7368 21.1097 12.9374 0.3941 5.7414 33.1249
#
#
#
# Elastic Compliance Matrix: (Units=1/GPa)
#
#
# Indices 1 2 3 4 5 6 
#
# 1 0.013264 -0.001493 -0.003400 -0.006928 0.009779 0.003364
# 2 -0.001493 0.007564 -0.002236 -0.005021 0.008441 -0.005654
# 3 -0.003400 -0.002236 0.016523 0.022533 -0.004006 -0.005294
# 4 -0.006928 -0.005021 0.022533 0.112445 -0.065349 0.002979
# 5 0.009779 0.008441 -0.004006 -0.065349 0.099586 -0.018309
# 6 0.003364 -0.005654 -0.005294 0.002979 -0.018309 0.039682
#
#
# Mechanical properties :
#
#
# Convention : Reuss Voigt Hill
#
# Bulk Modulus (GPa) = 43.30148 72.36339 57.83244
# Shear Modulus (GPa) = 16.07616 34.90135 25.48876
#
# Velocity S-wave (km/s) = 2.75961 4.06609 3.47480
# Velocity P-wave (km/s) = 5.53771 7.50489 6.59506
#
# Compressibility (1/GPa) = 0.02309390
#
# Stress axis : x y z
#
# Youngs Moduli (GPa) = 75.39432 132.20324 60.52005
#
# Poissons Ratio (x) = 0.19737 0.20577
# Poissons Ratio (y) = 0.11256 0.13530
# Poissons Ratio (z) = 0.25635 0.29556
#
# Static dielectric constant tensor:
#      x y z
#    x 1.874510 0.127780 -0.009950 
#    y 0.127780 2.287560 0.012780 
#    z -0.009950 0.012780 1.775670 
# 
# From -- ./inp_files/515700.got.cif
#   From: 2010.05.17/outbox.cif.g08.bks.cpg/sg2_258_cif.got.tgz:515700.got - 2010.06.03 11:33:40.
