data_PCOD9059721
_publ_section_title
;
Structure prediction by ZEFSAII (Michael W. Deem and Ramdas Pophale) SiO2 
 PCOD9059721
Probable space group: P -1
;
_chemical_formula_sum "Si O2"
_cell_formula_units_Z 14
_cell_length_a 19.319419
_cell_length_b 14.574836
_cell_length_c 5.280906
_cell_angle_alpha 95.115102
_cell_angle_beta 71.682898
_cell_angle_gamma 33.875396
_cell_volume 590.009930
_symmetry_space_group_name_H-M "P -1"
_symmetry_group_IT_number 2
_symmetry_cell_setting 'triclinic'
loop_
_space_group_symop_operation_xyz
x,y,z
-x,-y,-z
loop_
_atom_site_type_symbol
_atom_site_label
_atom_site_fract_x
_atom_site_fract_y
_atom_site_fract_z
Si Si1 0.941508 0.121489 0.847068
Si Si2 0.042125 0.718159 0.886736
Si Si3 0.685756 0.160974 0.140178
Si Si4 0.405550 0.392218 0.214431
Si Si5 0.516040 0.866910 0.246255
Si Si6 0.292709 0.281996 0.513973
Si Si7 0.387940 0.565004 0.911757
O O1 0.993508 0.168814 0.817540
O O2 0.733871 0.352094 0.120146
O O3 0.000000 0.000000 0.500000
O O4 0.000000 0.000000 0.000000
O O5 0.220503 0.558477 0.532168
O O6 0.103315 0.544285 0.829666
O O7 0.876780 0.913241 0.943229
O O8 0.564946 0.218830 0.183028
O O9 0.582486 0.326725 0.533072
O O10 0.678987 0.254619 0.977314
O O11 0.479950 0.243771 0.863139
O O12 0.366523 0.538489 0.192309
O O13 0.591429 0.799597 0.421908
O O14 0.332609 0.129618 0.488254
O O15 0.636999 0.776503 0.865395
#
# Coordination Sequence:
#
# PCOD9059721 Si02
#       7
#     2   2   2   2   2   2   2
#     4  12  24  40  66  93 123 173 221 264 319 384
#     4  11  23  44  66  96 131 174 221 273 329 393
#     4  11  25  42  60  95 133 169 229 268 330 387
#     4  11  23  42  67  94 129 179 220 270 332 392
#     4   9  19  37  70  96 130 165 220 266 330 395
#     4   9  19  39  65 102 126 168 214 274 327 392
#     4  11  24  42  61  89 135 177 218 278 323 389
#
# _framework density 23.728414000000001
#
# number of rings (size 3 to 8) (size 9 to 14) (size 15 to 20)
#    0.000    1.429    2.857    2.143    2.000    2.286 
#    5.143    0.714    0.000    0.857    0.000    0.000 
#    0.000    0.000    0.000    0.000    0.000    0.000 
#
# Total GULP energy -78198.918738 kJ/mol
# GULP energy per Si atom -5585.637053 kJ/mol
# Density = 2.367441 g / cm^3
# Si number density = 23.728414 Si / 1000 Ang^3
#
#
#
# Elastic Constant Matrix: (Units=GPa)
#
#
# Indices 1 2 3 4 5 6 
#
# 1 66.1899 38.7983 38.4375 20.1047 5.9224 -25.3264
# 2 38.7983 149.7716 51.4459 33.7699 -0.6078 -13.8271
# 3 38.4375 51.4459 92.2913 13.5549 17.7875 -1.9104
# 4 20.1047 33.7699 13.5549 50.4318 -2.2856 6.8403
# 5 5.9224 -0.6078 17.7875 -2.2856 34.4612 7.9791
# 6 -25.3264 -13.8271 -1.9104 6.8403 7.9791 43.6621
#
#
#
# Elastic Compliance Matrix: (Units=1/GPa)
#
#
# Indices 1 2 3 4 5 6 
#
# 1 0.035639 0.000000 -0.010811 -0.014851 -0.007043 0.023813
# 2 0.000000 0.010023 -0.004954 -0.005798 0.001519 0.003588
# 3 -0.010811 -0.004954 0.018691 0.003190 -0.006185 -0.006392
# 4 -0.014851 -0.005798 0.003190 0.031306 0.006685 -0.016437
# 5 -0.007043 0.001519 -0.006185 0.006685 0.036579 -0.011607
# 6 0.023813 0.003588 -0.006392 -0.016437 -0.011607 0.042269
#
#
# Mechanical properties :
#
#
# Convention : Reuss Voigt Hill
#
# Bulk Modulus (GPa) = 30.46748 62.84624 46.65686
# Shear Modulus (GPa) = 23.04364 37.68243 30.36303
#
# Velocity S-wave (km/s) = 3.11969 3.98939 3.58104
# Velocity P-wave (km/s) = 5.08376 6.91111 6.06663
#
# Compressibility (1/GPa) = 0.03282188
#
# Stress axis : x y z
#
# Youngs Moduli (GPa) = 28.05894 99.76732 53.50240
#
# Poissons Ratio (x) = 0.00003 0.57843
# Poissons Ratio (y) = 0.00001 0.26505
# Poissons Ratio (z) = 0.30336 0.49425
#
# Static dielectric constant tensor:
#      x y z
#    x 1.943550 0.013320 0.001920 
#    y 0.013320 1.917560 -0.006170 
#    z 0.001920 -0.006170 2.024940 
# 
# From -- ./inp_files/119284.got.cif
#   From: 2010.05.17/outbox.cif.g08.bks.cpg/sg2_60_cif.got.tgz:119284.got - 2010.06.03 11:33:40.
