data_PCOD9059045
_publ_section_title
;
Structure prediction by ZEFSAII (Michael W. Deem and Ramdas Pophale) SiO2 
 PCOD9059045
Probable space group: P -1
;
_chemical_formula_sum "Si O2"
_cell_formula_units_Z 14
_cell_length_a 19.653578
_cell_length_b 6.529480
_cell_length_c 5.516840
_cell_angle_alpha 71.094193
_cell_angle_beta 109.850773
_cell_angle_gamma 121.593751
_cell_volume 557.687126
_symmetry_space_group_name_H-M "P -1"
_symmetry_group_IT_number 2
_symmetry_cell_setting 'triclinic'
loop_
_space_group_symop_operation_xyz
x,y,z
-x,-y,-z
loop_
_atom_site_type_symbol
_atom_site_label
_atom_site_fract_x
_atom_site_fract_y
_atom_site_fract_z
Si Si1 0.066653 0.778786 0.512880
Si Si2 0.363836 0.838518 0.595270
Si Si3 0.374128 0.411093 0.825635
Si Si4 0.257544 0.974554 0.114138
Si Si5 0.799987 0.391196 0.188293
Si Si6 0.103066 0.036136 0.972032
Si Si7 0.500180 0.303746 0.762296
O O1 0.149914 0.752751 0.620255
O O2 0.059306 0.936244 0.217775
O O3 0.000000 0.500000 0.500000
O O4 0.062306 0.882559 0.735376
O O5 0.369475 0.609743 0.564860
O O6 0.334969 0.011833 0.349745
O O7 0.284802 0.701850 0.731697
O O8 0.456090 0.030512 0.711606
O O9 0.433922 0.299590 0.876987
O O10 0.412890 0.580071 0.045404
O O11 0.289873 0.177886 0.864891
O O12 0.184477 0.005084 0.124669
O O13 0.224928 0.700994 0.080795
O O14 0.861078 0.677940 0.154253
O O15 0.500000 0.500000 0.500000
#
# Coordination Sequence:
#
# PCOD9059045 Si02
#       7
#     2   2   2   2   2   2   2
#     4  11  26  47  72 106 145 179 222 278 336 409
#     4  12  23  40  66  90 126 175 224 278 338 400
#     4  11  24  41  61  90 126 171 224 279 343 398
#     4  11  23  40  64  97 129 172 229 281 331 407
#     4  11  25  41  69 100 134 178 227 274 343 401
#     4  11  25  44  73 103 139 180 228 277 337 408
#     4  11  24  42  60  88 129 170 221 283 340 405
#
# _framework density 25.103684000000001
#
# number of rings (size 3 to 8) (size 9 to 14) (size 15 to 20)
#    0.000    0.857    5.714    0.857    2.000    4.000 
#    0.000    0.000    0.000    0.000    0.000    0.000 
#    0.000    0.000    0.000    0.000    0.000    0.000 
#
# Total GULP energy -78154.355476 kJ/mol
# GULP energy per Si atom -5582.453963 kJ/mol
# Density = 2.504655 g / cm^3
# Si number density = 25.103684 Si / 1000 Ang^3
#
#
#
# Elastic Constant Matrix: (Units=GPa)
#
#
# Indices 1 2 3 4 5 6 
#
# 1 56.8706 3.9983 12.1982 7.9437 4.7261 1.8203
# 2 3.9983 168.7015 42.7206 -9.5863 -8.6744 12.2465
# 3 12.1982 42.7206 104.4574 -8.4039 0.3856 4.7785
# 4 7.9437 -9.5863 -8.4039 23.1828 9.2405 5.4904
# 5 4.7261 -8.6744 0.3856 9.2405 35.9396 -4.2033
# 6 1.8203 12.2465 4.7785 5.4904 -4.2033 41.2673
#
#
#
# Elastic Compliance Matrix: (Units=1/GPa)
#
#
# Indices 1 2 3 4 5 6 
#
# 1 0.019293 -0.000250 -0.002785 -0.007625 -0.000548 0.000504
# 2 -0.000250 0.006882 -0.002534 0.002084 0.000961 -0.001917
# 3 -0.002785 -0.002534 0.011410 0.005081 -0.001827 -0.001309
# 4 -0.007625 0.002084 0.005081 0.056444 -0.014210 -0.009827
# 5 -0.000548 0.000961 -0.001827 -0.014210 0.032403 0.005142
# 6 0.000504 -0.001917 -0.001309 -0.009827 0.005142 0.026762
#
#
# Mechanical properties :
#
#
# Convention : Reuss Voigt Hill
#
# Bulk Modulus (GPa) = 37.81039 49.76263 43.78651
# Shear Modulus (GPa) = 28.87708 38.15211 33.51460
#
# Velocity S-wave (km/s) = 3.39531 3.90267 3.65779
# Velocity P-wave (km/s) = 5.51953 6.33827 5.94301
#
# Compressibility (1/GPa) = 0.02644776
#
# Stress axis : x y z
#
# Youngs Moduli (GPa) = 51.83167 145.30286 87.64144
#
# Poissons Ratio (x) = 0.03633 0.24410
# Poissons Ratio (y) = 0.01296 0.22205
# Poissons Ratio (z) = 0.14436 0.36814
#
# Static dielectric constant tensor:
#      x y z
#    x 2.063530 -0.010270 0.040150 
#    y -0.010270 1.952680 0.060960 
#    z 0.040150 0.060960 2.201200 
# 
# From -- ./inp_files/6468.got.cif
#   From: 2010.05.17/outbox.cif.g08.bks.cpg/sg2_4_cif.got.tgz:6468.got - 2010.06.03 11:33:40.
