data_PCOD9059735
_publ_section_title
;
Structure prediction by ZEFSAII (Michael W. Deem and Ramdas Pophale) SiO2 
 PCOD9059735
Probable space group: P -1
;
_chemical_formula_sum "Si O2"
_cell_formula_units_Z 10
_cell_length_a 5.786396
_cell_length_b 6.789090
_cell_length_c 18.868525
_cell_angle_alpha 42.222683
_cell_angle_beta 114.200068
_cell_angle_gamma 98.552741
_cell_volume 439.610582
_symmetry_space_group_name_H-M "P -1"
_symmetry_group_IT_number 2
_symmetry_cell_setting 'triclinic'
loop_
_space_group_symop_operation_xyz
x,y,z
-x,-y,-z
loop_
_atom_site_type_symbol
_atom_site_label
_atom_site_fract_x
_atom_site_fract_y
_atom_site_fract_z
Si Si1 0.546702 0.113400 0.761097
Si Si2 0.228708 0.726699 0.384368
Si Si3 0.851662 0.252858 0.251617
Si Si4 0.268279 0.118524 0.999637
Si Si5 0.153031 0.652003 0.614127
O O1 0.355540 0.939646 0.743673
O O2 0.428093 0.476209 0.661406
O O3 0.774133 0.104120 0.736276
O O4 0.611522 0.965519 0.885019
O O5 0.500000 0.500000 0.500000
O O6 0.032498 0.519020 0.404251
O O7 0.126887 0.999283 0.353375
O O8 0.827694 0.522392 0.121460
O O9 0.807993 0.405625 0.281979
O O10 0.500000 0.000000 0.000000
O O11 0.000000 0.000000 0.000000
O O12 0.000000 0.000000 0.500000
#
# Coordination Sequence:
#
# PCOD9059735 Si02
#       5
#     2   2   2   2   2
#     4  11  25  44  69  99 140 181 238 290 356 424
#     4  11  25  42  67 104 137 184 237 290 356 426
#     4  11  25  44  69  99 140 184 234 294 355 420
#     4  12  27  47  76 106 142 189 242 294 358 424
#     4  11  23  42  67  97 138 182 232 291 353 421
#
# _framework density 22.747406000000002
#
# number of rings (size 3 to 8) (size 9 to 14) (size 15 to 20)
#    0.000    0.800    2.000    4.200    5.600   10.400 
#    0.000    0.000    0.000    0.000    0.000    0.000 
#    0.000    0.000    0.000    0.000    0.000    0.000 
#
# Total GULP energy -55804.591832 kJ/mol
# GULP energy per Si atom -5580.459183 kJ/mol
# Density = 2.269563 g / cm^3
# Si number density = 22.747406 Si / 1000 Ang^3
#
#
#
# Elastic Constant Matrix: (Units=GPa)
#
#
# Indices 1 2 3 4 5 6 
#
# 1 56.6753 18.3349 -4.1144 -5.5219 0.9469 -14.6160
# 2 18.3349 84.3097 13.5773 -14.3530 10.2802 -19.2748
# 3 -4.1144 13.5773 94.0109 -8.1368 -4.5350 -7.0203
# 4 -5.5219 -14.3530 -8.1368 58.1397 -1.4916 -9.0306
# 5 0.9469 10.2802 -4.5350 -1.4916 34.2720 2.4198
# 6 -14.6160 -19.2748 -7.0203 -9.0306 2.4198 30.6979
#
#
#
# Elastic Compliance Matrix: (Units=1/GPa)
#
#
# Indices 1 2 3 4 5 6 
#
# 1 0.021536 -0.002006 0.002312 0.003510 -0.000281 0.010578
# 2 -0.002006 0.016699 -0.001478 0.005319 -0.005709 0.011207
# 3 0.002312 -0.001478 0.011452 0.002006 0.001753 0.003244
# 4 0.003510 0.005319 0.002006 0.020915 -0.001345 0.011728
# 5 -0.000281 -0.005709 0.001753 -0.001345 0.031510 -0.006197
# 6 0.010578 0.011207 0.003244 0.011728 -0.006197 0.049329
#
#
# Mechanical properties :
#
#
# Convention : Reuss Voigt Hill
#
# Bulk Modulus (GPa) = 21.12161 32.28793 26.70477
# Shear Modulus (GPa) = 29.48743 38.43513 33.96128
#
# Velocity S-wave (km/s) = 3.60432 4.11499 3.86809
# Velocity P-wave (km/s) = 5.16013 6.06651 5.63158
#
# Compressibility (1/GPa) = 0.04734487
#
# Stress axis : x y z
#
# Youngs Moduli (GPa) = 46.43466 59.88378 87.31982
#
# Poissons Ratio (x) = 0.12011 -0.20191
# Poissons Ratio (y) = 0.09313 0.12902
# Poissons Ratio (z) = -0.10737 0.08848
#
# Static dielectric constant tensor:
#      x y z
#    x 1.927290 -0.033930 0.030840 
#    y -0.033930 1.818230 0.003710 
#    z 0.030840 0.003710 1.891250 
# 
# From -- ./inp_files/545182.got.cif
#   From: 2010.05.17/outbox.cif.g08.bks.cpg/sg2_273_cif.got.tgz:545182.got - 2010.06.03 11:33:40.
