data_PCOD9059010
_publ_section_title
;
Structure prediction by ZEFSAII (Michael W. Deem and Ramdas Pophale) SiO2 
 PCOD9059010
Probable space group: P -1
;
_chemical_formula_sum "Si O2"
_cell_formula_units_Z 16
_cell_length_a 12.046877
_cell_length_b 11.883671
_cell_length_c 10.073985
_cell_angle_alpha 76.922682
_cell_angle_beta 51.400225
_cell_angle_gamma 106.962684
_cell_volume 903.073524
_symmetry_space_group_name_H-M "P -1"
_symmetry_group_IT_number 2
_symmetry_cell_setting 'triclinic'
loop_
_space_group_symop_operation_xyz
x,y,z
-x,-y,-z
loop_
_atom_site_type_symbol
_atom_site_label
_atom_site_fract_x
_atom_site_fract_y
_atom_site_fract_z
Si Si1 0.959877 0.173800 0.836597
Si Si2 0.723214 0.853880 0.080907
Si Si3 0.083903 0.464857 0.562794
Si Si4 0.056410 0.842733 0.833882
Si Si5 0.584238 0.404203 0.119562
Si Si6 0.016856 0.439046 0.141254
Si Si7 0.295236 0.165550 0.587191
Si Si8 0.530733 0.384729 0.858201
O O1 0.973228 0.299177 0.717034
O O2 0.138077 0.184425 0.683243
O O3 0.939665 0.187547 0.004988
O O4 0.806110 0.017657 0.952050
O O5 0.667645 0.821018 0.285897
O O6 0.574439 0.751851 0.118188
O O7 0.881218 0.836287 0.949083
O O8 0.274452 0.516448 0.364459
O O9 0.000000 0.500000 0.500000
O O10 0.087064 0.541973 0.673054
O O11 0.047518 0.721891 0.789120
O O12 0.214699 0.004253 0.649048
O O13 0.456655 0.280688 0.349464
O O14 0.554592 0.528499 0.117072
O O15 0.782824 0.470258 0.987344
O O16 0.536759 0.352255 0.016819
O O17 0.000000 0.500000 0.000000
#
# Coordination Sequence:
#
# PCOD9059010 Si02
#       8
#     2   2   2   2   2   2   2   2
#     4   9  18  38  61  89 120 155 193 249 299 343
#     4   9  19  36  65  90 115 151 202 249 291 347
#     4  12  24  41  58  85 127 163 192 237 306 362
#     4   9  18  38  60  92 119 150 199 247 296 348
#     4  11  23  40  59  91 121 154 203 251 286 343
#     4  12  24  39  62  87 124 160 193 246 302 354
#     4   9  19  36  65  90 115 149 203 255 287 337
#     4  11  23  40  60  87 124 157 202 243 288 357
#
# _framework density 17.717272999999999
#
# number of rings (size 3 to 8) (size 9 to 14) (size 15 to 20)
#    0.000    1.750    5.000    1.500    1.750    0.500 
#    2.250    3.750    0.000    0.000    0.000    0.000 
#    0.000    0.000    0.000    0.000    0.000    0.000 
#
# Total GULP energy -89313.210664 kJ/mol
# GULP energy per Si atom -5582.075667 kJ/mol
# Density = 1.767695 g / cm^3
# Si number density = 17.717273 Si / 1000 Ang^3
#
#
#
# Elastic Constant Matrix: (Units=GPa)
#
#
# Indices 1 2 3 4 5 6 
#
# 1 69.8440 21.0344 18.8797 -11.5485 15.8977 8.9308
# 2 21.0344 106.4509 50.2460 -15.9040 27.4432 9.4578
# 3 18.8797 50.2460 81.5229 -5.8141 10.9463 4.0358
# 4 -11.5485 -15.9040 -5.8141 28.4879 -4.7068 -1.7586
# 5 15.8977 27.4432 10.9463 -4.7068 22.5082 -3.1125
# 6 8.9308 9.4578 4.0358 -1.7586 -3.1125 28.0014
#
#
#
# Elastic Compliance Matrix: (Units=1/GPa)
#
#
# Indices 1 2 3 4 5 6 
#
# 1 0.020244 0.004015 -0.003979 0.006260 -0.017160 -0.008754
# 2 0.004015 0.021256 -0.009885 0.006981 -0.023763 -0.009238
# 3 -0.003979 -0.009885 0.018205 -0.002292 0.005875 0.002493
# 4 0.006260 0.006981 -0.002292 0.040351 -0.003642 -0.001895
# 5 -0.017160 -0.023763 0.005875 -0.003642 0.084927 0.021864
# 6 -0.008754 -0.009238 0.002493 -0.001895 0.021864 0.043577
#
#
# Mechanical properties :
#
#
# Convention : Reuss Voigt Hill
#
# Bulk Modulus (GPa) = 24.99531 48.68198 36.83864
# Shear Modulus (GPa) = 19.11358 26.97667 23.04513
#
# Velocity S-wave (km/s) = 3.28809 3.90631 3.61046
# Velocity P-wave (km/s) = 5.34358 6.91971 6.18208
#
# Compressibility (1/GPa) = 0.04000750
#
# Stress axis : x y z
#
# Youngs Moduli (GPa) = 49.39623 47.04476 54.93048
#
# Poissons Ratio (x) = -0.18888 0.21856
# Poissons Ratio (y) = -0.19832 0.54299
# Poissons Ratio (z) = 0.19654 0.46504
#
# Static dielectric constant tensor:
#      x y z
#    x 1.587180 -0.010850 -0.000170 
#    y -0.010850 1.609650 0.015190 
#    z -0.000170 0.015190 1.590810 
# 
# From -- ./inp_files/175362.got.cif
#   From: 2010.05.17/outbox.cif.g08.bks.cpg/sg2_88_cif.got.tgz:175362.got - 2010.06.03 11:33:40.
