data_PCOD9059419
_publ_section_title
;
Structure prediction by ZEFSAII (Michael W. Deem and Ramdas Pophale) SiO2 
 PCOD9059419
Probable space group: P -1
;
_chemical_formula_sum "Si O2"
_cell_formula_units_Z 12
_cell_length_a 14.810540
_cell_length_b 10.020915
_cell_length_c 12.366605
_cell_angle_alpha 37.105800
_cell_angle_beta 152.006574
_cell_angle_gamma 132.848431
_cell_volume 517.826133
_symmetry_space_group_name_H-M "P -1"
_symmetry_group_IT_number 2
_symmetry_cell_setting 'triclinic'
loop_
_space_group_symop_operation_xyz
x,y,z
-x,-y,-z
loop_
_atom_site_type_symbol
_atom_site_label
_atom_site_fract_x
_atom_site_fract_y
_atom_site_fract_z
Si Si1 0.573825 0.195936 0.332580
Si Si2 0.432717 0.426013 0.734075
Si Si3 0.223614 0.109885 0.869042
Si Si4 0.138895 0.635621 0.130253
Si Si5 0.810361 0.367110 0.271747
Si Si6 0.117556 0.189526 0.049635
O O1 0.577542 0.356534 0.336979
O O2 0.689831 0.322180 0.281355
O O3 0.679970 0.950161 0.619897
O O4 0.364926 0.156320 0.088501
O O5 0.313307 0.239983 0.782127
O O6 0.327389 0.496382 0.467127
O O7 0.657137 0.335382 0.033616
O O8 0.004255 0.209624 0.585746
O O9 0.212726 0.849307 0.012332
O O10 0.000000 0.500000 0.000000
O O11 0.002664 0.718201 0.033869
O O12 0.872516 0.610194 0.153028
O O13 0.000000 0.000000 0.000000
#
# Coordination Sequence:
#
# PCOD9059419 Si02
#       6
#     2   2   2   2   2   2
#     4  11  24  39  70 108 135 172 221 282 345 392
#     4  11  25  42  68 105 135 179 222 279 340 397
#     4  11  23  43  69  98 138 175 222 280 339 397
#     4  12  27  47  68  97 139 186 226 273 334 405
#     4  11  23  41  68 105 138 168 222 284 337 401
#     4  12  24  41  71 101 136 180 224 276 342 389
#
# _framework density 23.173802999999999
#
# number of rings (size 3 to 8) (size 9 to 14) (size 15 to 20)
#    0.000    0.667    5.000    3.000    4.667    5.333 
#    0.000    4.167    0.000    0.000    0.000    0.000 
#    0.000    0.000    0.000    0.000    0.000    0.000 
#
# Total GULP energy -67201.398997 kJ/mol
# GULP energy per Si atom -5600.116583 kJ/mol
# Density = 2.312106 g / cm^3
# Si number density = 23.173803 Si / 1000 Ang^3
#
#
#
# Elastic Constant Matrix: (Units=GPa)
#
#
# Indices 1 2 3 4 5 6 
#
# 1 43.6607 43.2282 15.3467 -1.2649 -1.7240 19.1304
# 2 43.2282 149.0114 40.7516 22.6213 -17.6316 22.3277
# 3 15.3467 40.7516 182.4616 35.0479 -2.0248 8.9242
# 4 -1.2649 22.6213 35.0479 38.9740 19.5822 -6.8887
# 5 -1.7240 -17.6316 -2.0248 19.5822 32.8852 1.0091
# 6 19.1304 22.3277 8.9242 -6.8887 1.0091 34.7034
#
#
#
# Elastic Compliance Matrix: (Units=1/GPa)
#
#
# Indices 1 2 3 4 5 6 
#
# 1 0.044142 -0.017067 -0.004761 0.025647 -0.022205 -0.006392
# 2 -0.017067 0.022256 0.004742 -0.037420 0.034059 -0.014549
# 3 -0.004761 0.004742 0.009166 -0.019925 0.014942 -0.007173
# 4 0.025647 -0.037420 -0.019925 0.120063 -0.092715 0.041590
# 5 -0.022205 0.034059 0.014942 -0.092715 0.104708 -0.034963
# 6 -0.006392 -0.014549 -0.007173 0.041590 -0.034963 0.052817
#
#
# Mechanical properties :
#
#
# Convention : Reuss Voigt Hill
#
# Bulk Modulus (GPa) = 24.15925 63.75407 43.95666
# Shear Modulus (GPa) = 12.46512 39.69967 26.08239
#
# Velocity S-wave (km/s) = 2.32178 4.14348 3.35850
# Velocity P-wave (km/s) = 4.19945 7.10368 5.83514
#
# Compressibility (1/GPa) = 0.04139202
#
# Stress axis : x y z
#
# Youngs Moduli (GPa) = 22.65427 44.93236 109.10100
#
# Poissons Ratio (x) = 0.76684 0.51945
# Poissons Ratio (y) = 0.38663 -0.51737
# Poissons Ratio (z) = 0.10786 -0.21307
#
# Static dielectric constant tensor:
#      x y z
#    x 1.896710 0.002040 0.013750 
#    y 0.002040 1.827580 0.013810 
#    z 0.013750 0.013810 1.939610 
# 
# From -- ./inp_files/271676.got.cif
#   From: 2010.05.17/outbox.cif.g08.bks.cpg/sg2_136_cif.got.tgz:271676.got - 2010.06.03 11:33:40.
