data_PCOD9059828
_publ_section_title
;
Structure prediction by ZEFSAII (Michael W. Deem and Ramdas Pophale) SiO2 
 PCOD9059828
Probable space group: P -1
;
_chemical_formula_sum "Si O2"
_cell_formula_units_Z 15
_cell_length_a 8.137370
_cell_length_b 12.268751
_cell_length_c 5.923120
_cell_angle_alpha 76.460608
_cell_angle_beta 68.989495
_cell_angle_gamma 86.140038
_cell_volume 536.590517
_symmetry_space_group_name_H-M "P -1"
_symmetry_group_IT_number 2
_symmetry_cell_setting 'triclinic'
loop_
_space_group_symop_operation_xyz
x,y,z
-x,-y,-z
loop_
_atom_site_type_symbol
_atom_site_label
_atom_site_fract_x
_atom_site_fract_y
_atom_site_fract_z
Si Si1 0.899917 0.213972 0.248600
Si Si2 0.178292 0.217655 0.474322
Si Si3 0.336910 0.042736 0.817069
Si Si4 0.340045 0.599306 0.152552
Si Si5 0.510117 0.172414 0.052048
Si Si6 0.658163 0.410283 0.344138
Si Si7 0.000000 0.000000 0.000000
Si Si8 0.057032 0.404418 0.760059
O O1 0.999693 0.195763 0.441782
O O2 0.907690 0.103468 0.146340
O O3 0.722435 0.281066 0.357428
O O4 0.013337 0.310200 0.014467
O O5 0.211029 0.111715 0.676183
O O6 0.338551 0.226247 0.218333
O O7 0.166900 0.332468 0.561538
O O8 0.449437 0.934947 0.761040
O O9 0.460295 0.126884 0.852882
O O10 0.177605 0.002305 0.077712
O O11 0.424844 0.579963 0.368413
O O12 0.133730 0.561670 0.262880
O O13 0.339301 0.734901 0.078209
O O14 0.416027 0.571106 0.880451
O O15 0.826778 0.494826 0.244982
#
# Coordination Sequence:
#
# PCOD9059828 Si02
#       8
#     2   2   2   2   2   2   1   2
#     4  11  23  42  69 110 148 185 245 314 360 432
#     4  12  23  44  71 102 142 199 242 305 366 442
#     4  11  25  45  69 100 148 195 244 300 369 445
#     4  11  24  45  74 110 142 195 245 308 362 441
#     4  11  26  47  67 101 155 192 242 296 388 438
#     4  11  25  45  79 111 147 194 255 310 366 429
#     4  12  22  46  68 112 138 188 252 298 360 436
#     4  11  23  45  75 108 144 191 257 305 366 432
#
# _framework density 27.954274999999999
#
# number of rings (size 3 to 8) (size 9 to 14) (size 15 to 20)
#    0.000    0.800    4.000    4.000    3.733    0.533 
#    4.800    1.333    0.000    0.000    0.000    0.000 
#    0.000    0.000    0.000    0.000    0.000    0.000 
#
# Total GULP energy -83765.369947 kJ/mol
# GULP energy per Si atom -5584.357996 kJ/mol
# Density = 2.789065 g / cm^3
# Si number density = 27.954275 Si / 1000 Ang^3
#
#
#
# Elastic Constant Matrix: (Units=GPa)
#
#
# Indices 1 2 3 4 5 6 
#
# 1 57.2620 19.5409 37.1866 3.2930 39.1029 -1.4681
# 2 19.5409 185.7126 68.7945 27.4384 14.6234 8.8271
# 3 37.1866 68.7945 135.9276 2.9365 39.2289 -10.2599
# 4 3.2930 27.4384 2.9365 50.7345 -12.4446 2.8726
# 5 39.1029 14.6234 39.2289 -12.4446 67.8689 -0.9702
# 6 -1.4681 8.8271 -10.2599 2.8726 -0.9702 41.6353
#
#
#
# Elastic Compliance Matrix: (Units=1/GPa)
#
#
# Indices 1 2 3 4 5 6 
#
# 1 0.032181 0.000316 -0.003727 -0.006376 -0.017621 0.000179
# 2 0.000316 0.007477 -0.003882 -0.003778 -0.000275 -0.002276
# 3 -0.003727 -0.003882 0.011618 0.000598 -0.003573 0.003430
# 4 -0.006376 -0.003778 0.000598 0.024281 0.008584 -0.000752
# 5 -0.017621 -0.000275 -0.003573 0.008584 0.028566 -0.001370
# 6 0.000179 -0.002276 0.003430 -0.000752 -0.001370 0.025372
#
#
# Mechanical properties :
#
#
# Convention : Reuss Voigt Hill
#
# Bulk Modulus (GPa) = 27.25504 69.99402 48.62453
# Shear Modulus (GPa) = 31.98748 48.93974 40.46361
#
# Velocity S-wave (km/s) = 3.38639 4.18868 3.80872
# Velocity P-wave (km/s) = 5.00612 6.96323 6.06415
#
# Compressibility (1/GPa) = 0.03669046
#
# Stress axis : x y z
#
# Youngs Moduli (GPa) = 31.07457 133.73594 86.07204
#
# Poissons Ratio (x) = -0.04220 0.32077
# Poissons Ratio (y) = -0.00981 0.33410
# Poissons Ratio (z) = 0.11581 0.51912
#
# Static dielectric constant tensor:
#      x y z
#    x 2.132750 -0.105400 0.179910 
#    y -0.105400 2.060900 0.162750 
#    z 0.179910 0.162750 1.890040 
# 
# From -- ./inp_files/26846.got.cif
#   From: 2010.05.17/outbox.cif.g08.bks.cpg/sg2_14_cif.got.tgz:26846.got - 2010.06.03 11:33:40.
