data_PCOD9059255
_publ_section_title
;
Structure prediction by ZEFSAII (Michael W. Deem and Ramdas Pophale) SiO2 
 PCOD9059255
Probable space group: P -1
;
_chemical_formula_sum "Si O2"
_cell_formula_units_Z 10
_cell_length_a 15.861325
_cell_length_b 5.082238
_cell_length_c 6.278156
_cell_angle_alpha 99.934261
_cell_angle_beta 103.499748
_cell_angle_gamma 52.059211
_cell_volume 387.820232
_symmetry_space_group_name_H-M "P -1"
_symmetry_group_IT_number 2
_symmetry_cell_setting 'triclinic'
loop_
_space_group_symop_operation_xyz
x,y,z
-x,-y,-z
loop_
_atom_site_type_symbol
_atom_site_label
_atom_site_fract_x
_atom_site_fract_y
_atom_site_fract_z
Si Si1 0.671201 0.698693 0.720865
Si Si2 0.790899 0.249785 0.393647
Si Si3 0.115043 0.939272 0.039509
Si Si4 0.453632 0.546479 0.227709
Si Si5 0.895778 0.600036 0.581903
O O1 0.679363 0.584247 0.461719
O O2 0.789824 0.399089 0.831982
O O3 0.588544 0.676863 0.805693
O O4 0.642485 0.058029 0.771357
O O5 0.878494 0.320125 0.514806
O O6 0.798843 0.944206 0.461550
O O7 0.828056 0.134344 0.162352
O O8 0.097227 0.265506 0.171560
O O9 0.000000 0.000000 0.000000
O O10 0.500000 0.500000 0.500000
O O11 0.500000 0.500000 0.000000
O O12 0.000000 0.500000 0.500000
#
# Coordination Sequence:
#
# PCOD9059255 Si02
#       5
#     2   2   2   2   2
#     4  11  27  49  75 120 151 200 265 326 395 491
#     4  11  25  43  69  99 157 197 260 316 380 455
#     4  11  25  44  74 109 160 217 256 312 391 467
#     4  12  29  54  88 116 154 201 264 343 420 474
#     4  11  23  41  60  98 142 204 271 304 362 447
#
# _framework density 25.785146000000001
#
# number of rings (size 3 to 8) (size 9 to 14) (size 15 to 20)
#    0.000    0.800    2.000    4.200    8.400    5.600 
#    0.000    0.000    0.000    0.000    0.000    0.000 
#    0.000    0.000    0.000    0.000    0.000    0.000 
#
# Total GULP energy -55734.002583 kJ/mol
# GULP energy per Si atom -5573.400258 kJ/mol
# Density = 2.572646 g / cm^3
# Si number density = 25.785146 Si / 1000 Ang^3
#
#
#
# Elastic Constant Matrix: (Units=GPa)
#
#
# Indices 1 2 3 4 5 6 
#
# 1 116.4563 2.2083 41.2479 -3.5667 -30.1317 6.4213
# 2 2.2083 106.0793 36.4033 9.4453 4.4465 -1.8526
# 3 41.2479 36.4033 186.7317 29.4932 -39.3880 -7.3406
# 4 -3.5667 9.4453 29.4932 48.7428 -16.2508 -10.8572
# 5 -30.1317 4.4465 -39.3880 -16.2508 53.0228 10.8858
# 6 6.4213 -1.8526 -7.3406 -10.8572 10.8858 27.7491
#
#
#
# Elastic Compliance Matrix: (Units=1/GPa)
#
#
# Indices 1 2 3 4 5 6 
#
# 1 0.011404 -0.000360 -0.001615 0.003266 0.007270 -0.004664
# 2 -0.000360 0.010585 -0.002455 -0.001582 -0.003592 0.000931
# 3 -0.001615 -0.002455 0.007491 -0.002943 0.004065 -0.000555
# 4 0.003266 -0.001582 -0.002943 0.026415 0.006648 0.006087
# 5 0.007270 -0.003592 0.004065 0.006648 0.030441 -0.010188
# 6 -0.004664 0.000931 -0.000555 0.006087 -0.010188 0.043410
#
#
# Mechanical properties :
#
#
# Convention : Reuss Voigt Hill
#
# Bulk Modulus (GPa) = 48.49754 63.22072 55.85913
# Shear Modulus (GPa) = 34.36928 47.86346 41.11637
#
# Velocity S-wave (km/s) = 3.65486 4.31309 3.99755
# Velocity P-wave (km/s) = 6.05474 7.02674 6.55877
#
# Compressibility (1/GPa) = 0.02061960
#
# Stress axis : x y z
#
# Youngs Moduli (GPa) = 87.68980 94.47656 133.49270
#
# Poissons Ratio (x) = 0.03404 0.21552
# Poissons Ratio (y) = 0.03160 0.32774
# Poissons Ratio (z) = 0.14158 0.23195
#
# Static dielectric constant tensor:
#      x y z
#    x 2.051810 -0.064030 0.015390 
#    y -0.064030 2.012800 -0.151110 
#    z 0.015390 -0.151110 2.530900 
# 
# From -- ./inp_files/102017.got.cif
#   From: 2010.05.17/outbox.cif.g08.bks.cpg/sg2_52_cif.got.tgz:102017.got - 2010.06.03 11:33:40.
