data_PCOD9059370
_publ_section_title
;
Structure prediction by ZEFSAII (Michael W. Deem and Ramdas Pophale) SiO2 
 PCOD9059370
Probable space group: P -1
;
_chemical_formula_sum "Si O2"
_cell_formula_units_Z 12
_cell_length_a 8.786793
_cell_length_b 6.248671
_cell_length_c 16.321408
_cell_angle_alpha 131.205332
_cell_angle_beta 60.291878
_cell_angle_gamma 117.696129
_cell_volume 572.328307
_symmetry_space_group_name_H-M "P -1"
_symmetry_group_IT_number 2
_symmetry_cell_setting 'triclinic'
loop_
_space_group_symop_operation_xyz
x,y,z
-x,-y,-z
loop_
_atom_site_type_symbol
_atom_site_label
_atom_site_fract_x
_atom_site_fract_y
_atom_site_fract_z
Si Si1 0.858250 0.663603 0.041731
Si Si2 0.486066 0.313331 0.116485
Si Si3 0.591986 0.282374 0.483799
Si Si4 0.164779 0.565058 0.193405
Si Si5 0.259931 0.230252 0.306057
Si Si6 0.917470 0.213047 0.275034
O O1 0.662265 0.531822 0.095703
O O2 0.911746 0.984689 0.144971
O O3 0.864314 0.580398 0.924491
O O4 0.000000 0.500000 0.000000
O O5 0.312872 0.407582 0.150907
O O6 0.441046 0.299511 0.220577
O O7 0.500000 0.000000 0.000000
O O8 0.500000 0.500000 0.500000
O O9 0.712597 0.518559 0.571081
O O10 0.728067 0.164967 0.357797
O O11 0.500000 0.000000 0.500000
O O12 0.986932 0.513414 0.283653
O O13 0.246226 0.905221 0.258520
O O14 0.076480 0.204064 0.295557
#
# Coordination Sequence:
#
# PCOD9059370 Si02
#       6
#     2   2   2   2   2   2
#     4  12  22  42  67 105 144 181 237 289 365 432
#     4  11  23  41  67 101 142 189 238 296 359 429
#     4  12  31  51  77 109 142 194 247 304 365 434
#     4  11  24  42  70 103 138 193 235 293 369 427
#     4  11  25  47  72 100 143 186 244 298 364 432
#     4  11  26  45  71 102 145 188 238 301 358 437
#
# _framework density 20.966985999999999
#
# number of rings (size 3 to 8) (size 9 to 14) (size 15 to 20)
#    0.000    0.667    3.333    3.500    9.333    2.000 
#    0.000    0.000    0.000    0.000    0.000    0.000 
#    0.000    0.000    0.000    0.000    0.000    0.000 
#
# Total GULP energy -66824.108493 kJ/mol
# GULP energy per Si atom -5568.675708 kJ/mol
# Density = 2.091926 g / cm^3
# Si number density = 20.966986 Si / 1000 Ang^3
#
#
#
# Elastic Constant Matrix: (Units=GPa)
#
#
# Indices 1 2 3 4 5 6 
#
# 1 15.4089 56.4391 -41.8204 15.1383 -25.2947 20.7534
# 2 56.4391 120.8136 57.6901 -20.7302 11.8470 -9.4297
# 3 -41.8204 57.6901 37.1052 22.5866 -20.0336 15.8740
# 4 15.1383 -20.7302 22.5866 40.5377 25.7569 -13.2323
# 5 -25.2947 11.8470 -20.0336 25.7569 23.7789 11.3155
# 6 20.7534 -9.4297 15.8740 -13.2323 11.3155 17.6023
#
#
#
# Elastic Compliance Matrix: (Units=1/GPa)
#
#
# Indices 1 2 3 4 5 6 
#
# 1 0.009211 0.001505 -0.005761 0.008971 -0.009248 0.007829
# 2 0.001505 0.005670 0.000597 -0.003538 0.005810 -0.005670
# 3 -0.005761 0.000597 0.009017 0.004917 -0.007821 0.007704
# 4 0.008971 -0.003538 0.004917 0.017356 -0.002184 -0.002454
# 5 -0.009248 0.005810 -0.007821 -0.002184 0.022843 0.004742
# 6 0.007829 -0.005670 0.007704 -0.002454 0.004742 0.032701
#
#
# Mechanical properties :
#
#
# Convention : Reuss Voigt Hill
#
# Bulk Modulus (GPa) = 60.31031 35.32726 47.81878
# Shear Modulus (GPa) = 45.60243 23.11838 34.36040
#
# Velocity S-wave (km/s) = 4.66871 3.32416 4.05258
# Velocity P-wave (km/s) = 7.60850 5.62307 6.68985
#
# Compressibility (1/GPa) = 0.01658091
#
# Stress axis : x y z
#
# Youngs Moduli (GPa) = 108.56086 176.38009 110.90079
#
# Poissons Ratio (x) = -0.26544 0.63889
# Poissons Ratio (y) = -0.16337 -0.06625
# Poissons Ratio (z) = 0.62541 -0.10537
#
# Static dielectric constant tensor:
#      x y z
#    x 1.775320 -0.034910 0.104430 
#    y -0.034910 2.476480 -0.330370 
#    z 0.104430 -0.330370 2.219710 
# 
# From -- ./inp_files/20256.got.cif
#   From: 2010.05.17/outbox.cif.g08.bks.cpg/sg2_11_cif.got.tgz:20256.got - 2010.06.03 11:33:40.
