data_PCOD9059322
_publ_section_title
;
Structure prediction by ZEFSAII (Michael W. Deem and Ramdas Pophale) SiO2 
 PCOD9059322
Probable space group: P -1
;
_chemical_formula_sum "Si O2"
_cell_formula_units_Z 12
_cell_length_a 16.270523
_cell_length_b 5.740620
_cell_length_c 5.260782
_cell_angle_alpha 94.445096
_cell_angle_beta 84.186330
_cell_angle_gamma 91.836961
_cell_volume 487.229342
_symmetry_space_group_name_H-M "P -1"
_symmetry_group_IT_number 2
_symmetry_cell_setting 'triclinic'
loop_
_space_group_symop_operation_xyz
x,y,z
-x,-y,-z
loop_
_atom_site_type_symbol
_atom_site_label
_atom_site_fract_x
_atom_site_fract_y
_atom_site_fract_z
Si Si1 0.674167 0.492694 0.036990
Si Si2 0.096131 0.563432 0.472385
Si Si3 0.366557 0.109887 0.528608
Si Si4 0.476316 0.794110 0.796591
Si Si5 0.219231 0.201694 0.298470
Si Si6 0.831271 0.205349 0.046370
O O1 0.665925 0.723528 0.228451
O O2 0.582264 0.385887 0.050007
O O3 0.718373 0.585693 0.778373
O O4 0.740246 0.313737 0.111399
O O5 0.147499 0.326822 0.482488
O O6 0.123550 0.664594 0.196330
O O7 0.000000 0.500000 0.500000
O O8 0.120552 0.743206 0.704481
O O9 0.562922 0.740441 0.633991
O O10 0.284529 0.032018 0.395299
O O11 0.416699 0.896346 0.606989
O O12 0.500000 0.000000 0.000000
O O13 0.179838 0.061917 0.062899
#
# Coordination Sequence:
#
# PCOD9059322 Si02
#       6
#     2   2   2   2   2   2
#     4  11  23  42  65  98 140 184 241 290 358 417
#     4  11  26  48  75 111 146 185 236 295 360 434
#     4  11  23  41  65  94 139 186 237 293 359 413
#     4  11  25  41  63  97 137 185 242 293 354 418
#     4  11  26  44  72 102 143 188 237 292 362 423
#     4  11  25  44  76 105 149 186 238 294 356 431
#
# _framework density 24.629057
#
# number of rings (size 3 to 8) (size 9 to 14) (size 15 to 20)
#    0.000    1.000    1.667    4.000    4.667    6.667 
#    0.000    0.000    0.000    0.000    0.000    0.000 
#    0.000    0.000    0.000    0.000    0.000    0.000 
#
# Total GULP energy -67179.908080 kJ/mol
# GULP energy per Si atom -5598.325673 kJ/mol
# Density = 2.457300 g / cm^3
# Si number density = 24.629057 Si / 1000 Ang^3
#
#
#
# Elastic Constant Matrix: (Units=GPa)
#
#
# Indices 1 2 3 4 5 6 
#
# 1 189.2083 36.3272 56.9580 -4.7033 -9.8095 24.1018
# 2 36.3272 61.0259 12.8504 -0.4083 -1.9319 12.3730
# 3 56.9580 12.8504 88.8728 6.8959 1.4966 7.2222
# 4 -4.7033 -0.4083 6.8959 43.2799 12.0323 2.0038
# 5 -9.8095 -1.9319 1.4966 12.0323 43.5493 -3.6277
# 6 24.1018 12.3730 7.2222 2.0038 -3.6277 29.4422
#
#
#
# Elastic Compliance Matrix: (Units=1/GPa)
#
#
# Indices 1 2 3 4 5 6 
#
# 1 0.007743 -0.002830 -0.004351 0.001406 0.001042 -0.004049
# 2 -0.002830 0.019339 -0.000535 0.000317 -0.000327 -0.005742
# 3 -0.004351 -0.000535 0.014300 -0.002563 -0.000757 0.000360
# 4 0.001406 0.000317 -0.002563 0.025759 -0.006970 -0.003267
# 5 0.001042 -0.000327 -0.000757 -0.006970 0.025391 0.003073
# 6 -0.004049 -0.005742 0.000360 -0.003267 0.003073 0.040205
#
#
# Mechanical properties :
#
#
# Convention : Reuss Voigt Hill
#
# Bulk Modulus (GPa) = 38.53419 61.26427 49.89923
# Shear Modulus (GPa) = 31.88385 38.78571 35.33478
#
# Velocity S-wave (km/s) = 3.60191 3.97267 3.79182
# Velocity P-wave (km/s) = 5.74266 6.78024 6.28290
#
# Compressibility (1/GPa) = 0.02595098
#
# Stress axis : x y z
#
# Youngs Moduli (GPa) = 129.14857 51.70769 69.92891
#
# Poissons Ratio (x) = 0.14631 0.30425
# Poissons Ratio (y) = 0.36544 0.03744
# Poissons Ratio (z) = 0.56191 0.02768
#
# Static dielectric constant tensor:
#      x y z
#    x 1.908890 -0.019750 0.016900 
#    y -0.019750 2.043370 -0.109000 
#    z 0.016900 -0.109000 2.023490 
# 
# From -- ./inp_files/8523.got.cif
#   From: 2010.05.17/outbox.cif.g08.bks.cpg/sg2_5_cif.got.tgz:8523.got - 2010.06.03 11:33:40.
