data_PCOD9059806
_publ_section_title
;
Structure prediction by ZEFSAII (Michael W. Deem and Ramdas Pophale) SiO2 
 PCOD9059806
Probable space group: P -1
;
_chemical_formula_sum "Si O2"
_cell_formula_units_Z 14
_cell_length_a 9.435913
_cell_length_b 12.410870
_cell_length_c 9.119182
_cell_angle_alpha 67.095664
_cell_angle_beta 115.668901
_cell_angle_gamma 64.503658
_cell_volume 613.909347
_symmetry_space_group_name_H-M "P -1"
_symmetry_group_IT_number 2
_symmetry_cell_setting 'triclinic'
loop_
_space_group_symop_operation_xyz
x,y,z
-x,-y,-z
loop_
_atom_site_type_symbol
_atom_site_label
_atom_site_fract_x
_atom_site_fract_y
_atom_site_fract_z
Si Si1 0.148623 0.587476 0.405053
Si Si2 0.015077 0.117120 0.017793
Si Si3 0.255503 0.116057 0.754971
Si Si4 0.926823 0.549787 0.109761
Si Si5 0.856689 0.079386 0.246160
Si Si6 0.562911 0.956216 0.718677
Si Si7 0.399922 0.445688 0.891201
O O1 0.335591 0.500148 0.662333
O O2 0.917035 0.706049 0.335566
O O3 0.130080 0.487759 0.338781
O O4 0.136098 0.706484 0.229247
O O5 0.941114 0.133574 0.143441
O O6 0.271571 0.026279 0.173873
O O7 0.000000 0.000000 0.000000
O O8 0.141646 0.049806 0.756696
O O9 0.329629 0.084473 0.636669
O O10 0.500000 0.000000 0.000000
O O11 0.816504 0.491319 0.155033
O O12 0.726732 0.755631 0.919322
O O13 0.000000 0.500000 0.000000
O O14 0.598511 0.244191 0.083459
O O15 0.000000 0.000000 0.500000
O O16 0.500000 0.000000 0.500000
O O17 0.500000 0.500000 0.000000
#
# Coordination Sequence:
#
# PCOD9059806 Si02
#       7
#     2   2   2   2   2   2   2
#     4  11  25  47  72 102 144 187 237 292 355 423
#     4  11  23  42  69 102 134 174 231 290 348 404
#     4  12  20  44  72  97 132 180 237 282 343 414
#     4  11  26  48  67 101 144 186 233 288 356 425
#     4  12  25  45  69  99 140 182 230 293 350 420
#     4  11  24  41  69 103 133 177 235 287 343 414
#     4  12  28  46  69 104 142 190 235 286 364 421
#
# _framework density 22.804670000000002
#
# number of rings (size 3 to 8) (size 9 to 14) (size 15 to 20)
#    0.000    0.571    5.714    2.143    6.000    0.571 
#    2.571    0.000    0.000    0.000    0.000    0.000 
#    0.000    0.000    0.000    0.000    0.000    0.000 
#
# Total GULP energy -78295.808405 kJ/mol
# GULP energy per Si atom -5592.557743 kJ/mol
# Density = 2.275277 g / cm^3
# Si number density = 22.804670 Si / 1000 Ang^3
#
#
#
# Elastic Constant Matrix: (Units=GPa)
#
#
# Indices 1 2 3 4 5 6 
#
# 1 144.4744 32.4894 42.1643 22.9354 -25.4770 4.0942
# 2 32.4894 91.7767 27.9737 34.1105 -1.7034 0.2401
# 3 42.1643 27.9737 167.7654 39.1628 -15.1594 6.4476
# 4 22.9354 34.1105 39.1628 38.1177 -9.7148 8.4757
# 5 -25.4770 -1.7034 -15.1594 -9.7148 37.3808 12.4621
# 6 4.0942 0.2401 6.4476 8.4757 12.4621 51.7400
#
#
#
# Elastic Compliance Matrix: (Units=1/GPa)
#
#
# Indices 1 2 3 4 5 6 
#
# 1 0.009041 -0.002902 -0.001259 0.000563 0.006391 -0.002177
# 2 -0.002902 0.018429 0.001240 -0.018913 -0.007154 0.004811
# 3 -0.001259 0.001240 0.008104 -0.008786 0.000030 0.000516
# 4 0.000563 -0.018913 -0.008786 0.058398 0.015163 -0.012080
# 5 0.006391 -0.007154 0.000030 0.015163 0.038840 -0.012315
# 6 -0.002177 0.004811 0.000516 -0.012080 -0.012315 0.024358
#
#
# Mechanical properties :
#
#
# Convention : Reuss Voigt Hill
#
# Bulk Modulus (GPa) = 33.63208 67.69681 50.66444
# Shear Modulus (GPa) = 28.91472 45.54031 37.22752
#
# Velocity S-wave (km/s) = 3.56466 4.47360 4.04474
# Velocity P-wave (km/s) = 5.63226 7.51226 6.63914
#
# Compressibility (1/GPa) = 0.02973352
#
# Stress axis : x y z
#
# Youngs Moduli (GPa) = 110.60878 54.26150 123.39498
#
# Poissons Ratio (x) = 0.15745 0.15531
# Poissons Ratio (y) = 0.32096 -0.15301
# Poissons Ratio (z) = 0.13921 -0.06728
#
# Static dielectric constant tensor:
#      x y z
#    x 1.811730 -0.042560 -0.040610 
#    y -0.042560 1.955940 0.012930 
#    z -0.040610 0.012930 1.885660 
# 
# From -- ./inp_files/186123.got.cif
#   From: 2010.05.17/outbox.cif.g08.bks.cpg/sg2_94_cif.got.tgz:186123.got - 2010.06.03 11:33:40.
