data_PCOD9059477
_publ_section_title
;
Structure prediction by ZEFSAII (Michael W. Deem and Ramdas Pophale) SiO2 
 PCOD9059477
Probable space group: P -1
;
_chemical_formula_sum "Si O2"
_cell_formula_units_Z 14
_cell_length_a 8.943973
_cell_length_b 12.790367
_cell_length_c 9.651623
_cell_angle_alpha 96.748245
_cell_angle_beta 137.276765
_cell_angle_gamma 110.503360
_cell_volume 566.594600
_symmetry_space_group_name_H-M "P -1"
_symmetry_group_IT_number 2
_symmetry_cell_setting 'triclinic'
loop_
_space_group_symop_operation_xyz
x,y,z
-x,-y,-z
loop_
_atom_site_type_symbol
_atom_site_label
_atom_site_fract_x
_atom_site_fract_y
_atom_site_fract_z
Si Si1 0.853135 0.400277 0.518467
Si Si2 0.110789 0.169454 0.254590
Si Si3 0.305912 0.205542 0.985358
Si Si4 0.612674 0.753850 0.265537
Si Si5 0.055163 0.389518 0.170536
Si Si6 0.709108 0.554181 0.967447
Si Si7 0.280981 0.009998 0.277593
O O1 0.000000 0.500000 0.500000
O O2 0.813777 0.482440 0.617397
O O3 0.061499 0.389284 0.745360
O O4 0.592984 0.249828 0.257772
O O5 0.146013 0.158855 0.439175
O O6 0.160838 0.307239 0.278702
O O7 0.338155 0.152916 0.346647
O O8 0.815292 0.054819 0.951331
O O9 0.292029 0.179929 0.809879
O O10 0.373432 0.350484 0.075469
O O11 0.012764 0.092907 0.848242
O O12 0.296555 0.708285 0.075738
O O13 0.537874 0.606429 0.193328
O O14 0.153401 0.432542 0.085615
O O15 0.500000 0.000000 0.500000
#
# Coordination Sequence:
#
# PCOD9059477 Si02
#       7
#     2   2   2   2   2   2   2
#     4  11  23  41  69 106 149 180 218 277 357 419
#     4  11  25  45  75  94 134 187 236 288 347 399
#     4  12  25  43  71 102 141 184 229 285 351 404
#     4  11  24  41  68 106 143 175 224 284 351 425
#     4  11  23  42  68 107 144 181 226 281 340 427
#     4  11  24  39  69 106 147 181 223 276 346 426
#     4  11  27  50  70  99 134 184 245 297 335 401
#
# _framework density 24.709026999999999
#
# number of rings (size 3 to 8) (size 9 to 14) (size 15 to 20)
#    0.000    0.857    4.286    3.857    6.000    2.857 
#    0.000    1.429    0.000    0.000    0.000    0.000 
#    0.000    0.000    0.000    0.000    0.000    0.000 
#
# Total GULP energy -78355.168219 kJ/mol
# GULP energy per Si atom -5596.797730 kJ/mol
# Density = 2.465279 g / cm^3
# Si number density = 24.709027 Si / 1000 Ang^3
#
#
#
# Elastic Constant Matrix: (Units=GPa)
#
#
# Indices 1 2 3 4 5 6 
#
# 1 100.5690 25.3785 51.6545 -10.0121 -17.7462 26.4692
# 2 25.3785 76.4455 26.5274 -7.7746 6.8995 -2.5209
# 3 51.6545 26.5274 207.5381 -34.9079 -27.7061 19.9456
# 4 -10.0121 -7.7746 -34.9079 32.2271 8.4383 -0.7571
# 5 -17.7462 6.8995 -27.7061 8.4383 38.8003 -12.3231
# 6 26.4692 -2.5209 19.9456 -0.7571 -12.3231 60.6101
#
#
#
# Elastic Compliance Matrix: (Units=1/GPa)
#
#
# Indices 1 2 3 4 5 6 
#
# 1 0.014116 -0.004594 -0.001877 -0.000022 0.004399 -0.004844
# 2 -0.004594 0.015957 -0.001465 0.002422 -0.005880 0.001987
# 3 -0.001877 -0.001465 0.006903 0.005789 0.002796 -0.000872
# 4 -0.000022 0.002422 0.005789 0.039294 -0.005631 -0.002449
# 5 0.004399 -0.005880 0.002796 -0.005631 0.033192 0.003593
# 6 -0.004844 0.001987 -0.000872 -0.002449 0.003593 0.019684
#
#
# Mechanical properties :
#
#
# Convention : Reuss Voigt Hill
#
# Bulk Modulus (GPa) = 47.38168 65.74150 56.56159
# Shear Modulus (GPa) = 32.88327 45.06033 38.97180
#
# Velocity S-wave (km/s) = 3.65200 4.27504 3.97574
# Velocity P-wave (km/s) = 6.08279 7.14367 6.63447
#
# Compressibility (1/GPa) = 0.02110520
#
# Stress axis : x y z
#
# Youngs Moduli (GPa) = 70.84349 62.66791 144.85414
#
# Poissons Ratio (x) = 0.28788 0.27188
# Poissons Ratio (y) = 0.32544 0.21219
# Poissons Ratio (z) = 0.13297 0.09180
#
# Static dielectric constant tensor:
#      x y z
#    x 1.990030 -0.010860 0.025610 
#    y -0.010860 2.005790 0.033650 
#    z 0.025610 0.033650 1.981780 
# 
# From -- ./inp_files/202756.got.cif
#   From: 2010.05.17/outbox.cif.g08.bks.cpg/sg2_102_cif.got.tgz:202756.got - 2010.06.03 11:33:40.
