data_PCOD9059905
_publ_section_title
;
Structure prediction by ZEFSAII (Michael W. Deem and Ramdas Pophale) SiO2 
 PCOD9059905
Probable space group: P -1
;
_chemical_formula_sum "Si O2"
_cell_formula_units_Z 16
_cell_length_a 9.315162
_cell_length_b 18.739281
_cell_length_c 6.317294
_cell_angle_alpha 129.131973
_cell_angle_beta 122.276229
_cell_angle_gamma 71.954004
_cell_volume 722.595801
_symmetry_space_group_name_H-M "P -1"
_symmetry_group_IT_number 2
_symmetry_cell_setting 'triclinic'
loop_
_space_group_symop_operation_xyz
x,y,z
-x,-y,-z
loop_
_atom_site_type_symbol
_atom_site_label
_atom_site_fract_x
_atom_site_fract_y
_atom_site_fract_z
Si Si1 0.164095 0.682861 0.184244
Si Si2 0.348200 0.759768 0.108269
Si Si3 0.657930 0.154157 0.162049
Si Si4 0.297324 0.481772 0.849723
Si Si5 0.448313 0.398674 0.187084
Si Si6 0.798531 0.675287 0.824087
Si Si7 0.650667 0.841659 0.791346
Si Si8 0.086030 0.997370 0.813152
O O1 0.184319 0.737193 0.079390
O O2 0.296102 0.740384 0.538499
O O3 0.217143 0.578471 0.010201
O O4 0.971517 0.687322 0.111187
O O5 0.510386 0.796635 0.439398
O O6 0.328127 0.837218 0.062001
O O7 0.398035 0.657439 0.885303
O O8 0.471944 0.124504 0.050506
O O9 0.804297 0.093777 0.260922
O O10 0.204571 0.421768 0.483961
O O11 0.500000 0.500000 0.000000
O O12 0.303468 0.416443 0.935172
O O13 0.500000 0.500000 0.500000
O O14 0.365083 0.334228 0.177026
O O15 0.767393 0.761401 0.813698
O O16 0.773109 0.919225 0.930854
O O17 0.000000 0.000000 0.500000
O O18 0.000000 0.000000 0.000000
#
# Coordination Sequence:
#
# PCOD9059905 Si02
#       8
#     2   2   2   2   2   2   2   2
#     4  11  25  41  66 100 143 182 238 303 366 427
#     4  11  23  42  71 101 135 193 240 296 362 437
#     4  11  25  47  75 103 142 188 244 294 370 446
#     4  12  21  40  63  93 138 188 237 292 354 434
#     4  12  22  37  66  95 136 187 243 290 354 430
#     4  12  24  40  64 100 140 181 237 302 361 425
#     4  11  25  46  74 104 143 191 245 296 368 449
#     4  12  31  52  80 116 154 190 238 311 382 442
#
# _framework density 22.142392000000001
#
# number of rings (size 3 to 8) (size 9 to 14) (size 15 to 20)
#    0.000    0.500    5.000    3.000    7.000    3.000 
#    0.000    0.000    0.000    0.000    0.000    0.000 
#    0.000    0.000    0.000    0.000    0.000    0.000 
#
# Total GULP energy -89178.021000 kJ/mol
# GULP energy per Si atom -5573.626313 kJ/mol
# Density = 2.209199 g / cm^3
# Si number density = 22.142392 Si / 1000 Ang^3
#
#
#
# Elastic Constant Matrix: (Units=GPa)
#
#
# Indices 1 2 3 4 5 6 
#
# 1 76.0110 27.4728 11.9349 6.6475 9.4789 -3.7536
# 2 27.4728 114.8439 8.5442 -10.7408 1.9501 -3.0161
# 3 11.9349 8.5442 30.6704 -1.7427 4.7360 2.8956
# 4 6.6475 -10.7408 -1.7427 33.5298 -1.1832 6.6941
# 5 9.4789 1.9501 4.7360 -1.1832 25.9013 -2.2464
# 6 -3.7536 -3.0161 2.8956 6.6941 -2.2464 26.8936
#
#
#
# Elastic Compliance Matrix: (Units=1/GPa)
#
#
# Indices 1 2 3 4 5 6 
#
# 1 0.016690 -0.003960 -0.005304 -0.005717 -0.004800 0.003479
# 2 -0.003960 0.010097 -0.001189 0.004037 0.001073 -0.000208
# 3 -0.005304 -0.001189 0.036559 0.003618 -0.005021 -0.006130
# 4 -0.005717 0.004037 0.003618 0.034327 0.001904 -0.009120
# 5 -0.004800 0.001073 -0.005021 0.001904 0.041548 0.002987
# 6 0.003479 -0.000208 -0.006130 -0.009120 0.002987 0.040825
#
#
# Mechanical properties :
#
#
# Convention : Reuss Voigt Hill
#
# Bulk Modulus (GPa) = 23.56149 35.26992 29.41571
# Shear Modulus (GPa) = 23.24518 28.83651 26.04085
#
# Velocity S-wave (km/s) = 3.24358 3.61268 3.43310
# Velocity P-wave (km/s) = 4.96908 5.77627 5.38781
#
# Compressibility (1/GPa) = 0.04244214
#
# Stress axis : x y z
#
# Youngs Moduli (GPa) = 59.91518 99.03867 27.35290
#
# Poissons Ratio (x) = 0.39218 0.14507
# Poissons Ratio (y) = 0.23725 0.03251
# Poissons Ratio (z) = 0.31778 0.11772
#
# Static dielectric constant tensor:
#      x y z
#    x 1.952040 0.046580 -0.107690 
#    y 0.046580 1.839870 -0.079420 
#    z -0.107690 -0.079420 1.896520 
# 
# From -- ./inp_files/49179.got.cif
#   From: 2010.05.17/outbox.cif.g08.bks.cpg/sg2_25_cif.got.tgz:49179.got - 2010.06.03 11:33:40.
