data_PCOD9059463
_publ_section_title
;
Structure prediction by ZEFSAII (Michael W. Deem and Ramdas Pophale) SiO2 
 PCOD9059463
Probable space group: P -1
;
_chemical_formula_sum "Si O2"
_cell_formula_units_Z 15
_cell_length_a 10.764391
_cell_length_b 17.976029
_cell_length_c 8.836123
_cell_angle_alpha 41.283822
_cell_angle_beta 140.261921
_cell_angle_gamma 134.482603
_cell_volume 689.910200
_symmetry_space_group_name_H-M "P -1"
_symmetry_group_IT_number 2
_symmetry_cell_setting 'triclinic'
loop_
_space_group_symop_operation_xyz
x,y,z
-x,-y,-z
loop_
_atom_site_type_symbol
_atom_site_label
_atom_site_fract_x
_atom_site_fract_y
_atom_site_fract_z
Si Si1 0.030320 0.671086 0.763263
Si Si2 0.692374 0.699709 0.630266
Si Si3 0.890534 0.936154 0.843703
Si Si4 0.337064 0.924493 0.741968
Si Si5 0.421146 0.614559 0.241020
Si Si6 0.739568 0.674556 0.208273
Si Si7 0.759951 0.961402 0.224576
Si Si8 0.500000 0.500000 0.000000
O O1 0.190526 0.801689 0.731582
O O2 0.867700 0.662333 0.758984
O O3 0.906707 0.660050 0.507856
O O4 0.183642 0.591762 0.034011
O O5 0.497715 0.679455 0.369097
O O6 0.764382 0.840654 0.496141
O O7 0.619515 0.616245 0.831610
O O8 0.694359 0.976684 0.552854
O O9 0.835018 0.796448 0.024856
O O10 0.045710 0.985834 0.776819
O O11 0.000000 0.000000 0.000000
O O12 0.268057 0.950264 0.806994
O O13 0.570460 0.933419 0.973925
O O14 0.500000 0.500000 0.500000
O O15 0.548545 0.686605 0.110984
O O16 0.643879 0.561712 0.186858
#
# Coordination Sequence:
#
# PCOD9059463 Si02
#       8
#     2   2   2   2   2   2   2   1
#     4  11  24  44  77 101 131 195 239 281 354 430
#     4  11  23  45  73 100 139 183 238 291 347 418
#     4  12  23  42  70 107 146 181 228 288 353 414
#     4  11  23  41  69 103 141 188 230 279 350 424
#     4  11  23  49  72  95 136 188 241 288 343 420
#     4  11  26  45  70 105 143 183 235 293 349 419
#     4  11  24  42  70 104 141 188 232 284 347 419
#     4  12  26  48  68 102 146 178 228 314 352 394
#
# _framework density 21.741959999999999
#
# number of rings (size 3 to 8) (size 9 to 14) (size 15 to 20)
#    0.000    0.800    5.333    2.000    1.867    3.733 
#    0.000    2.667    0.000    0.000    0.000    0.000 
#    0.000    0.000    0.000    0.000    0.000    0.000 
#
# Total GULP energy -83589.304029 kJ/mol
# GULP energy per Si atom -5572.620269 kJ/mol
# Density = 2.169247 g / cm^3
# Si number density = 21.741960 Si / 1000 Ang^3
#
#
#
# Elastic Constant Matrix: (Units=GPa)
#
#
# Indices 1 2 3 4 5 6 
#
# 1 52.3869 44.0985 51.6909 0.7780 4.4981 18.2543
# 2 44.0985 152.7121 61.9476 12.0665 -6.8939 3.2613
# 3 51.6909 61.9476 139.1608 11.8692 8.8677 18.4406
# 4 0.7780 12.0665 11.8692 59.3281 5.7804 -9.9281
# 5 4.4981 -6.8939 8.8677 5.7804 40.2579 0.2694
# 6 18.2543 3.2613 18.4406 -9.9281 0.2694 42.1480
#
#
#
# Elastic Compliance Matrix: (Units=1/GPa)
#
#
# Indices 1 2 3 4 5 6 
#
# 1 0.039250 -0.007473 -0.009549 0.001278 -0.003665 -0.011919
# 2 -0.007473 0.009709 -0.002043 -0.001258 0.003108 0.003063
# 3 -0.009549 -0.002043 0.012108 -0.001964 -0.001658 -0.001456
# 4 0.001278 -0.001258 -0.001964 0.018544 -0.002620 0.004788
# 5 -0.003665 0.003108 -0.001658 -0.002620 0.026515 0.001286
# 6 -0.011919 0.003063 -0.001456 0.004788 0.001286 0.030407
#
#
# Mechanical properties :
#
#
# Convention : Reuss Voigt Hill
#
# Bulk Modulus (GPa) = 43.59472 73.30375 58.44923
# Shear Modulus (GPa) = 27.42608 40.78165 34.10386
#
# Velocity S-wave (km/s) = 3.55552 4.33565 3.96482
# Velocity P-wave (km/s) = 6.07866 7.67153 6.92107
#
# Compressibility (1/GPa) = 0.02293856
#
# Stress axis : x y z
#
# Youngs Moduli (GPa) = 25.47779 102.99577 82.58771
#
# Poissons Ratio (x) = 0.76964 0.78862
# Poissons Ratio (y) = 0.19038 0.16872
# Poissons Ratio (z) = 0.24328 0.21041
#
# Static dielectric constant tensor:
#      x y z
#    x 1.799190 -0.032960 0.035140 
#    y -0.032960 1.858120 -0.024840 
#    z 0.035140 -0.024840 1.809770 
# 
# From -- ./inp_files/281545.got.cif
#   From: 2010.05.17/outbox.cif.g08.bks.cpg/sg2_141_cif.got.tgz:281545.got - 2010.06.03 11:33:40.
