data_PCOD9059808
_publ_section_title
;
Structure prediction by ZEFSAII (Michael W. Deem and Ramdas Pophale) SiO2 
 PCOD9059808
Probable space group: P -1
;
_chemical_formula_sum "Si O2"
_cell_formula_units_Z 14
_cell_length_a 12.219759
_cell_length_b 7.928620
_cell_length_c 11.282833
_cell_angle_alpha 53.998565
_cell_angle_beta 116.613179
_cell_angle_gamma 141.331756
_cell_volume 552.425395
_symmetry_space_group_name_H-M "P -1"
_symmetry_group_IT_number 2
_symmetry_cell_setting 'triclinic'
loop_
_space_group_symop_operation_xyz
x,y,z
-x,-y,-z
loop_
_atom_site_type_symbol
_atom_site_label
_atom_site_fract_x
_atom_site_fract_y
_atom_site_fract_z
Si Si1 0.106124 0.201216 0.583665
Si Si2 0.894103 0.851109 0.131817
Si Si3 0.599576 0.808233 0.990584
Si Si4 0.211980 0.714156 0.722694
Si Si5 0.637456 0.964240 0.565277
Si Si6 0.811604 0.292387 0.727710
Si Si7 0.436696 0.304964 0.723198
O O1 0.023850 0.105934 0.716330
O O2 0.187970 0.510372 0.441486
O O3 0.258827 0.223425 0.670075
O O4 0.000000 0.000000 0.500000
O O5 0.789828 0.936860 0.054749
O O6 0.760095 0.497797 0.186138
O O7 0.000000 0.000000 0.000000
O O8 0.512086 0.720323 0.112611
O O9 0.500000 0.500000 0.000000
O O10 0.670218 0.106947 0.840440
O O11 0.017150 0.510555 0.765658
O O12 0.213854 0.792844 0.556178
O O13 0.371179 0.030848 0.727611
O O14 0.564963 0.653257 0.609934
O O15 0.500000 0.000000 0.500000
O O16 0.724417 0.017394 0.711397
#
# Coordination Sequence:
#
# PCOD9059808 Si02
#       7
#     2   2   2   2   2   2   2
#     4  11  23  42  69 103 136 174 230 284 334 404
#     4  11  24  43  66  99 137 181 223 285 340 401
#     4  11  24  44  69  93 135 180 226 270 346 405
#     4  12  25  41  68 102 135 169 231 281 337 399
#     4  12  23  43  69  98 133 179 222 280 338 400
#     4  12  23  40  73  97 129 180 228 271 337 402
#     4  11  24  43  68 102 137 177 221 283 342 401
#
# _framework density 25.342787000000001
#
# number of rings (size 3 to 8) (size 9 to 14) (size 15 to 20)
#    0.000    0.571    7.143    1.714    0.000    1.714 
#    0.000    0.714    0.000    0.000    0.000    0.000 
#    0.000    0.000    0.000    0.000    0.000    0.000 
#
# Total GULP energy -77965.580806 kJ/mol
# GULP energy per Si atom -5568.970058 kJ/mol
# Density = 2.528511 g / cm^3
# Si number density = 25.342787 Si / 1000 Ang^3
#
#
#
# Elastic Constant Matrix: (Units=GPa)
#
#
# Indices 1 2 3 4 5 6 
#
# 1 53.1068 2.4067 31.3487 -10.7567 13.2725 8.4627
# 2 2.4067 112.6084 42.2382 -15.5921 -4.5499 -16.3680
# 3 31.3487 42.2382 165.3943 -20.1769 -28.6998 0.0038
# 4 -10.7567 -15.5921 -20.1769 39.3131 5.2963 -2.5750
# 5 13.2725 -4.5499 -28.6998 5.2963 27.0539 1.3988
# 6 8.4627 -16.3680 0.0038 -2.5750 1.3988 34.5263
#
#
#
# Elastic Compliance Matrix: (Units=1/GPa)
#
#
# Indices 1 2 3 4 5 6 
#
# 1 0.036354 0.002858 -0.012020 0.008792 -0.031536 -0.005621
# 2 0.002858 0.011385 -0.003707 0.004347 -0.004539 0.005205
# 3 -0.012020 -0.003707 0.012385 -0.000879 0.018565 0.000370
# 4 0.008792 0.004347 -0.000879 0.030724 -0.010666 0.002630
# 5 -0.031536 -0.004539 0.018565 -0.010666 0.073360 0.001808
# 6 -0.005621 0.005205 0.000370 0.002630 0.001808 0.032932
#
#
# Mechanical properties :
#
#
# Convention : Reuss Voigt Hill
#
# Bulk Modulus (GPa) = 29.08153 53.67742 41.37948
# Shear Modulus (GPa) = 21.33665 37.18640 29.26152
#
# Velocity S-wave (km/s) = 2.90474 3.83474 3.40167
# Velocity P-wave (km/s) = 4.76971 6.39011 5.63842
#
# Compressibility (1/GPa) = 0.03438608
#
# Stress axis : x y z
#
# Youngs Moduli (GPa) = 27.50765 87.83733 80.74203
#
# Poissons Ratio (x) = -0.25100 0.97050
# Poissons Ratio (y) = -0.07861 0.29927
# Poissons Ratio (z) = 0.33063 0.32557
#
# Static dielectric constant tensor:
#      x y z
#    x 2.154920 -0.020310 0.066220 
#    y -0.020310 2.072380 -0.027740 
#    z 0.066220 -0.027740 2.127000 
# 
# From -- ./inp_files/158202.got.cif
#   From: 2010.05.17/outbox.cif.g08.bks.cpg/sg2_80_cif.got.tgz:158202.got - 2010.06.03 11:33:40.
