data_PCOD9059200
_publ_section_title
;
Structure prediction by ZEFSAII (Michael W. Deem and Ramdas Pophale) SiO2 
 PCOD9059200
Probable space group: P -1
;
_chemical_formula_sum "Si O2"
_cell_formula_units_Z 16
_cell_length_a 7.659909
_cell_length_b 13.779629
_cell_length_c 11.394680
_cell_angle_alpha 32.094949
_cell_angle_beta 88.231237
_cell_angle_gamma 77.702030
_cell_volume 597.889542
_symmetry_space_group_name_H-M "P -1"
_symmetry_group_IT_number 2
_symmetry_cell_setting 'triclinic'
loop_
_space_group_symop_operation_xyz
x,y,z
-x,-y,-z
loop_
_atom_site_type_symbol
_atom_site_label
_atom_site_fract_x
_atom_site_fract_y
_atom_site_fract_z
Si Si1 0.626297 0.002676 0.604196
Si Si2 0.516499 0.705845 0.330493
Si Si3 0.848255 0.902241 0.060204
Si Si4 0.996072 0.621640 0.991677
Si Si5 0.985820 0.719688 0.481048
Si Si6 0.475496 0.237142 0.968360
Si Si7 0.878004 0.148568 0.095363
Si Si8 0.387703 0.642088 0.623249
O O1 0.500000 0.000000 0.500000
O O2 0.644590 0.210017 0.420806
O O3 0.818194 0.820963 0.778826
O O4 0.531263 0.949377 0.775452
O O5 0.500000 0.500000 0.500000
O O6 0.633225 0.732118 0.185237
O O7 0.548675 0.660085 0.515422
O O8 0.349299 0.918147 0.119727
O O9 0.880215 0.752578 0.324328
O O10 0.947668 0.834152 0.000809
O O11 0.000000 0.000000 0.000000
O O12 0.011737 0.465208 0.255047
O O13 0.149278 0.716781 0.927645
O O14 0.000000 0.500000 0.000000
O O15 0.202950 0.698173 0.487765
O O16 0.911004 0.921897 0.349169
O O17 0.686995 0.216176 0.958301
O O18 0.414075 0.418108 0.874156
#
# Coordination Sequence:
#
# PCOD9059200 Si02
#       8
#     2   2   2   2   2   2   2   2
#     4  12  29  47  66  94 132 175 229 278 321 388
#     4  10  19  36  67 101 135 171 213 260 327 405
#     4  10  17  37  66 100 135 169 210 263 328 400
#     4  12  29  46  67  97 127 175 235 272 321 393
#     4  11  21  42  71  96 133 171 212 270 332 388
#     4  11  24  42  69 101 132 174 214 267 335 392
#     4  11  23  44  70 100 135 172 214 271 332 388
#     4  11  22  44  68  96 137 174 210 269 334 389
#
# _framework density 26.760794000000001
#
# number of rings (size 3 to 8) (size 9 to 14) (size 15 to 20)
#    0.000    1.000    7.500    0.000    3.500    3.000 
#    0.000    0.000    0.000    0.000    0.000    0.000 
#    0.000    0.000    0.000    0.000    0.000    0.000 
#
# Total GULP energy -89261.745141 kJ/mol
# GULP energy per Si atom -5578.859071 kJ/mol
# Density = 2.669989 g / cm^3
# Si number density = 26.760794 Si / 1000 Ang^3
#
#
#
# Elastic Constant Matrix: (Units=GPa)
#
#
# Indices 1 2 3 4 5 6 
#
# 1 52.7122 10.5787 -2.9705 -1.4443 18.6053 7.7469
# 2 10.5787 164.0726 34.4979 -38.1853 -3.7604 46.9068
# 3 -2.9705 34.4979 104.7663 -26.1664 2.2809 25.2056
# 4 -1.4443 -38.1853 -26.1664 61.0304 11.9264 -1.4430
# 5 18.6053 -3.7604 2.2809 11.9264 24.4207 6.0045
# 6 7.7469 46.9068 25.2056 -1.4430 6.0045 46.2117
#
#
#
# Elastic Compliance Matrix: (Units=1/GPa)
#
#
# Indices 1 2 3 4 5 6 
#
# 1 0.028783 -0.001022 0.003933 0.006565 -0.025052 -0.002473
# 2 -0.001022 0.010719 0.000649 0.006301 0.002028 -0.011130
# 3 0.003933 0.000649 0.013145 0.007077 -0.005731 -0.007522
# 4 0.006565 0.006301 0.007077 0.026336 -0.015458 -0.008526
# 5 -0.025052 0.002028 -0.005731 -0.015458 0.069475 -0.004243
# 6 -0.002473 -0.011130 -0.007522 -0.008526 -0.004243 0.037739
#
#
# Mechanical properties :
#
#
# Convention : Reuss Voigt Hill
#
# Bulk Modulus (GPa) = 16.73200 45.08482 30.90841
# Shear Modulus (GPa) = 25.12546 44.96222 35.04384
#
# Velocity S-wave (km/s) = 3.06746 4.10341 3.62266
# Velocity P-wave (km/s) = 4.33725 6.27173 5.39195
#
# Compressibility (1/GPa) = 0.05976572
#
# Stress axis : x y z
#
# Youngs Moduli (GPa) = 34.74240 93.29016 76.07533
#
# Poissons Ratio (x) = 0.09535 -0.29917
# Poissons Ratio (y) = 0.03551 -0.04935
# Poissons Ratio (z) = -0.13663 -0.06051
#
# Static dielectric constant tensor:
#      x y z
#    x 2.860660 0.446800 -0.299040 
#    y 0.446800 2.733450 -0.229200 
#    z -0.299040 -0.229200 2.299570 
# 
# From -- ./inp_files/398117.got.cif
#   From: 2010.05.17/outbox.cif.g08.bks.cpg/sg2_200_cif.got.tgz:398117.got - 2010.06.03 11:33:40.
