data_PCOD9059966
_publ_section_title
;
Structure prediction by ZEFSAII (Michael W. Deem and Ramdas Pophale) SiO2 
 PCOD9059966
Probable space group: P -1
;
_chemical_formula_sum "Si O2"
_cell_formula_units_Z 12
_cell_length_a 15.537573
_cell_length_b 15.144692
_cell_length_c 9.602911
_cell_angle_alpha 133.285606
_cell_angle_beta 133.601623
_cell_angle_gamma 18.830599
_cell_volume 522.906360
_symmetry_space_group_name_H-M "P -1"
_symmetry_group_IT_number 2
_symmetry_cell_setting 'triclinic'
loop_
_space_group_symop_operation_xyz
x,y,z
-x,-y,-z
loop_
_atom_site_type_symbol
_atom_site_label
_atom_site_fract_x
_atom_site_fract_y
_atom_site_fract_z
Si Si1 0.785192 0.800089 0.096096
Si Si2 0.592115 0.109073 0.941253
Si Si3 0.213914 0.699855 0.864180
Si Si4 0.055853 0.586643 0.712348
Si Si5 0.592805 0.280130 0.345869
Si Si6 0.903131 0.285243 0.553566
O O1 0.897605 0.783104 0.324851
O O2 0.000000 0.500000 0.000000
O O3 0.500000 0.000000 0.000000
O O4 0.749875 0.909003 0.033434
O O5 0.284034 0.355454 0.835698
O O6 0.582470 0.254942 0.144564
O O7 0.772123 0.901324 0.789678
O O8 0.175936 0.596730 0.775175
O O9 0.186747 0.697397 0.667107
O O10 0.500000 0.500000 0.000000
O O11 0.000000 0.000000 0.000000
O O12 0.000000 0.500000 0.500000
O O13 0.500000 0.500000 0.500000
O O14 0.352292 0.435161 0.335694
O O15 0.887932 0.989883 0.425557
#
# Coordination Sequence:
#
# PCOD9059966 Si02
#       6
#     2   2   2   2   2   2
#     4  11  23  42  72 101 138 183 231 309 361 425
#     4  11  25  45  72 107 140 186 248 295 374 431
#     4  12  29  49  76 106 148 201 247 299 361 439
#     4  12  28  50  75 107 148 199 243 303 360 440
#     4  11  24  43  75 101 141 184 233 313 363 428
#     4  11  25  45  67 109 137 186 248 292 370 431
#
# _framework density 22.948658999999999
#
# number of rings (size 3 to 8) (size 9 to 14) (size 15 to 20)
#    0.000    0.667    0.000    8.000   11.667    0.000 
#    0.000    0.000    0.000    0.000    0.000    0.000 
#    0.000    0.000    0.000    0.000    0.000    0.000 
#
# Total GULP energy -66898.009122 kJ/mol
# GULP energy per Si atom -5574.834093 kJ/mol
# Density = 2.289643 g / cm^3
# Si number density = 22.948659 Si / 1000 Ang^3
#
#
#
# Elastic Constant Matrix: (Units=GPa)
#
#
# Indices 1 2 3 4 5 6 
#
# 1 77.9485 17.4814 50.7319 0.6185 33.5550 -8.8929
# 2 17.4814 158.4725 65.6530 -5.0029 13.2163 -16.0373
# 3 50.7319 65.6530 207.9230 -8.7121 34.0331 -3.2384
# 4 0.6185 -5.0029 -8.7121 50.2889 0.7589 1.4493
# 5 33.5550 13.2163 34.0331 0.7589 35.5783 3.3735
# 6 -8.8929 -16.0373 -3.2384 1.4493 3.3735 37.2321
#
#
#
# Elastic Compliance Matrix: (Units=1/GPa)
#
#
# Indices 1 2 3 4 5 6 
#
# 1 0.024668 0.001003 -0.002656 -0.000567 -0.021852 0.008095
# 2 0.001003 0.007672 -0.002281 0.000284 -0.001953 0.003512
# 3 -0.002656 -0.002281 0.006700 0.001035 -0.003003 -0.000802
# 4 -0.000567 0.000284 0.001035 0.020132 -0.000931 -0.000622
# 5 -0.021852 -0.001953 -0.003003 -0.000931 0.053388 -0.011123
# 6 0.008095 0.003512 -0.000802 -0.000622 -0.011123 0.031267
#
#
# Mechanical properties :
#
#
# Convention : Reuss Voigt Hill
#
# Bulk Modulus (GPa) = 32.08103 79.11963 55.60033
# Shear Modulus (GPa) = 30.84800 45.31837 38.08319
#
# Velocity S-wave (km/s) = 3.67034 4.44866 4.07811
# Velocity P-wave (km/s) = 5.65435 7.80635 6.81582
#
# Compressibility (1/GPa) = 0.03117107
#
# Stress axis : x y z
#
# Youngs Moduli (GPa) = 40.53894 130.34835 149.25043
#
# Poissons Ratio (x) = -0.13075 0.39647
# Poissons Ratio (y) = -0.04066 0.34042
# Poissons Ratio (z) = 0.10769 0.29731
#
# Static dielectric constant tensor:
#      x y z
#    x 2.105250 -0.003450 0.081800 
#    y -0.003450 1.827740 0.051510 
#    z 0.081800 0.051510 1.909630 
# 
# From -- ./inp_files/314564.got.cif
#   From: 2010.05.17/outbox.cif.g08.bks.cpg/sg2_158_cif.got.tgz:314564.got - 2010.06.03 11:33:40.
