data_PCOD9059346
_publ_section_title
;
Structure prediction by ZEFSAII (Michael W. Deem and Ramdas Pophale) SiO2 
 PCOD9059346
Probable space group: P -1
;
_chemical_formula_sum "Si O2"
_cell_formula_units_Z 12
_cell_length_a 12.027776
_cell_length_b 9.185446
_cell_length_c 9.578415
_cell_angle_alpha 43.124351
_cell_angle_beta 141.108551
_cell_angle_gamma 123.780197
_cell_volume 453.996877
_symmetry_space_group_name_H-M "P -1"
_symmetry_group_IT_number 2
_symmetry_cell_setting 'triclinic'
loop_
_space_group_symop_operation_xyz
x,y,z
-x,-y,-z
loop_
_atom_site_type_symbol
_atom_site_label
_atom_site_fract_x
_atom_site_fract_y
_atom_site_fract_z
Si Si1 0.059222 0.276755 0.784023
Si Si2 0.717810 0.774018 0.687407
Si Si3 0.781871 0.881820 0.221638
Si Si4 0.004898 0.737041 0.780481
Si Si5 0.479044 0.573683 0.157319
Si Si6 0.328949 0.785144 0.596425
O O1 0.194280 0.165191 0.885401
O O2 0.000000 0.500000 0.500000
O O3 0.871096 0.165851 0.683442
O O4 0.150946 0.289842 0.012752
O O5 0.839744 0.843767 0.630293
O O6 0.610218 0.558966 0.714343
O O7 0.598584 0.979014 0.472400
O O8 0.944494 0.760488 0.546138
O O9 0.608227 0.764370 0.186148
O O10 0.820627 0.128596 0.115442
O O11 0.000000 0.500000 0.000000
O O12 0.585500 0.385417 0.307353
O O13 0.345212 0.671861 0.842332
#
# Coordination Sequence:
#
# PCOD9059346 Si02
#       6
#     2   2   2   2   2   2
#     4  12  20  41  75  97 132 173 226 271 326 393
#     4  12  25  42  71 104 130 175 224 275 325 395
#     4  11  25  45  66  96 131 179 217 273 331 388
#     4  11  27  45  68  94 130 177 231 270 321 394
#     4  11  24  41  67 101 142 169 208 282 338 392
#     4  11  23  41  66 106 139 169 216 272 339 393
#
# _framework density 26.431899000000001
#
# number of rings (size 3 to 8) (size 9 to 14) (size 15 to 20)
#    0.000    0.667    5.000    3.000    0.000    2.000 
#    0.000    1.667    0.000    0.000    0.000    0.000 
#    0.000    0.000    0.000    0.000    0.000    0.000 
#
# Total GULP energy -67191.648599 kJ/mol
# GULP energy per Si atom -5599.304050 kJ/mol
# Density = 2.637174 g / cm^3
# Si number density = 26.431899 Si / 1000 Ang^3
#
#
#
# Elastic Constant Matrix: (Units=GPa)
#
#
# Indices 1 2 3 4 5 6 
#
# 1 76.6819 38.6852 17.2602 -1.2463 -4.9659 17.1917
# 2 38.6852 165.1182 40.5062 -22.3035 -2.6756 44.5989
# 3 17.2602 40.5062 82.7447 -13.3107 4.5487 3.6928
# 4 -1.2463 -22.3035 -13.3107 53.6225 -0.2553 -7.5614
# 5 -4.9659 -2.6756 4.5487 -0.2553 35.0426 -7.1726
# 6 17.1917 44.5989 3.6928 -7.5614 -7.1726 54.1648
#
#
#
# Elastic Compliance Matrix: (Units=1/GPa)
#
#
# Indices 1 2 3 4 5 6 
#
# 1 0.015516 -0.002564 -0.002219 -0.001623 0.001735 -0.002659
# 2 -0.002564 0.009575 -0.003488 0.002123 -0.000516 -0.006604
# 3 -0.002219 -0.003488 0.014644 0.002501 -0.001916 0.002673
# 4 -0.001623 0.002123 0.002501 0.020318 0.000050 0.001439
# 5 0.001735 -0.000516 -0.001916 0.000050 0.029802 0.003958
# 6 -0.002659 -0.006604 0.002673 0.001439 0.003958 0.025287
#
#
# Mechanical properties :
#
#
# Convention : Reuss Voigt Hill
#
# Bulk Modulus (GPa) = 43.11599 57.49421 50.30510
# Shear Modulus (GPa) = 35.86415 43.77219 39.81817
#
# Velocity S-wave (km/s) = 3.68754 4.07386 3.88550
# Velocity P-wave (km/s) = 5.87181 6.62778 6.26121
#
# Compressibility (1/GPa) = 0.02319325
#
# Stress axis : x y z
#
# Youngs Moduli (GPa) = 64.44984 104.44131 68.28739
#
# Poissons Ratio (x) = 0.26774 0.15156
# Poissons Ratio (y) = 0.16522 0.23817
# Poissons Ratio (z) = 0.14304 0.36426
#
# Static dielectric constant tensor:
#      x y z
#    x 2.130260 0.079970 0.045670 
#    y 0.079970 2.219020 -0.030510 
#    z 0.045670 -0.030510 1.996300 
# 
# From -- ./inp_files/236968.got.cif
#   From: 2010.05.17/outbox.cif.g08.bks.cpg/sg2_119_cif.got.tgz:236968.got - 2010.06.03 11:33:40.
