data_PCOD9059918
_publ_section_title
;
Structure prediction by ZEFSAII (Michael W. Deem and Ramdas Pophale) SiO2 
 PCOD9059918
Probable space group: P -1
;
_chemical_formula_sum "Si O2"
_cell_formula_units_Z 10
_cell_length_a 14.968789
_cell_length_b 8.887537
_cell_length_c 13.669760
_cell_angle_alpha 45.388210
_cell_angle_beta 159.830730
_cell_angle_gamma 135.656666
_cell_volume 434.629247
_symmetry_space_group_name_H-M "P -1"
_symmetry_group_IT_number 2
_symmetry_cell_setting 'triclinic'
loop_
_space_group_symop_operation_xyz
x,y,z
-x,-y,-z
loop_
_atom_site_type_symbol
_atom_site_label
_atom_site_fract_x
_atom_site_fract_y
_atom_site_fract_z
Si Si1 0.923692 0.142927 0.114743
Si Si2 0.344198 0.554718 0.407270
Si Si3 0.286968 0.090545 0.804254
Si Si4 0.503783 0.405082 0.241893
Si Si5 0.938030 0.124829 0.780324
O O1 0.090747 0.353192 0.247684
O O2 0.744059 0.997911 0.076768
O O3 0.113800 0.028416 0.298549
O O4 0.756363 0.232135 0.819154
O O5 0.500000 0.500000 0.500000
O O6 0.517574 0.577672 0.670782
O O7 0.373561 0.351074 0.778053
O O8 0.000000 0.000000 0.500000
O O9 0.500000 0.000000 0.000000
O O10 0.704530 0.248713 0.501153
O O11 0.209958 0.298203 0.952808
O O12 0.000000 0.000000 0.000000
#
# Coordination Sequence:
#
# PCOD9059918 Si02
#       5
#     2   2   2   2   2
#     4  11  26  42  71 101 139 184 232 289 344 410
#     4  11  23  42  71 103 131 185 244 281 338 415
#     4  12  26  47  71 104 140 184 234 291 345 406
#     4  12  26  45  72 100 144 182 232 286 346 419
#     4  12  26  46  70 106 143 181 229 290 354 407
#
# _framework density 23.008116000000001
#
# number of rings (size 3 to 8) (size 9 to 14) (size 15 to 20)
#    0.000    0.400    4.000    4.200    5.600    1.600 
#    0.000    0.000    0.000    0.000    0.000    0.000 
#    0.000    0.000    0.000    0.000    0.000    0.000 
#
# Total GULP energy -56026.723661 kJ/mol
# GULP energy per Si atom -5602.672366 kJ/mol
# Density = 2.295575 g / cm^3
# Si number density = 23.008116 Si / 1000 Ang^3
#
#
#
# Elastic Constant Matrix: (Units=GPa)
#
#
# Indices 1 2 3 4 5 6 
#
# 1 123.2949 36.1474 12.0306 -21.8802 20.4348 4.9946
# 2 36.1474 131.1614 29.7263 -2.6087 3.6727 15.4072
# 3 12.0306 29.7263 73.2218 6.7719 28.8900 -1.7694
# 4 -21.8802 -2.6087 6.7719 39.6298 -9.9385 3.9181
# 5 20.4348 3.6727 28.8900 -9.9385 43.6446 -2.5422
# 6 4.9946 15.4072 -1.7694 3.9181 -2.5422 31.6662
#
#
#
# Elastic Compliance Matrix: (Units=1/GPa)
#
#
# Indices 1 2 3 4 5 6 
#
# 1 0.010352 -0.002614 0.000471 0.004590 -0.003964 -0.001221
# 2 -0.002614 0.010074 -0.005578 0.001683 0.004180 -0.004674
# 3 0.000471 -0.005578 0.023481 -0.008765 -0.017076 0.003665
# 4 0.004590 0.001683 -0.008765 0.032554 0.010621 -0.005208
# 5 -0.003964 0.004180 -0.017076 0.010621 0.038103 -0.000618
# 6 -0.001221 -0.004674 0.003665 -0.005208 -0.000618 0.034846
#
#
# Mechanical properties :
#
#
# Convention : Reuss Voigt Hill
#
# Bulk Modulus (GPa) = 35.13162 53.72073 44.42618
# Shear Modulus (GPa) = 28.67935 39.63973 34.15954
#
# Velocity S-wave (km/s) = 3.53439 4.15524 3.85733
# Velocity P-wave (km/s) = 5.65317 6.81327 6.26015
#
# Compressibility (1/GPa) = 0.02846439
#
# Stress axis : x y z
#
# Youngs Moduli (GPa) = 96.59928 99.26280 42.58739
#
# Poissons Ratio (x) = 0.25946 -0.02004
# Poissons Ratio (y) = 0.25250 0.23756
# Poissons Ratio (z) = -0.04545 0.55370
#
# Static dielectric constant tensor:
#      x y z
#    x 1.825600 -0.002730 -0.005060 
#    y -0.002730 1.927830 0.030370 
#    z -0.005060 0.030370 1.915460 
# 
# From -- ./inp_files/15381.got.cif
#   From: 2010.05.17/outbox.cif.g08.bks.cpg/sg2_8_cif.got.tgz:15381.got - 2010.06.03 11:33:40.
