data_PCOD9059598
_publ_section_title
;
Structure prediction by ZEFSAII (Michael W. Deem and Ramdas Pophale) SiO2 
 PCOD9059598
Probable space group: P -1
;
_chemical_formula_sum "Si O2"
_cell_formula_units_Z 13
_cell_length_a 16.471848
_cell_length_b 9.596796
_cell_length_c 8.683295
_cell_angle_alpha 136.837598
_cell_angle_beta 142.264322
_cell_angle_gamma 36.357432
_cell_volume 481.548239
_symmetry_space_group_name_H-M "P -1"
_symmetry_group_IT_number 2
_symmetry_cell_setting 'triclinic'
loop_
_space_group_symop_operation_xyz
x,y,z
-x,-y,-z
loop_
_atom_site_type_symbol
_atom_site_label
_atom_site_fract_x
_atom_site_fract_y
_atom_site_fract_z
Si Si1 0.773338 0.219019 0.932193
Si Si2 0.000000 0.500000 0.000000
Si Si3 0.901310 0.503201 0.207908
Si Si4 0.146173 0.031407 0.842323
Si Si5 0.421101 0.615078 0.713824
Si Si6 0.640604 0.015496 0.340512
Si Si7 0.604573 0.843908 0.678566
O O1 0.864559 0.088578 0.117827
O O2 0.602923 0.457118 0.916003
O O3 0.738492 0.039413 0.644878
O O4 0.857358 0.308423 0.022113
O O5 0.030604 0.537994 0.892284
O O6 0.016782 0.745691 0.281038
O O7 0.000000 0.500000 0.500000
O O8 0.746368 0.775407 0.207608
O O9 0.218504 0.210427 0.116997
O O10 0.290111 0.825482 0.794601
O O11 0.414288 0.745797 0.650124
O O12 0.382377 0.407911 0.483062
O O13 0.501188 0.010553 0.214045
O O14 0.500000 0.000000 0.500000
#
# Coordination Sequence:
#
# PCOD9059598 Si02
#       7
#     2   1   2   2   2   2   2
#     4  11  25  46  76 107 147 186 244 309 373 441
#     4  12  30  50  72 106 144 200 260 298 350 444
#     4  12  29  52  75 103 149 203 251 304 367 433
#     4  12  25  46  70 107 147 192 242 297 365 440
#     4  11  24  42  74 115 143 186 233 305 381 432
#     4  11  24  45  73 112 145 189 237 307 376 435
#     4  11  23  41  74 109 148 178 238 302 370 445
#
# _framework density 26.996258999999998
#
# number of rings (size 3 to 8) (size 9 to 14) (size 15 to 20)
#    0.000    0.615    4.615    4.154    6.462    3.692 
#    0.000    2.308    0.000    0.000    0.000    0.000 
#    0.000    0.000    0.000    0.000    0.000    0.000 
#
# Total GULP energy -72737.363650 kJ/mol
# GULP energy per Si atom -5595.181819 kJ/mol
# Density = 2.693481 g / cm^3
# Si number density = 26.996259 Si / 1000 Ang^3
#
#
#
# Elastic Constant Matrix: (Units=GPa)
#
#
# Indices 1 2 3 4 5 6 
#
# 1 247.2254 86.3010 48.6073 11.5569 -9.4025 0.0753
# 2 86.3010 123.0691 5.1226 11.3180 -19.1895 -8.5636
# 3 48.6073 5.1226 71.4107 -14.1960 -1.7341 -7.9116
# 4 11.5569 11.3180 -14.1960 52.4598 -8.9017 -16.0418
# 5 -9.4025 -19.1895 -1.7341 -8.9017 44.5008 5.7704
# 6 0.0753 -8.5636 -7.9116 -16.0418 5.7704 63.1012
#
#
#
# Elastic Compliance Matrix: (Units=1/GPa)
#
#
# Indices 1 2 3 4 5 6 
#
# 1 0.006681 -0.004527 -0.004956 -0.002559 -0.001012 -0.001802
# 2 -0.004527 0.011922 0.002575 0.000329 0.004137 0.001651
# 3 -0.004956 0.002575 0.019200 0.007394 0.001709 0.004486
# 4 -0.002559 0.000329 0.007394 0.024290 0.003867 0.006796
# 5 -0.001012 0.004137 0.001709 0.003867 0.024949 -0.000522
# 6 -0.001802 0.001651 0.004486 0.006796 -0.000522 0.018412
#
#
# Mechanical properties :
#
#
# Convention : Reuss Voigt Hill
#
# Bulk Modulus (GPa) = 41.68693 80.19634 60.94163
# Shear Modulus (GPa) = 39.28761 52.12397 45.70579
#
# Velocity S-wave (km/s) = 3.81898 4.39884 4.11912
# Velocity P-wave (km/s) = 5.90943 7.45457 6.72652
#
# Compressibility (1/GPa) = 0.02398833
#
# Stress axis : x y z
#
# Youngs Moduli (GPa) = 149.67666 83.87694 52.08211
#
# Poissons Ratio (x) = 0.37967 0.25811
# Poissons Ratio (y) = 0.67752 -0.13409
# Poissons Ratio (z) = 0.74177 -0.21595
#
# Static dielectric constant tensor:
#      x y z
#    x 2.077420 -0.318690 0.068190 
#    y -0.318690 2.918920 0.060270 
#    z 0.068190 0.060270 2.338790 
# 
# From -- ./inp_files/198857.got.cif
#   From: 2010.05.17/outbox.cif.g08.bks.cpg/sg2_100_cif.got.tgz:198857.got - 2010.06.03 11:33:40.
