data_PCOD9059166
_publ_section_title
;
Structure prediction by ZEFSAII (Michael W. Deem and Ramdas Pophale) SiO2 
 PCOD9059166
Probable space group: P -1
;
_chemical_formula_sum "Si O2"
_cell_formula_units_Z 16
_cell_length_a 11.399050
_cell_length_b 6.375702
_cell_length_c 13.439742
_cell_angle_alpha 63.864883
_cell_angle_beta 117.584497
_cell_angle_gamma 82.099818
_cell_volume 702.034747
_symmetry_space_group_name_H-M "P -1"
_symmetry_group_IT_number 2
_symmetry_cell_setting 'triclinic'
loop_
_space_group_symop_operation_xyz
x,y,z
-x,-y,-z
loop_
_atom_site_type_symbol
_atom_site_label
_atom_site_fract_x
_atom_site_fract_y
_atom_site_fract_z
Si Si1 0.909365 0.847226 0.027138
Si Si2 0.866683 0.580338 0.358130
Si Si3 0.605600 0.950751 0.455243
Si Si4 0.402654 0.941688 0.200527
Si Si5 0.386386 0.523634 0.714515
Si Si6 0.133836 0.925090 0.818963
Si Si7 0.622042 0.597694 0.039189
Si Si8 0.055789 0.305450 0.293239
O O1 0.005495 0.543138 0.145403
O O2 0.857925 0.967827 0.091529
O O3 0.771910 0.922029 0.883403
O O4 0.000000 0.000000 0.000000
O O5 0.751135 0.499399 0.384745
O O6 0.000000 0.500000 0.500000
O O7 0.945626 0.423567 0.320353
O O8 0.813709 0.890321 0.262372
O O9 0.620541 0.196857 0.359916
O O10 0.500000 0.000000 0.500000
O O11 0.510468 0.886968 0.347449
O O12 0.775489 0.774865 0.590885
O O13 0.456577 0.667919 0.224916
O O14 0.423490 0.132474 0.088408
O O15 0.360093 0.415368 0.832973
O O16 0.239300 0.623493 0.912999
O O17 0.981342 0.922859 0.720919
O O18 0.500000 0.500000 0.000000
#
# Coordination Sequence:
#
# PCOD9059166 Si02
#       8
#     2   2   2   2   2   2   2   2
#     4  11  27  46  75 103 137 195 246 299 351 420
#     4  11  23  40  69 105 142 184 227 287 362 430
#     4  12  31  49  72 104 147 202 245 289 355 439
#     4  12  26  48  71 109 147 185 243 302 366 424
#     4  12  25  44  72 110 145 189 234 299 369 426
#     4  11  23  43  69 106 143 176 238 300 359 425
#     4  12  21  41  73 106 141 178 230 303 366 421
#     4  11  25  48  71 106 145 187 239 294 361 428
#
# _framework density 22.790893000000001
#
# number of rings (size 3 to 8) (size 9 to 14) (size 15 to 20)
#    0.000    0.500    3.750    4.125    5.250    3.000 
#    0.000    0.000    0.000    0.000    0.000    0.000 
#    0.000    0.000    0.000    0.000    0.000    0.000 
#
# Total GULP energy -89220.755023 kJ/mol
# GULP energy per Si atom -5576.297189 kJ/mol
# Density = 2.273902 g / cm^3
# Si number density = 22.790893 Si / 1000 Ang^3
#
#
#
# Elastic Constant Matrix: (Units=GPa)
#
#
# Indices 1 2 3 4 5 6 
#
# 1 91.4318 3.6814 30.5725 4.6937 18.4996 19.9363
# 2 3.6814 49.0238 7.7673 1.8613 13.7203 7.3248
# 3 30.5725 7.7673 61.5126 8.7776 37.4640 -7.7401
# 4 4.6937 1.8613 8.7776 27.7912 3.9183 5.3494
# 5 18.4996 13.7203 37.4640 3.9183 41.1218 5.5340
# 6 19.9363 7.3248 -7.7401 5.3494 5.5340 39.5228
#
#
#
# Elastic Compliance Matrix: (Units=1/GPa)
#
#
# Indices 1 2 3 4 5 6 
#
# 1 0.017306 0.000940 -0.015429 0.003424 0.007438 -0.013430
# 2 0.000940 0.023156 0.002281 -0.000495 -0.009792 -0.002881
# 3 -0.015429 0.002281 0.060807 -0.014963 -0.051631 0.028523
# 4 0.003424 -0.000495 -0.014963 0.040981 0.009899 -0.011498
# 5 0.007438 -0.009792 -0.051631 0.009899 0.073521 -0.023683
# 6 -0.013430 -0.002881 0.028523 -0.011498 -0.023683 0.043069
#
#
# Mechanical properties :
#
#
# Convention : Reuss Voigt Hill
#
# Bulk Modulus (GPa) = 13.01198 31.77895 22.39546
# Shear Modulus (GPa) = 16.18792 32.35029 24.26911
#
# Velocity S-wave (km/s) = 2.66800 3.77163 3.26676
# Velocity P-wave (km/s) = 3.90034 5.73942 4.90681
#
# Compressibility (1/GPa) = 0.07685226
#
# Stress axis : x y z
#
# Youngs Moduli (GPa) = 57.78411 43.18535 16.44557
#
# Poissons Ratio (x) = -0.04058 0.25373
# Poissons Ratio (y) = -0.05430 -0.03751
# Poissons Ratio (z) = 0.89153 -0.09849
#
# Static dielectric constant tensor:
#      x y z
#    x 1.772050 -0.074690 0.048970 
#    y -0.074690 1.842070 0.086360 
#    z 0.048970 0.086360 1.611670 
# 
# From -- ./inp_files/468365.got.cif
#   From: 2010.05.17/outbox.cif.g08.bks.cpg/sg2_235_cif.got.tgz:468365.got - 2010.06.03 11:33:40.
