data_PCOD9059846
_publ_section_title
;
Structure prediction by ZEFSAII (Michael W. Deem and Ramdas Pophale) SiO2 
 PCOD9059846
Probable space group: P -1
;
_chemical_formula_sum "Si O2"
_cell_formula_units_Z 16
_cell_length_a 11.300670
_cell_length_b 12.319512
_cell_length_c 14.126420
_cell_angle_alpha 120.636496
_cell_angle_beta 30.010950
_cell_angle_gamma 100.963640
_cell_volume 687.374757
_symmetry_space_group_name_H-M "P -1"
_symmetry_group_IT_number 2
_symmetry_cell_setting 'triclinic'
loop_
_space_group_symop_operation_xyz
x,y,z
-x,-y,-z
loop_
_atom_site_type_symbol
_atom_site_label
_atom_site_fract_x
_atom_site_fract_y
_atom_site_fract_z
Si Si1 0.388270 0.373704 0.063093
Si Si2 0.570289 0.915128 0.137705
Si Si3 0.932696 0.719567 0.136117
Si Si4 0.754992 0.992356 0.874663
Si Si5 0.701229 0.356645 0.660736
Si Si6 0.932972 0.177834 0.729346
Si Si7 0.514023 0.622795 0.389620
Si Si8 0.029845 0.134824 0.004446
O O1 0.307044 0.252152 0.066819
O O2 0.437809 0.395307 0.929231
O O3 0.703968 0.287284 0.857301
O O4 0.201687 0.537678 0.318274
O O5 0.223353 0.023674 0.418798
O O6 0.685073 0.997852 0.035619
O O7 0.686942 0.894382 0.152907
O O8 0.960406 0.747807 0.239756
O O9 0.649896 0.719587 0.320086
O O10 0.216934 0.547006 0.839291
O O11 0.937411 0.838437 0.116055
O O12 0.054225 0.825185 0.577141
O O13 0.773172 0.126152 0.883024
O O14 0.500000 0.000000 0.000000
O O15 0.605733 0.391378 0.633727
O O16 0.254024 0.710985 0.684006
O O17 0.000000 0.000000 0.000000
#
# Coordination Sequence:
#
# PCOD9059846 Si02
#       8
#     2   2   2   2   2   2   2   2
#     4  11  23  42  69  99 135 178 225 271 342 401
#     4  12  24  41  69  98 134 180 220 281 337 401
#     4  11  26  44  74  98 134 188 225 283 350 389
#     4  12  24  42  68  98 138 176 220 273 342 400
#     4  11  23  44  70  99 136 178 223 280 333 409
#     4  12  24  45  66 101 138 175 225 280 336 409
#     4  11  24  49  69  98 140 177 233 284 335 412
#     4  12  26  45  71 103 135 176 235 282 341 409
#
# _framework density 23.276966999999999
#
# number of rings (size 3 to 8) (size 9 to 14) (size 15 to 20)
#    0.000    0.500    5.000    3.750    0.000    1.500 
#    2.250    0.000    0.000    0.000    0.000    0.000 
#    0.000    0.000    0.000    0.000    0.000    0.000 
#
# Total GULP energy -89561.543422 kJ/mol
# GULP energy per Si atom -5597.596464 kJ/mol
# Density = 2.322399 g / cm^3
# Si number density = 23.276967 Si / 1000 Ang^3
#
#
#
# Elastic Constant Matrix: (Units=GPa)
#
#
# Indices 1 2 3 4 5 6 
#
# 1 76.5119 -2.9781 -2.3937 -3.3639 2.9112 -2.3113
# 2 -2.9781 85.5677 -11.7729 -7.3804 -1.3594 -7.6264
# 3 -2.3937 -11.7729 39.8623 -2.5474 -5.3686 -8.4932
# 4 -3.3639 -7.3804 -2.5474 24.6352 -6.1569 2.3610
# 5 2.9112 -1.3594 -5.3686 -6.1569 28.8955 -1.9536
# 6 -2.3113 -7.6264 -8.4932 2.3610 -1.9536 32.8987
#
#
#
# Elastic Compliance Matrix: (Units=1/GPa)
#
#
# Indices 1 2 3 4 5 6 
#
# 1 0.013299 0.000941 0.001421 0.001987 -0.000517 0.001346
# 2 0.000941 0.013378 0.005676 0.005038 0.002963 0.004447
# 3 0.001421 0.005676 0.030235 0.006048 0.007655 0.009242
# 4 0.001987 0.005038 0.006048 0.045703 0.010915 0.000237
# 5 -0.000517 0.002963 0.007655 0.010915 0.038827 0.004149
# 6 0.001346 0.004447 0.009242 0.000237 0.004149 0.034137
#
#
# Mechanical properties :
#
#
# Convention : Reuss Voigt Hill
#
# Bulk Modulus (GPa) = 13.70084 18.62808 16.16446
# Shear Modulus (GPa) = 27.19871 31.89167 29.54519
#
# Velocity S-wave (km/s) = 3.42201 3.70550 3.56657
# Velocity P-wave (km/s) = 4.63814 5.13106 4.89081
#
# Compressibility (1/GPa) = 0.07298821
#
# Stress axis : x y z
#
# Youngs Moduli (GPa) = 75.19567 74.74760 33.07470
#
# Poissons Ratio (x) = -0.07037 -0.04699
# Poissons Ratio (y) = -0.07079 -0.18774
# Poissons Ratio (z) = -0.10683 -0.42429
#
# Static dielectric constant tensor:
#      x y z
#    x 1.878740 0.015590 0.016820 
#    y 0.015590 1.889260 0.009340 
#    z 0.016820 0.009340 1.874440 
# 
# From -- ./inp_files/272441.got.cif
#   From: 2010.05.17/outbox.cif.g08.bks.cpg/sg2_137_cif.got.tgz:272441.got - 2010.06.03 11:33:40.
