data_PCOD9059429
_publ_section_title
;
Structure prediction by ZEFSAII (Michael W. Deem and Ramdas Pophale) SiO2 
 PCOD9059429
Probable space group: P -1
;
_chemical_formula_sum "Si O2"
_cell_formula_units_Z 16
_cell_length_a 5.133550
_cell_length_b 20.637568
_cell_length_c 6.138146
_cell_angle_alpha 97.659785
_cell_angle_beta 81.459184
_cell_angle_gamma 96.823663
_cell_volume 634.088664
_symmetry_space_group_name_H-M "P -1"
_symmetry_group_IT_number 2
_symmetry_cell_setting 'triclinic'
loop_
_space_group_symop_operation_xyz
x,y,z
-x,-y,-z
loop_
_atom_site_type_symbol
_atom_site_label
_atom_site_fract_x
_atom_site_fract_y
_atom_site_fract_z
Si Si1 0.215508 0.180478 0.274800
Si Si2 0.453222 0.396899 0.825969
Si Si3 0.230915 0.523516 0.815261
Si Si4 0.134113 0.638330 0.588906
Si Si5 0.282405 0.005606 0.848788
Si Si6 0.238695 0.762501 0.927691
Si Si7 0.266451 0.054278 0.471072
Si Si8 0.879613 0.718865 0.328070
O O1 0.476547 0.198069 0.109151
O O2 0.185199 0.106861 0.333258
O O3 0.253746 0.223078 0.513686
O O4 0.967101 0.200361 0.176027
O O5 0.351304 0.455727 0.719740
O O6 0.680979 0.369704 0.645320
O O7 0.251933 0.332494 0.856056
O O8 0.553035 0.430186 0.053405
O O9 0.106566 0.567178 0.669981
O O10 0.000000 0.500000 0.000000
O O11 0.246987 0.691751 0.776133
O O12 0.900030 0.670777 0.512947
O O13 0.430374 0.958547 0.640925
O O14 0.294162 0.071547 0.731159
O O15 0.500000 0.000000 0.000000
O O16 0.000000 0.000000 0.000000
O O17 0.135166 0.751403 0.181838
O O18 0.000000 0.000000 0.500000
#
# Coordination Sequence:
#
# PCOD9059429 Si02
#       8
#     2   2   2   2   2   2   2   2
#     4  11  28  47  75 109 149 193 246 308 366 434
#     4  11  23  41  68  95 136 184 237 300 367 435
#     4  11  25  41  64 102 137 182 237 296 376 438
#     4  11  23  43  68  96 140 185 239 299 370 429
#     4  11  24  44  74 108 150 200 237 298 372 434
#     4  11  26  46  74 105 146 193 250 302 370 439
#     4  11  26  47  78 114 156 194 256 307 372 453
#     4  11  26  47  72  99 141 191 246 300 367 435
#
# _framework density 25.233062
#
# number of rings (size 3 to 8) (size 9 to 14) (size 15 to 20)
#    0.000    1.000    2.500    2.625    7.000    6.000 
#    0.000    0.000    0.000    0.000    0.000    0.000 
#    0.000    0.000    0.000    0.000    0.000    0.000 
#
# Total GULP energy -89298.413812 kJ/mol
# GULP energy per Si atom -5581.150863 kJ/mol
# Density = 2.517563 g / cm^3
# Si number density = 25.233062 Si / 1000 Ang^3
#
#
#
# Elastic Constant Matrix: (Units=GPa)
#
#
# Indices 1 2 3 4 5 6 
#
# 1 120.2637 51.3762 21.4174 0.2591 -21.5780 -12.1747
# 2 51.3762 115.2313 31.5689 -22.8062 -10.1647 -1.0756
# 3 21.4174 31.5689 106.7678 -17.3023 -19.0676 0.3985
# 4 0.2591 -22.8062 -17.3023 33.9433 1.9592 11.6363
# 5 -21.5780 -10.1647 -19.0676 1.9592 40.4502 -7.7029
# 6 -12.1747 -1.0756 0.3985 11.6363 -7.7029 34.9345
#
#
#
# Elastic Compliance Matrix: (Units=1/GPa)
#
#
# Indices 1 2 3 4 5 6 
#
# 1 0.013622 -0.006823 -0.000846 -0.008637 0.007291 0.009031
# 2 -0.006823 0.014006 -0.001413 0.010991 -0.002488 -0.006140
# 3 -0.000846 -0.001413 0.011529 0.005129 0.004139 -0.001266
# 4 -0.008637 0.010991 0.005129 0.046486 -0.005373 -0.019399
# 5 0.007291 -0.002488 0.004139 -0.005373 0.032357 0.011341
# 6 0.009031 -0.006140 -0.001266 -0.019399 0.011341 0.040560
#
#
# Mechanical properties :
#
#
# Convention : Reuss Voigt Hill
#
# Bulk Modulus (GPa) = 47.63810 61.22087 54.42948
# Shear Modulus (GPa) = 27.21520 37.72562 32.47041
#
# Velocity S-wave (km/s) = 3.28770 3.87083 3.59112
# Velocity P-wave (km/s) = 5.77340 6.65527 6.22996
#
# Compressibility (1/GPa) = 0.02099160
#
# Stress axis : x y z
#
# Youngs Moduli (GPa) = 73.41233 71.39821 86.74100
#
# Poissons Ratio (x) = 0.48717 0.07340
# Poissons Ratio (y) = 0.50092 0.12254
# Poissons Ratio (z) = 0.06212 0.10087
#
# Static dielectric constant tensor:
#      x y z
#    x 2.189600 -0.036250 0.059990 
#    y -0.036250 2.100250 -0.028410 
#    z 0.059990 -0.028410 2.067760 
# 
# From -- ./inp_files/10616.got.cif
#   From: 2010.05.17/outbox.cif.g08.bks.cpg/sg2_6_cif.got.tgz:10616.got - 2010.06.03 11:33:40.
