data_PCOD9059205
_publ_section_title
;
Structure prediction by ZEFSAII (Michael W. Deem and Ramdas Pophale) SiO2 
 PCOD9059205
Probable space group: P -1
;
_chemical_formula_sum "Si O2"
_cell_formula_units_Z 12
_cell_length_a 6.152041
_cell_length_b 11.348642
_cell_length_c 13.886776
_cell_angle_alpha 36.637754
_cell_angle_beta 58.567092
_cell_angle_gamma 62.451599
_cell_volume 491.820520
_symmetry_space_group_name_H-M "P -1"
_symmetry_group_IT_number 2
_symmetry_cell_setting 'triclinic'
loop_
_space_group_symop_operation_xyz
x,y,z
-x,-y,-z
loop_
_atom_site_type_symbol
_atom_site_label
_atom_site_fract_x
_atom_site_fract_y
_atom_site_fract_z
Si Si1 0.603451 0.830935 0.966975
Si Si2 0.379799 0.459066 0.354371
Si Si3 0.867244 0.211057 0.420684
Si Si4 0.183612 0.157223 0.893302
Si Si5 0.767233 0.587011 0.919772
Si Si6 0.176945 0.580690 0.518122
O O1 0.429308 0.651321 0.153588
O O2 0.826053 0.815072 0.006948
O O3 0.676826 0.784556 0.871389
O O4 0.456272 0.042628 0.879957
O O5 0.601530 0.294185 0.378218
O O6 0.374357 0.547469 0.406829
O O7 0.114152 0.362242 0.484986
O O8 0.787934 0.251018 0.522626
O O9 0.075632 0.361827 0.244220
O O10 0.000000 0.000000 0.500000
O O11 0.144041 0.366776 0.713658
O O12 0.000000 0.000000 0.000000
O O13 0.500000 0.500000 0.000000
O O14 0.000000 0.500000 0.000000
#
# Coordination Sequence:
#
# PCOD9059205 Si02
#       6
#     2   2   2   2   2   2
#     4  11  24  41  69 105 138 184 247 302 364 445
#     4  11  23  45  71 102 139 186 245 306 374 437
#     4  12  28  47  72 105 149 198 249 306 380 454
#     4  11  23  40  71 103 138 182 243 305 370 434
#     4  12  27  50  78 105 153 207 250 313 379 453
#     4  11  24  45  72 100 143 187 239 313 370 447
#
# _framework density 24.399145000000001
#
# number of rings (size 3 to 8) (size 9 to 14) (size 15 to 20)
#    0.000    0.667    5.000    1.500    4.667    2.000 
#    0.000    0.000    0.000    0.000    0.000    0.000 
#    0.000    0.000    0.000    0.000    0.000    0.000 
#
# Total GULP energy -66906.100524 kJ/mol
# GULP energy per Si atom -5575.508377 kJ/mol
# Density = 2.434361 g / cm^3
# Si number density = 24.399145 Si / 1000 Ang^3
#
#
#
# Elastic Constant Matrix: (Units=GPa)
#
#
# Indices 1 2 3 4 5 6 
#
# 1 93.2902 15.7506 15.1127 -5.8435 -24.6874 -10.4531
# 2 15.7506 173.1485 39.3866 -17.4950 7.8355 -16.5663
# 3 15.1127 39.3866 68.7538 2.1572 -9.1737 -12.3143
# 4 -5.8435 -17.4950 2.1572 49.5998 -2.1144 3.4679
# 5 -24.6874 7.8355 -9.1737 -2.1144 28.6424 2.8780
# 6 -10.4531 -16.5663 -12.3143 3.4679 2.8780 41.7907
#
#
#
# Elastic Compliance Matrix: (Units=1/GPa)
#
#
# Indices 1 2 3 4 5 6 
#
# 1 0.014783 -0.001494 -0.000364 0.001645 0.012957 0.001970
# 2 -0.001494 0.007506 -0.004420 0.002362 -0.004726 0.001429
# 3 -0.000364 -0.004420 0.018694 -0.002383 0.006363 0.003425
# 4 0.001645 0.002362 -0.002383 0.021453 0.001718 -0.001253
# 5 0.012957 -0.004726 0.006363 0.001718 0.049571 -0.000314
# 6 0.001970 0.001429 0.003425 -0.001253 -0.000314 0.026122
#
#
# Mechanical properties :
#
#
# Convention : Reuss Voigt Hill
#
# Bulk Modulus (GPa) = 35.17725 52.85472 44.01598
# Shear Modulus (GPa) = 31.21864 41.66942 36.44403
#
# Velocity S-wave (km/s) = 3.58089 4.13706 3.86898
# Velocity P-wave (km/s) = 5.61656 6.67308 6.16748
#
# Compressibility (1/GPa) = 0.02842747
#
# Stress axis : x y z
#
# Youngs Moduli (GPa) = 67.64525 133.22609 53.49282
#
# Poissons Ratio (x) = 0.19900 0.01946
# Poissons Ratio (y) = 0.10104 0.23646
# Poissons Ratio (z) = 0.02461 0.58891
#
# Static dielectric constant tensor:
#      x y z
#    x 2.224290 -0.001830 0.089170 
#    y -0.001830 1.893570 0.017940 
#    z 0.089170 0.017940 1.945340 
# 
# From -- ./inp_files/124190.got.cif
#   From: 2010.05.17/outbox.cif.g08.bks.cpg/sg2_63_cif.got.tgz:124190.got - 2010.06.03 11:33:40.
