data_PCOD9059277
_publ_section_title
;
Structure prediction by ZEFSAII (Michael W. Deem and Ramdas Pophale) SiO2 
 PCOD9059277
Probable space group: P -1
;
_chemical_formula_sum "Si O2"
_cell_formula_units_Z 14
_cell_length_a 9.045394
_cell_length_b 14.898569
_cell_length_c 12.201221
_cell_angle_alpha 130.834437
_cell_angle_beta 33.044781
_cell_angle_gamma 121.805051
_cell_volume 677.495585
_symmetry_space_group_name_H-M "P -1"
_symmetry_group_IT_number 2
_symmetry_cell_setting 'triclinic'
loop_
_space_group_symop_operation_xyz
x,y,z
-x,-y,-z
loop_
_atom_site_type_symbol
_atom_site_label
_atom_site_fract_x
_atom_site_fract_y
_atom_site_fract_z
Si Si1 0.203882 0.393555 0.326226
Si Si2 0.901460 0.745825 0.497153
Si Si3 0.403378 0.957430 0.642722
Si Si4 0.043213 0.186670 0.111861
Si Si5 0.176677 0.608940 0.011356
Si Si6 0.036948 0.004478 0.609120
Si Si7 0.265441 0.797051 0.915053
O O1 0.111072 0.335392 0.451796
O O2 0.000000 0.500000 0.500000
O O3 0.190928 0.293826 0.160164
O O4 0.512022 0.429527 0.182514
O O5 0.589074 0.781658 0.686735
O O6 0.046358 0.677615 0.251740
O O7 0.048110 0.867373 0.529354
O O8 0.202726 0.852002 0.689100
O O9 0.687749 0.926883 0.497511
O O10 0.500000 0.000000 0.500000
O O11 0.249022 0.071559 0.884778
O O12 0.905655 0.210077 0.096831
O O13 0.188250 0.697941 0.971883
O O14 0.000000 0.500000 0.000000
O O15 0.814035 0.077148 0.877413
O O16 0.000000 0.000000 0.500000
#
# Coordination Sequence:
#
# PCOD9059277 Si02
#       7
#     2   2   2   2   2   2   2
#     4  11  28  47  70  99 134 182 231 287 338 398
#     4  11  25  45  69  99 141 176 227 282 338 411
#     4  11  23  41  63  98 139 179 215 275 332 409
#     4  11  25  42  66  99 139 176 226 273 343 398
#     4  11  27  49  72  99 133 181 235 282 338 405
#     4  12  22  41  69 102 139 177 223 271 346 406
#     4  11  25  42  70 103 134 184 220 281 343 412
#
# _framework density 20.664339999999999
#
# number of rings (size 3 to 8) (size 9 to 14) (size 15 to 20)
#    0.000    0.857    2.857    3.000    8.000    1.714 
#    2.571    0.000    0.000    0.000    0.000    0.000 
#    0.000    0.000    0.000    0.000    0.000    0.000 
#
# Total GULP energy -78272.527716 kJ/mol
# GULP energy per Si atom -5590.894837 kJ/mol
# Density = 2.061731 g / cm^3
# Si number density = 20.664340 Si / 1000 Ang^3
#
#
#
# Elastic Constant Matrix: (Units=GPa)
#
#
# Indices 1 2 3 4 5 6 
#
# 1 99.9390 29.5764 26.4493 -9.0168 2.6399 -5.5431
# 2 29.5764 103.6848 45.3899 0.5782 -0.3069 14.3946
# 3 26.4493 45.3899 101.7528 -10.8217 -6.9193 -3.9430
# 4 -9.0168 0.5782 -10.8217 32.5188 -2.5811 0.7459
# 5 2.6399 -0.3069 -6.9193 -2.5811 36.7352 -3.6649
# 6 -5.5431 14.3946 -3.9430 0.7459 -3.6649 37.5982
#
#
#
# Elastic Compliance Matrix: (Units=1/GPa)
#
#
# Indices 1 2 3 4 5 6 
#
# 1 0.011696 -0.003170 -0.001272 0.002763 -0.000644 0.002687
# 2 -0.003170 0.014215 -0.006231 -0.003189 -0.001716 -0.006667
# 3 -0.001272 -0.006231 0.013797 0.004526 0.003343 0.003881
# 4 0.002763 -0.003189 0.004526 0.033290 0.003141 0.001749
# 5 -0.000644 -0.001716 0.003343 0.003141 0.028466 0.003625
# 6 0.002687 -0.006667 0.003881 0.001749 0.003625 0.030271
#
#
# Mechanical properties :
#
#
# Convention : Reuss Voigt Hill
#
# Bulk Modulus (GPa) = 54.46039 56.46754 55.46397
# Shear Modulus (GPa) = 31.40660 34.96785 33.18722
#
# Velocity S-wave (km/s) = 3.90275 4.11808 4.01186
# Velocity P-wave (km/s) = 6.83525 7.07084 6.95404
#
# Compressibility (1/GPa) = 0.01836197
#
# Stress axis : x y z
#
# Youngs Moduli (GPa) = 85.49754 70.34840 72.47888
#
# Poissons Ratio (x) = 0.22299 0.09220
# Poissons Ratio (y) = 0.27102 0.45163
# Poissons Ratio (z) = 0.10876 0.43836
#
# Static dielectric constant tensor:
#      x y z
#    x 1.549140 0.001110 -0.226490 
#    y 0.001110 1.728880 0.008230 
#    z -0.226490 0.008230 1.452050 
# 
# From -- ./inp_files/26726.got.cif
#   From: 2010.05.17/outbox.cif.g08.bks.cpg/sg2_14_cif.got.tgz:26726.got - 2010.06.03 11:33:40.
