data_PCOD9059389
_publ_section_title
;
Structure prediction by ZEFSAII (Michael W. Deem and Ramdas Pophale) SiO2 
 PCOD9059389
Probable space group: P -1
;
_chemical_formula_sum "Si O2"
_cell_formula_units_Z 16
_cell_length_a 7.835570
_cell_length_b 21.873972
_cell_length_c 7.906051
_cell_angle_alpha 50.184224
_cell_angle_beta 144.873594
_cell_angle_gamma 124.328604
_cell_volume 596.388766
_symmetry_space_group_name_H-M "P -1"
_symmetry_group_IT_number 2
_symmetry_cell_setting 'triclinic'
loop_
_space_group_symop_operation_xyz
x,y,z
-x,-y,-z
loop_
_atom_site_type_symbol
_atom_site_label
_atom_site_fract_x
_atom_site_fract_y
_atom_site_fract_z
Si Si1 0.286656 0.205116 0.070956
Si Si2 0.527248 0.928660 0.781386
Si Si3 0.741386 0.458537 0.088359
Si Si4 0.160860 0.613813 0.070981
Si Si5 0.170552 0.370486 0.793378
Si Si6 0.109880 0.060838 0.625223
Si Si7 0.351500 0.822876 0.274060
Si Si8 0.351848 0.314665 0.409736
O O1 0.336552 0.148165 0.054962
O O2 0.569564 0.201157 0.428626
O O3 0.244325 0.299346 0.850814
O O4 0.997955 0.169734 0.009556
O O5 0.196971 0.902013 0.635766
O O6 0.500000 0.000000 0.500000
O O7 0.754358 0.966433 0.040378
O O8 0.929739 0.543071 0.086417
O O9 0.861963 0.399677 0.430517
O O10 0.771650 0.419745 0.997335
O O11 0.388572 0.451948 0.830024
O O12 0.439609 0.629252 0.393845
O O13 0.972546 0.690432 0.756261
O O14 0.231526 0.332903 0.090399
O O15 0.406865 0.106802 0.706136
O O16 0.000000 0.000000 0.500000
O O17 0.440806 0.755322 0.336636
#
# Coordination Sequence:
#
# PCOD9059389 Si02
#       8
#     2   2   2   2   2   2   2   2
#     4  11  24  46  71  99 139 180 224 280 340 401
#     4  12  27  47  73 105 139 179 226 276 338 404
#     4  11  24  41  62  93 134 177 222 278 339 398
#     4  11  24  41  62  93 134 177 222 278 339 398
#     4  11  23  41  67  96 129 173 224 278 335 395
#     4  12  27  47  73 105 139 179 226 276 338 404
#     4  11  24  46  71  99 139 180 224 280 340 401
#     4  11  23  41  67  96 129 173 224 278 335 395
#
# _framework density 26.828137999999999
#
# number of rings (size 3 to 8) (size 9 to 14) (size 15 to 20)
#    0.000    0.750    0.000    8.250    0.000   10.000 
#    0.000    0.000    0.000    0.000    0.000    0.000 
#    0.000    0.000    0.000    0.000    0.000    0.000 
#
# Total GULP energy -89510.890697 kJ/mol
# GULP energy per Si atom -5594.430669 kJ/mol
# Density = 2.676708 g / cm^3
# Si number density = 26.828138 Si / 1000 Ang^3
#
#
#
# Elastic Constant Matrix: (Units=GPa)
#
#
# Indices 1 2 3 4 5 6 
#
# 1 46.5746 28.3725 27.3633 -10.9085 -6.6141 -22.0277
# 2 28.3725 118.6827 47.8784 18.8742 -7.9417 -14.2615
# 3 27.3633 47.8784 169.3290 26.8678 -8.2269 -19.4953
# 4 -10.9085 18.8742 26.8678 35.7216 -11.4372 6.1464
# 5 -6.6141 -7.9417 -8.2269 -11.4372 37.6311 12.0280
# 6 -22.0277 -14.2615 -19.4953 6.1464 12.0280 49.5469
#
#
#
# Elastic Compliance Matrix: (Units=1/GPa)
#
#
# Indices 1 2 3 4 5 6 
#
# 1 0.041980 -0.009689 -0.006518 0.024194 0.008637 0.008212
# 2 -0.009689 0.012469 -0.000325 -0.010327 -0.002624 0.001071
# 3 -0.006518 -0.000325 0.008729 -0.009769 -0.003040 0.002393
# 4 0.024194 -0.010327 -0.009769 0.055686 0.019309 -0.007655
# 5 0.008637 -0.002624 -0.003040 0.019309 0.035672 -0.009166
# 6 0.008212 0.001071 0.002393 -0.007655 -0.009166 0.028259
#
#
# Mechanical properties :
#
#
# Convention : Reuss Voigt Hill
#
# Bulk Modulus (GPa) = 33.20904 60.20163 46.70533
# Shear Modulus (GPa) = 22.13402 39.97807 31.05604
#
# Velocity S-wave (km/s) = 2.87545 3.86444 3.40603
# Velocity P-wave (km/s) = 4.84041 6.51155 5.73716
#
# Compressibility (1/GPa) = 0.03011228
#
# Stress axis : x y z
#
# Youngs Moduli (GPa) = 23.82085 80.19994 114.56274
#
# Poissons Ratio (x) = 0.77707 0.74673
# Poissons Ratio (y) = 0.23080 0.03729
# Poissons Ratio (z) = 0.15527 0.02610
#
# Static dielectric constant tensor:
#      x y z
#    x 2.149790 0.027340 -0.024100 
#    y 0.027340 2.179670 -0.103450 
#    z -0.024100 -0.103450 2.060390 
# 
# From -- ./inp_files/226242.got.cif
#   From: 2010.05.17/outbox.cif.g08.bks.cpg/sg2_114_cif.got.tgz:226242.got - 2010.06.03 11:33:40.
