data_PCOD9059714
_publ_section_title
;
Structure prediction by ZEFSAII (Michael W. Deem and Ramdas Pophale) SiO2 
 PCOD9059714
Probable space group: P -1
;
_chemical_formula_sum "Si O2"
_cell_formula_units_Z 16
_cell_length_a 12.276323
_cell_length_b 5.355697
_cell_length_c 14.418515
_cell_angle_alpha 67.986855
_cell_angle_beta 50.169283
_cell_angle_gamma 73.738801
_cell_volume 673.865937
_symmetry_space_group_name_H-M "P -1"
_symmetry_group_IT_number 2
_symmetry_cell_setting 'triclinic'
loop_
_space_group_symop_operation_xyz
x,y,z
-x,-y,-z
loop_
_atom_site_type_symbol
_atom_site_label
_atom_site_fract_x
_atom_site_fract_y
_atom_site_fract_z
Si Si1 0.246188 0.353147 0.295717
Si Si2 0.049459 0.902486 0.885693
Si Si3 0.791659 0.686024 0.966875
Si Si4 0.274900 0.563811 0.610569
Si Si5 0.649473 0.407441 0.234787
Si Si6 0.351558 0.168253 0.453669
Si Si7 0.645393 0.067013 0.861349
Si Si8 0.028859 0.564925 0.244251
O O1 0.246209 0.245646 0.415192
O O2 0.336739 0.619782 0.209087
O O3 0.093822 0.456643 0.320783
O O4 0.318377 0.117952 0.223130
O O5 0.036829 0.137975 0.782847
O O6 0.931947 0.700000 0.948671
O O7 0.209763 0.789155 0.820359
O O8 0.000000 0.000000 0.000000
O O9 0.835281 0.472446 0.893327
O O10 0.760129 0.960141 0.890189
O O11 0.664777 0.611728 0.112899
O O12 0.330571 0.455266 0.694913
O O13 0.316860 0.357601 0.534569
O O14 0.341570 0.853254 0.523246
O O15 0.103393 0.607291 0.691953
O O16 0.508827 0.246420 0.327995
O O17 0.500000 0.000000 0.000000
#
# Coordination Sequence:
#
# PCOD9059714 Si02
#       8
#     2   2   2   2   2   2   2   2
#     4  11  25  46  72 101 146 186 243 299 349 428
#     4  12  22  39  69 104 147 182 229 286 365 434
#     4  11  23  42  67 108 142 177 229 291 372 433
#     4  12  27  48  74 100 147 193 249 302 348 424
#     4  12  25  46  72 107 146 188 238 302 365 437
#     4  12  29  50  71 105 142 200 250 293 356 419
#     4  11  23  42  71 106 147 186 228 287 366 442
#     4  11  24  45  71 107 142 185 239 297 368 423
#
# _framework density 23.743594999999999
#
# number of rings (size 3 to 8) (size 9 to 14) (size 15 to 20)
#    0.000    0.500    3.750    4.500    0.000    5.000 
#    0.000    0.000    0.000    0.000    0.000    0.000 
#    0.000    0.000    0.000    0.000    0.000    0.000 
#
# Total GULP energy -89557.634085 kJ/mol
# GULP energy per Si atom -5597.352130 kJ/mol
# Density = 2.368955 g / cm^3
# Si number density = 23.743595 Si / 1000 Ang^3
#
#
#
# Elastic Constant Matrix: (Units=GPa)
#
#
# Indices 1 2 3 4 5 6 
#
# 1 89.3992 20.5666 18.8852 5.5581 8.0787 -0.4144
# 2 20.5666 91.6794 39.1177 7.6644 16.0003 25.1732
# 3 18.8852 39.1177 93.4398 0.5878 3.9020 13.7543
# 4 5.5581 7.6644 0.5878 30.6841 3.7769 2.4802
# 5 8.0787 16.0003 3.9020 3.7769 39.7551 -7.8128
# 6 -0.4144 25.1732 13.7543 2.4802 -7.8128 36.7815
#
#
#
# Elastic Compliance Matrix: (Units=1/GPa)
#
#
# Indices 1 2 3 4 5 6 
#
# 1 0.012297 -0.002379 -0.001801 -0.001703 -0.000731 0.002400
# 2 -0.002379 0.018879 -0.005156 -0.002055 -0.008924 -0.012776
# 3 -0.001801 -0.005156 0.013399 0.001387 0.000711 -0.001444
# 4 -0.001703 -0.002055 0.001387 0.033859 -0.002565 -0.001960
# 5 -0.000731 -0.008924 0.000711 -0.002565 0.031566 0.012712
# 6 0.002400 -0.012776 -0.001444 -0.001960 0.012712 0.039331
#
#
# Mechanical properties :
#
#
# Convention : Reuss Voigt Hill
#
# Bulk Modulus (GPa) = 38.60834 47.96194 43.28514
# Shear Modulus (GPa) = 28.30645 34.50740 31.40693
#
# Velocity S-wave (km/s) = 3.45653 3.81640 3.64091
# Velocity P-wave (km/s) = 5.67679 6.29791 5.99540
#
# Compressibility (1/GPa) = 0.02590114
#
# Stress axis : x y z
#
# Youngs Moduli (GPa) = 81.32301 52.96975 74.63232
#
# Poissons Ratio (x) = 0.12601 0.13444
# Poissons Ratio (y) = 0.19346 0.38483
# Poissons Ratio (z) = 0.14649 0.27313
#
# Static dielectric constant tensor:
#      x y z
#    x 1.929200 -0.007950 0.004770 
#    y -0.007950 1.906440 0.007780 
#    z 0.004770 0.007780 1.951710 
# 
# From -- ./inp_files/510890.got.cif
#   From: 2010.05.17/outbox.cif.g08.bks.cpg/sg2_256_cif.got.tgz:510890.got - 2010.06.03 11:33:40.
