data_PCOD9059977
_publ_section_title
;
Structure prediction by ZEFSAII (Michael W. Deem and Ramdas Pophale) SiO2 
 PCOD9059977
Probable space group: P -1
;
_chemical_formula_sum "Si O2"
_cell_formula_units_Z 13
_cell_length_a 25.399906
_cell_length_b 14.522634
_cell_length_c 8.581522
_cell_angle_alpha 33.644686
_cell_angle_beta 33.646024
_cell_angle_gamma 21.469029
_cell_volume 615.312528
_symmetry_space_group_name_H-M "P -1"
_symmetry_group_IT_number 2
_symmetry_cell_setting 'triclinic'
loop_
_space_group_symop_operation_xyz
x,y,z
-x,-y,-z
loop_
_atom_site_type_symbol
_atom_site_label
_atom_site_fract_x
_atom_site_fract_y
_atom_site_fract_z
Si Si1 0.597123 0.388740 0.762162
Si Si2 0.844338 0.129578 0.740630
Si Si3 0.445827 0.875426 0.972158
Si Si4 0.582290 0.063079 0.698719
Si Si5 0.267185 0.396805 0.487237
Si Si6 0.096982 0.299385 0.688232
Si Si7 0.000000 0.500000 0.000000
O O1 0.765361 0.167964 0.724665
O O2 0.573270 0.266699 0.879100
O O3 0.536036 0.640626 0.485726
O O4 0.500000 0.500000 0.000000
O O5 0.749626 0.408953 0.650713
O O6 0.000000 0.000000 0.500000
O O7 0.868912 0.944750 0.058924
O O8 0.378323 0.941584 0.215069
O O9 0.618897 0.703123 0.790894
O O10 0.356022 0.141359 0.730926
O O11 0.734526 0.853336 0.519118
O O12 0.500000 0.000000 0.000000
O O13 0.110508 0.516669 0.674466
O O14 0.016655 0.432818 0.864919
O O15 0.000000 0.500000 0.500000
#
# Coordination Sequence:
#
# PCOD9059977 Si02
#       7
#     2   2   2   2   2   2   1
#     4  12  24  45  73 103 142 192 242 298 368 432
#     4  12  25  46  71 104 145 191 242 302 366 440
#     4  11  24  43  73 107 145 183 243 304 362 434
#     4  12  26  44  72 109 148 187 242 304 358 437
#     4  11  23  42  72 105 141 189 241 294 367 433
#     4  12  27  47  71 107 149 191 243 302 365 439
#     4  12  24  44  70 100 146 194 238 290 370 434
#
# _framework density 21.127475
#
# number of rings (size 3 to 8) (size 9 to 14) (size 15 to 20)
#    0.000    0.308    4.615    4.154    4.308    0.000 
#    0.000    0.769    0.000    0.000    0.000    0.000 
#    0.000    0.000    0.000    0.000    0.000    0.000 
#
# Total GULP energy -72393.811576 kJ/mol
# GULP energy per Si atom -5568.754737 kJ/mol
# Density = 2.107939 g / cm^3
# Si number density = 21.127475 Si / 1000 Ang^3
#
#
#
# Elastic Constant Matrix: (Units=GPa)
#
#
# Indices 1 2 3 4 5 6 
#
# 1 91.8175 28.7847 39.3947 -7.5397 -18.4059 10.7039
# 2 28.7847 79.6157 51.6006 -7.1245 -5.2558 -3.6080
# 3 39.3947 51.6006 135.9179 -20.3853 -19.9022 -3.3320
# 4 -7.5397 -7.1245 -20.3853 61.1777 -3.1255 -0.9682
# 5 -18.4059 -5.2558 -19.9022 -3.1255 42.1168 8.3434
# 6 10.7039 -3.6080 -3.3320 -0.9682 8.3434 38.7074
#
#
#
# Elastic Compliance Matrix: (Units=1/GPa)
#
#
# Indices 1 2 3 4 5 6 
#
# 1 0.015030 -0.003956 -0.001911 0.000988 0.006444 -0.006054
# 2 -0.003956 0.017802 -0.006059 -0.000540 -0.002977 0.002860
# 3 -0.001911 -0.006059 0.011239 0.003006 0.003910 0.000163
# 4 0.000988 -0.000540 0.003006 0.017563 0.003149 -0.000304
# 5 0.006444 -0.002977 0.003910 0.003149 0.029871 -0.008083
# 6 -0.006054 0.002860 0.000163 -0.000304 -0.008083 0.029524
#
#
# Mechanical properties :
#
#
# Convention : Reuss Voigt Hill
#
# Bulk Modulus (GPa) = 49.45664 60.76788 55.11226
# Shear Modulus (GPa) = 32.97714 40.90512 36.94113
#
# Velocity S-wave (km/s) = 3.95506 4.40490 4.18603
# Velocity P-wave (km/s) = 6.65704 7.39566 7.03605
#
# Compressibility (1/GPa) = 0.02021973
#
# Stress axis : x y z
#
# Youngs Moduli (GPa) = 66.53335 56.17309 88.97660
#
# Poissons Ratio (x) = 0.22222 0.17004
# Poissons Ratio (y) = 0.26320 0.53908
# Poissons Ratio (z) = 0.12715 0.34033
#
# Static dielectric constant tensor:
#      x y z
#    x 0.989500 0.185060 -0.187970 
#    y 0.185060 1.779780 0.061200 
#    z -0.187970 0.061200 1.700390 
# 
# From -- ./inp_files/156270.got.cif
#   From: 2010.05.17/outbox.cif.g08.bks.cpg/sg2_79_cif.got.tgz:156270.got - 2010.06.03 11:33:40.
