data_PCOD9059978
_publ_section_title
;
Structure prediction by ZEFSAII (Michael W. Deem and Ramdas Pophale) SiO2 
 PCOD9059978
Probable space group: P -1
;
_chemical_formula_sum "Si O2"
_cell_formula_units_Z 14
_cell_length_a 14.719282
_cell_length_b 30.114812
_cell_length_c 23.695612
_cell_angle_alpha 10.177241
_cell_angle_beta 20.571871
_cell_angle_gamma 19.717851
_cell_volume 617.854616
_symmetry_space_group_name_H-M "P -1"
_symmetry_group_IT_number 2
_symmetry_cell_setting 'triclinic'
loop_
_space_group_symop_operation_xyz
x,y,z
-x,-y,-z
loop_
_atom_site_type_symbol
_atom_site_label
_atom_site_fract_x
_atom_site_fract_y
_atom_site_fract_z
Si Si1 0.437948 0.781434 0.648862
Si Si2 0.886136 0.077349 0.655096
Si Si3 0.685364 0.626071 0.375227
Si Si4 0.294580 0.772476 0.614861
Si Si5 0.201687 0.238574 0.736081
Si Si6 0.220223 0.238441 0.352891
Si Si7 0.955876 0.805516 0.372973
O O1 0.444398 0.748587 0.618892
O O2 0.664106 0.902463 0.390201
O O3 0.500000 0.500000 0.000000
O O4 0.137914 0.978992 0.589783
O O5 0.628214 0.340544 0.471474
O O6 0.027765 0.113959 0.585323
O O7 0.740226 0.850195 0.022734
O O8 0.803952 0.689274 0.285480
O O9 0.840866 0.359300 0.586437
O O10 0.494950 0.823551 0.387508
O O11 0.262754 0.482004 0.989399
O O12 0.000000 0.000000 0.500000
O O13 0.000000 0.500000 0.500000
O O14 0.077616 0.014832 0.068164
O O15 0.091988 0.349971 0.348760
O O16 0.500000 0.000000 0.500000
#
# Coordination Sequence:
#
# PCOD9059978 Si02
#       7
#     2   2   2   2   2   2   2
#     4  12  22  45  77 103 138 195 261 297 351 454
#     4  11  23  42  72 105 142 179 255 308 350 426
#     4  11  25  44  68 107 144 186 234 311 369 429
#     4  12  28  47  71 111 154 188 241 315 381 427
#     4  12  28  48  69 103 156 189 239 308 377 439
#     4  12  23  46  80 107 139 202 258 299 353 453
#     4  12  25  45  79 104 138 197 259 292 360 451
#
# _framework density 22.659051000000002
#
# number of rings (size 3 to 8) (size 9 to 14) (size 15 to 20)
#    0.000    0.286    5.714    2.571    2.000    4.000 
#    0.000    1.429    0.000    0.000    0.000    0.000 
#    0.000    0.000    0.000    0.000    0.000    0.000 
#
# Total GULP energy -78236.050938 kJ/mol
# GULP energy per Si atom -5588.289353 kJ/mol
# Density = 2.260748 g / cm^3
# Si number density = 22.659051 Si / 1000 Ang^3
#
#
#
# Elastic Constant Matrix: (Units=GPa)
#
#
# Indices 1 2 3 4 5 6 
#
# 1 84.5495 5.4424 15.0280 -8.5590 -24.6108 16.4060
# 2 5.4424 119.7340 16.1594 -8.9183 -14.4747 2.9141
# 3 15.0280 16.1594 67.6103 -4.5495 -12.7736 -4.4852
# 4 -8.5590 -8.9183 -4.5495 19.3840 2.1751 -3.5473
# 5 -24.6108 -14.4747 -12.7736 2.1751 31.3667 -0.6182
# 6 16.4060 2.9141 -4.4852 -3.5473 -0.6182 45.3181
#
#
#
# Elastic Compliance Matrix: (Units=1/GPa)
#
#
# Indices 1 2 3 4 5 6 
#
# 1 0.017674 0.001617 -0.001821 0.005510 0.013370 -0.006069
# 2 0.001617 0.009367 -0.001511 0.003968 0.004682 -0.000963
# 3 -0.001821 -0.001511 0.016762 0.002408 0.004586 0.002666
# 4 0.005510 0.003968 0.002408 0.056495 0.003265 0.002455
# 5 0.013370 0.004682 0.004586 0.003265 0.046098 -0.003803
# 6 -0.006069 -0.000963 0.002666 0.002455 -0.003803 0.024729
#
#
# Mechanical properties :
#
#
# Convention : Reuss Voigt Hill
#
# Bulk Modulus (GPa) = 24.76833 38.35037 31.55935
# Shear Modulus (GPa) = 26.59392 34.89803 30.74598
#
# Velocity S-wave (km/s) = 3.42958 3.92871 3.68760
# Velocity P-wave (km/s) = 5.16114 6.12711 5.66475
#
# Compressibility (1/GPa) = 0.04037415
#
# Stress axis : x y z
#
# Youngs Moduli (GPa) = 56.57975 106.75573 59.65975
#
# Poissons Ratio (x) = -0.17260 0.10863
# Poissons Ratio (y) = -0.09148 0.09012
# Poissons Ratio (z) = 0.10302 0.16126
#
# Static dielectric constant tensor:
#      x y z
#    x 1.738540 0.069370 0.110110 
#    y 0.069370 1.854630 -0.068830 
#    z 0.110110 -0.068830 1.692060 
# 
# From -- ./inp_files/545152.got.cif
#   From: 2010.05.17/outbox.cif.g08.bks.cpg/sg2_273_cif.got.tgz:545152.got - 2010.06.03 11:33:40.
