data_PCOD9059446
_publ_section_title
;
Structure prediction by ZEFSAII (Michael W. Deem and Ramdas Pophale) SiO2 
 PCOD9059446
Probable space group: P -1
;
_chemical_formula_sum "Si O2"
_cell_formula_units_Z 12
_cell_length_a 11.006985
_cell_length_b 8.731911
_cell_length_c 8.864699
_cell_angle_alpha 87.525052
_cell_angle_beta 72.340023
_cell_angle_gamma 137.575339
_cell_volume 498.167869
_symmetry_space_group_name_H-M "P -1"
_symmetry_group_IT_number 2
_symmetry_cell_setting 'triclinic'
loop_
_space_group_symop_operation_xyz
x,y,z
-x,-y,-z
loop_
_atom_site_type_symbol
_atom_site_label
_atom_site_fract_x
_atom_site_fract_y
_atom_site_fract_z
Si Si1 0.593511 0.483113 0.331713
Si Si2 0.040501 0.420154 0.119886
Si Si3 0.342792 0.636261 0.224589
Si Si4 0.197875 0.050160 0.946195
Si Si5 0.717788 0.285697 0.441611
Si Si6 0.692176 0.732520 0.807368
O O1 0.500000 0.500000 0.500000
O O2 0.742602 0.736336 0.169681
O O3 0.702558 0.435603 0.355760
O O4 0.406101 0.267187 0.293895
O O5 0.270931 0.631474 0.090653
O O6 0.894832 0.342141 0.311857
O O7 0.965900 0.191230 0.085631
O O8 0.000000 0.500000 0.000000
O O9 0.589007 0.847843 0.141031
O O10 0.266314 0.663698 0.390451
O O11 0.239969 0.367630 0.279886
O O12 0.159756 0.042517 0.139354
O O13 0.500000 0.000000 0.500000
O O14 0.500000 0.500000 0.000000
#
# Coordination Sequence:
#
# PCOD9059446 Si02
#       6
#     2   2   2   2   2   2
#     4  10  17  37  70  95 117 170 227 253 314 386
#     4  12  28  41  65 101 133 170 215 268 327 390
#     4  10  21  44  65  93 133 168 221 264 321 382
#     4  10  22  44  67  93 132 172 212 271 322 376
#     4  12  23  43  69  95 134 175 209 269 329 387
#     4   8  18  35  66  93 124 165 216 267 308 375
#
# _framework density 24.088267999999999
#
# number of rings (size 3 to 8) (size 9 to 14) (size 15 to 20)
#    0.000    2.000    5.000    0.500    7.000    2.667 
#    0.000    2.500    0.000    0.000    0.000    0.000 
#    0.000    0.000    0.000    0.000    0.000    0.000 
#
# Total GULP energy -67115.534284 kJ/mol
# GULP energy per Si atom -5592.961190 kJ/mol
# Density = 2.403344 g / cm^3
# Si number density = 24.088268 Si / 1000 Ang^3
#
#
#
# Elastic Constant Matrix: (Units=GPa)
#
#
# Indices 1 2 3 4 5 6 
#
# 1 96.4607 31.1308 26.3030 13.4033 6.0204 18.0261
# 2 31.1308 110.3535 54.7091 37.4508 2.3314 0.8665
# 3 26.3030 54.7091 78.4684 45.1451 0.2423 5.9950
# 4 13.4033 37.4508 45.1451 50.0025 -8.7964 8.4628
# 5 6.0204 2.3314 0.2423 -8.7964 53.6704 15.8423
# 6 18.0261 0.8665 5.9950 8.4628 15.8423 35.6207
#
#
#
# Elastic Compliance Matrix: (Units=1/GPa)
#
#
# Indices 1 2 3 4 5 6 
#
# 1 0.013205 -0.003049 -0.003943 0.003848 0.001524 -0.007537
# 2 -0.003049 0.015195 -0.006466 -0.006036 -0.002727 0.004909
# 3 -0.003943 -0.006466 0.032902 -0.025533 -0.005067 0.004935
# 4 0.003848 -0.006036 -0.025533 0.051439 0.012946 -0.015482
# 5 0.001524 -0.002727 -0.005067 0.012946 0.024851 -0.013981
# 6 -0.007537 0.004909 0.004935 -0.015482 -0.013981 0.040834
#
#
# Mechanical properties :
#
#
# Convention : Reuss Voigt Hill
#
# Bulk Modulus (GPa) = 29.08202 56.61871 42.85036
# Shear Modulus (GPa) = 23.06230 39.40137 31.23183
#
# Velocity S-wave (km/s) = 3.09756 4.04878 3.60468
# Velocity P-wave (km/s) = 4.98924 6.73888 5.92895
#
# Compressibility (1/GPa) = 0.03438551
#
# Stress axis : x y z
#
# Youngs Moduli (GPa) = 75.73004 65.81074 30.39314
#
# Poissons Ratio (x) = 0.20067 0.11985
# Poissons Ratio (y) = 0.23091 0.19652
# Poissons Ratio (z) = 0.29862 0.42553
#
# Static dielectric constant tensor:
#      x y z
#    x 1.986700 -0.013330 -0.010560 
#    y -0.013330 1.994870 -0.003070 
#    z -0.010560 -0.003070 1.926380 
# 
# From -- ./inp_files/234205.got.cif
#   From: 2010.05.17/outbox.cif.g08.bks.cpg/sg2_118_cif.got.tgz:234205.got - 2010.06.03 11:33:40.
