data_PCOD9059467
_publ_section_title
;
Structure prediction by ZEFSAII (Michael W. Deem and Ramdas Pophale) SiO2 
 PCOD9059467
Probable space group: P -1
;
_chemical_formula_sum "Si O2"
_cell_formula_units_Z 16
_cell_length_a 9.470077
_cell_length_b 9.196350
_cell_length_c 16.218644
_cell_angle_alpha 112.974526
_cell_angle_beta 115.942728
_cell_angle_gamma 30.646010
_cell_volume 647.137040
_symmetry_space_group_name_H-M "P -1"
_symmetry_group_IT_number 2
_symmetry_cell_setting 'triclinic'
loop_
_space_group_symop_operation_xyz
x,y,z
-x,-y,-z
loop_
_atom_site_type_symbol
_atom_site_label
_atom_site_fract_x
_atom_site_fract_y
_atom_site_fract_z
Si Si1 0.148272 0.818350 0.782079
Si Si2 0.714564 0.181978 0.011103
Si Si3 0.045603 0.329274 0.758614
Si Si4 0.478515 0.608734 0.652025
Si Si5 0.339267 0.383811 0.532718
Si Si6 0.239166 0.087195 0.583876
Si Si7 0.477746 0.777857 0.275657
Si Si8 0.360688 0.080511 0.157285
O O1 0.290986 0.742738 0.715626
O O2 0.296525 0.526585 0.777202
O O3 0.231629 0.862638 0.887434
O O4 0.812051 0.075823 0.747884
O O5 0.641725 0.068765 0.934966
O O6 0.500000 0.500000 0.000000
O O7 0.000000 0.000000 0.000000
O O8 0.788857 0.418928 0.709976
O O9 0.112557 0.303115 0.672796
O O10 0.361690 0.043019 0.811788
O O11 0.917066 0.580716 0.834084
O O12 0.501335 0.416372 0.575569
O O13 0.308129 0.871734 0.607853
O O14 0.383761 0.291275 0.617249
O O15 0.015842 0.696712 0.498896
O O16 0.475517 0.150415 0.450616
O O17 0.384208 0.989941 0.235676
#
# Coordination Sequence:
#
# PCOD9059467 Si02
#       8
#     2   2   2   2   2   2   2   2
#     4  11  23  41  69 105 128 163 209 291 334 370
#     4  12  22  44  73 104 128 158 223 275 326 390
#     4  12  26  42  64  92 136 193 209 254 325 417
#     4  11  25  41  69  95 140 168 224 269 334 380
#     4  11  24  38  70 100 122 169 228 298 312 361
#     4  12  23  43  63  97 129 178 232 259 333 373
#     4  11  23  42  65 101 135 159 223 279 342 368
#     4  12  24  44  69  92 136 177 215 260 336 401
#
# _framework density 24.724285999999999
#
# number of rings (size 3 to 8) (size 9 to 14) (size 15 to 20)
#    0.000    0.500    5.000    3.750    5.250    0.000 
#    0.000    5.000    0.000    0.000    0.000    0.000 
#    0.000    0.000    0.000    0.000    0.000    0.000 
#
# Total GULP energy -89515.328771 kJ/mol
# GULP energy per Si atom -5594.708048 kJ/mol
# Density = 2.466801 g / cm^3
# Si number density = 24.724286 Si / 1000 Ang^3
#
#
#
# Elastic Constant Matrix: (Units=GPa)
#
#
# Indices 1 2 3 4 5 6 
#
# 1 56.0953 23.6246 14.1491 -2.6906 7.7658 -2.9749
# 2 23.6246 137.5673 26.8983 12.1988 13.7862 -14.0859
# 3 14.1491 26.8983 110.6870 14.2760 5.8474 -8.1744
# 4 -2.6906 12.1988 14.2760 38.1470 5.0064 11.5548
# 5 7.7658 13.7862 5.8474 5.0064 42.3195 1.1940
# 6 -2.9749 -14.0859 -8.1744 11.5548 1.1940 30.8308
#
#
#
# Elastic Compliance Matrix: (Units=1/GPa)
#
#
# Indices 1 2 3 4 5 6 
#
# 1 0.020298 -0.003295 -0.002310 0.004209 -0.002784 -0.001629
# 2 -0.003295 0.009087 -0.000754 -0.004207 -0.001903 0.005284
# 3 -0.002310 -0.000754 0.010485 -0.005054 -0.000298 0.004118
# 4 0.004209 -0.004207 -0.005054 0.034854 -0.002380 -0.015827
# 5 -0.002784 -0.001903 -0.000298 -0.002380 0.025120 -0.001298
# 6 -0.001629 0.005284 0.004118 -0.015827 -0.001298 0.041766
#
#
# Mechanical properties :
#
#
# Convention : Reuss Voigt Hill
#
# Bulk Modulus (GPa) = 36.82905 48.18818 42.50861
# Shear Modulus (GPa) = 30.60377 38.23797 34.42087
#
# Velocity S-wave (km/s) = 3.52206 3.93692 3.73525
# Velocity P-wave (km/s) = 5.60964 6.34021 5.98608
#
# Compressibility (1/GPa) = 0.02715248
#
# Stress axis : x y z
#
# Youngs Moduli (GPa) = 49.26568 110.04403 95.37764
#
# Poissons Ratio (x) = 0.36261 0.22032
# Poissons Ratio (y) = 0.16234 0.07188
# Poissons Ratio (z) = 0.11380 0.08294
#
# Static dielectric constant tensor:
#      x y z
#    x 2.083550 0.049760 0.090440 
#    y 0.049760 1.941890 0.035310 
#    z 0.090440 0.035310 2.014820 
# 
# From -- ./inp_files/569198.got.cif
#   From: 2010.05.17/outbox.cif.g08.bks.cpg/sg2_285_cif.got.tgz:569198.got - 2010.06.03 11:33:40.
