data_PCOD9059067
_publ_section_title
;
Structure prediction by ZEFSAII (Michael W. Deem and Ramdas Pophale) SiO2 
 PCOD9059067
Probable space group: P -1
;
_chemical_formula_sum "Si O2"
_cell_formula_units_Z 12
_cell_length_a 14.627502
_cell_length_b 9.739306
_cell_length_c 6.379729
_cell_angle_alpha 136.340310
_cell_angle_beta 56.466648
_cell_angle_gamma 121.747767
_cell_volume 510.227585
_symmetry_space_group_name_H-M "P -1"
_symmetry_group_IT_number 2
_symmetry_cell_setting 'triclinic'
loop_
_space_group_symop_operation_xyz
x,y,z
-x,-y,-z
loop_
_atom_site_type_symbol
_atom_site_label
_atom_site_fract_x
_atom_site_fract_y
_atom_site_fract_z
Si Si1 0.301661 0.392533 0.479829
Si Si2 0.085183 0.526913 0.727008
Si Si3 0.065104 0.822111 0.739460
Si Si4 0.264185 0.062208 0.479780
Si Si5 0.448671 0.258712 0.806893
Si Si6 0.407290 0.838435 0.809380
O O1 0.204420 0.468513 0.558457
O O2 0.239900 0.255056 0.596186
O O3 0.387988 0.605938 0.662962
O O4 0.373806 0.255708 0.108350
O O5 0.095427 0.744942 0.842205
O O6 0.019702 0.362156 0.466160
O O7 0.000000 0.500000 0.000000
O O8 0.175363 0.910829 0.564295
O O9 0.000000 0.000000 0.000000
O O10 0.361587 0.172313 0.637373
O O11 0.298080 0.914975 0.098839
O O12 0.555356 0.167081 0.488197
O O13 0.500000 0.500000 0.000000
O O14 0.500000 0.000000 0.000000
#
# Coordination Sequence:
#
# PCOD9059067 Si02
#       6
#     2   2   2   2   2   2
#     4  11  23  40  65  96 129 167 213 264 318 377
#     4  11  25  44  66  94 128 166 211 263 319 382
#     4  11  25  44  66  94 128 166 211 263 319 382
#     4  11  23  40  65  96 129 167 213 264 318 377
#     4   9  21  40  61  92 130 168 209 260 313 367
#     4   9  21  40  61  92 130 168 209 260 313 367
#
# _framework density 23.518917999999999
#
# number of rings (size 3 to 8) (size 9 to 14) (size 15 to 20)
#    0.000    1.667    0.000    3.000    0.000   17.333 
#    0.000   10.000    0.000    0.000    0.000    0.000 
#    0.000    0.000    0.000    0.000    0.000    0.000 
#
# Total GULP energy -66913.102754 kJ/mol
# GULP energy per Si atom -5576.091896 kJ/mol
# Density = 2.346539 g / cm^3
# Si number density = 23.518918 Si / 1000 Ang^3
#
#
#
# Elastic Constant Matrix: (Units=GPa)
#
#
# Indices 1 2 3 4 5 6 
#
# 1 81.8949 38.4904 23.8840 1.5481 -4.4127 2.4854
# 2 38.4904 168.6497 47.7369 -15.4504 -18.0147 -19.0298
# 3 23.8840 47.7369 124.2127 8.2602 -15.0354 -1.5882
# 4 1.5481 -15.4504 8.2602 40.0271 15.6821 3.7309
# 5 -4.4127 -18.0147 -15.0354 15.6821 29.3567 4.1088
# 6 2.4854 -19.0298 -1.5882 3.7309 4.1088 37.9541
#
#
#
# Elastic Compliance Matrix: (Units=1/GPa)
#
#
# Indices 1 2 3 4 5 6 
#
# 1 0.014264 -0.003229 -0.001354 -0.001535 0.000643 -0.002529
# 2 -0.003229 0.008215 -0.002558 0.003043 0.001087 0.003807
# 3 -0.001354 -0.002558 0.010474 -0.005650 0.006739 -0.000930
# 4 -0.001535 0.003043 -0.005650 0.035249 -0.020101 0.000101
# 5 0.000643 0.001087 0.006739 -0.020101 0.049379 -0.002585
# 6 -0.002529 0.003807 -0.000930 0.000101 -0.002585 0.028653
#
#
# Mechanical properties :
#
#
# Convention : Reuss Voigt Hill
#
# Bulk Modulus (GPa) = 53.56404 66.10886 59.83645
# Shear Modulus (GPa) = 29.98677 39.11063 34.54870
#
# Velocity S-wave (km/s) = 3.57460 4.08234 3.83688
# Velocity P-wave (km/s) = 6.31358 7.09863 6.71758
#
# Compressibility (1/GPa) = 0.01866924
#
# Stress axis : x y z
#
# Youngs Moduli (GPa) = 70.10722 121.72767 95.47531
#
# Poissons Ratio (x) = 0.39311 0.12928
# Poissons Ratio (y) = 0.22641 0.24426
# Poissons Ratio (z) = 0.09493 0.31142
#
# Static dielectric constant tensor:
#      x y z
#    x 1.868860 -0.113450 0.043660 
#    y -0.113450 1.719470 0.152500 
#    z 0.043660 0.152500 1.771160 
# 
# From -- ./inp_files/91230.got.cif
#   From: 2010.05.17/outbox.cif.g08.bks.cpg/sg2_46_cif.got.tgz:91230.got - 2010.06.03 11:33:40.
