data_PCOD9059542
_publ_section_title
;
Structure prediction by ZEFSAII (Michael W. Deem and Ramdas Pophale) SiO2 
 PCOD9059542
Probable space group: P -1
;
_chemical_formula_sum "Si O2"
_cell_formula_units_Z 16
_cell_length_a 5.131995
_cell_length_b 26.221776
_cell_length_c 13.137266
_cell_angle_alpha 25.396989
_cell_angle_beta 118.318326
_cell_angle_gamma 119.631234
_cell_volume 657.240171
_symmetry_space_group_name_H-M "P -1"
_symmetry_group_IT_number 2
_symmetry_cell_setting 'triclinic'
loop_
_space_group_symop_operation_xyz
x,y,z
-x,-y,-z
loop_
_atom_site_type_symbol
_atom_site_label
_atom_site_fract_x
_atom_site_fract_y
_atom_site_fract_z
Si Si1 0.647260 0.583417 0.786295
Si Si2 0.633276 0.224203 0.731418
Si Si3 0.936550 0.944255 0.978023
Si Si4 0.244944 0.626312 0.948511
Si Si5 0.732187 0.113087 0.476441
Si Si6 0.211785 0.904579 0.702078
Si Si7 0.057515 0.305103 0.831492
Si Si8 0.700476 0.403860 0.754648
O O1 0.504171 0.696729 0.520297
O O2 0.977252 0.628721 0.813003
O O3 0.500000 0.500000 0.000000
O O4 0.618761 0.486902 0.863397
O O5 0.367083 0.155434 0.879035
O O6 0.884418 0.316915 0.673643
O O7 0.809326 0.126309 0.890342
O O8 0.920651 0.059333 0.694510
O O9 0.000000 0.000000 0.000000
O O10 0.398655 0.768824 0.722719
O O11 0.179110 0.586372 0.125871
O O12 0.861254 0.156838 0.310593
O O13 0.530792 0.986425 0.633582
O O14 0.114636 0.818725 0.932248
O O15 0.000000 0.000000 0.500000
O O16 0.964960 0.390959 0.748668
O O17 0.406597 0.296069 0.898966
O O18 0.500000 0.500000 0.500000
#
# Coordination Sequence:
#
# PCOD9059542 Si02
#       8
#     2   2   2   2   2   2   2   2
#     4  11  29  47  78 102 147 210 256 320 381 446
#     4  12  27  50  76 107 153 196 260 310 381 459
#     4  12  27  47  75 111 149 203 251 317 376 449
#     4  11  26  49  72 111 148 198 259 316 379 459
#     4  11  24  44  73 108 154 194 251 311 381 458
#     4  11  23  41  71 109 147 199 238 303 387 453
#     4  12  25  46  74 110 149 194 243 311 383 446
#     4  12  27  46  76 110 150 194 251 311 378 450
#
# _framework density 24.344221000000001
#
# number of rings (size 3 to 8) (size 9 to 14) (size 15 to 20)
#    0.000    0.500    2.500    4.500   10.500    1.000 
#    0.000    0.000    0.000    0.000    0.000    0.000 
#    0.000    0.000    0.000    0.000    0.000    0.000 
#
# Total GULP energy -89247.253007 kJ/mol
# GULP energy per Si atom -5577.953313 kJ/mol
# Density = 2.428881 g / cm^3
# Si number density = 24.344221 Si / 1000 Ang^3
#
#
#
# Elastic Constant Matrix: (Units=GPa)
#
#
# Indices 1 2 3 4 5 6 
#
# 1 72.2130 6.8038 9.6991 -2.7164 4.2431 -2.2599
# 2 6.8038 105.8267 29.2865 9.4798 8.4856 -15.6192
# 3 9.6991 29.2865 151.6389 9.4278 12.4006 -2.9398
# 4 -2.7164 9.4798 9.4278 41.1441 7.7846 5.4832
# 5 4.2431 8.4856 12.4006 7.7846 32.4820 -7.4596
# 6 -2.2599 -15.6192 -2.9398 5.4832 -7.4596 25.8116
#
#
#
# Elastic Compliance Matrix: (Units=1/GPa)
#
#
# Indices 1 2 3 4 5 6 
#
# 1 0.014177 -0.000736 -0.000721 0.001635 -0.001812 -0.000157
# 2 -0.000736 0.011363 -0.001825 -0.003293 0.000311 0.007393
# 3 -0.000721 -0.001825 0.007203 -0.000755 -0.002186 -0.000818
# 4 0.001635 -0.003293 -0.000755 0.028272 -0.008209 -0.010314
# 5 -0.001812 0.000311 -0.002186 -0.008209 0.036518 0.012078
# 6 -0.000157 0.007393 -0.000818 -0.010314 0.012078 0.048791
#
#
# Mechanical properties :
#
#
# Convention : Reuss Voigt Hill
#
# Bulk Modulus (GPa) = 38.19905 46.80635 42.50270
# Shear Modulus (GPa) = 30.93787 38.81350 34.87568
#
# Velocity S-wave (km/s) = 3.56877 3.99728 3.78908
# Velocity P-wave (km/s) = 5.71898 6.36969 6.05308
#
# Compressibility (1/GPa) = 0.02617866
#
# Stress axis : x y z
#
# Youngs Moduli (GPa) = 70.53581 88.00547 138.83072
#
# Poissons Ratio (x) = 0.06480 0.10011
# Poissons Ratio (y) = 0.05193 0.25335
# Poissons Ratio (z) = 0.05086 0.16060
#
# Static dielectric constant tensor:
#      x y z
#    x 1.777930 -0.217580 -0.105770 
#    y -0.217580 1.736980 -0.037760 
#    z -0.105770 -0.037760 2.045380 
# 
# From -- ./inp_files/371027.got.cif
#   From: 2010.05.17/outbox.cif.g08.bks.cpg/sg2_186_cif.got.tgz:371027.got - 2010.06.03 11:33:40.
