data_PCOD9059547
_publ_section_title
;
Structure prediction by ZEFSAII (Michael W. Deem and Ramdas Pophale) SiO2 
 PCOD9059547
Probable space group: P -1
;
_chemical_formula_sum "Si O2"
_cell_formula_units_Z 16
_cell_length_a 23.187016
_cell_length_b 19.681415
_cell_length_c 10.378382
_cell_angle_alpha 33.754832
_cell_angle_beta 147.329585
_cell_angle_gamma 162.469826
_cell_volume 757.963582
_symmetry_space_group_name_H-M "P -1"
_symmetry_group_IT_number 2
_symmetry_cell_setting 'triclinic'
loop_
_space_group_symop_operation_xyz
x,y,z
-x,-y,-z
loop_
_atom_site_type_symbol
_atom_site_label
_atom_site_fract_x
_atom_site_fract_y
_atom_site_fract_z
Si Si1 0.723161 0.520180 0.725974
Si Si2 0.981559 0.400500 0.494707
Si Si3 0.282332 0.240110 0.033009
Si Si4 0.710442 0.807020 0.588837
Si Si5 0.944337 0.791888 0.964480
Si Si6 0.101214 0.300512 0.511326
Si Si7 0.426709 0.902244 0.872168
Si Si8 0.831726 0.372570 0.779110
O O1 0.517335 0.393476 0.565200
O O2 0.891070 0.720825 0.827535
O O3 0.796523 0.613240 0.571580
O O4 0.669723 0.325674 0.950799
O O5 0.746422 0.170716 0.378709
O O6 0.000000 0.500000 0.500000
O O7 0.088484 0.564996 0.313413
O O8 0.072913 0.355331 0.764983
O O9 0.149694 0.233953 0.799736
O O10 0.500000 0.500000 0.000000
O O11 0.287645 0.178173 0.276230
O O12 0.170232 0.054311 0.005712
O O13 0.798669 0.759486 0.791686
O O14 0.861903 0.057796 0.425773
O O15 0.186653 0.501754 0.423076
O O16 0.622291 0.104165 0.833526
O O17 0.500000 0.000000 0.000000
O O18 0.000000 0.500000 0.000000
#
# Coordination Sequence:
#
# PCOD9059547 Si02
#       8
#     2   2   2   2   2   2   2   2
#     4  12  24  46  68 103 139 180 231 286 350 406
#     4  12  26  49  70 101 149 179 229 296 351 412
#     4  11  23  43  68  99 129 177 227 277 340 409
#     4  11  24  45  70  98 136 179 235 282 340 422
#     4  11  26  46  67 100 145 176 224 294 350 400
#     4  11  23  41  71  99 135 178 233 281 339 414
#     4  12  25  44  73 105 136 190 236 283 343 420
#     4  12  24  42  74 104 134 185 237 282 345 413
#
# _framework density 21.109193000000001
#
# number of rings (size 3 to 8) (size 9 to 14) (size 15 to 20)
#    0.000    0.500    5.000    4.125    3.500    2.500 
#    2.250    0.000    0.000    0.000    0.000    0.000 
#    0.000    0.000    0.000    0.000    0.000    0.000 
#
# Total GULP energy -89450.824811 kJ/mol
# GULP energy per Si atom -5590.676551 kJ/mol
# Density = 2.106115 g / cm^3
# Si number density = 21.109193 Si / 1000 Ang^3
#
#
#
# Elastic Constant Matrix: (Units=GPa)
#
#
# Indices 1 2 3 4 5 6 
#
# 1 98.3941 44.5083 18.7427 1.3204 -17.7717 -5.9670
# 2 44.5083 108.3804 13.5327 0.9107 -16.1367 3.7042
# 3 18.7427 13.5327 66.2735 5.4866 0.0605 -3.5018
# 4 1.3204 0.9107 5.4866 36.4367 -3.1224 -6.4125
# 5 -17.7717 -16.1367 0.0605 -3.1224 34.0964 -4.4266
# 6 -5.9670 3.7042 -3.5018 -6.4125 -4.4266 48.7319
#
#
#
# Elastic Compliance Matrix: (Units=1/GPa)
#
#
# Indices 1 2 3 4 5 6 
#
# 1 0.013952 -0.004636 -0.002953 0.000961 0.005492 0.002474
# 2 -0.004636 0.011765 -0.001168 0.000084 0.002998 -0.001262
# 3 -0.002953 -0.001168 0.016388 -0.002463 -0.002298 0.000372
# 4 0.000961 0.000084 -0.002463 0.028812 0.003711 0.004063
# 5 0.005492 0.002998 -0.002298 0.003711 0.034460 0.003898
# 6 0.002474 -0.001262 0.000372 0.004063 0.003898 0.021835
#
#
# Mechanical properties :
#
#
# Convention : Reuss Voigt Hill
#
# Bulk Modulus (GPa) = 40.66329 47.40171 44.03250
# Shear Modulus (GPa) = 32.69641 36.93730 34.81685
#
# Velocity S-wave (km/s) = 3.93990 4.18762 4.06565
# Velocity P-wave (km/s) = 6.32473 6.77391 6.55317
#
# Compressibility (1/GPa) = 0.02459221
#
# Stress axis : x y z
#
# Youngs Moduli (GPa) = 71.67524 84.99746 61.01942
#
# Poissons Ratio (x) = 0.39402 0.18019
# Poissons Ratio (y) = 0.33226 0.07126
# Poissons Ratio (z) = 0.21165 0.09926
#
# Static dielectric constant tensor:
#      x y z
#    x 1.773040 0.023230 0.062670 
#    y 0.023230 1.799760 0.025630 
#    z 0.062670 0.025630 1.810030 
# 
# From -- ./inp_files/271356.got.cif
#   From: 2010.05.17/outbox.cif.g08.bks.cpg/sg2_136_cif.got.tgz:271356.got - 2010.06.03 11:33:40.
