data_PCOD9059416
_publ_section_title
;
Structure prediction by ZEFSAII (Michael W. Deem and Ramdas Pophale) SiO2 
 PCOD9059416
Probable space group: P -1
;
_chemical_formula_sum "Si O2"
_cell_formula_units_Z 14
_cell_length_a 8.773644
_cell_length_b 10.806244
_cell_length_c 10.332638
_cell_angle_alpha 106.636631
_cell_angle_beta 116.818739
_cell_angle_gamma 42.096845
_cell_volume 584.169491
_symmetry_space_group_name_H-M "P -1"
_symmetry_group_IT_number 2
_symmetry_cell_setting 'triclinic'
loop_
_space_group_symop_operation_xyz
x,y,z
-x,-y,-z
loop_
_atom_site_type_symbol
_atom_site_label
_atom_site_fract_x
_atom_site_fract_y
_atom_site_fract_z
Si Si1 0.760533 0.324577 0.486488
Si Si2 0.669411 0.923913 0.880286
Si Si3 0.990422 0.970016 0.327968
Si Si4 0.784429 0.397332 0.971429
Si Si5 0.416682 0.915364 0.369876
Si Si6 0.525040 0.194298 0.102373
Si Si7 0.649250 0.541817 0.255437
O O1 0.500000 0.500000 0.500000
O O2 0.947556 0.205714 0.643748
O O3 0.774946 0.402282 0.384924
O O4 0.807131 0.153982 0.403016
O O5 0.540604 0.854892 0.812434
O O6 0.931682 0.760886 0.997897
O O7 0.713973 0.961195 0.770697
O O8 0.488907 0.117391 0.945695
O O9 0.229661 0.926577 0.380799
O O10 0.813805 0.065322 0.164943
O O11 0.764822 0.439005 0.130977
O O12 0.640370 0.592160 0.907249
O O13 0.630616 0.357078 0.850039
O O14 0.628571 0.702687 0.336951
O O15 0.500000 0.000000 0.500000
#
# Coordination Sequence:
#
# PCOD9059416 Si02
#       7
#     2   2   2   2   2   2   2
#     4  11  23  41  68 104 134 173 241 273 341 418
#     4  11  26  43  69 107 142 181 222 295 354 401
#     4  11  25  44  74  98 136 192 226 286 346 410
#     4  11  23  45  76 101 139 175 241 291 341 410
#     4  12  27  46  67 103 146 186 231 281 351 419
#     4  11  24  46  72 104 138 176 239 286 347 416
#     4  11  23  44  72 105 137 183 235 290 340 414
#
# _framework density 23.965646
#
# number of rings (size 3 to 8) (size 9 to 14) (size 15 to 20)
#    0.000    0.857    4.286    2.143    6.000    1.143 
#    0.000    7.143    0.000    0.000    0.000    0.000 
#    0.000    0.000    0.000    0.000    0.000    0.000 
#
# Total GULP energy -78087.712622 kJ/mol
# GULP energy per Si atom -5577.693759 kJ/mol
# Density = 2.391110 g / cm^3
# Si number density = 23.965646 Si / 1000 Ang^3
#
#
#
# Elastic Constant Matrix: (Units=GPa)
#
#
# Indices 1 2 3 4 5 6 
#
# 1 79.7390 22.9133 29.9590 3.5179 -13.5215 5.6784
# 2 22.9133 146.7638 46.2393 -6.6018 5.8924 16.1375
# 3 29.9590 46.2393 62.5131 -8.6896 -15.8748 19.6651
# 4 3.5179 -6.6018 -8.6896 46.6541 7.3047 -2.9460
# 5 -13.5215 5.8924 -15.8748 7.3047 39.0428 -5.2706
# 6 5.6784 16.1375 19.6651 -2.9460 -5.2706 33.7838
#
#
#
# Elastic Compliance Matrix: (Units=1/GPa)
#
#
# Indices 1 2 3 4 5 6 
#
# 1 0.016118 -0.000700 -0.007444 -0.003115 0.003546 0.002240
# 2 -0.000700 0.009701 -0.007818 0.000726 -0.005116 -0.000700
# 3 -0.007444 -0.007818 0.031895 0.003180 0.009377 -0.011840
# 4 -0.003115 0.000726 0.003180 0.023008 -0.004245 -0.000330
# 5 0.003546 -0.005116 0.009377 -0.004245 0.032364 0.001068
# 6 0.002240 -0.000700 -0.011840 -0.000330 0.001068 0.036588
#
#
# Mechanical properties :
#
#
# Convention : Reuss Voigt Hill
#
# Bulk Modulus (GPa) = 38.77452 54.13770 46.45611
# Shear Modulus (GPa) = 26.28894 36.55642 31.42268
#
# Velocity S-wave (km/s) = 3.31561 3.90983 3.62492
# Velocity P-wave (km/s) = 5.55626 6.55905 6.07837
#
# Compressibility (1/GPa) = 0.02579013
#
# Stress axis : x y z
#
# Youngs Moduli (GPa) = 62.04246 103.08015 31.35322
#
# Poissons Ratio (x) = 0.07215 0.23339
# Poissons Ratio (y) = 0.04343 0.24513
# Poissons Ratio (z) = 0.46183 0.80590
#
# Static dielectric constant tensor:
#      x y z
#    x 1.966570 -0.023810 -0.022720 
#    y -0.023810 1.898540 0.062750 
#    z -0.022720 0.062750 2.339260 
# 
# From -- ./inp_files/387884.got.cif
#   From: 2010.05.17/outbox.cif.g08.bks.cpg/sg2_194_cif.got.tgz:387884.got - 2010.06.03 11:33:40.
