data_PCOD9059843
_publ_section_title
;
Structure prediction by ZEFSAII (Michael W. Deem and Ramdas Pophale) SiO2 
 PCOD9059843
Probable space group: P -1
;
_chemical_formula_sum "Si O2"
_cell_formula_units_Z 14
_cell_length_a 8.846652
_cell_length_b 8.545353
_cell_length_c 7.808180
_cell_angle_alpha 106.663967
_cell_angle_beta 85.703747
_cell_angle_gamma 105.472959
_cell_volume 544.994742
_symmetry_space_group_name_H-M "P -1"
_symmetry_group_IT_number 2
_symmetry_cell_setting 'triclinic'
loop_
_space_group_symop_operation_xyz
x,y,z
-x,-y,-z
loop_
_atom_site_type_symbol
_atom_site_label
_atom_site_fract_x
_atom_site_fract_y
_atom_site_fract_z
Si Si1 0.497195 0.014827 0.711704
Si Si2 0.827875 0.462330 0.932161
Si Si3 0.230431 0.712225 0.770480
Si Si4 0.371229 0.333263 0.894404
Si Si5 0.846966 0.136729 0.688228
Si Si6 0.019107 0.134275 0.315133
Si Si7 0.686004 0.593354 0.469905
O O1 0.433529 0.167605 0.841079
O O2 0.678003 0.038169 0.741004
O O3 0.500000 0.000000 0.500000
O O4 0.384246 0.848904 0.743352
O O5 0.828879 0.328421 0.743545
O O6 0.740378 0.350860 0.063480
O O7 0.771080 0.631148 0.971590
O O8 0.000000 0.500000 0.000000
O O9 0.221348 0.551269 0.600550
O O10 0.079199 0.785834 0.786054
O O11 0.326340 0.339483 0.700338
O O12 0.500000 0.500000 0.000000
O O13 0.904347 0.111028 0.484920
O O14 0.960202 0.055541 0.770917
O O15 0.190721 0.258571 0.388987
O O16 0.500000 0.500000 0.500000
#
# Coordination Sequence:
#
# PCOD9059843 Si02
#       7
#     2   2   2   2   2   2   2
#     4  12  23  44  73 101 136 181 231 287 344 402
#     4  11  26  46  66  98 143 182 225 289 350 405
#     4  11  25  42  69 101 135 178 234 281 339 420
#     4  11  24  45  68 100 134 181 229 279 344 416
#     4  11  23  42  69  98 138 179 227 285 350 399
#     4  11  24  42  69 102 133 179 235 284 333 419
#     4  11  24  43  66  99 136 176 229 283 340 407
#
# _framework density 25.688321999999999
#
# number of rings (size 3 to 8) (size 9 to 14) (size 15 to 20)
#    0.000    0.857    2.857    4.714    4.000    2.286 
#    2.571    0.000    0.000    0.000    0.000    0.000 
#    0.000    0.000    0.000    0.000    0.000    0.000 
#
# Total GULP energy -78149.051360 kJ/mol
# GULP energy per Si atom -5582.075097 kJ/mol
# Density = 2.562985 g / cm^3
# Si number density = 25.688322 Si / 1000 Ang^3
#
#
#
# Elastic Constant Matrix: (Units=GPa)
#
#
# Indices 1 2 3 4 5 6 
#
# 1 128.5538 28.9780 23.7677 4.6187 -27.8720 -7.3730
# 2 28.9780 95.3271 36.0969 10.7945 -19.2376 -2.2361
# 3 23.7677 36.0969 73.7471 11.8503 -18.1775 -11.2034
# 4 4.6187 10.7945 11.8503 42.9071 -11.2149 -11.0787
# 5 -27.8720 -19.2376 -18.1775 -11.2149 45.3955 9.2982
# 6 -7.3730 -2.2361 -11.2034 -11.0787 9.2982 65.5700
#
#
#
# Elastic Compliance Matrix: (Units=1/GPa)
#
#
# Indices 1 2 3 4 5 6 
#
# 1 0.009371 -0.001530 -0.001207 0.001044 0.004821 0.000288
# 2 -0.001530 0.013702 -0.005548 -0.001406 0.002555 -0.001253
# 3 -0.001207 -0.005548 0.018098 -0.002125 0.003230 0.001950
# 4 0.001044 -0.001406 -0.002125 0.026329 0.004993 0.003447
# 5 0.004821 0.002555 0.003230 0.004993 0.029027 -0.002091
# 6 0.000288 -0.001253 0.001950 0.003447 -0.002091 0.016453
#
#
# Mechanical properties :
#
#
# Convention : Reuss Voigt Hill
#
# Bulk Modulus (GPa) = 40.64929 52.81257 46.73093
# Shear Modulus (GPa) = 36.29756 44.69355 40.49555
#
# Velocity S-wave (km/s) = 3.76307 4.17566 3.97472
# Velocity P-wave (km/s) = 5.89400 6.62207 6.26862
#
# Compressibility (1/GPa) = 0.02460068
#
# Stress axis : x y z
#
# Youngs Moduli (GPa) = 106.71037 72.98466 55.25352
#
# Poissons Ratio (x) = 0.11169 0.06669
# Poissons Ratio (y) = 0.16329 0.30655
# Poissons Ratio (z) = 0.12879 0.40492
#
# Static dielectric constant tensor:
#      x y z
#    x 1.995680 -0.110340 -0.005320 
#    y -0.110340 1.722820 0.006020 
#    z -0.005320 0.006020 2.109510 
# 
# From -- ./inp_files/156968.got.cif
#   From: 2010.05.17/outbox.cif.g08.bks.cpg/sg2_79_cif.got.tgz:156968.got - 2010.06.03 11:33:40.
