data_PCOD9059814
_publ_section_title
;
Structure prediction by ZEFSAII (Michael W. Deem and Ramdas Pophale) SiO2 
 PCOD9059814
Probable space group: P -1
;
_chemical_formula_sum "Si O2"
_cell_formula_units_Z 16
_cell_length_a 15.258996
_cell_length_b 9.026256
_cell_length_c 9.190130
_cell_angle_alpha 103.093711
_cell_angle_beta 141.260809
_cell_angle_gamma 62.872496
_cell_volume 685.749475
_symmetry_space_group_name_H-M "P -1"
_symmetry_group_IT_number 2
_symmetry_cell_setting 'triclinic'
loop_
_space_group_symop_operation_xyz
x,y,z
-x,-y,-z
loop_
_atom_site_type_symbol
_atom_site_label
_atom_site_fract_x
_atom_site_fract_y
_atom_site_fract_z
Si Si1 0.137555 0.729469 0.322061
Si Si2 0.862620 0.767730 0.507398
Si Si3 0.624942 0.947712 0.989515
Si Si4 0.330894 0.893151 0.497460
Si Si5 0.891288 0.202537 0.365259
Si Si6 0.217418 0.073671 0.117814
Si Si7 0.768916 0.625701 0.617305
Si Si8 0.543293 0.321326 0.932429
O O1 0.286901 0.749169 0.464426
O O2 0.144116 0.715641 0.502160
O O3 0.143031 0.556007 0.232119
O O4 0.965713 0.881014 0.098335
O O5 0.855841 0.634037 0.582376
O O6 0.017266 0.732137 0.610075
O O7 0.810536 0.937405 0.575897
O O8 0.730009 0.823147 0.223415
O O9 0.486163 0.904606 0.751371
O O10 0.729587 0.929043 0.978681
O O11 0.565102 0.146501 0.005367
O O12 0.318053 0.909935 0.310849
O O13 0.720207 0.256296 0.088227
O O14 0.000000 0.000000 0.500000
O O15 0.243549 0.222526 0.263547
O O16 0.596799 0.650119 0.352856
O O17 0.500000 0.500000 0.000000
#
# Coordination Sequence:
#
# PCOD9059814 Si02
#       8
#     2   2   2   2   2   2   2   2
#     4  12  23  45  68 100 144 182 230 295 352 407
#     4  11  23  42  69 104 131 186 235 281 344 418
#     4  12  23  44  74 100 143 181 237 285 345 422
#     4  11  24  40  72 102 135 183 243 283 344 417
#     4  12  22  40  70 104 135 177 235 289 339 408
#     4  11  24  47  71 100 137 194 232 283 344 432
#     4  11  27  45  71 100 146 185 231 287 360 413
#     4  12  24  42  69 105 143 180 223 297 352 399
#
# _framework density 23.332136999999999
#
# number of rings (size 3 to 8) (size 9 to 14) (size 15 to 20)
#    0.000    0.500    7.500    1.500    1.750    0.500 
#    0.000    0.625    2.750    0.000    0.000    0.000 
#    0.000    0.000    0.000    0.000    0.000    0.000 
#
# Total GULP energy -89455.341081 kJ/mol
# GULP energy per Si atom -5590.958818 kJ/mol
# Density = 2.327903 g / cm^3
# Si number density = 23.332137 Si / 1000 Ang^3
#
#
#
# Elastic Constant Matrix: (Units=GPa)
#
#
# Indices 1 2 3 4 5 6 
#
# 1 116.7769 30.4925 37.6290 2.9066 16.2683 18.3680
# 2 30.4925 88.0558 8.5691 16.2586 9.1942 20.5413
# 3 37.6290 8.5691 94.7979 16.8352 26.4161 6.6411
# 4 2.9066 16.2586 16.8352 30.6893 -1.7214 3.0018
# 5 16.2683 9.1942 26.4161 -1.7214 52.5857 6.7235
# 6 18.3680 20.5413 6.6411 3.0018 6.7235 27.5849
#
#
#
# Elastic Compliance Matrix: (Units=1/GPa)
#
#
# Indices 1 2 3 4 5 6 
#
# 1 0.011489 -0.003105 -0.004580 0.003521 -0.000005 -0.004617
# 2 -0.003105 0.016195 0.002651 -0.008983 -0.002335 -0.009084
# 3 -0.004580 0.002651 0.015996 -0.010177 -0.007433 0.000144
# 4 0.003521 -0.008983 -0.010177 0.042940 0.006944 0.000429
# 5 -0.000005 -0.002335 -0.007433 0.006944 0.023774 -0.003018
# 6 -0.004617 -0.009084 0.000144 0.000429 -0.003018 0.046745
#
#
# Mechanical properties :
#
#
# Convention : Reuss Voigt Hill
#
# Bulk Modulus (GPa) = 29.75223 50.33466 40.04345
# Shear Modulus (GPa) = 28.02500 37.03464 32.52982
#
# Velocity S-wave (km/s) = 3.46950 3.98839 3.73796
# Velocity P-wave (km/s) = 5.36928 6.54443 5.98577
#
# Compressibility (1/GPa) = 0.03361092
#
# Stress axis : x y z
#
# Youngs Moduli (GPa) = 87.03627 61.74678 62.51638
#
# Poissons Ratio (x) = 0.19175 0.28635
# Poissons Ratio (y) = 0.27029 -0.16573
# Poissons Ratio (z) = 0.39866 -0.16369
#
# Static dielectric constant tensor:
#      x y z
#    x 1.882060 -0.014260 0.002020 
#    y -0.014260 1.949770 0.000230 
#    z 0.002020 0.000230 1.901360 
# 
# From -- ./inp_files/208335.got.cif
#   From: 2010.05.17/outbox.cif.g08.bks.cpg/sg2_105_cif.got.tgz:208335.got - 2010.06.03 11:33:40.
