data_PCOD9059262
_publ_section_title
;
Structure prediction by ZEFSAII (Michael W. Deem and Ramdas Pophale) SiO2 
 PCOD9059262
Probable space group: P -1
;
_chemical_formula_sum "Si O2"
_cell_formula_units_Z 16
_cell_length_a 7.148176
_cell_length_b 8.396953
_cell_length_c 15.921826
_cell_angle_alpha 126.318371
_cell_angle_beta 97.339388
_cell_angle_gamma 70.204561
_cell_volume 721.169645
_symmetry_space_group_name_H-M "P -1"
_symmetry_group_IT_number 2
_symmetry_cell_setting 'triclinic'
loop_
_space_group_symop_operation_xyz
x,y,z
-x,-y,-z
loop_
_atom_site_type_symbol
_atom_site_label
_atom_site_fract_x
_atom_site_fract_y
_atom_site_fract_z
Si Si1 0.005567 0.982137 0.170304
Si Si2 0.720239 0.784476 0.674190
Si Si3 0.560126 0.055668 0.150754
Si Si4 0.287768 0.579691 0.963620
Si Si5 0.105808 0.665028 0.379465
Si Si6 0.715314 0.975419 0.546292
Si Si7 0.002769 0.645924 0.182587
Si Si8 0.421140 0.330502 0.085125
O O1 0.985901 0.877609 0.226350
O O2 0.112371 0.149741 0.244907
O O3 0.140683 0.797838 0.059717
O O4 0.780847 0.061055 0.150781
O O5 0.512687 0.912915 0.748619
O O6 0.776163 0.535415 0.618126
O O7 0.712547 0.879566 0.609989
O O8 0.407491 0.242370 0.148334
O O9 0.550554 0.851460 0.038395
O O10 0.167403 0.420865 0.893870
O O11 0.381794 0.605594 0.887525
O O12 0.500000 0.500000 0.000000
O O13 0.911459 0.811529 0.463229
O O14 0.016347 0.607761 0.269897
O O15 0.242807 0.802563 0.396726
O O16 0.500000 0.000000 0.500000
O O17 0.214071 0.507717 0.112492
#
# Coordination Sequence:
#
# PCOD9059262 Si02
#       8
#     2   2   2   2   2   2   2   2
#     4  12  25  40  66 103 143 194 241 286 349 417
#     4  12  26  47  74 107 149 185 232 298 363 430
#     4  11  25  39  64 101 147 189 239 289 344 415
#     4  12  24  38  66  98 144 203 248 287 341 412
#     4  11  27  50  74 111 138 182 238 299 367 435
#     4  11  28  52  82 105 137 180 239 304 371 437
#     4  12  24  43  70 100 147 192 244 295 345 421
#     4  11  23  41  61  99 145 193 246 288 335 414
#
# _framework density 22.18618
#
# number of rings (size 3 to 8) (size 9 to 14) (size 15 to 20)
#    0.000    0.500    6.250    1.500    3.500    3.000 
#    0.000    0.000    0.000    0.000    0.000    0.000 
#    0.000    0.000    0.000    0.000    0.000    0.000 
#
# Total GULP energy -89319.694199 kJ/mol
# GULP energy per Si atom -5582.480887 kJ/mol
# Density = 2.213568 g / cm^3
# Si number density = 22.186180 Si / 1000 Ang^3
#
#
#
# Elastic Constant Matrix: (Units=GPa)
#
#
# Indices 1 2 3 4 5 6 
#
# 1 145.2160 39.5578 35.4825 0.9488 -1.5296 3.9190
# 2 39.5578 132.1628 26.8098 -3.6255 -0.3846 14.2538
# 3 35.4825 26.8098 59.5282 -8.9473 -12.7051 11.5884
# 4 0.9488 -3.6255 -8.9473 29.4276 7.8743 -5.2578
# 5 -1.5296 -0.3846 -12.7051 7.8743 34.6660 -0.5912
# 6 3.9190 14.2538 11.5884 -5.2578 -0.5912 29.4562
#
#
#
# Elastic Compliance Matrix: (Units=1/GPa)
#
#
# Indices 1 2 3 4 5 6 
#
# 1 0.008552 -0.001729 -0.005056 -0.001471 -0.001137 0.001402
# 2 -0.001729 0.008943 -0.002598 0.000085 -0.001001 -0.003080
# 3 -0.005056 -0.002598 0.024571 0.004021 0.007723 -0.006864
# 4 -0.001471 0.000085 0.004021 0.038112 -0.007158 0.005232
# 5 -0.001137 -0.001001 0.007723 -0.007158 0.033191 -0.003014
# 6 0.001402 -0.003080 -0.006864 0.005232 -0.003014 0.038826
#
#
# Mechanical properties :
#
#
# Convention : Reuss Voigt Hill
#
# Bulk Modulus (GPa) = 42.91784 60.06745 51.49265
# Shear Modulus (GPa) = 27.97538 34.38041 31.17789
#
# Velocity S-wave (km/s) = 3.55482 3.94081 3.75278
# Velocity P-wave (km/s) = 6.01958 6.91662 6.48364
#
# Compressibility (1/GPa) = 0.02330033
#
# Stress axis : x y z
#
# Youngs Moduli (GPa) = 116.92528 111.82395 40.69783
#
# Poissons Ratio (x) = 0.19336 0.20576
# Poissons Ratio (y) = 0.20219 0.10574
# Poissons Ratio (z) = 0.59115 0.29053
#
# Static dielectric constant tensor:
#      x y z
#    x 1.802180 0.074200 -0.014550 
#    y 0.074200 2.012150 -0.041040 
#    z -0.014550 -0.041040 1.810420 
# 
# From -- ./inp_files/548417.got.cif
#   From: 2010.05.17/outbox.cif.g08.bks.cpg/sg2_275_cif.got.tgz:548417.got - 2010.06.03 11:33:40.
