data_PCOD9059265
_publ_section_title
;
Structure prediction by ZEFSAII (Michael W. Deem and Ramdas Pophale) SiO2 
 PCOD9059265
Probable space group: P -1
;
_chemical_formula_sum "Si O2"
_cell_formula_units_Z 12
_cell_length_a 5.440166
_cell_length_b 15.099823
_cell_length_c 5.429765
_cell_angle_alpha 97.190204
_cell_angle_beta 90.003480
_cell_angle_gamma 69.573141
_cell_volume 414.240211
_symmetry_space_group_name_H-M "P -1"
_symmetry_group_IT_number 2
_symmetry_cell_setting 'triclinic'
loop_
_space_group_symop_operation_xyz
x,y,z
-x,-y,-z
loop_
_atom_site_type_symbol
_atom_site_label
_atom_site_fract_x
_atom_site_fract_y
_atom_site_fract_z
Si Si1 0.490980 0.800179 0.163070
Si Si2 0.336218 0.039035 0.764116
Si Si3 0.167607 0.876878 0.691906
Si Si4 0.013798 0.713178 0.683053
Si Si5 0.587825 0.638643 0.419688
Si Si6 0.786257 0.463319 0.108203
O O1 0.713477 0.848756 0.195411
O O2 0.307691 0.843337 0.417155
O O3 0.577427 0.688326 0.170125
O O4 0.773856 0.684603 0.578200
O O5 0.500000 0.000000 0.500000
O O6 0.116514 0.989488 0.746987
O O7 0.500000 0.000000 0.000000
O O8 0.952160 0.826600 0.703881
O O9 0.347399 0.831228 0.914228
O O10 0.289275 0.669502 0.520410
O O11 0.101129 0.650361 0.907522
O O12 0.724023 0.525442 0.381427
O O13 0.500000 0.500000 0.000000
O O14 0.000000 0.500000 0.000000
#
# Coordination Sequence:
#
# PCOD9059265 Si02
#       6
#     2   2   2   2   2   2
#     4   9  18  34  58  89 124 165 210 260 315 375
#     4   8  14  28  53  84 120 160 206 256 310 370
#     4   9  18  34  58  89 124 165 210 260 315 375
#     4  11  23  41  62  90 126 170 213 263 319 382
#     4  11  23  41  62  90 126 170 213 263 319 382
#     4  12  24  40  64  94 126 168 213 266 321 382
#
# _framework density 28.968702
#
# number of rings (size 3 to 8) (size 9 to 14) (size 15 to 20)
#    0.000    2.000    0.000    4.000    0.000    2.667 
#    0.000    0.833    0.000    0.000    0.000   36.167 
#    0.000    0.000    0.000    0.000    0.000    0.000 
#
# Total GULP energy -67149.600188 kJ/mol
# GULP energy per Si atom -5595.800016 kJ/mol
# Density = 2.890277 g / cm^3
# Si number density = 28.968702 Si / 1000 Ang^3
#
#
#
# Elastic Constant Matrix: (Units=GPa)
#
#
# Indices 1 2 3 4 5 6 
#
# 1 162.7998 63.0145 75.0990 -5.6356 -1.7101 16.8817
# 2 63.0145 164.3864 22.1324 -16.4217 -4.8295 39.8542
# 3 75.0990 22.1324 158.7559 -13.4777 -4.4247 -9.5019
# 4 -5.6356 -16.4217 -13.4777 46.0956 -9.7117 0.9248
# 5 -1.7101 -4.8295 -4.4247 -9.7117 81.3042 1.1003
# 6 16.8817 39.8542 -9.5019 0.9248 1.1003 60.1568
#
#
#
# Elastic Compliance Matrix: (Units=1/GPa)
#
#
# Indices 1 2 3 4 5 6 
#
# 1 0.009239 -0.002761 -0.004173 -0.001111 -0.000311 -0.001400
# 2 -0.002761 0.008683 0.000080 0.003069 0.000897 -0.005029
# 3 -0.004173 0.000080 0.008603 0.002112 0.000605 0.002433
# 4 -0.001111 0.003069 0.002112 0.023972 0.003162 -0.001814
# 5 -0.000311 0.000897 0.000605 0.003162 0.012766 -0.000694
# 6 -0.001400 -0.005029 0.002433 -0.001814 -0.000694 0.020773
#
#
# Mechanical properties :
#
#
# Convention : Reuss Voigt Hill
#
# Bulk Modulus (GPa) = 78.00822 89.60377 83.80600
# Shear Modulus (GPa) = 49.01218 59.22439 54.11829
#
# Velocity S-wave (km/s) = 4.11774 4.52644 4.32692
# Velocity P-wave (km/s) = 7.04234 7.63653 7.34545
#
# Compressibility (1/GPa) = 0.01281916
#
# Stress axis : x y z
#
# Youngs Moduli (GPa) = 108.23324 115.17081 116.23204
#
# Poissons Ratio (x) = 0.31794 0.48499
# Poissons Ratio (y) = 0.29879 -0.00929
# Poissons Ratio (z) = 0.45161 -0.00921
#
# Static dielectric constant tensor:
#      x y z
#    x 2.254450 0.018020 0.023570 
#    y 0.018020 2.317030 0.005500 
#    z 0.023570 0.005500 2.336920 
# 
# From -- ./inp_files/4559.got.cif
#   From: 2010.05.17/outbox.cif.g08.bks.cpg/sg2_3_cif.got.tgz:4559.got - 2010.06.03 11:33:40.
