data_PCOD9059214
_publ_section_title
;
Structure prediction by ZEFSAII (Michael W. Deem and Ramdas Pophale) SiO2 
 PCOD9059214
Probable space group: P -1
;
_chemical_formula_sum "Si O2"
_cell_formula_units_Z 14
_cell_length_a 10.886860
_cell_length_b 12.549801
_cell_length_c 5.775029
_cell_angle_alpha 102.488041
_cell_angle_beta 114.917619
_cell_angle_gamma 112.208524
_cell_volume 592.560130
_symmetry_space_group_name_H-M "P -1"
_symmetry_group_IT_number 2
_symmetry_cell_setting 'triclinic'
loop_
_space_group_symop_operation_xyz
x,y,z
-x,-y,-z
loop_
_atom_site_type_symbol
_atom_site_label
_atom_site_fract_x
_atom_site_fract_y
_atom_site_fract_z
Si Si1 0.128724 0.016637 0.919490
Si Si2 0.931810 0.579198 0.188283
Si Si3 0.847392 0.789976 0.314169
Si Si4 0.405906 0.959093 0.160531
Si Si5 0.573803 0.612252 0.302785
Si Si6 0.686740 0.457136 0.593175
Si Si7 0.235286 0.673471 0.746734
O O1 0.188162 0.152515 0.909283
O O2 0.018246 0.900979 0.598157
O O3 0.277128 0.002773 0.091621
O O4 0.000000 0.000000 0.000000
O O5 0.853188 0.663342 0.217006
O O6 0.856611 0.451799 0.224389
O O7 0.112935 0.668975 0.455347
O O8 0.870868 0.528698 0.856557
O O9 0.705564 0.746867 0.363620
O O10 0.500000 0.000000 0.500000
O O11 0.311741 0.804395 0.004755
O O12 0.500000 0.000000 0.000000
O O13 0.658242 0.565757 0.526646
O O14 0.430213 0.610112 0.316881
O O15 0.500000 0.500000 0.000000
O O16 0.646181 0.351585 0.317891
#
# Coordination Sequence:
#
# PCOD9059214 Si02
#       7
#     2   2   2   2   2   2   2
#     4  11  29  52  83 108 150 226 279 336 394 501
#     4  11  23  45  76 111 149 197 255 341 390 485
#     4  11  24  48  75 109 156 195 280 321 406 470
#     4  12  32  58  83 120 171 220 275 343 416 499
#     4  11  23  42  67 109 160 192 251 326 404 479
#     4  11  23  40  71 117 149 205 245 325 413 487
#     4  11  25  48  74 111 154 204 268 321 419 478
#
# _framework density 23.626294000000001
#
# number of rings (size 3 to 8) (size 9 to 14) (size 15 to 20)
#    0.000    0.857    4.286    0.429    8.000    3.429 
#    0.000    0.000    0.000    0.000    0.000    0.000 
#    0.000    0.000    0.000    0.000    0.000    0.000 
#
# Total GULP energy -78307.904924 kJ/mol
# GULP energy per Si atom -5593.421780 kJ/mol
# Density = 2.357252 g / cm^3
# Si number density = 23.626294 Si / 1000 Ang^3
#
#
#
# Elastic Constant Matrix: (Units=GPa)
#
#
# Indices 1 2 3 4 5 6 
#
# 1 138.1757 54.6073 40.2701 -13.8348 -3.1853 -3.6185
# 2 54.6073 132.3278 35.5957 -1.0982 5.4160 -4.4446
# 3 40.2701 35.5957 140.6193 -1.2986 15.8556 -16.9051
# 4 -13.8348 -1.0982 -1.2986 37.5348 -7.4130 -6.4379
# 5 -3.1853 5.4160 15.8556 -7.4130 40.2458 -3.0576
# 6 -3.6185 -4.4446 -16.9051 -6.4379 -3.0576 37.8026
#
#
#
# Elastic Compliance Matrix: (Units=1/GPa)
#
#
# Indices 1 2 3 4 5 6 
#
# 1 0.009729 -0.003511 -0.002124 0.004060 0.002864 0.000492
# 2 -0.003511 0.009380 -0.001249 -0.001342 -0.001305 -0.000126
# 3 -0.002124 -0.001249 0.008792 -0.000624 -0.003335 0.003205
# 4 0.004060 -0.001342 -0.000624 0.030389 0.006776 0.005675
# 5 0.002864 -0.001305 -0.003335 0.006776 0.027967 0.002045
# 6 0.000492 -0.000126 0.003205 0.005675 0.002045 0.029051
#
#
# Mechanical properties :
#
#
# Convention : Reuss Voigt Hill
#
# Bulk Modulus (GPa) = 70.75865 74.67434 72.71649
# Shear Modulus (GPa) = 37.37323 41.82664 39.59994
#
# Velocity S-wave (km/s) = 3.98156 4.21211 4.09846
# Velocity P-wave (km/s) = 7.15201 7.43847 7.29665
#
# Compressibility (1/GPa) = 0.01413255
#
# Stress axis : x y z
#
# Youngs Moduli (GPa) = 102.78666 106.61225 113.74608
#
# Poissons Ratio (x) = 0.37426 0.24158
# Poissons Ratio (y) = 0.36083 0.14212
# Poissons Ratio (z) = 0.21830 0.13321
#
# Static dielectric constant tensor:
#      x y z
#    x 1.996370 -0.000190 -0.009410 
#    y -0.000190 1.881920 -0.047120 
#    z -0.009410 -0.047120 1.981380 
# 
# From -- ./inp_files/69634.got.cif
#   From: 2010.05.17/outbox.cif.g08.bks.cpg/sg2_35_cif.got.tgz:69634.got - 2010.06.03 11:33:40.
