data_PCOD9059763
_publ_section_title
;
Structure prediction by ZEFSAII (Michael W. Deem and Ramdas Pophale) SiO2 
 PCOD9059763
Probable space group: P -1
;
_chemical_formula_sum "Si O2"
_cell_formula_units_Z 16
_cell_length_a 18.149532
_cell_length_b 11.233566
_cell_length_c 9.962790
_cell_angle_alpha 81.448759
_cell_angle_beta 36.651947
_cell_angle_gamma 53.217376
_cell_volume 699.428245
_symmetry_space_group_name_H-M "P -1"
_symmetry_group_IT_number 2
_symmetry_cell_setting 'triclinic'
loop_
_space_group_symop_operation_xyz
x,y,z
-x,-y,-z
loop_
_atom_site_type_symbol
_atom_site_label
_atom_site_fract_x
_atom_site_fract_y
_atom_site_fract_z
Si Si1 0.303132 0.983442 0.132615
Si Si2 0.763742 0.606774 0.391930
Si Si3 0.798152 0.371733 0.157241
Si Si4 0.530013 0.558093 0.259959
Si Si5 0.715182 0.285341 0.792069
Si Si6 0.299503 0.968735 0.436562
Si Si7 0.028239 0.236386 0.253553
Si Si8 0.666284 0.926094 0.370779
O O1 0.244330 0.888096 0.245799
O O2 0.315763 0.018349 0.260195
O O3 0.524355 0.810470 0.761294
O O4 0.135142 0.180138 0.248649
O O5 0.771971 0.500089 0.280950
O O6 0.887455 0.455687 0.364254
O O7 0.810988 0.701044 0.247648
O O8 0.674289 0.496173 0.178930
O O9 0.668355 0.360507 0.406488
O O10 0.048557 0.152178 0.804804
O O11 0.427797 0.742640 0.287266
O O12 0.678358 0.354400 0.988128
O O13 0.895480 0.221283 0.469973
O O14 0.500000 0.500000 0.000000
O O15 0.404073 0.957987 0.408588
O O16 0.204525 0.081627 0.906557
O O17 0.500000 0.000000 0.500000
#
# Coordination Sequence:
#
# PCOD9059763 Si02
#       8
#     2   2   2   2   2   2   2   2
#     4  12  26  45  73 107 147 183 236 291 367 427
#     4  12  24  49  73 100 142 195 241 288 355 422
#     4  11  24  41  71 105 142 187 236 287 357 422
#     4  11  23  42  68 106 150 182 227 296 355 429
#     4  12  22  44  71 105 148 189 223 288 369 435
#     4  12  26  43  70 107 143 180 240 299 353 416
#     4  12  25  44  75 102 138 193 237 287 354 424
#     4  12  27  49  76 102 139 193 251 295 346 420
#
# _framework density 22.875827000000001
#
# number of rings (size 3 to 8) (size 9 to 14) (size 15 to 20)
#    0.000    0.250    6.250    2.625    0.000    1.500 
#    0.000    0.625    0.000    0.000    0.000    0.000 
#    0.000    0.000    0.000    0.000    0.000    0.000 
#
# Total GULP energy -89532.937857 kJ/mol
# GULP energy per Si atom -5595.808616 kJ/mol
# Density = 2.282376 g / cm^3
# Si number density = 22.875827 Si / 1000 Ang^3
#
#
#
# Elastic Constant Matrix: (Units=GPa)
#
#
# Indices 1 2 3 4 5 6 
#
# 1 133.7078 32.6109 36.1444 0.3196 15.1262 -34.2505
# 2 32.6109 79.7884 1.3694 -6.6067 0.1738 -27.4466
# 3 36.1444 1.3694 75.5846 -13.6993 -0.2970 -3.5408
# 4 0.3196 -6.6067 -13.6993 29.5229 -2.2617 6.6813
# 5 15.1262 0.1738 -0.2970 -2.2617 28.2052 -3.8014
# 6 -34.2505 -27.4466 -3.5408 6.6813 -3.8014 36.6644
#
#
#
# Elastic Compliance Matrix: (Units=1/GPa)
#
#
# Indices 1 2 3 4 5 6 
#
# 1 0.013470 -0.002215 -0.007171 -0.006909 -0.006380 0.010830
# 2 -0.002215 0.017369 0.001710 0.002441 0.002769 0.010940
# 3 -0.007171 0.001710 0.018295 0.010428 0.004174 -0.005120
# 4 -0.006909 0.002441 0.010428 0.042196 0.005740 -0.010714
# 5 -0.006380 0.002769 0.004174 0.005740 0.039302 -0.000455
# 6 0.010830 0.010940 -0.005120 -0.010714 -0.000455 0.046992
#
#
# Mechanical properties :
#
#
# Convention : Reuss Voigt Hill
#
# Bulk Modulus (GPa) = 29.60172 47.70334 38.65253
# Shear Modulus (GPa) = 24.48131 33.47559 28.97845
#
# Velocity S-wave (km/s) = 3.27491 3.82954 3.56303
# Velocity P-wave (km/s) = 5.22191 6.36021 5.81896
#
# Compressibility (1/GPa) = 0.03378182
#
# Stress axis : x y z
#
# Youngs Moduli (GPa) = 74.23668 57.57534 54.65920
#
# Poissons Ratio (x) = 0.12754 0.39198
# Poissons Ratio (y) = 0.16445 -0.09349
# Poissons Ratio (z) = 0.53238 -0.09847
#
# Static dielectric constant tensor:
#      x y z
#    x 1.881110 -0.007150 -0.019060 
#    y -0.007150 1.837200 0.010970 
#    z -0.019060 0.010970 1.898740 
# 
# From -- ./inp_files/333209.got.cif
#   From: 2010.05.17/outbox.cif.g08.bks.cpg/sg2_167_cif.got.tgz:333209.got - 2010.06.03 11:33:40.
