data_PCOD9059059
_publ_section_title
;
Structure prediction by ZEFSAII (Michael W. Deem and Ramdas Pophale) SiO2 
 PCOD9059059
Probable space group: P -1
;
_chemical_formula_sum "Si O2"
_cell_formula_units_Z 16
_cell_length_a 11.644497
_cell_length_b 12.677560
_cell_length_c 6.499245
_cell_angle_alpha 52.770372
_cell_angle_beta 85.609728
_cell_angle_gamma 80.455420
_cell_volume 753.004846
_symmetry_space_group_name_H-M "P -1"
_symmetry_group_IT_number 2
_symmetry_cell_setting 'triclinic'
loop_
_space_group_symop_operation_xyz
x,y,z
-x,-y,-z
loop_
_atom_site_type_symbol
_atom_site_label
_atom_site_fract_x
_atom_site_fract_y
_atom_site_fract_z
Si Si1 0.675153 0.010992 0.519468
Si Si2 0.556737 0.414715 0.896867
Si Si3 0.002897 0.657742 0.775444
Si Si4 0.982400 0.161374 0.842852
Si Si5 0.374953 0.356490 0.670020
Si Si6 0.814619 0.763939 0.983318
Si Si7 0.453797 0.094719 0.706034
Si Si8 0.199087 0.769653 0.872774
O O1 0.563288 0.098684 0.535189
O O2 0.784982 0.088957 0.397862
O O3 0.710399 0.882261 0.809105
O O4 0.639136 0.966059 0.351435
O O5 0.460025 0.345853 0.869349
O O6 0.603572 0.513549 0.609745
O O7 0.500000 0.500000 0.000000
O O8 0.671455 0.311190 0.053045
O O9 0.111114 0.693196 0.850893
O O10 0.015079 0.735083 0.468587
O O11 0.880643 0.725029 0.809245
O O12 0.000000 0.500000 0.000000
O O13 0.089693 0.188737 0.938604
O O14 0.860009 0.201872 0.930858
O O15 0.000000 0.000000 0.000000
O O16 0.405238 0.235852 0.646698
O O17 0.244293 0.354653 0.769080
O O18 0.500000 0.000000 0.000000
#
# Coordination Sequence:
#
# PCOD9059059 Si02
#       8
#     2   2   2   2   2   2   2   2
#     4  11  24  41  69 102 141 180 223 286 346 413
#     4  11  27  45  68  97 141 182 228 281 346 412
#     4  11  28  45  71 100 135 181 235 287 346 406
#     4  11  26  47  72 101 138 180 231 290 349 409
#     4  11  26  42  67 102 135 181 231 275 343 419
#     4  11  26  42  70 102 134 178 231 279 347 411
#     4  11  23  40  65 105 141 179 227 277 345 415
#     4  11  26  44  70  99 136 176 233 277 349 412
#
# _framework density 21.248204000000001
#
# number of rings (size 3 to 8) (size 9 to 14) (size 15 to 20)
#    0.000    1.000    1.250    3.000   12.250    7.000 
#    0.000    0.000    0.000    0.000    0.000    0.000 
#    0.000    0.000    0.000    0.000    0.000    0.000 
#
# Total GULP energy -89400.274856 kJ/mol
# GULP energy per Si atom -5587.517178 kJ/mol
# Density = 2.119984 g / cm^3
# Si number density = 21.248204 Si / 1000 Ang^3
#
#
#
# Elastic Constant Matrix: (Units=GPa)
#
#
# Indices 1 2 3 4 5 6 
#
# 1 87.5286 32.7199 22.0459 2.4359 -23.8565 2.6795
# 2 32.7199 86.9263 39.4190 9.0761 -10.8560 7.0989
# 3 22.0459 39.4190 111.7984 -5.2843 -17.8208 1.8082
# 4 2.4359 9.0761 -5.2843 32.4983 2.8968 -7.4283
# 5 -23.8565 -10.8560 -17.8208 2.8968 40.4019 -9.7467
# 6 2.6795 7.0989 1.8082 -7.4283 -9.7467 34.2478
#
#
#
# Elastic Compliance Matrix: (Units=1/GPa)
#
#
# Indices 1 2 3 4 5 6 
#
# 1 0.015487 -0.004959 -0.000013 -0.000022 0.008335 0.002184
# 2 -0.004959 0.016596 -0.005320 -0.006025 -0.001468 -0.004496
# 3 -0.000013 -0.005320 0.011590 0.003564 0.003999 0.002403
# 4 -0.000022 -0.006025 0.003564 0.035026 -0.000518 0.008512
# 5 0.008335 -0.001468 0.003999 -0.000518 0.033197 0.008776
# 6 0.002184 -0.004496 0.002403 0.008512 0.008776 0.034177
#
#
# Mechanical properties :
#
#
# Convention : Reuss Voigt Hill
#
# Bulk Modulus (GPa) = 43.30932 52.73590 48.02261
# Shear Modulus (GPa) = 28.67734 34.23418 31.45576
#
# Velocity S-wave (km/s) = 3.67772 4.01828 3.85177
# Velocity P-wave (km/s) = 6.20170 6.81187 6.51393
#
# Compressibility (1/GPa) = 0.02308972
#
# Stress axis : x y z
#
# Youngs Moduli (GPa) = 64.56854 60.25635 86.28109
#
# Poissons Ratio (x) = 0.29879 0.00115
# Poissons Ratio (y) = 0.32018 0.45899
# Poissons Ratio (z) = 0.00086 0.32055
#
# Static dielectric constant tensor:
#      x y z
#    x 1.745120 -0.012880 -0.013170 
#    y -0.012880 1.785960 -0.029680 
#    z -0.013170 -0.029680 1.844270 
# 
# From -- ./inp_files/68436.got.cif
#   From: 2010.05.17/outbox.cif.g08.bks.cpg/sg2_35_cif.got.tgz:68436.got - 2010.06.03 11:33:40.
