data_PCOD9059035
_publ_section_title
;
Structure prediction by ZEFSAII (Michael W. Deem and Ramdas Pophale) SiO2 
 PCOD9059035
Probable space group: P -1
;
_chemical_formula_sum "Si O2"
_cell_formula_units_Z 16
_cell_length_a 9.137639
_cell_length_b 12.198239
_cell_length_c 12.404402
_cell_angle_alpha 68.451267
_cell_angle_beta 127.013354
_cell_angle_gamma 136.425248
_cell_volume 755.029359
_symmetry_space_group_name_H-M "P -1"
_symmetry_group_IT_number 2
_symmetry_cell_setting 'triclinic'
loop_
_space_group_symop_operation_xyz
x,y,z
-x,-y,-z
loop_
_atom_site_type_symbol
_atom_site_label
_atom_site_fract_x
_atom_site_fract_y
_atom_site_fract_z
Si Si1 0.555624 0.877141 0.273388
Si Si2 0.860967 0.903582 0.866637
Si Si3 0.507943 0.950802 0.641064
Si Si4 0.419350 0.598504 0.910221
Si Si5 0.002944 0.825168 0.765539
Si Si6 0.226459 0.675708 0.989507
Si Si7 0.941163 0.430932 0.380595
Si Si8 0.503492 0.633817 0.490252
O O1 0.570355 0.760309 0.385153
O O2 0.462986 0.935549 0.296350
O O3 0.389091 0.790349 0.122622
O O4 0.825479 0.037115 0.295639
O O5 0.746491 0.969380 0.738503
O O6 0.624992 0.730981 0.868997
O O7 0.031957 0.901248 0.865805
O O8 0.000000 0.000000 0.000000
O O9 0.262105 0.764376 0.630305
O O10 0.500000 0.000000 0.500000
O O11 0.385881 0.664977 0.979240
O O12 0.165809 0.513331 0.764024
O O13 0.500000 0.500000 0.000000
O O14 0.714511 0.724604 0.643928
O O15 0.099911 0.733228 0.853114
O O16 0.000000 0.500000 0.000000
O O17 0.000000 0.500000 0.500000
O O18 0.215507 0.524286 0.428278
O O19 0.500000 0.500000 0.500000
#
# Coordination Sequence:
#
# PCOD9059035 Si02
#       8
#     2   2   2   2   2   2   2   2
#     4  12  25  44  68  98 136 182 230 290 349 411
#     4  11  23  40  63  94 127 168 218 273 331 401
#     4  11  24  44  68  97 135 180 229 281 344 411
#     4  11  24  44  66  96 132 174 225 279 339 407
#     4  12  24  43  68  99 136 177 227 283 344 412
#     4  12  25  44  69 101 138 181 229 288 351 415
#     4  11  24  44  68  97 135 177 226 283 340 408
#     4  12  25  43  66  96 132 175 224 279 341 411
#
# _framework density 21.191229
#
# number of rings (size 3 to 8) (size 9 to 14) (size 15 to 20)
#    0.000    0.500    0.000   10.500    0.000    4.000 
#    0.000    0.000    0.000    0.000    0.000    0.000 
#    0.000    0.000    0.000    0.000    0.000    0.000 
#
# Total GULP energy -89395.085272 kJ/mol
# GULP energy per Si atom -5587.192829 kJ/mol
# Density = 2.114300 g / cm^3
# Si number density = 21.191229 Si / 1000 Ang^3
#
#
#
# Elastic Constant Matrix: (Units=GPa)
#
#
# Indices 1 2 3 4 5 6 
#
# 1 151.4481 44.0794 48.1027 -23.2082 2.6062 -19.6659
# 2 44.0794 92.3074 48.4053 -23.7306 12.1319 -12.0241
# 3 48.1027 48.4053 150.6306 -10.9340 14.5816 -22.7991
# 4 -23.2082 -23.7306 -10.9340 46.8196 -4.3991 -1.0519
# 5 2.6062 12.1319 14.5816 -4.3991 42.8210 3.2005
# 6 -19.6659 -12.0241 -22.7991 -1.0519 3.2005 34.7760
#
#
#
# Elastic Compliance Matrix: (Units=1/GPa)
#
#
# Indices 1 2 3 4 5 6 
#
# 1 0.008548 -0.002297 -0.001366 0.002887 0.000655 0.003172
# 2 -0.002297 0.015871 -0.003290 0.005929 -0.002812 0.002470
# 3 -0.001366 -0.003290 0.008968 -0.000381 -0.002390 0.004178
# 4 0.002887 0.005929 -0.000381 0.025857 0.000620 0.004158
# 5 0.000655 -0.002812 -0.002390 0.000620 0.025322 -0.004480
# 6 0.003172 0.002470 0.004178 0.004158 -0.004480 0.034680
#
#
# Mechanical properties :
#
#
# Convention : Reuss Voigt Hill
#
# Bulk Modulus (GPa) = 51.32861 75.06234 63.19548
# Shear Modulus (GPa) = 35.80476 41.80324 38.80400
#
# Velocity S-wave (km/s) = 4.11494 4.44629 4.28382
# Velocity P-wave (km/s) = 6.84479 7.86496 7.37254
#
# Compressibility (1/GPa) = 0.01948231
#
# Stress axis : x y z
#
# Youngs Moduli (GPa) = 116.98551 63.00829 111.50377
#
# Poissons Ratio (x) = 0.14470 0.15226
# Poissons Ratio (y) = 0.26867 0.36689
# Poissons Ratio (z) = 0.15975 0.20732
#
# Static dielectric constant tensor:
#      x y z
#    x 1.582930 -0.123860 -0.100950 
#    y -0.123860 1.682700 -0.079710 
#    z -0.100950 -0.079710 1.612770 
# 
# From -- ./inp_files/392486.got.cif
#   From: 2010.05.17/outbox.cif.g08.bks.cpg/sg2_197_cif.got.tgz:392486.got - 2010.06.03 11:33:40.
