data_PCOD9059094
_publ_section_title
;
Structure prediction by ZEFSAII (Michael W. Deem and Ramdas Pophale) SiO2 
 PCOD9059094
Probable space group: P -1
;
_chemical_formula_sum "Si O2"
_cell_formula_units_Z 16
_cell_length_a 10.277280
_cell_length_b 12.917897
_cell_length_c 15.574640
_cell_angle_alpha 132.625420
_cell_angle_beta 146.196239
_cell_angle_gamma 50.062231
_cell_volume 830.428759
_symmetry_space_group_name_H-M "P -1"
_symmetry_group_IT_number 2
_symmetry_cell_setting 'triclinic'
loop_
_space_group_symop_operation_xyz
x,y,z
-x,-y,-z
loop_
_atom_site_type_symbol
_atom_site_label
_atom_site_fract_x
_atom_site_fract_y
_atom_site_fract_z
Si Si1 0.040685 0.151663 0.488365
Si Si2 0.764808 0.923115 0.122559
Si Si3 0.036635 0.278014 0.737693
Si Si4 0.219218 0.535976 0.888812
Si Si5 0.141175 0.797973 0.120738
Si Si6 0.088701 0.527287 0.470045
Si Si7 0.565922 0.309708 0.608626
Si Si8 0.547473 0.992337 0.623786
O O1 0.958439 0.304330 0.482775
O O2 0.990015 0.178695 0.576431
O O3 0.916188 0.035290 0.308035
O O4 0.323217 0.095217 0.601942
O O5 0.780231 0.805775 0.139927
O O6 0.899947 0.850363 0.071397
O O7 0.500000 0.000000 0.000000
O O8 0.140892 0.408104 0.828465
O O9 0.788557 0.321967 0.677317
O O10 0.067032 0.542351 0.722284
O O11 0.500000 0.500000 0.000000
O O12 0.147403 0.679420 0.985344
O O13 0.329814 0.726297 0.258210
O O14 0.222945 0.936377 0.201769
O O15 0.363253 0.450015 0.571097
O O16 0.000000 0.500000 0.500000
O O17 0.455237 0.170645 0.443197
O O18 0.500000 0.000000 0.500000
#
# Coordination Sequence:
#
# PCOD9059094 Si02
#       8
#     2   2   2   2   2   2   2   2
#     4  11  21  40  65  88 125 167 211 259 305 381
#     4  11  24  38  61  96 127 168 204 263 316 376
#     4  10  23  42  64  89 124 172 216 249 320 376
#     4  11  24  43  63  92 133 165 202 266 328 379
#     4  10  21  40  62  91 128 166 207 254 327 375
#     4  11  24  39  67  96 121 165 219 261 308 369
#     4  10  21  38  65  93 120 168 216 260 304 373
#     4  10  17  37  65  84 121 167 212 247 306 374
#
# _framework density 19.267154999999999
#
# number of rings (size 3 to 8) (size 9 to 14) (size 15 to 20)
#    0.000    1.500    3.750    4.125    0.000    8.000 
#    0.000    0.625    0.000    0.000    0.000    0.000 
#    0.000    0.000    0.000    0.000    0.000    0.000 
#
# Total GULP energy -89356.253578 kJ/mol
# GULP energy per Si atom -5584.765849 kJ/mol
# Density = 1.922330 g / cm^3
# Si number density = 19.267155 Si / 1000 Ang^3
#
#
#
# Elastic Constant Matrix: (Units=GPa)
#
#
# Indices 1 2 3 4 5 6 
#
# 1 111.9905 33.6534 49.1738 2.8484 -9.9286 3.1462
# 2 33.6534 76.8337 16.3971 3.3245 -6.9552 -2.1030
# 3 49.1738 16.3971 65.6179 9.2456 -10.9415 0.2096
# 4 2.8484 3.3245 9.2456 39.5838 -3.3462 2.5386
# 5 -9.9286 -6.9552 -10.9415 -3.3462 20.5629 9.0539
# 6 3.1462 -2.1030 0.2096 2.5386 9.0539 27.7623
#
#
#
# Elastic Compliance Matrix: (Units=1/GPa)
#
#
# Indices 1 2 3 4 5 6 
#
# 1 0.014803 -0.004346 -0.009958 0.001962 0.001900 -0.002731
# 2 -0.004346 0.015209 -0.000014 -0.000807 0.002511 0.000900
# 3 -0.009958 -0.000014 0.024682 -0.004266 0.008220 -0.001350
# 4 0.001962 -0.000807 -0.004266 0.026848 0.004630 -0.004216
# 5 0.001900 0.002511 0.008220 0.004630 0.065098 -0.021740
# 6 -0.002731 0.000900 -0.001350 -0.004216 -0.021740 0.043883
#
#
# Mechanical properties :
#
#
# Convention : Reuss Voigt Hill
#
# Bulk Modulus (GPa) = 38.37740 50.32119 44.34929
# Shear Modulus (GPa) = 21.94476 27.92966 24.93721
#
# Velocity S-wave (km/s) = 3.37853 3.81149 3.60152
# Velocity P-wave (km/s) = 5.93136 6.74865 6.35316
#
# Compressibility (1/GPa) = 0.02605700
#
# Stress axis : x y z
#
# Youngs Moduli (GPa) = 67.55282 65.75231 40.51556
#
# Poissons Ratio (x) = 0.28578 0.40346
# Poissons Ratio (y) = 0.29360 0.00056
# Poissons Ratio (z) = 0.67270 0.00091
#
# Static dielectric constant tensor:
#      x y z
#    x 1.635170 0.030140 -0.015510 
#    y 0.030140 1.667040 0.029310 
#    z -0.015510 0.029310 1.670410 
# 
# From -- ./inp_files/278568.got.cif
#   From: 2010.05.17/outbox.cif.g08.bks.cpg/sg2_140_cif.got.tgz:278568.got - 2010.06.03 11:33:40.
