data_PCOD9059073
_publ_section_title
;
Structure prediction by ZEFSAII (Michael W. Deem and Ramdas Pophale) SiO2 
 PCOD9059073
Probable space group: P -1
;
_chemical_formula_sum "Si O2"
_cell_formula_units_Z 16
_cell_length_a 16.219784
_cell_length_b 9.251402
_cell_length_c 11.611051
_cell_angle_alpha 50.049433
_cell_angle_beta 144.884132
_cell_angle_gamma 117.209984
_cell_volume 759.117726
_symmetry_space_group_name_H-M "P -1"
_symmetry_group_IT_number 2
_symmetry_cell_setting 'triclinic'
loop_
_space_group_symop_operation_xyz
x,y,z
-x,-y,-z
loop_
_atom_site_type_symbol
_atom_site_label
_atom_site_fract_x
_atom_site_fract_y
_atom_site_fract_z
Si Si1 0.584058 0.125485 0.614848
Si Si2 0.909788 0.160077 0.896060
Si Si3 0.236683 0.513099 0.590859
Si Si4 0.500745 0.937438 0.194076
Si Si5 0.800869 0.877852 0.295373
Si Si6 0.017897 0.079644 0.309788
Si Si7 0.502886 0.563361 0.252965
Si Si8 0.723317 0.233138 0.274886
O O1 0.749736 0.111454 0.768450
O O2 0.567937 0.055235 0.761295
O O3 0.513593 0.348673 0.419974
O O4 0.500000 0.000000 0.500000
O O5 0.879569 0.354004 0.688796
O O6 0.000000 0.000000 0.000000
O O7 0.985956 0.171791 0.101231
O O8 0.189556 0.312387 0.671680
O O9 0.379018 0.456609 0.704061
O O10 0.275509 0.632673 0.682375
O O11 0.538576 0.719855 0.305604
O O12 0.627742 0.065238 0.276033
O O13 0.365851 0.039066 0.911498
O O14 0.874521 0.038799 0.232905
O O15 0.888000 0.821718 0.541717
O O16 0.115651 0.873113 0.509606
O O17 0.349615 0.645175 0.977703
#
# Coordination Sequence:
#
# PCOD9059073 Si02
#       8
#     2   2   2   2   2   2   2   2
#     4  11  26  44  66  98 131 171 217 272 323 385
#     4  11  23  45  65  92 134 172 211 265 328 392
#     4  11  24  41  66  98 130 169 220 271 326 387
#     4  12  22  43  68  95 131 173 217 274 318 392
#     4  11  24  43  66  97 130 172 221 270 327 383
#     4  11  24  44  66  93 133 173 216 268 328 391
#     4  11  23  40  65  98 129 169 218 267 327 379
#     4  12  23  40  70  98 129 170 222 272 323 389
#
# _framework density 21.077100000000002
#
# number of rings (size 3 to 8) (size 9 to 14) (size 15 to 20)
#    0.000    0.750    5.000    3.375    1.750    1.000 
#    2.250    0.000    0.000    0.000    0.000    0.000 
#    0.000    0.000    0.000    0.000    0.000    0.000 
#
# Total GULP energy -89446.640196 kJ/mol
# GULP energy per Si atom -5590.415012 kJ/mol
# Density = 2.102913 g / cm^3
# Si number density = 21.077100 Si / 1000 Ang^3
#
#
#
# Elastic Constant Matrix: (Units=GPa)
#
#
# Indices 1 2 3 4 5 6 
#
# 1 58.2600 23.3309 3.4551 6.1335 -1.2549 -16.5051
# 2 23.3309 140.4313 25.3587 8.8307 -5.2826 -27.8921
# 3 3.4551 25.3587 75.0834 6.9165 -5.7192 -5.4996
# 4 6.1335 8.8307 6.9165 29.6925 -6.9127 -5.7384
# 5 -1.2549 -5.2826 -5.7192 -6.9127 37.7107 -0.3376
# 6 -16.5051 -27.8921 -5.4996 -5.7384 -0.3376 37.1699
#
#
#
# Elastic Compliance Matrix: (Units=1/GPa)
#
#
# Indices 1 2 3 4 5 6 
#
# 1 0.020185 -0.001836 0.000446 -0.002287 0.000128 0.007300
# 2 -0.001836 0.009027 -0.002455 -0.000481 0.000793 0.005529
# 3 0.000446 -0.002455 0.014465 -0.002371 0.001431 0.000143
# 4 -0.002287 -0.000481 -0.002371 0.037105 0.006335 0.004059
# 5 0.000128 0.000793 0.001431 0.006335 0.028030 0.002096
# 6 0.007300 0.005529 0.000143 0.004059 0.002096 0.034960
#
#
# Mechanical properties :
#
#
# Convention : Reuss Voigt Hill
#
# Bulk Modulus (GPa) = 27.78656 42.00712 34.89684
# Shear Modulus (GPa) = 30.58903 35.68996 33.13949
#
# Velocity S-wave (km/s) = 3.81372 4.11944 3.96952
# Velocity P-wave (km/s) = 5.71003 6.52686 6.13206
#
# Compressibility (1/GPa) = 0.03598862
#
# Stress axis : x y z
#
# Youngs Moduli (GPa) = 49.54285 110.77503 69.13251
#
# Poissons Ratio (x) = 0.20333 -0.03085
# Poissons Ratio (y) = 0.09094 0.16971
# Poissons Ratio (z) = -0.02211 0.27193
#
# Static dielectric constant tensor:
#      x y z
#    x 1.751160 -0.000560 -0.009220 
#    y -0.000560 1.743810 0.001030 
#    z -0.009220 0.001030 1.792070 
# 
# From -- ./inp_files/175220.got.cif
#   From: 2010.05.17/outbox.cif.g08.bks.cpg/sg2_88_cif.got.tgz:175220.got - 2010.06.03 11:33:40.
