data_PCOD9059555
_publ_section_title
;
Structure prediction by ZEFSAII (Michael W. Deem and Ramdas Pophale) SiO2 
 PCOD9059555
Probable space group: P -1
;
_chemical_formula_sum "Si O2"
_cell_formula_units_Z 14
_cell_length_a 21.758070
_cell_length_b 7.228825
_cell_length_c 5.124377
_cell_angle_alpha 84.061725
_cell_angle_beta 117.199357
_cell_angle_gamma 117.772180
_cell_volume 628.113496
_symmetry_space_group_name_H-M "P -1"
_symmetry_group_IT_number 2
_symmetry_cell_setting 'triclinic'
loop_
_space_group_symop_operation_xyz
x,y,z
-x,-y,-z
loop_
_atom_site_type_symbol
_atom_site_label
_atom_site_fract_x
_atom_site_fract_y
_atom_site_fract_z
Si Si1 0.547907 0.197045 0.874255
Si Si2 0.253639 0.774641 0.428612
Si Si3 0.170382 0.030934 0.355401
Si Si4 0.397116 0.074193 0.321989
Si Si5 0.908038 0.912161 0.316086
Si Si6 0.228940 0.507249 0.918943
Si Si7 0.328721 0.348433 0.877707
O O1 0.409403 0.891792 0.227210
O O2 0.604801 0.415291 0.097619
O O3 0.517596 0.772325 0.417330
O O4 0.500000 0.000000 0.000000
O O5 0.259525 0.688945 0.733978
O O6 0.188608 0.849421 0.316301
O O7 0.334567 0.963051 0.448369
O O8 0.229944 0.596285 0.190635
O O9 0.123281 0.983285 0.542524
O O10 0.257191 0.223693 0.558798
O O11 0.121382 0.070221 0.031195
O O12 0.365435 0.200110 0.060999
O O13 0.857973 0.662692 0.312462
O O14 0.000000 0.000000 0.500000
O O15 0.283419 0.394087 0.020798
#
# Coordination Sequence:
#
# PCOD9059555 Si02
#       7
#     2   2   2   2   2   2   2
#     4  11  25  46  65 102 144 188 246 302 373 416
#     4  12  23  45  69 104 141 182 245 297 344 419
#     4  11  25  44  74 106 141 190 241 289 356 436
#     4  11  25  43  69  99 145 191 238 315 353 425
#     4  11  24  48  72 108 147 188 233 291 362 434
#     4  11  23  41  72 103 135 189 233 292 354 427
#     4  11  23  45  69 103 137 193 246 289 369 420
#
# _framework density 22.288965999999999
#
# number of rings (size 3 to 8) (size 9 to 14) (size 15 to 20)
#    0.000    0.857    1.429    6.857    2.000    0.571 
#    7.714    4.286    0.000    0.000    0.000    0.000 
#    0.000    0.000    0.000    0.000    0.000    0.000 
#
# Total GULP energy -78332.109431 kJ/mol
# GULP energy per Si atom -5595.150674 kJ/mol
# Density = 2.223824 g / cm^3
# Si number density = 22.288966 Si / 1000 Ang^3
#
#
#
# Elastic Constant Matrix: (Units=GPa)
#
#
# Indices 1 2 3 4 5 6 
#
# 1 123.2624 44.7949 48.6931 8.7453 20.9818 0.8525
# 2 44.7949 69.9992 21.7312 -3.4738 21.9417 -4.7050
# 3 48.6931 21.7312 112.4569 -2.4077 23.8502 -4.5921
# 4 8.7453 -3.4738 -2.4077 32.6330 0.3890 -3.2781
# 5 20.9818 21.9417 23.8502 0.3890 46.6158 5.9421
# 6 0.8525 -4.7050 -4.5921 -3.2781 5.9421 35.5552
#
#
#
# Elastic Compliance Matrix: (Units=1/GPa)
#
#
# Indices 1 2 3 4 5 6 
#
# 1 0.012814 -0.007311 -0.004386 -0.004772 0.000254 -0.002324
# 2 -0.007311 0.021795 0.000994 0.004953 -0.008156 0.005008
# 3 -0.004386 0.000994 0.011810 0.002494 -0.004916 0.002814
# 4 -0.004772 0.004953 0.002494 0.033117 -0.002313 0.004532
# 5 0.000254 -0.008156 -0.004916 -0.002313 0.028566 -0.006708
# 6 -0.002324 0.005008 0.002814 0.004532 -0.006708 0.030746
#
#
# Mechanical properties :
#
#
# Convention : Reuss Voigt Hill
#
# Bulk Modulus (GPa) = 39.97961 59.57299 49.77630
# Shear Modulus (GPa) = 29.65748 35.66077 32.65913
#
# Velocity S-wave (km/s) = 3.65168 4.00425 3.83202
# Velocity P-wave (km/s) = 5.97960 6.94005 6.47765
#
# Compressibility (1/GPa) = 0.02501275
#
# Stress axis : x y z
#
# Youngs Moduli (GPa) = 78.04023 45.88260 84.67194
#
# Poissons Ratio (x) = 0.33544 0.37141
# Poissons Ratio (y) = 0.57055 -0.08419
# Poissons Ratio (z) = 0.34232 -0.04562
#
# Static dielectric constant tensor:
#      x y z
#    x 1.823170 0.018990 -0.009770 
#    y 0.018990 1.856370 0.001560 
#    z -0.009770 0.001560 1.839840 
# 
# From -- ./inp_files/114683.got.cif
#   From: 2010.05.17/outbox.cif.g08.bks.cpg/sg2_58_cif.got.tgz:114683.got - 2010.06.03 11:33:40.
