data_PCOD9059486
_publ_section_title
;
Structure prediction by ZEFSAII (Michael W. Deem and Ramdas Pophale) SiO2 
 PCOD9059486
Probable space group: P -1
;
_chemical_formula_sum "Si O2"
_cell_formula_units_Z 16
_cell_length_a 10.925153
_cell_length_b 13.777703
_cell_length_c 9.447968
_cell_angle_alpha 96.899692
_cell_angle_beta 58.358849
_cell_angle_gamma 136.120471
_cell_volume 754.761149
_symmetry_space_group_name_H-M "P -1"
_symmetry_group_IT_number 2
_symmetry_cell_setting 'triclinic'
loop_
_space_group_symop_operation_xyz
x,y,z
-x,-y,-z
loop_
_atom_site_type_symbol
_atom_site_label
_atom_site_fract_x
_atom_site_fract_y
_atom_site_fract_z
Si Si1 0.233388 0.282580 0.176635
Si Si2 0.318044 0.610196 0.089234
Si Si3 0.796986 0.079463 0.944001
Si Si4 0.184619 0.450935 0.420048
Si Si5 0.709846 0.198895 0.790696
Si Si6 0.449036 0.587393 0.571915
Si Si7 0.931452 0.953698 0.368088
Si Si8 0.843304 0.626142 0.024411
O O1 0.229401 0.365558 0.313002
O O2 0.443673 0.318709 0.078509
O O3 0.260184 0.348741 0.018634
O O4 0.000175 0.096101 0.289418
O O5 0.291863 0.582789 0.267760
O O6 0.300691 0.713705 0.081863
O O7 0.108352 0.437990 0.120801
O O8 0.765325 0.132215 0.835949
O O9 0.910199 0.040380 0.810717
O O10 0.961844 0.217794 0.979698
O O11 0.545782 0.937060 0.137493
O O12 0.293495 0.528635 0.520509
O O13 0.913583 0.318157 0.578167
O O14 0.500000 0.500000 0.500000
O O15 0.674741 0.774438 0.477824
O O16 0.312694 0.509500 0.787221
O O17 0.000000 0.000000 0.500000
#
# Coordination Sequence:
#
# PCOD9059486 Si02
#       8
#     2   2   2   2   2   2   2   2
#     4  11  24  43  68 100 136 170 216 278 334 383
#     4  11  23  41  69  96 134 170 220 272 329 390
#     4  11  24  41  66  91 136 178 214 269 330 394
#     4  11  23  44  67  97 130 176 216 271 332 387
#     4  11  23  44  63  92 134 180 216 261 330 399
#     4  12  21  38  67  95 131 165 219 273 321 384
#     4  12  24  40  66 102 133 171 220 273 334 385
#     4  11  23  42  64 101 129 172 218 279 328 383
#
# _framework density 21.19876
#
# number of rings (size 3 to 8) (size 9 to 14) (size 15 to 20)
#    0.000    0.750    3.750    5.625    0.000    2.000 
#    0.000    2.500    0.000    0.000    0.000    0.000 
#    0.000    0.000    0.000    0.000    0.000    0.000 
#
# Total GULP energy -89312.834147 kJ/mol
# GULP energy per Si atom -5582.052134 kJ/mol
# Density = 2.115051 g / cm^3
# Si number density = 21.198760 Si / 1000 Ang^3
#
#
#
# Elastic Constant Matrix: (Units=GPa)
#
#
# Indices 1 2 3 4 5 6 
#
# 1 35.9777 37.4343 36.4501 0.9077 -2.3693 2.8899
# 2 37.4343 156.9804 44.0059 -17.8855 -0.6767 13.3330
# 3 36.4501 44.0059 84.2687 -6.7311 2.0176 23.7588
# 4 0.9077 -17.8855 -6.7311 25.1900 3.5405 3.8367
# 5 -2.3693 -0.6767 2.0176 3.5405 34.4465 0.7189
# 6 2.8899 13.3330 23.7588 3.8367 0.7189 38.6183
#
#
#
# Elastic Compliance Matrix: (Units=1/GPa)
#
#
# Indices 1 2 3 4 5 6 
#
# 1 0.076398 -0.013348 -0.034811 -0.026299 0.009260 0.022748
# 2 -0.013348 0.010331 0.002618 0.009537 -0.001742 -0.005094
# 3 -0.034811 0.002618 0.032495 0.015566 -0.005434 -0.019736
# 4 -0.026299 0.009537 0.015566 0.055155 -0.007863 -0.016234
# 5 0.009260 -0.001742 -0.005434 -0.007863 0.030688 0.003462
# 6 0.022748 -0.005094 -0.019736 -0.016234 0.003462 0.039641
#
#
# Mechanical properties :
#
#
# Convention : Reuss Voigt Hill
#
# Bulk Modulus (GPa) = 35.53444 57.00080 46.26762
# Shear Modulus (GPa) = 14.48567 30.27339 22.37953
#
# Velocity S-wave (km/s) = 2.61689 3.78309 3.25268
# Velocity P-wave (km/s) = 5.09212 6.78450 5.99830
#
# Compressibility (1/GPa) = 0.02814171
#
# Stress axis : x y z
#
# Youngs Moduli (GPa) = 13.08938 96.79634 30.77435
#
# Poissons Ratio (x) = 1.29206 1.07129
# Poissons Ratio (y) = 0.17472 -0.08058
# Poissons Ratio (z) = 0.45565 -0.25346
#
# Static dielectric constant tensor:
#      x y z
#    x 1.891120 0.110260 0.251620 
#    y 0.110260 1.954500 0.310680 
#    z 0.251620 0.310680 2.523970 
# 
# From -- ./inp_files/273319.got.cif
#   From: 2010.05.17/outbox.cif.g08.bks.cpg/sg2_137_cif.got.tgz:273319.got - 2010.06.03 11:33:40.
