data_PCOD9059694
_publ_section_title
;
Structure prediction by ZEFSAII (Michael W. Deem and Ramdas Pophale) SiO2 
 PCOD9059694
Probable space group: P -1
;
_chemical_formula_sum "Si O2"
_cell_formula_units_Z 16
_cell_length_a 14.793591
_cell_length_b 17.590727
_cell_length_c 23.494309
_cell_angle_alpha 21.149590
_cell_angle_beta 160.350200
_cell_angle_gamma 149.817693
_cell_volume 736.904510
_symmetry_space_group_name_H-M "P -1"
_symmetry_group_IT_number 2
_symmetry_cell_setting 'triclinic'
loop_
_space_group_symop_operation_xyz
x,y,z
-x,-y,-z
loop_
_atom_site_type_symbol
_atom_site_label
_atom_site_fract_x
_atom_site_fract_y
_atom_site_fract_z
Si Si1 0.682509 0.022223 0.813604
Si Si2 0.387035 0.436841 0.413836
Si Si3 0.052438 0.010099 0.295786
Si Si4 0.805154 0.610661 0.966189
Si Si5 0.217584 0.332027 0.678763
Si Si6 0.723555 0.624857 0.189466
Si Si7 0.770545 0.362291 0.938168
Si Si8 0.535458 0.731227 0.831067
O O1 0.556137 0.930610 0.745689
O O2 0.556536 0.236886 0.621519
O O3 0.626738 0.839133 0.951639
O O4 0.000000 0.000000 0.000000
O O5 0.500000 0.500000 0.500000
O O6 0.352301 0.601221 0.224440
O O7 0.064021 0.434181 0.235356
O O8 0.161687 0.188576 0.195360
O O9 0.285890 0.826452 0.577742
O O10 0.816825 0.894245 0.209129
O O11 0.923464 0.127396 0.192719
O O12 0.524841 0.514425 0.855415
O O13 0.786514 0.688025 0.966652
O O14 0.166577 0.314400 0.727158
O O15 0.511206 0.399262 0.797552
O O16 0.985582 0.506586 0.395680
O O17 0.000000 0.500000 0.000000
O O18 0.500000 0.500000 0.000000
#
# Coordination Sequence:
#
# PCOD9059694 Si02
#       8
#     2   2   2   2   2   2   2   2
#     4  12  26  44  70 100 141 191 238 290 368 426
#     4  11  26  45  72 105 142 189 238 301 362 427
#     4  11  24  41  75  99 135 189 235 291 360 420
#     4  11  24  47  68 104 146 186 238 294 359 433
#     4  11  23  42  67 102 136 177 241 291 350 426
#     4  11  25  42  67 102 139 185 231 297 352 433
#     4  11  24  47  69 101 142 185 238 298 357 430
#     4  12  24  45  69 106 144 185 238 297 359 430
#
# _framework density 21.712447000000001
#
# number of rings (size 3 to 8) (size 9 to 14) (size 15 to 20)
#    0.000    0.750    2.500    4.500    5.250    2.500 
#    2.250    0.000    0.000    0.000    0.000    0.000 
#    0.000    0.000    0.000    0.000    0.000    0.000 
#
# Total GULP energy -89091.476494 kJ/mol
# GULP energy per Si atom -5568.217281 kJ/mol
# Density = 2.166303 g / cm^3
# Si number density = 21.712447 Si / 1000 Ang^3
#
#
#
# Elastic Constant Matrix: (Units=GPa)
#
#
# Indices 1 2 3 4 5 6 
#
# 1 73.7899 8.4322 39.0299 -7.7209 21.3681 -14.4027
# 2 8.4322 106.5114 46.7346 1.5242 18.4413 -9.8758
# 3 39.0299 46.7346 105.1524 -6.2219 34.4188 6.0832
# 4 -7.7209 1.5242 -6.2219 22.4784 -0.2101 8.8336
# 5 21.3681 18.4413 34.4188 -0.2101 49.6437 -4.5411
# 6 -14.4027 -9.8758 6.0832 8.8336 -4.5411 43.5750
#
#
#
# Elastic Compliance Matrix: (Units=1/GPa)
#
#
# Indices 1 2 3 4 5 6 
#
# 1 0.020227 0.003336 -0.008227 0.001281 -0.003507 0.007965
# 2 0.003336 0.013102 -0.007441 -0.004119 -0.000623 0.005881
# 3 -0.008227 -0.007441 0.019411 0.006628 -0.007974 -0.009290
# 4 0.001281 -0.004119 0.006628 0.051882 -0.004534 -0.012425
# 5 -0.003507 -0.000623 -0.007974 -0.004534 0.027725 0.003621
# 6 0.007965 0.005881 -0.009290 -0.012425 0.003621 0.031108
#
#
# Mechanical properties :
#
#
# Convention : Reuss Voigt Hill
#
# Bulk Modulus (GPa) = 35.61979 52.64970 44.13475
# Shear Modulus (GPa) = 25.31942 35.88988 30.60465
#
# Velocity S-wave (km/s) = 3.41856 4.07008 3.75846
# Velocity P-wave (km/s) = 5.65888 6.81092 6.26145
#
# Compressibility (1/GPa) = 0.02807428
#
# Stress axis : x y z
#
# Youngs Moduli (GPa) = 49.43935 76.32581 51.51794
#
# Poissons Ratio (x) = -0.25463 0.42385
# Poissons Ratio (y) = -0.16493 0.38336
# Poissons Ratio (z) = 0.40675 0.56796
#
# Static dielectric constant tensor:
#      x y z
#    x 1.868430 -0.064340 -0.046240 
#    y -0.064340 1.905080 0.148430 
#    z -0.046240 0.148430 2.080310 
# 
# From -- ./inp_files/612193.got.cif
#   From: 2010.05.17/outbox.cif.g08.bks.cpg/sg2_307_cif.got.tgz:612193.got - 2010.06.03 11:33:40.
