data_PCOD9059664
_publ_section_title
;
Structure prediction by ZEFSAII (Michael W. Deem and Ramdas Pophale) SiO2 
 PCOD9059664
Probable space group: P -1
;
_chemical_formula_sum "Si O2"
_cell_formula_units_Z 14
_cell_length_a 12.501393
_cell_length_b 20.739355
_cell_length_c 8.789058
_cell_angle_alpha 139.403196
_cell_angle_beta 119.809225
_cell_angle_gamma 29.000622
_cell_volume 609.952338
_symmetry_space_group_name_H-M "P -1"
_symmetry_group_IT_number 2
_symmetry_cell_setting 'triclinic'
loop_
_space_group_symop_operation_xyz
x,y,z
-x,-y,-z
loop_
_atom_site_type_symbol
_atom_site_label
_atom_site_fract_x
_atom_site_fract_y
_atom_site_fract_z
Si Si1 0.363951 0.346123 0.317254
Si Si2 0.046193 0.215771 0.736170
Si Si3 0.276551 0.627515 0.692330
Si Si4 0.415413 0.859843 0.575451
Si Si5 0.443441 0.629446 0.079372
Si Si6 0.965198 0.493809 0.138676
Si Si7 0.862829 0.990622 0.844156
O O1 0.323957 0.491986 0.572187
O O2 0.485305 0.207594 0.302418
O O3 0.108327 0.471051 0.307413
O O4 0.567331 0.202305 0.065103
O O5 0.123640 0.069515 0.418870
O O6 0.737322 0.441582 0.897832
O O7 0.174159 0.096885 0.775386
O O8 0.114674 0.282096 0.876613
O O9 0.500000 0.500000 0.500000
O O10 0.272193 0.716710 0.973570
O O11 0.016091 0.806596 0.732600
O O12 0.666151 0.701351 0.358977
O O13 0.334090 0.803216 0.392846
O O14 0.500000 0.500000 0.000000
O O15 0.000000 0.500000 0.000000
O O16 0.000000 0.000000 0.000000
#
# Coordination Sequence:
#
# PCOD9059664 Si02
#       7
#     2   2   2   2   2   2   2
#     4  12  26  43  67 100 131 177 219 270 331 390
#     4  11  25  44  66  97 133 172 222 274 327 392
#     4  12  23  42  67  96 138 173 218 271 325 390
#     4  11  26  44  68  98 134 172 222 273 330 396
#     4  11  23  42  65  99 137 174 214 269 338 389
#     4  11  26  47  71  94 129 174 226 275 328 391
#     4  12  24  40  67  99 131 170 221 266 325 394
#
# _framework density 22.952614000000001
#
# number of rings (size 3 to 8) (size 9 to 14) (size 15 to 20)
#    0.000    0.571    4.286    3.000    4.000    4.571 
#    0.000    0.000    0.000    0.000    0.000    0.000 
#    0.000    0.000    0.000    0.000    0.000    0.000 
#
# Total GULP energy -78225.926246 kJ/mol
# GULP energy per Si atom -5587.566160 kJ/mol
# Density = 2.290037 g / cm^3
# Si number density = 22.952614 Si / 1000 Ang^3
#
#
#
# Elastic Constant Matrix: (Units=GPa)
#
#
# Indices 1 2 3 4 5 6 
#
# 1 77.8017 9.6843 8.5630 -5.5162 19.6200 8.0783
# 2 9.6843 97.2564 -7.1709 -16.6577 12.3629 12.5661
# 3 8.5630 -7.1709 44.3433 -2.6920 8.0448 -7.2365
# 4 -5.5162 -16.6577 -2.6920 36.6237 3.3746 1.6240
# 5 19.6200 12.3629 8.0448 3.3746 31.2029 6.4875
# 6 8.0783 12.5661 -7.2365 1.6240 6.4875 44.8731
#
#
#
# Elastic Compliance Matrix: (Units=1/GPa)
#
#
# Indices 1 2 3 4 5 6 
#
# 1 0.015854 0.000402 -0.001324 0.003457 -0.009767 -0.001893
# 2 0.000402 0.012762 0.003146 0.006790 -0.006342 -0.002468
# 3 -0.001324 0.003146 0.025821 0.003702 -0.008430 0.004606
# 4 0.003457 0.006790 0.003702 0.032087 -0.008915 -0.001799
# 5 -0.009767 -0.006342 -0.008430 -0.008915 0.044663 -0.003960
# 6 -0.001893 -0.002468 0.004606 -0.001799 -0.003960 0.024697
#
#
# Mechanical properties :
#
#
# Convention : Reuss Voigt Hill
#
# Bulk Modulus (GPa) = 16.98186 26.83934 21.91060
# Shear Modulus (GPa) = 29.22887 36.42829 32.82858
#
# Velocity S-wave (km/s) = 3.57241 3.98817 3.78600
# Velocity P-wave (km/s) = 4.94276 5.73813 5.35523
#
# Compressibility (1/GPa) = 0.05888636
#
# Stress axis : x y z
#
# Youngs Moduli (GPa) = 63.07754 78.35755 38.72752
#
# Poissons Ratio (x) = -0.03151 0.05126
# Poissons Ratio (y) = -0.02536 -0.12184
# Poissons Ratio (z) = 0.08349 -0.24653
#
# Static dielectric constant tensor:
#      x y z
#    x 1.706260 0.162970 0.061700 
#    y 0.162970 1.715420 -0.045290 
#    z 0.061700 -0.045290 1.897060 
# 
# From -- ./inp_files/99551.got.cif
#   From: 2010.05.17/outbox.cif.g08.bks.cpg/sg2_50_cif.got.tgz:99551.got - 2010.06.03 11:33:40.
