data_PCOD9059572
_publ_section_title
;
Structure prediction by ZEFSAII (Michael W. Deem and Ramdas Pophale) SiO2 
 PCOD9059572
Probable space group: P -1
;
_chemical_formula_sum "Si O2"
_cell_formula_units_Z 14
_cell_length_a 16.022522
_cell_length_b 9.777322
_cell_length_c 15.582201
_cell_angle_alpha 35.287906
_cell_angle_beta 141.510311
_cell_angle_gamma 150.318902
_cell_volume 674.794425
_symmetry_space_group_name_H-M "P -1"
_symmetry_group_IT_number 2
_symmetry_cell_setting 'triclinic'
loop_
_space_group_symop_operation_xyz
x,y,z
-x,-y,-z
loop_
_atom_site_type_symbol
_atom_site_label
_atom_site_fract_x
_atom_site_fract_y
_atom_site_fract_z
Si Si1 0.530168 0.205131 0.002184
Si Si2 0.058747 0.338025 0.875924
Si Si3 0.289833 0.319830 0.691362
Si Si4 0.125231 0.627615 0.452603
Si Si5 0.377113 0.684026 0.271374
Si Si6 0.554364 0.712125 0.563081
Si Si7 0.994365 0.594812 0.849878
O O1 0.731632 0.419435 0.079294
O O2 0.416725 0.969519 0.108289
O O3 0.460323 0.390742 0.835042
O O4 0.500000 0.000000 0.000000
O O5 0.978000 0.395044 0.702502
O O6 0.998920 0.389715 0.890202
O O7 0.000000 0.000000 0.000000
O O8 0.198441 0.444117 0.595074
O O9 0.371409 0.492263 0.578364
O O10 0.150596 0.949701 0.770141
O O11 0.000000 0.500000 0.500000
O O12 0.294597 0.983575 0.420781
O O13 0.520013 0.798538 0.400318
O O14 0.388272 0.488419 0.310803
O O15 0.187197 0.472354 0.267516
O O16 0.000000 0.500000 0.000000
#
# Coordination Sequence:
#
# PCOD9059572 Si02
#       7
#     2   2   2   2   2   2   2
#     4  12  22  46  71 104 138 193 243 295 360 436
#     4  12  28  46  76 108 150 192 245 305 370 433
#     4  12  25  44  76  97 147 190 242 298 370 431
#     4  12  28  47  70 108 153 191 242 308 373 427
#     4  11  23  41  73 101 138 189 249 293 359 446
#     4  11  24  44  69 103 145 188 239 304 368 435
#     4  12  25  45  73 108 141 188 250 299 364 431
#
# _framework density 20.747060000000001
#
# number of rings (size 3 to 8) (size 9 to 14) (size 15 to 20)
#    0.000    0.286    4.286    3.857    4.000    5.714 
#    0.000    2.143    0.000    0.000    0.000    0.000 
#    0.000    0.000    0.000    0.000    0.000    0.000 
#
# Total GULP energy -78300.278800 kJ/mol
# GULP energy per Si atom -5592.877057 kJ/mol
# Density = 2.069984 g / cm^3
# Si number density = 20.747060 Si / 1000 Ang^3
#
#
#
# Elastic Constant Matrix: (Units=GPa)
#
#
# Indices 1 2 3 4 5 6 
#
# 1 155.6359 51.4538 47.0703 -11.7731 16.8112 -4.1831
# 2 51.4538 128.9924 33.8509 8.8286 -3.1311 -1.3228
# 3 47.0703 33.8509 125.8242 4.2892 3.8435 -21.2288
# 4 -11.7731 8.8286 4.2892 30.7151 10.5577 -0.4008
# 5 16.8112 -3.1311 3.8435 10.5577 42.8915 -1.0134
# 6 -4.1831 -1.3228 -21.2288 -0.4008 -1.0134 35.7338
#
#
#
# Elastic Compliance Matrix: (Units=1/GPa)
#
#
# Indices 1 2 3 4 5 6 
#
# 1 0.009612 -0.003726 -0.002790 0.007039 -0.005539 -0.000749
# 2 -0.003726 0.010048 -0.001379 -0.005379 0.003622 -0.000841
# 3 -0.002790 -0.001379 0.010395 -0.002313 0.000768 0.005794
# 4 0.007039 -0.005379 -0.002313 0.041658 -0.013214 -0.000657
# 5 -0.005539 0.003622 0.000768 -0.013214 0.028949 0.000615
# 6 -0.000749 -0.000841 0.005794 -0.000657 0.000615 0.031318
#
#
# Mechanical properties :
#
#
# Convention : Reuss Voigt Hill
#
# Bulk Modulus (GPa) = 70.09918 75.02251 72.56084
# Shear Modulus (GPa) = 32.78191 40.40660 36.59425
#
# Velocity S-wave (km/s) = 3.97933 4.41793 4.20435
# Velocity P-wave (km/s) = 7.41446 7.89070 7.65629
#
# Compressibility (1/GPa) = 0.01426550
#
# Stress axis : x y z
#
# Youngs Moduli (GPa) = 104.04146 99.52492 96.19777
#
# Poissons Ratio (x) = 0.37079 0.26843
# Poissons Ratio (y) = 0.38762 0.13261
# Poissons Ratio (z) = 0.29031 0.13720
#
# Static dielectric constant tensor:
#      x y z
#    x 1.735270 0.012420 -0.009940 
#    y 0.012420 1.743960 0.026120 
#    z -0.009940 0.026120 1.793180 
# 
# From -- ./inp_files/157198.got.cif
#   From: 2010.05.17/outbox.cif.g08.bks.cpg/sg2_79_cif.got.tgz:157198.got - 2010.06.03 11:33:40.
