data_PCOD9059658
_publ_section_title
;
Structure prediction by ZEFSAII (Michael W. Deem and Ramdas Pophale) SiO2 
 PCOD9059658
Probable space group: P -1
;
_chemical_formula_sum "Si O2"
_cell_formula_units_Z 14
_cell_length_a 8.100256
_cell_length_b 12.501197
_cell_length_c 8.663969
_cell_angle_alpha 87.491261
_cell_angle_beta 123.525765
_cell_angle_gamma 112.604627
_cell_volume 658.810704
_symmetry_space_group_name_H-M "P -1"
_symmetry_group_IT_number 2
_symmetry_cell_setting 'triclinic'
loop_
_space_group_symop_operation_xyz
x,y,z
-x,-y,-z
loop_
_atom_site_type_symbol
_atom_site_label
_atom_site_fract_x
_atom_site_fract_y
_atom_site_fract_z
Si Si1 0.630315 0.250920 0.887574
Si Si2 0.529854 0.473142 0.841829
Si Si3 0.755669 0.966018 0.436940
Si Si4 0.053640 0.396563 0.464117
Si Si5 0.097405 0.315598 0.155642
Si Si6 0.629543 0.166347 0.242001
Si Si7 0.811883 0.907391 0.799940
O O1 0.628311 0.377737 0.892713
O O2 0.421909 0.166402 0.686466
O O3 0.610148 0.191291 0.049891
O O4 0.868728 0.271641 0.947122
O O5 0.289811 0.416780 0.646139
O O6 0.693570 0.593161 0.834464
O O7 0.500000 0.500000 0.000000
O O8 0.773408 0.975142 0.629917
O O9 0.663428 0.049815 0.301374
O O10 0.000000 0.000000 0.500000
O O11 0.069429 0.384228 0.287803
O O12 0.000000 0.500000 0.500000
O O13 0.848090 0.274694 0.411237
O O14 0.124455 0.196841 0.219161
O O15 0.411247 0.153880 0.214857
O O16 0.000000 0.000000 0.000000
#
# Coordination Sequence:
#
# PCOD9059658 Si02
#       7
#     2   2   2   2   2   2   2
#     4  11  23  42  65  94 128 171 221 271 323 388
#     4  12  24  40  65  98 132 173 218 269 328 393
#     4  12  24  42  67  95 127 173 221 270 330 390
#     4  11  24  44  67  94 130 174 221 274 330 391
#     4  11  24  44  66  94 132 175 217 271 331 391
#     4  11  24  43  64  94 131 170 217 275 327 387
#     4  12  25  43  66  97 132 172 218 272 328 394
#
# _framework density 21.250412000000001
#
# number of rings (size 3 to 8) (size 9 to 14) (size 15 to 20)
#    0.000    0.571    0.000   10.286    0.000    3.429 
#    0.000    0.000    0.000    0.000    0.000    0.000 
#    0.000    0.000    0.000    0.000    0.000    0.000 
#
# Total GULP energy -78343.793027 kJ/mol
# GULP energy per Si atom -5595.985216 kJ/mol
# Density = 2.120204 g / cm^3
# Si number density = 21.250412 Si / 1000 Ang^3
#
#
#
# Elastic Constant Matrix: (Units=GPa)
#
#
# Indices 1 2 3 4 5 6 
#
# 1 89.0589 11.5398 22.8359 13.8471 20.3973 15.3090
# 2 11.5398 78.7638 11.3158 2.6436 0.2958 -1.0366
# 3 22.8359 11.3158 111.3022 9.8938 13.7241 21.9080
# 4 13.8471 2.6436 9.8938 39.2206 2.5250 14.1338
# 5 20.3973 0.2958 13.7241 2.5250 42.5902 1.8688
# 6 15.3090 -1.0366 21.9080 14.1338 1.8688 50.6013
#
#
#
# Elastic Compliance Matrix: (Units=1/GPa)
#
#
# Indices 1 2 3 4 5 6 
#
# 1 0.014107 -0.001807 -0.001149 -0.003210 -0.006065 -0.002687
# 2 -0.001807 0.013190 -0.001366 -0.000527 0.001179 0.001512
# 3 -0.001149 -0.001366 0.010515 -0.000551 -0.002621 -0.003982
# 4 -0.003210 -0.000527 -0.000551 0.029308 0.000288 -0.006998
# 5 -0.006065 0.001179 -0.002621 0.000288 0.027120 0.001912
# 6 -0.002687 0.001512 -0.003982 -0.006998 0.001912 0.024214
#
#
# Mechanical properties :
#
#
# Convention : Reuss Voigt Hill
#
# Bulk Modulus (GPa) = 34.28242 41.16754 37.72498
# Shear Modulus (GPa) = 36.54381 42.04464 39.29423
#
# Velocity S-wave (km/s) = 4.15140 4.45290 4.30479
# Velocity P-wave (km/s) = 6.25671 6.77144 6.51915
#
# Compressibility (1/GPa) = 0.02916947
#
# Stress axis : x y z
#
# Youngs Moduli (GPa) = 70.88494 75.81280 95.10036
#
# Poissons Ratio (x) = 0.13697 0.10923
# Poissons Ratio (y) = 0.12807 0.12995
# Poissons Ratio (z) = 0.08142 0.10360
#
# Static dielectric constant tensor:
#      x y z
#    x 1.771630 -0.023450 0.000320 
#    y -0.023450 1.799790 0.024860 
#    z 0.000320 0.024860 1.785500 
# 
# From -- ./inp_files/187129.got.cif
#   From: 2010.05.17/outbox.cif.g08.bks.cpg/sg2_94_cif.got.tgz:187129.got - 2010.06.03 11:33:40.
