data_PCOD9059705
_publ_section_title
;
Structure prediction by ZEFSAII (Michael W. Deem and Ramdas Pophale) SiO2 
 PCOD9059705
Probable space group: P -1
;
_chemical_formula_sum "Si O2"
_cell_formula_units_Z 14
_cell_length_a 9.074202
_cell_length_b 10.727578
_cell_length_c 7.888475
_cell_angle_alpha 57.641729
_cell_angle_beta 116.580523
_cell_angle_gamma 104.953515
_cell_volume 579.922869
_symmetry_space_group_name_H-M "P -1"
_symmetry_group_IT_number 2
_symmetry_cell_setting 'triclinic'
loop_
_space_group_symop_operation_xyz
x,y,z
-x,-y,-z
loop_
_atom_site_type_symbol
_atom_site_label
_atom_site_fract_x
_atom_site_fract_y
_atom_site_fract_z
Si Si1 0.549872 0.362543 0.514598
Si Si2 0.816759 0.659575 0.667583
Si Si3 0.010334 0.383080 0.886380
Si Si4 0.189015 0.869295 0.163417
Si Si5 0.148752 0.047408 0.669709
Si Si6 0.337463 0.924958 0.552966
Si Si7 0.670044 0.424358 0.189721
O O1 0.500000 0.500000 0.500000
O O2 0.369148 0.320442 0.377673
O O3 0.644009 0.220371 0.731799
O O4 0.672310 0.426991 0.390443
O O5 0.861050 0.493319 0.762888
O O6 0.846368 0.775044 0.449074
O O7 0.943995 0.696549 0.856767
O O8 0.169293 0.487650 0.855860
O O9 0.956348 0.255721 0.823302
O O10 0.212939 0.932049 0.320401
O O11 0.158857 0.977884 0.911626
O O12 0.296701 0.000918 0.654327
O O13 0.000000 0.000000 0.500000
O O14 0.341827 0.750287 0.727843
O O15 0.500000 0.000000 0.500000
O O16 0.500000 0.500000 0.000000
#
# Coordination Sequence:
#
# PCOD9059705 Si02
#       7
#     2   2   2   2   2   2   2
#     4  11  23  42  67 104 140 181 240 299 357 424
#     4  11  23  43  73 105 141 190 241 297 367 427
#     4  11  23  45  75 107 142 186 246 308 352 434
#     4  11  26  48  74 108 150 188 252 303 357 441
#     4  12  25  47  74 104 143 199 237 295 376 428
#     4  11  28  48  70 107 152 191 244 301 359 444
#     4  11  24  43  72 103 139 191 240 294 368 417
#
# _framework density 24.141144000000001
#
# number of rings (size 3 to 8) (size 9 to 14) (size 15 to 20)
#    0.000    0.857    4.286    2.571    4.000    5.143 
#    2.571    0.000    0.000    0.000    0.000    0.000 
#    0.000    0.000    0.000    0.000    0.000    0.000 
#
# Total GULP energy -78201.654765 kJ/mol
# GULP energy per Si atom -5585.832483 kJ/mol
# Density = 2.408620 g / cm^3
# Si number density = 24.141144 Si / 1000 Ang^3
#
#
#
# Elastic Constant Matrix: (Units=GPa)
#
#
# Indices 1 2 3 4 5 6 
#
# 1 83.2704 11.9674 35.4957 -22.1858 10.2278 16.3008
# 2 11.9674 80.2235 34.4533 -1.2777 -6.9149 6.3177
# 3 35.4957 34.4533 178.7631 -17.5587 4.0261 9.5832
# 4 -22.1858 -1.2777 -17.5587 36.8324 5.8528 -3.1916
# 5 10.2278 -6.9149 4.0261 5.8528 36.3743 -1.7198
# 6 16.3008 6.3177 9.5832 -3.1916 -1.7198 38.6585
#
#
#
# Elastic Compliance Matrix: (Units=1/GPa)
#
#
# Indices 1 2 3 4 5 6 
#
# 1 0.017912 -0.001922 -0.001652 0.010537 -0.007211 -0.006280
# 2 -0.001922 0.014265 -0.002667 -0.002636 0.003929 -0.000903
# 3 -0.001652 -0.002667 0.006705 0.002260 -0.001167 -0.000395
# 4 0.010537 -0.002636 0.002260 0.035827 -0.009575 -0.002040
# 5 -0.007211 0.003929 -0.001167 -0.009575 0.032094 0.003325
# 6 -0.006280 -0.000903 -0.000395 -0.002040 0.003325 0.028741
#
#
# Mechanical properties :
#
#
# Convention : Reuss Voigt Hill
#
# Bulk Modulus (GPa) = 37.87745 56.23220 47.05483
# Shear Modulus (GPa) = 31.88256 39.72907 35.80582
#
# Velocity S-wave (km/s) = 3.63805 4.06112 3.85539
# Velocity P-wave (km/s) = 5.77679 6.73305 6.27317
#
# Compressibility (1/GPa) = 0.02640093
#
# Stress axis : x y z
#
# Youngs Moduli (GPa) = 55.82870 70.10227 149.13135
#
# Poissons Ratio (x) = 0.13471 0.24641
# Poissons Ratio (y) = 0.10728 0.39770
# Poissons Ratio (z) = 0.09224 0.18695
#
# Static dielectric constant tensor:
#      x y z
#    x 1.904480 0.104130 -0.114310 
#    y 0.104130 1.873040 0.205880 
#    z -0.114310 0.205880 1.600280 
# 
# From -- ./inp_files/184525.got.cif
#   From: 2010.05.17/outbox.cif.g08.bks.cpg/sg2_93_cif.got.tgz:184525.got - 2010.06.03 11:33:40.
