data_PCOD9059007
_publ_section_title
;
Structure prediction by ZEFSAII (Michael W. Deem and Ramdas Pophale) SiO2 
 PCOD9059007
Probable space group: P -1
;
_chemical_formula_sum "Si O2"
_cell_formula_units_Z 12
_cell_length_a 8.310473
_cell_length_b 19.428328
_cell_length_c 5.060865
_cell_angle_alpha 77.462791
_cell_angle_beta 57.441507
_cell_angle_gamma 49.731843
_cell_volume 514.520492
_symmetry_space_group_name_H-M "P -1"
_symmetry_group_IT_number 2
_symmetry_cell_setting 'triclinic'
loop_
_space_group_symop_operation_xyz
x,y,z
-x,-y,-z
loop_
_atom_site_type_symbol
_atom_site_label
_atom_site_fract_x
_atom_site_fract_y
_atom_site_fract_z
Si Si1 0.103936 0.739076 0.253676
Si Si2 0.510823 0.702539 0.526192
Si Si3 0.076699 0.866585 0.522037
Si Si4 0.314403 0.479255 0.748961
Si Si5 0.785582 0.928807 0.227973
Si Si6 0.952472 0.410168 0.596434
O O1 0.071335 0.783348 0.530638
O O2 0.130742 0.650536 0.307423
O O3 0.859830 0.828173 0.250904
O O4 0.328835 0.720345 0.907275
O O5 0.360427 0.802248 0.430576
O O6 0.564811 0.623784 0.349329
O O7 0.772565 0.657634 0.468720
O O8 0.970851 0.919059 0.293309
O O9 0.876609 0.934899 0.861470
O O10 0.500000 0.500000 0.500000
O O11 0.084422 0.545614 0.692654
O O12 0.225935 0.508948 0.102233
O O13 0.500000 0.000000 0.500000
#
# Coordination Sequence:
#
# PCOD9059007 Si02
#       6
#     2   2   2   2   2   2
#     4   9  22  38  59  85 118 150 191 240 291 331
#     4  11  23  40  59  84 120 153 202 236 287 340
#     4   9  20  34  60  83 117 149 186 238 286 334
#     4  12  25  40  60  81 121 155 200 245 282 332
#     4   9  18  34  62  90 111 148 191 227 290 353
#     4  12  26  38  60  85 114 161 196 239 291 335
#
# _framework density 23.322686999999998
#
# number of rings (size 3 to 8) (size 9 to 14) (size 15 to 20)
#    1.000    0.667    1.667    3.000    7.000    0.000 
#    0.000    0.000    0.000    5.000    0.000    0.000 
#    0.000    0.000    0.000    0.000    0.000    0.000 
#
# Total GULP energy -66967.155599 kJ/mol
# GULP energy per Si atom -5580.596300 kJ/mol
# Density = 2.326960 g / cm^3
# Si number density = 23.322687 Si / 1000 Ang^3
#
#
#
# Elastic Constant Matrix: (Units=GPa)
#
#
# Indices 1 2 3 4 5 6 
#
# 1 72.9482 3.8816 29.4143 6.3659 1.1306 -18.4060
# 2 3.8816 27.1549 22.5895 9.2370 -3.3343 -17.5930
# 3 29.4143 22.5895 122.8252 23.8434 23.3912 -13.4641
# 4 6.3659 9.2370 23.8434 31.2939 -15.4254 -7.1663
# 5 1.1306 -3.3343 23.3912 -15.4254 39.8900 -0.9259
# 6 -18.4060 -17.5930 -13.4641 -7.1663 -0.9259 24.7732
#
#
#
# Elastic Compliance Matrix: (Units=1/GPa)
#
#
# Indices 1 2 3 4 5 6 
#
# 1 0.024281 0.025830 -0.011220 0.009934 0.012673 0.033633
# 2 0.025830 0.112512 -0.027512 0.020639 0.034908 0.091415
# 3 -0.011220 -0.027512 0.023198 -0.025490 -0.025990 -0.023611
# 4 0.009934 0.020639 -0.025490 0.072606 0.045184 0.030876
# 5 0.012673 0.034908 -0.025990 0.045184 0.061163 0.035437
# 6 0.033633 0.091415 -0.023611 0.030876 0.035437 0.127698
#
#
# Mechanical properties :
#
#
# Convention : Reuss Voigt Hill
#
# Bulk Modulus (GPa) = 7.45234 37.18878 22.32056
# Shear Modulus (GPa) = 10.16278 30.32761 20.24520
#
# Velocity S-wave (km/s) = 2.08972 3.60995 2.94946
# Velocity P-wave (km/s) = 3.00413 5.77543 4.60328
#
# Compressibility (1/GPa) = 0.13418612
#
# Stress axis : x y z
#
# Youngs Moduli (GPa) = 41.18429 8.88797 43.10702
#
# Poissons Ratio (x) = -0.22958 0.48368
# Poissons Ratio (y) = -1.06379 1.18596
# Poissons Ratio (z) = 0.46210 0.24453
#
# Static dielectric constant tensor:
#      x y z
#    x 1.959420 -0.058310 0.012570 
#    y -0.058310 1.963520 -0.011450 
#    z 0.012570 -0.011450 1.851510 
# 
# From -- ./inp_files/35731.got.cif
#   From: 2010.05.17/outbox.cif.g08.bks.cpg/sg2_18_cif.got.tgz:35731.got - 2010.06.03 11:33:40.
