data_PCOD9059082
_publ_section_title
;
Structure prediction by ZEFSAII (Michael W. Deem and Ramdas Pophale) SiO2 
 PCOD9059082
Probable space group: P -1
;
_chemical_formula_sum "Si O2"
_cell_formula_units_Z 16
_cell_length_a 11.347685
_cell_length_b 10.352867
_cell_length_c 13.323182
_cell_angle_alpha 96.868887
_cell_angle_beta 97.493841
_cell_angle_gamma 150.798773
_cell_volume 663.109716
_symmetry_space_group_name_H-M "P -1"
_symmetry_group_IT_number 2
_symmetry_cell_setting 'triclinic'
loop_
_space_group_symop_operation_xyz
x,y,z
-x,-y,-z
loop_
_atom_site_type_symbol
_atom_site_label
_atom_site_fract_x
_atom_site_fract_y
_atom_site_fract_z
Si Si1 0.157111 0.493979 0.753342
Si Si2 0.564437 0.329273 0.005437
Si Si3 0.597824 0.886732 0.246105
Si Si4 0.853369 0.728445 0.416211
Si Si5 0.125213 0.090496 0.916295
Si Si6 0.537101 0.990301 0.660553
Si Si7 0.598479 0.529215 0.681943
Si Si8 0.805876 0.512061 0.571299
O O1 0.321679 0.645796 0.890464
O O2 0.096973 0.288636 0.686124
O O3 0.364309 0.761745 0.716999
O O4 0.855520 0.259875 0.713247
O O5 0.701970 0.608261 0.058591
O O6 0.575337 0.277034 0.891346
O O7 0.252064 0.072636 0.946231
O O8 0.474416 0.866586 0.310417
O O9 0.559597 0.702245 0.266608
O O10 0.923271 0.244075 0.308499
O O11 0.540136 0.470660 0.357292
O O12 0.935467 0.700783 0.501926
O O13 0.000000 0.000000 0.500000
O O14 0.903446 0.856060 0.783702
O O15 0.000000 0.000000 0.000000
O O16 0.370281 0.777131 0.524000
O O17 0.619801 0.445488 0.587755
#
# Coordination Sequence:
#
# PCOD9059082 Si02
#       8
#     2   2   2   2   2   2   2   2
#     4  11  28  49  74 106 143 196 242 301 360 421
#     4  11  26  43  69 104 145 186 239 295 366 431
#     4  12  26  47  70 107 140 192 245 296 358 426
#     4  11  23  42  69 106 144 182 239 294 370 434
#     4  11  23  40  66 103 146 181 229 292 364 442
#     4  11  29  50  75 103 145 195 251 299 349 422
#     4  12  24  40  73 106 144 186 233 299 369 434
#     4  11  25  45  69 106 142 190 237 298 361 427
#
# _framework density 24.128737999999998
#
# number of rings (size 3 to 8) (size 9 to 14) (size 15 to 20)
#    0.000    0.750    3.750    2.250   12.250    1.500 
#    0.000    0.000    0.000    0.000    0.000    0.000 
#    0.000    0.000    0.000    0.000    0.000    0.000 
#
# Total GULP energy -89363.417291 kJ/mol
# GULP energy per Si atom -5585.213581 kJ/mol
# Density = 2.407382 g / cm^3
# Si number density = 24.128738 Si / 1000 Ang^3
#
#
#
# Elastic Constant Matrix: (Units=GPa)
#
#
# Indices 1 2 3 4 5 6 
#
# 1 96.9226 24.6580 34.8177 15.8498 -16.0021 19.2865
# 2 24.6580 81.6305 29.3776 6.3490 17.2331 8.9211
# 3 34.8177 29.3776 139.1903 16.1311 -6.3796 -9.6522
# 4 15.8498 6.3490 16.1311 31.2052 7.0307 6.0893
# 5 -16.0021 17.2331 -6.3796 7.0307 30.4483 -5.4049
# 6 19.2865 8.9211 -9.6522 6.0893 -5.4049 42.8233
#
#
#
# Elastic Compliance Matrix: (Units=1/GPa)
#
#
# Indices 1 2 3 4 5 6 
#
# 1 0.016870 -0.006328 -0.001492 -0.008846 0.013530 -0.003650
# 2 -0.006328 0.019658 -0.004539 0.006666 -0.017914 -0.005477
# 3 -0.001492 -0.004539 0.009857 -0.005869 0.006173 0.005453
# 4 -0.008846 0.006666 -0.005869 0.044530 -0.021309 -0.007749
# 5 0.013530 -0.017914 0.006173 -0.021309 0.057971 0.009377
# 6 -0.003650 -0.005477 0.005453 -0.007749 0.009377 0.029651
#
#
# Mechanical properties :
#
#
# Convention : Reuss Voigt Hill
#
# Bulk Modulus (GPa) = 46.15731 55.05001 50.60366
# Shear Modulus (GPa) = 23.75539 36.15470 29.95504
#
# Velocity S-wave (km/s) = 3.14112 3.87513 3.52727
# Velocity P-wave (km/s) = 5.68565 6.54880 6.13243
#
# Compressibility (1/GPa) = 0.02166504
#
# Stress axis : x y z
#
# Youngs Moduli (GPa) = 59.27571 50.87088 101.45032
#
# Poissons Ratio (x) = 0.32193 0.15138
# Poissons Ratio (y) = 0.37512 0.46053
# Poissons Ratio (z) = 0.08845 0.23092
#
# Static dielectric constant tensor:
#      x y z
#    x 1.929960 -0.006430 0.005400 
#    y -0.006430 2.118530 0.026010 
#    z 0.005400 0.026010 2.038480 
# 
# From -- ./inp_files/466349.got.cif
#   From: 2010.05.17/outbox.cif.g08.bks.cpg/sg2_234_cif.got.tgz:466349.got - 2010.06.03 11:33:40.
