data_PCOD9059364
_publ_section_title
;
Structure prediction by ZEFSAII (Michael W. Deem and Ramdas Pophale) SiO2 
 PCOD9059364
Probable space group: P -1
;
_chemical_formula_sum "Si O2"
_cell_formula_units_Z 16
_cell_length_a 12.662440
_cell_length_b 8.587833
_cell_length_c 27.339307
_cell_angle_alpha 28.321111
_cell_angle_beta 28.177568
_cell_angle_gamma 40.686206
_cell_volume 663.923989
_symmetry_space_group_name_H-M "P -1"
_symmetry_group_IT_number 2
_symmetry_cell_setting 'triclinic'
loop_
_space_group_symop_operation_xyz
x,y,z
-x,-y,-z
loop_
_atom_site_type_symbol
_atom_site_label
_atom_site_fract_x
_atom_site_fract_y
_atom_site_fract_z
Si Si1 0.520579 0.164880 0.554164
Si Si2 0.624130 0.405846 0.341906
Si Si3 0.214030 0.896818 0.090019
Si Si4 0.290611 0.118794 0.133161
Si Si5 0.923313 0.159936 0.202664
Si Si6 0.051774 0.759439 0.089185
Si Si7 0.226212 0.715091 0.364028
Si Si8 0.994948 0.172311 0.401840
O O1 0.500000 0.500000 0.500000
O O2 0.537589 0.158830 0.488991
O O3 0.282087 0.966455 0.712923
O O4 0.751086 0.058187 0.510684
O O5 0.404302 0.535941 0.372525
O O6 0.800332 0.622220 0.244673
O O7 0.792902 0.365887 0.238564
O O8 0.161396 0.925703 0.046265
O O9 0.066702 0.564658 0.261556
O O10 0.128938 0.212700 0.065811
O O11 0.476905 0.842467 0.001720
O O12 0.209798 0.469150 0.088719
O O13 0.330103 0.874651 0.228579
O O14 0.071715 0.965306 0.235367
O O15 0.000000 0.000000 0.000000
O O16 0.000000 0.500000 0.500000
O O17 0.164641 0.015986 0.339411
O O18 0.000000 0.000000 0.500000
#
# Coordination Sequence:
#
# PCOD9059364 Si02
#       8
#     2   2   2   2   2   2   2   2
#     4  12  21  44  69  99 138 183 242 299 350 417
#     4  11  23  41  67 100 137 185 237 289 357 428
#     4  12  24  47  71 104 147 186 240 303 358 434
#     4  11  25  46  71 104 144 189 239 298 361 428
#     4  11  24  44  67  99 140 188 230 289 361 429
#     4  11  23  44  72 102 135 189 241 298 357 422
#     4  12  25  44  72 106 142 187 241 297 362 432
#     4  12  26  43  70 109 142 183 241 298 366 422
#
# _framework density 24.099143999999999
#
# number of rings (size 3 to 8) (size 9 to 14) (size 15 to 20)
#    0.000    0.500    3.750    4.875    3.500    0.000 
#    0.000    5.625    0.000    0.000    0.000    0.000 
#    0.000    0.000    0.000    0.000    0.000    0.000 
#
# Total GULP energy -89146.627391 kJ/mol
# GULP energy per Si atom -5571.664212 kJ/mol
# Density = 2.404429 g / cm^3
# Si number density = 24.099144 Si / 1000 Ang^3
#
#
#
# Elastic Constant Matrix: (Units=GPa)
#
#
# Indices 1 2 3 4 5 6 
#
# 1 150.4429 54.8417 15.0428 15.4114 -1.0995 -21.5540
# 2 54.8417 95.3927 15.9956 28.2766 -3.5231 -4.2168
# 3 15.0428 15.9956 84.8183 17.0171 -4.6285 -18.3976
# 4 15.4114 28.2766 17.0171 33.4867 -12.9563 -7.1338
# 5 -1.0995 -3.5231 -4.6285 -12.9563 36.2987 12.3870
# 6 -21.5540 -4.2168 -18.3976 -7.1338 12.3870 57.1184
#
#
#
# Elastic Compliance Matrix: (Units=1/GPa)
#
#
# Indices 1 2 3 4 5 6 
#
# 1 0.008956 -0.005199 -0.000067 0.000552 -0.001170 0.003297
# 2 -0.005199 0.017357 -0.000166 -0.013628 -0.002729 -0.001844
# 3 -0.000067 -0.000166 0.013978 -0.006870 -0.002072 0.004056
# 4 0.000552 -0.013628 -0.006870 0.050763 0.015984 -0.000137
# 5 -0.001170 -0.002729 -0.002072 0.015984 0.035050 -0.006915
# 6 0.003297 -0.001844 0.004056 -0.000137 -0.006915 0.021404
#
#
# Mechanical properties :
#
#
# Convention : Reuss Voigt Hill
#
# Bulk Modulus (GPa) = 33.98237 55.82380 44.90309
# Shear Modulus (GPa) = 29.72979 41.69901 35.71440
#
# Velocity S-wave (km/s) = 3.51614 4.16421 3.85382
# Velocity P-wave (km/s) = 5.53317 6.80701 6.20288
#
# Compressibility (1/GPa) = 0.02942703
#
# Stress axis : x y z
#
# Youngs Moduli (GPa) = 111.65530 57.61349 71.54024
#
# Poissons Ratio (x) = 0.29952 0.00483
# Poissons Ratio (y) = 0.58046 0.01187
# Poissons Ratio (z) = 0.00753 0.00956
#
# Static dielectric constant tensor:
#      x y z
#    x 1.975000 0.086880 0.381430 
#    y 0.086880 2.010000 -0.178590 
#    z 0.381430 -0.178590 2.214590 
# 
# From -- ./inp_files/618195.got.cif
#   From: 2010.05.17/outbox.cif.g08.bks.cpg/sg2_310_cif.got.tgz:618195.got - 2010.06.03 11:33:40.
