data_PCOD9059331
_publ_section_title
;
Structure prediction by ZEFSAII (Michael W. Deem and Ramdas Pophale) SiO2 
 PCOD9059331
Probable space group: P -1
;
_chemical_formula_sum "Si O2"
_cell_formula_units_Z 14
_cell_length_a 5.135309
_cell_length_b 16.386782
_cell_length_c 12.067546
_cell_angle_alpha 43.192401
_cell_angle_beta 83.527701
_cell_angle_gamma 102.805859
_cell_volume 617.876443
_symmetry_space_group_name_H-M "P -1"
_symmetry_group_IT_number 2
_symmetry_cell_setting 'triclinic'
loop_
_space_group_symop_operation_xyz
x,y,z
-x,-y,-z
loop_
_atom_site_type_symbol
_atom_site_label
_atom_site_fract_x
_atom_site_fract_y
_atom_site_fract_z
Si Si1 0.411732 0.359168 0.501127
Si Si2 0.848590 0.788251 0.676298
Si Si3 0.728334 0.216576 0.027594
Si Si4 0.248967 0.581501 0.996261
Si Si5 0.057565 0.670966 0.605183
Si Si6 0.635320 0.675601 0.209135
Si Si7 0.724310 0.012142 0.380525
O O1 0.096050 0.290117 0.525979
O O2 0.495503 0.516135 0.354582
O O3 0.407808 0.305679 0.677805
O O4 0.658100 0.342586 0.433120
O O5 0.568078 0.652223 0.856420
O O6 0.083102 0.759488 0.624398
O O7 0.969430 0.874089 0.696907
O O8 0.757231 0.877661 0.511662
O O9 0.504741 0.251211 0.934081
O O10 0.025858 0.268519 0.893296
O O11 0.788731 0.300259 0.056802
O O12 0.640897 0.066575 0.220456
O O13 0.191082 0.473929 0.200933
O O14 0.000000 0.500000 0.000000
O O15 0.500000 0.000000 0.500000
#
# Coordination Sequence:
#
# PCOD9059331 Si02
#       7
#     2   2   2   2   2   2   2
#     4  11  23  41  65  97 133 170 223 274 344 400
#     4  11  26  43  65  97 142 179 226 269 326 406
#     4  12  23  41  68  95 134 174 224 271 334 391
#     4  12  23  40  63 102 143 172 208 266 342 413
#     4  12  24  40  67 100 136 176 210 277 346 403
#     4  11  23  42  65  96 131 174 222 281 329 404
#     4  11  25  44  67  96 132 184 233 270 313 397
#
# _framework density 22.658252000000001
#
# number of rings (size 3 to 8) (size 9 to 14) (size 15 to 20)
#    0.000    0.571    4.286    3.857    4.000    2.286 
#    0.000    0.000    0.000    5.143    0.000    0.000 
#    0.000    0.000    0.000    0.000    0.000    0.000 
#
# Total GULP energy -78361.023338 kJ/mol
# GULP energy per Si atom -5597.215953 kJ/mol
# Density = 2.260668 g / cm^3
# Si number density = 22.658252 Si / 1000 Ang^3
#
#
#
# Elastic Constant Matrix: (Units=GPa)
#
#
# Indices 1 2 3 4 5 6 
#
# 1 105.3717 27.6758 19.3277 8.1430 11.6495 -0.8314
# 2 27.6758 65.2272 18.2515 18.8229 2.5341 -2.6305
# 3 19.3277 18.2515 81.5094 17.0766 21.0006 1.4512
# 4 8.1430 18.8229 17.0766 27.1837 -2.3385 -0.3185
# 5 11.6495 2.5341 21.0006 -2.3385 45.0349 -1.9456
# 6 -0.8314 -2.6305 1.4512 -0.3185 -1.9456 36.8884
#
#
#
# Elastic Compliance Matrix: (Units=1/GPa)
#
#
# Indices 1 2 3 4 5 6 
#
# 1 0.011058 -0.004367 -0.001166 0.000265 -0.002062 -0.000123
# 2 -0.004367 0.021205 -0.001019 -0.012736 -0.000192 0.001334
# 3 -0.001166 -0.001019 0.017090 -0.010402 -0.008206 -0.001294
# 4 0.000265 -0.012736 -0.010402 0.052776 0.008256 0.000398
# 5 -0.002062 -0.000192 -0.008206 0.008256 0.027081 0.001762
# 6 -0.000123 0.001334 -0.001294 0.000398 0.001762 0.027348
#
#
# Mechanical properties :
#
#
# Convention : Reuss Voigt Hill
#
# Bulk Modulus (GPa) = 27.58651 42.51314 35.04983
# Shear Modulus (GPa) = 27.51114 34.27830 30.89472
#
# Velocity S-wave (km/s) = 3.48829 3.89374 3.69658
# Velocity P-wave (km/s) = 5.33157 6.24648 5.80707
#
# Compressibility (1/GPa) = 0.03624960
#
# Stress axis : x y z
#
# Youngs Moduli (GPa) = 90.43564 47.15765 58.51430
#
# Poissons Ratio (x) = 0.20592 0.06824
# Poissons Ratio (y) = 0.39491 0.05961
# Poissons Ratio (z) = 0.10546 0.04804
#
# Static dielectric constant tensor:
#      x y z
#    x 1.879150 0.038190 0.042310 
#    y 0.038190 1.864780 -0.029840 
#    z 0.042310 -0.029840 1.867140 
# 
# From -- ./inp_files/368841.got.cif
#   From: 2010.05.17/outbox.cif.g08.bks.cpg/sg2_185_cif.got.tgz:368841.got - 2010.06.03 11:33:40.
