data_PCOD9059408
_publ_section_title
;
Structure prediction by ZEFSAII (Michael W. Deem and Ramdas Pophale) SiO2 
 PCOD9059408
Probable space group: P -1
;
_chemical_formula_sum "Si O2"
_cell_formula_units_Z 16
_cell_length_a 16.842392
_cell_length_b 16.135848
_cell_length_c 15.086142
_cell_angle_alpha 153.551607
_cell_angle_beta 43.966272
_cell_angle_gamma 153.190158
_cell_volume 756.641852
_symmetry_space_group_name_H-M "P -1"
_symmetry_group_IT_number 2
_symmetry_cell_setting 'triclinic'
loop_
_space_group_symop_operation_xyz
x,y,z
-x,-y,-z
loop_
_atom_site_type_symbol
_atom_site_label
_atom_site_fract_x
_atom_site_fract_y
_atom_site_fract_z
Si Si1 0.488477 0.352847 0.782427
Si Si2 0.778241 0.232439 0.945497
Si Si3 0.237359 0.749402 0.820518
Si Si4 0.222231 0.332296 0.653161
Si Si5 0.071191 0.632046 0.433961
Si Si6 0.115880 0.343678 0.247631
Si Si7 0.506044 0.606124 0.831458
Si Si8 0.402008 0.561818 0.543129
O O1 0.663799 0.435445 0.716395
O O2 0.493949 0.495015 0.829160
O O3 0.287877 0.984074 0.592269
O O4 0.500000 0.500000 0.000000
O O5 0.624669 0.913354 0.709116
O O6 0.749642 0.157890 0.001190
O O7 0.734268 0.391424 0.117074
O O8 0.000000 0.500000 0.000000
O O9 0.288584 0.599905 0.643968
O O10 0.029899 0.507036 0.712939
O O11 0.386369 0.056266 0.933451
O O12 0.305512 0.365434 0.709911
O O13 0.328566 0.402971 0.546475
O O14 0.000000 0.000000 0.500000
O O15 0.070096 0.429032 0.287198
O O16 0.951767 0.626659 0.583657
O O17 0.000000 0.000000 0.000000
O O18 0.624721 0.625600 0.689759
#
# Coordination Sequence:
#
# PCOD9059408 Si02
#       8
#     2   2   2   2   2   2   2   2
#     4  12  27  49  72 105 143 182 243 301 353 424
#     4  11  23  42  65  97 146 178 224 282 342 414
#     4  11  24  45  65 102 136 180 231 276 349 423
#     4  11  23  41  68 101 138 179 229 283 339 418
#     4  11  26  45  76 102 138 183 235 294 361 422
#     4  11  23  50  76  99 136 182 229 301 364 413
#     4  12  25  44  71  98 137 186 234 279 352 414
#     4  11  23  45  69  96 143 183 223 286 348 412
#
# _framework density 21.146066999999999
#
# number of rings (size 3 to 8) (size 9 to 14) (size 15 to 20)
#    0.000    0.750    3.750    3.750    8.750    0.000 
#    4.500    0.000    0.000    0.000    0.000    0.000 
#    0.000    0.000    0.000    0.000    0.000    0.000 
#
# Total GULP energy -89525.262604 kJ/mol
# GULP energy per Si atom -5595.328913 kJ/mol
# Density = 2.109794 g / cm^3
# Si number density = 21.146067 Si / 1000 Ang^3
#
#
#
# Elastic Constant Matrix: (Units=GPa)
#
#
# Indices 1 2 3 4 5 6 
#
# 1 150.6029 42.9789 47.3784 -8.3483 -4.2144 2.6372
# 2 42.9789 97.7010 15.8161 6.3498 -0.9188 17.6863
# 3 47.3784 15.8161 83.7582 10.1836 -8.8349 4.2536
# 4 -8.3483 6.3498 10.1836 35.1594 5.7771 8.9708
# 5 -4.2144 -0.9188 -8.8349 5.7771 36.0746 6.4807
# 6 2.6372 17.6863 4.2536 8.9708 6.4807 33.3813
#
#
#
# Elastic Compliance Matrix: (Units=1/GPa)
#
#
# Indices 1 2 3 4 5 6 
#
# 1 0.009655 -0.003848 -0.005462 0.004515 -0.001209 0.000993
# 2 -0.003848 0.013177 0.000416 -0.002003 0.001473 -0.006478
# 3 -0.005462 0.000416 0.016286 -0.006593 0.004594 -0.000984
# 4 0.004515 -0.002003 -0.006593 0.034374 -0.005451 -0.006634
# 5 -0.001209 0.001473 0.004594 -0.005451 0.030648 -0.005755
# 6 0.000993 -0.006478 -0.000984 -0.006634 -0.005755 0.036337
#
#
# Mechanical properties :
#
#
# Convention : Reuss Voigt Hill
#
# Bulk Modulus (GPa) = 46.87848 60.48987 53.68418
# Shear Modulus (GPa) = 30.23421 35.98232 33.10826
#
# Velocity S-wave (km/s) = 3.78534 4.12953 3.96118
# Velocity P-wave (km/s) = 6.42823 7.16974 6.80909
#
# Compressibility (1/GPa) = 0.02133175
#
# Stress axis : x y z
#
# Youngs Moduli (GPa) = 103.56907 75.88747 61.40140
#
# Poissons Ratio (x) = 0.29200 0.33537
# Poissons Ratio (y) = 0.39852 -0.02555
# Poissons Ratio (z) = 0.56569 -0.03158
#
# Static dielectric constant tensor:
#      x y z
#    x 1.759940 0.029220 -0.003460 
#    y 0.029220 1.772040 -0.000420 
#    z -0.003460 -0.000420 1.760140 
# 
# From -- ./inp_files/218417.got.cif
#   From: 2010.05.17/outbox.cif.g08.bks.cpg/sg2_110_cif.got.tgz:218417.got - 2010.06.03 11:33:40.
