data_PCOD9059489
_publ_section_title
;
Structure prediction by ZEFSAII (Michael W. Deem and Ramdas Pophale) SiO2 
 PCOD9059489
Probable space group: P -1
;
_chemical_formula_sum "Si O2"
_cell_formula_units_Z 16
_cell_length_a 18.911495
_cell_length_b 8.494981
_cell_length_c 12.577820
_cell_angle_alpha 48.025766
_cell_angle_beta 30.280684
_cell_angle_gamma 46.149076
_cell_volume 720.813677
_symmetry_space_group_name_H-M "P -1"
_symmetry_group_IT_number 2
_symmetry_cell_setting 'triclinic'
loop_
_space_group_symop_operation_xyz
x,y,z
-x,-y,-z
loop_
_atom_site_type_symbol
_atom_site_label
_atom_site_fract_x
_atom_site_fract_y
_atom_site_fract_z
Si Si1 0.165427 0.942783 0.271959
Si Si2 0.838292 0.980906 0.003949
Si Si3 0.368483 0.328067 0.551379
Si Si4 0.180941 0.815959 0.653747
Si Si5 0.634741 0.537300 0.741932
Si Si6 0.365122 0.229369 0.951642
Si Si7 0.676874 0.275935 0.264883
Si Si8 0.328361 0.153863 0.269995
O O1 0.257469 0.708291 0.308389
O O2 0.000000 0.000000 0.500000
O O3 0.176308 0.924725 0.138609
O O4 0.236918 0.132768 0.124977
O O5 0.735385 0.823591 0.224532
O O6 0.783154 0.175455 0.073752
O O7 0.008992 0.843198 0.863087
O O8 0.279136 0.580309 0.586749
O O9 0.407551 0.337942 0.371435
O O10 0.519720 0.242249 0.459569
O O11 0.241626 0.831572 0.686111
O O12 0.210388 0.023659 0.461856
O O13 0.707076 0.676412 0.663336
O O14 0.500000 0.500000 0.000000
O O15 0.355026 0.459529 0.805857
O O16 0.518447 0.038552 0.817656
O O17 0.354643 0.266572 0.075584
#
# Coordination Sequence:
#
# PCOD9059489 Si02
#       8
#     2   2   2   2   2   2   2   2
#     4  12  26  44  70 103 141 182 227 280 349 412
#     4  12  27  46  69 102 144 181 229 286 346 408
#     4  12  25  45  71 104 136 184 232 283 344 410
#     4  12  26  46  69 100 140 184 228 283 346 410
#     4  12  24  43  71 103 139 178 230 287 339 406
#     4  11  23  42  68  98 135 177 225 280 339 405
#     4  12  26  44  71 102 136 181 234 282 340 409
#     4  11  23  41  69  98 134 177 226 279 340 402
#
# _framework density 22.197137999999999
#
# number of rings (size 3 to 8) (size 9 to 14) (size 15 to 20)
#    0.000    0.250    2.500    7.500    1.750    2.000 
#    0.000    2.500    0.000    0.000    0.000    0.000 
#    0.000    0.000    0.000    0.000    0.000    0.000 
#
# Total GULP energy -89693.271345 kJ/mol
# GULP energy per Si atom -5605.829459 kJ/mol
# Density = 2.214662 g / cm^3
# Si number density = 22.197138 Si / 1000 Ang^3
#
#
#
# Elastic Constant Matrix: (Units=GPa)
#
#
# Indices 1 2 3 4 5 6 
#
# 1 94.5828 -2.2813 20.5703 1.9180 8.4494 -3.1634
# 2 -2.2813 46.9737 9.3643 -1.5129 -8.4747 2.3522
# 3 20.5703 9.3643 93.4001 -4.7714 -5.9224 4.0473
# 4 1.9180 -1.5129 -4.7714 36.2223 -0.0594 4.4855
# 5 8.4494 -8.4747 -5.9224 -0.0594 47.5456 -2.9431
# 6 -3.1634 2.3522 4.0473 4.4855 -2.9431 30.8435
#
#
#
# Elastic Compliance Matrix: (Units=1/GPa)
#
#
# Indices 1 2 3 4 5 6 
#
# 1 0.011476 0.000620 -0.002850 -0.001142 -0.002195 0.001460
# 2 0.000620 0.022458 -0.002072 0.000781 0.003564 -0.001151
# 3 -0.002850 -0.002072 0.011810 0.001847 0.001499 -0.001810
# 4 -0.001142 0.000781 0.001847 0.028506 0.000327 -0.004533
# 5 -0.002195 0.003564 0.001499 0.000327 0.022331 0.001390
# 6 0.001460 -0.001151 -0.001810 -0.004533 0.001390 0.033689
#
#
# Mechanical properties :
#
#
# Convention : Reuss Voigt Hill
#
# Bulk Modulus (GPa) = 26.92722 32.25147 29.58934
# Shear Modulus (GPa) = 33.05715 36.74248 34.89982
#
# Velocity S-wave (km/s) = 3.86327 4.07293 3.96948
# Velocity P-wave (km/s) = 5.66190 6.05635 5.86244
#
# Compressibility (1/GPa) = 0.03713715
#
# Stress axis : x y z
#
# Youngs Moduli (GPa) = 87.14091 44.52848 84.67461
#
# Poissons Ratio (x) = -0.02759 0.24135
# Poissons Ratio (y) = -0.05399 0.17547
# Poissons Ratio (z) = 0.24838 0.09228
#
# Static dielectric constant tensor:
#      x y z
#    x 1.813770 0.017080 0.012830 
#    y 0.017080 1.765230 -0.009090 
#    z 0.012830 -0.009090 1.796790 
# 
# From -- ./inp_files/333825.got.cif
#   From: 2010.05.17/outbox.cif.g08.bks.cpg/sg2_167_cif.got.tgz:333825.got - 2010.06.03 11:33:40.
