data_PCOD9059362
_publ_section_title
;
Structure prediction by ZEFSAII (Michael W. Deem and Ramdas Pophale) SiO2 
 PCOD9059362
Probable space group: P -1
;
_chemical_formula_sum "Si O2"
_cell_formula_units_Z 12
_cell_length_a 9.321341
_cell_length_b 12.589774
_cell_length_c 7.946523
_cell_angle_alpha 53.238186
_cell_angle_beta 46.243256
_cell_angle_gamma 46.293697
_cell_volume 473.744070
_symmetry_space_group_name_H-M "P -1"
_symmetry_group_IT_number 2
_symmetry_cell_setting 'triclinic'
loop_
_space_group_symop_operation_xyz
x,y,z
-x,-y,-z
loop_
_atom_site_type_symbol
_atom_site_label
_atom_site_fract_x
_atom_site_fract_y
_atom_site_fract_z
Si Si1 0.283769 0.885654 0.743302
Si Si2 0.926050 0.313651 0.048835
Si Si3 0.349152 0.889839 0.053965
Si Si4 0.764750 0.627875 0.491185
Si Si5 0.523434 0.447103 0.721101
Si Si6 0.188656 0.099388 0.306802
O O1 0.171851 0.779152 0.889765
O O2 0.557535 0.773973 0.609200
O O3 0.018216 0.752056 0.744201
O O4 0.189487 0.017679 0.555713
O O5 0.725250 0.483962 0.060596
O O6 0.245290 0.955243 0.894310
O O7 0.149423 0.304996 0.794046
O O8 0.355940 0.730264 0.198463
O O9 0.235276 0.982390 0.226326
O O10 0.600166 0.869413 0.878257
O O11 0.649529 0.527384 0.629239
O O12 0.000000 0.500000 0.500000
O O13 0.500000 0.500000 0.500000
#
# Coordination Sequence:
#
# PCOD9059362 Si02
#       6
#     2   2   2   2   2   2
#     4  11  24  44  70 100 136 178 225 277 334 399
#     4  11  24  44  69  99 138 177 221 280 336 398
#     4  11  23  43  70  98 136 180 225 278 332 395
#     4  11  23  41  67 100 134 173 224 278 335 398
#     4  11  24  43  68 101 136 173 224 279 333 398
#     4  11  24  44  68  99 138 179 225 275 333 400
#
# _framework density 25.33013
#
# number of rings (size 3 to 8) (size 9 to 14) (size 15 to 20)
#    0.000    1.000    0.000    8.000    0.000    7.333 
#    0.000    3.333    0.000    0.000    0.000    0.000 
#    0.000    0.000    0.000    0.000    0.000    0.000 
#
# Total GULP energy -67256.370816 kJ/mol
# GULP energy per Si atom -5604.697568 kJ/mol
# Density = 2.527248 g / cm^3
# Si number density = 25.330130 Si / 1000 Ang^3
#
#
#
# Elastic Constant Matrix: (Units=GPa)
#
#
# Indices 1 2 3 4 5 6 
#
# 1 148.9888 45.0166 25.9913 1.3088 26.6837 -21.7860
# 2 45.0166 110.4438 44.3536 7.6504 4.1650 -14.4801
# 3 25.9913 44.3536 103.2065 -3.1876 15.4996 5.3263
# 4 1.3088 7.6504 -3.1876 37.0905 -8.0696 0.9804
# 5 26.6837 4.1650 15.4996 -8.0696 38.7619 -0.9955
# 6 -21.7860 -14.4801 5.3263 0.9804 -0.9955 30.1976
#
#
#
# Elastic Compliance Matrix: (Units=1/GPa)
#
#
# Indices 1 2 3 4 5 6 
#
# 1 0.009540 -0.002532 -0.000725 -0.001362 -0.006145 0.005638
# 2 -0.002532 0.013268 -0.005775 -0.002819 0.002187 0.005717
# 3 -0.000725 -0.005775 0.013307 0.001642 -0.004009 -0.005824
# 4 -0.001362 -0.002819 0.001642 0.029254 0.006588 -0.003357
# 5 -0.006145 0.002187 -0.004009 0.006588 0.032722 -0.001812
# 6 0.005638 0.005717 -0.005824 -0.003357 -0.001812 0.041001
#
#
# Mechanical properties :
#
#
# Convention : Reuss Voigt Hill
#
# Bulk Modulus (GPa) = 55.39580 65.92914 60.66247
# Shear Modulus (GPa) = 30.64233 37.69515 34.16874
#
# Velocity S-wave (km/s) = 3.48187 3.86185 3.67677
# Velocity P-wave (km/s) = 6.17103 6.78009 6.48272
#
# Compressibility (1/GPa) = 0.01805191
#
# Stress axis : x y z
#
# Youngs Moduli (GPa) = 104.81806 75.36864 75.14827
#
# Poissons Ratio (x) = 0.19086 0.05445
# Poissons Ratio (y) = 0.26543 0.43397
# Poissons Ratio (z) = 0.07595 0.43524
#
# Static dielectric constant tensor:
#      x y z
#    x 1.933300 -0.023710 0.040330 
#    y -0.023710 1.987230 0.046760 
#    z 0.040330 0.046760 2.025990 
# 
# From -- ./inp_files/331545.got.cif
#   From: 2010.05.17/outbox.cif.g08.bks.cpg/sg2_166_cif.got.tgz:331545.got - 2010.06.03 11:33:40.
