data_PCOD9059841
_publ_section_title
;
Structure prediction by ZEFSAII (Michael W. Deem and Ramdas Pophale) SiO2 
 PCOD9059841
Probable space group: P -1
;
_chemical_formula_sum "Si O2"
_cell_formula_units_Z 16
_cell_length_a 12.055760
_cell_length_b 9.281802
_cell_length_c 9.035230
_cell_angle_alpha 86.254060
_cell_angle_beta 51.845696
_cell_angle_gamma 102.887248
_cell_volume 747.297824
_symmetry_space_group_name_H-M "P -1"
_symmetry_group_IT_number 2
_symmetry_cell_setting 'triclinic'
loop_
_space_group_symop_operation_xyz
x,y,z
-x,-y,-z
loop_
_atom_site_type_symbol
_atom_site_label
_atom_site_fract_x
_atom_site_fract_y
_atom_site_fract_z
Si Si1 0.110118 0.121563 0.291420
Si Si2 0.585556 0.048710 0.269543
Si Si3 0.079910 0.915288 0.043401
Si Si4 0.901478 0.562925 0.184132
Si Si5 0.633051 0.348611 0.028964
Si Si6 0.562205 0.800943 0.072080
Si Si7 0.397902 0.437920 0.729847
Si Si8 0.030537 0.436493 0.323028
O O1 0.057181 0.271484 0.311340
O O2 0.097280 0.015126 0.167648
O O3 0.291064 0.173242 0.156533
O O4 0.000000 0.000000 0.500000
O O5 0.592735 0.212710 0.190696
O O6 0.500000 0.000000 0.500000
O O7 0.535264 0.943773 0.168626
O O8 0.757968 0.067135 0.153949
O O9 0.985894 0.737036 0.153964
O O10 0.000000 0.000000 0.000000
O O11 0.761309 0.567743 0.203846
O O12 0.892302 0.448926 0.336676
O O13 0.000000 0.500000 0.000000
O O14 0.561541 0.462182 0.160343
O O15 0.572330 0.289488 0.920130
O O16 0.810677 0.440790 0.868597
O O17 0.594703 0.718585 0.199408
O O18 0.500000 0.500000 0.500000
O O19 0.000000 0.500000 0.500000
#
# Coordination Sequence:
#
# PCOD9059841 Si02
#       8
#     2   2   2   2   2   2   2   2
#     4  11  25  45  69 102 137 182 238 288 358 431
#     4  11  24  46  69 106 142 187 240 287 359 431
#     4  11  23  42  69  97 141 181 230 291 350 416
#     4  12  22  45  70 101 142 184 235 299 348 420
#     4  12  25  47  69 104 146 184 239 300 354 428
#     4  11  25  46  71 102 147 186 233 299 360 426
#     4  12  26  44  71 105 138 188 241 289 360 425
#     4  12  26  44  73 104 140 186 242 294 364 427
#
# _framework density 21.410473
#
# number of rings (size 3 to 8) (size 9 to 14) (size 15 to 20)
#    0.000    0.500    3.750    4.500    3.500    2.000 
#    2.250    0.000    0.000    0.000    0.000    0.000 
#    0.000    0.000    0.000    0.000    0.000    0.000 
#
# Total GULP energy -89202.386819 kJ/mol
# GULP energy per Si atom -5575.149176 kJ/mol
# Density = 2.136174 g / cm^3
# Si number density = 21.410473 Si / 1000 Ang^3
#
#
#
# Elastic Constant Matrix: (Units=GPa)
#
#
# Indices 1 2 3 4 5 6 
#
# 1 80.8596 4.4236 3.0032 -11.3731 -1.4667 3.5783
# 2 4.4236 119.0739 8.1942 -2.1883 -5.4536 -5.7475
# 3 3.0032 8.1942 107.7879 -11.0160 4.6396 -0.3004
# 4 -11.3731 -2.1883 -11.0160 35.8873 -2.7901 7.7940
# 5 -1.4667 -5.4536 4.6396 -2.7901 22.4118 -1.5765
# 6 3.5783 -5.7475 -0.3004 7.7940 -1.5765 32.1638
#
#
#
# Elastic Compliance Matrix: (Units=1/GPa)
#
#
# Indices 1 2 3 4 5 6 
#
# 1 0.013213 -0.000486 0.000109 0.004861 0.001141 -0.002678
# 2 -0.000486 0.008657 -0.000745 -0.000046 0.002344 0.001720
# 3 0.000109 -0.000745 0.009718 0.003017 -0.001872 -0.000877
# 4 0.004861 -0.000046 0.003017 0.032355 0.003133 -0.008208
# 5 0.001141 0.002344 -0.001872 0.003133 0.046167 0.001778
# 6 -0.002678 0.001720 -0.000877 -0.008208 0.001778 0.033764
#
#
# Mechanical properties :
#
#
# Convention : Reuss Voigt Hill
#
# Bulk Modulus (GPa) = 34.08023 37.66260 35.87142
# Shear Modulus (GPa) = 32.07204 37.56594 34.81899
#
# Velocity S-wave (km/s) = 3.87455 4.19329 4.03707
# Velocity P-wave (km/s) = 5.99736 6.40889 6.20653
#
# Compressibility (1/GPa) = 0.02934252
#
# Stress axis : x y z
#
# Youngs Moduli (GPa) = 75.68525 115.51275 102.90615
#
# Poissons Ratio (x) = 0.05614 -0.01123
# Poissons Ratio (y) = 0.03679 0.07671
# Poissons Ratio (z) = -0.00826 0.08611
#
# Static dielectric constant tensor:
#      x y z
#    x 1.810450 -0.049620 -0.012420 
#    y -0.049620 1.761580 -0.012520 
#    z -0.012420 -0.012520 1.651270 
# 
# From -- ./inp_files/205642.got.cif
#   From: 2010.05.17/outbox.cif.g08.bks.cpg/sg2_103_cif.got.tgz:205642.got - 2010.06.03 11:33:40.
