data_PCOD9059903
_publ_section_title
;
Structure prediction by ZEFSAII (Michael W. Deem and Ramdas Pophale) SiO2 
 PCOD9059903
Probable space group: P -1
;
_chemical_formula_sum "Si O2"
_cell_formula_units_Z 16
_cell_length_a 19.662768
_cell_length_b 8.564777
_cell_length_c 12.718171
_cell_angle_alpha 73.215059
_cell_angle_beta 36.321170
_cell_angle_gamma 45.595616
_cell_volume 688.870593
_symmetry_space_group_name_H-M "P -1"
_symmetry_group_IT_number 2
_symmetry_cell_setting 'triclinic'
loop_
_space_group_symop_operation_xyz
x,y,z
-x,-y,-z
loop_
_atom_site_type_symbol
_atom_site_label
_atom_site_fract_x
_atom_site_fract_y
_atom_site_fract_z
Si Si1 0.093356 0.817957 0.251313
Si Si2 0.858334 0.682509 0.894943
Si Si3 0.269844 0.718836 0.256823
Si Si4 0.387277 0.164428 0.998289
Si Si5 0.831809 0.422546 0.119524
Si Si6 0.727124 0.613760 0.561846
Si Si7 0.814661 0.107527 0.088537
Si Si8 0.504446 0.223914 0.379183
O O1 0.168701 0.850851 0.243310
O O2 0.256894 0.481621 0.106033
O O3 0.092645 0.919377 0.125853
O O4 0.870395 0.028617 0.530333
O O5 0.060476 0.547166 0.679472
O O6 0.767895 0.786866 0.869045
O O7 0.884570 0.465589 0.942885
O O8 0.700743 0.928565 0.130573
O O9 0.269860 0.528112 0.325385
O O10 0.500000 0.500000 0.000000
O O11 0.564285 0.943265 0.733095
O O12 0.500000 0.000000 0.000000
O O13 0.797519 0.275796 0.158516
O O14 0.621695 0.713589 0.382311
O O15 0.024353 0.205697 0.999802
O O16 0.656958 0.597468 0.549372
O O17 0.599496 0.279570 0.294949
#
# Coordination Sequence:
#
# PCOD9059903 Si02
#       8
#     2   2   2   2   2   2   2   2
#     4  11  23  44  69 102 138 178 238 287 352 416
#     4  11  25  45  73  98 144 185 232 291 351 421
#     4  11  24  43  71 102 139 185 232 286 356 421
#     4  11  24  47  69 102 139 185 235 288 352 419
#     4  11  24  44  68 105 136 186 233 289 358 410
#     4  11  25  46  70 105 141 188 234 288 357 421
#     4  11  24  44  70 101 142 180 234 295 348 416
#     4  11  23  42  71 100 142 179 236 289 346 424
#
# _framework density 23.226424000000002
#
# number of rings (size 3 to 8) (size 9 to 14) (size 15 to 20)
#    0.000    1.000    2.500    3.750    0.000    8.500 
#    4.500    0.000    0.000    0.000    0.000    0.000 
#    0.000    0.000    0.000    0.000    0.000    0.000 
#
# Total GULP energy -89355.182431 kJ/mol
# GULP energy per Si atom -5584.698902 kJ/mol
# Density = 2.317356 g / cm^3
# Si number density = 23.226424 Si / 1000 Ang^3
#
#
#
# Elastic Constant Matrix: (Units=GPa)
#
#
# Indices 1 2 3 4 5 6 
#
# 1 135.9949 26.0564 54.8988 -1.3877 -23.1406 -21.5093
# 2 26.0564 74.3496 56.4121 12.9407 -4.4595 2.0489
# 3 54.8988 56.4121 170.2156 12.6939 -24.7456 -10.4668
# 4 -1.3877 12.9407 12.6939 29.6550 -0.0021 6.9856
# 5 -23.1406 -4.4595 -24.7456 -0.0021 41.2031 -0.6975
# 6 -21.5093 2.0489 -10.4668 6.9856 -0.6975 27.1090
#
#
#
# Elastic Compliance Matrix: (Units=1/GPa)
#
#
# Indices 1 2 3 4 5 6 
#
# 1 0.010524 -0.002672 -0.001312 0.000314 0.004970 0.008092
# 2 -0.002672 0.019816 -0.006067 -0.005060 -0.003080 -0.004736
# 3 -0.001312 -0.006067 0.009329 -0.002282 0.004272 0.003718
# 4 0.000314 -0.005060 -0.002282 0.039382 -0.001917 -0.010447
# 5 0.004970 -0.003080 0.004272 -0.001917 0.029413 0.007076
# 6 0.008092 -0.004736 0.003718 -0.010447 0.007076 0.047976
#
#
# Mechanical properties :
#
#
# Convention : Reuss Voigt Hill
#
# Bulk Modulus (GPa) = 51.10930 72.81054 61.95992
# Shear Modulus (GPa) = 27.31275 35.80627 31.55951
#
# Velocity S-wave (km/s) = 3.43291 3.93060 3.69016
# Velocity P-wave (km/s) = 6.14538 7.21219 6.70005
#
# Compressibility (1/GPa) = 0.01956591
#
# Stress axis : x y z
#
# Youngs Moduli (GPa) = 95.02465 50.46301 107.19711
#
# Poissons Ratio (x) = 0.13486 0.14061
# Poissons Ratio (y) = 0.25394 0.65039
# Poissons Ratio (z) = 0.12464 0.30617
#
# Static dielectric constant tensor:
#      x y z
#    x 1.895890 0.015520 0.027740 
#    y 0.015520 1.953340 0.043140 
#    z 0.027740 0.043140 1.881200 
# 
# From -- ./inp_files/462096.got.cif
#   From: 2010.05.17/outbox.cif.g08.bks.cpg/sg2_232_cif.got.tgz:462096.got - 2010.06.03 11:33:40.
