data_PCOD9059128
_publ_section_title
;
Structure prediction by ZEFSAII (Michael W. Deem and Ramdas Pophale) SiO2 
 PCOD9059128
Probable space group: P -1
;
_chemical_formula_sum "Si O2"
_cell_formula_units_Z 16
_cell_length_a 11.085949
_cell_length_b 14.161593
_cell_length_c 9.300292
_cell_angle_alpha 102.595767
_cell_angle_beta 82.571424
_cell_angle_gamma 153.079158
_cell_volume 638.110666
_symmetry_space_group_name_H-M "P -1"
_symmetry_group_IT_number 2
_symmetry_cell_setting 'triclinic'
loop_
_space_group_symop_operation_xyz
x,y,z
-x,-y,-z
loop_
_atom_site_type_symbol
_atom_site_label
_atom_site_fract_x
_atom_site_fract_y
_atom_site_fract_z
Si Si1 0.030326 0.621478 0.451426
Si Si2 0.526937 0.713298 0.452055
Si Si3 0.733835 0.723130 0.624541
Si Si4 0.573315 0.743999 0.903305
Si Si5 0.956815 0.370216 0.877793
Si Si6 0.442011 0.553091 0.121281
Si Si7 0.728505 0.023366 0.331984
Si Si8 0.193031 0.892941 0.976420
O O1 0.735061 0.461038 0.464690
O O2 0.117748 0.667268 0.288796
O O3 0.000000 0.500000 0.500000
O O4 0.225724 0.837989 0.564945
O O5 0.757362 0.839157 0.565699
O O6 0.512581 0.623231 0.297487
O O7 0.547364 0.827976 0.398435
O O8 0.500000 0.500000 0.500000
O O9 0.653109 0.708325 0.786479
O O10 0.991770 0.839211 0.646276
O O11 0.254329 0.534130 0.871650
O O12 0.614040 0.752828 0.069147
O O13 0.734321 0.954518 0.907852
O O14 0.000000 0.500000 0.000000
O O15 0.770130 0.167413 0.935285
O O16 0.121434 0.340409 0.092209
O O17 0.500000 0.500000 0.000000
O O18 0.663177 0.996208 0.164576
#
# Coordination Sequence:
#
# PCOD9059128 Si02
#       8
#     2   2   2   2   2   2   2   2
#     4  12  27  49  76 100 141 183 236 299 354 412
#     4  12  25  45  70 106 146 184 238 284 352 422
#     4  12  23  45  70 103 150 190 227 290 347 422
#     4  11  24  42  67 102 142 181 234 281 349 414
#     4  11  26  47  74 100 135 184 238 297 350 408
#     4  11  23  40  67  99 141 185 223 279 335 410
#     4  12  25  44  72 107 142 189 232 283 353 424
#     4  11  24  43  69 101 142 181 235 281 346 413
#
# _framework density 25.074021999999999
#
# number of rings (size 3 to 8) (size 9 to 14) (size 15 to 20)
#    0.000    0.500    5.000    2.625    5.250    3.000 
#    0.000    0.000    0.000    0.000    0.000    0.000 
#    0.000    0.000    0.000    0.000    0.000    0.000 
#
# Total GULP energy -89484.080392 kJ/mol
# GULP energy per Si atom -5592.755025 kJ/mol
# Density = 2.501695 g / cm^3
# Si number density = 25.074022 Si / 1000 Ang^3
#
#
#
# Elastic Constant Matrix: (Units=GPa)
#
#
# Indices 1 2 3 4 5 6 
#
# 1 112.4329 27.0163 56.3349 -13.4213 7.0401 -26.0931
# 2 27.0163 88.4124 51.0266 -14.7488 -5.5029 -33.5003
# 3 56.3349 51.0266 196.1417 -26.7915 2.5017 -31.4894
# 4 -13.4213 -14.7488 -26.7915 39.2197 -8.7364 -2.3409
# 5 7.0401 -5.5029 2.5017 -8.7364 52.4689 -6.6290
# 6 -26.0931 -33.5003 -31.4894 -2.3409 -6.6290 64.5854
#
#
#
# Elastic Compliance Matrix: (Units=1/GPa)
#
#
# Indices 1 2 3 4 5 6 
#
# 1 0.011189 -0.000648 -0.002259 0.002064 -0.000728 0.003083
# 2 -0.000648 0.017149 -0.002170 0.006137 0.004048 0.008213
# 3 -0.002259 -0.002170 0.007022 0.003414 0.000506 0.001561
# 4 0.002064 0.006137 0.003414 0.032767 0.006614 0.007548
# 5 -0.000728 0.004048 0.000506 0.006614 0.021223 0.004471
# 6 0.003083 0.008213 0.001561 0.007548 0.004471 0.022483
#
#
# Mechanical properties :
#
#
# Convention : Reuss Voigt Hill
#
# Bulk Modulus (GPa) = 39.67297 73.97141 56.82219
# Shear Modulus (GPa) = 38.34658 48.76207 43.55432
#
# Velocity S-wave (km/s) = 3.91491 4.41469 4.17229
# Velocity P-wave (km/s) = 6.02429 7.45327 6.77655
#
# Compressibility (1/GPa) = 0.02520608
#
# Stress axis : x y z
#
# Youngs Moduli (GPa) = 89.37117 58.31299 142.40600
#
# Poissons Ratio (x) = 0.03780 0.32168
# Poissons Ratio (y) = 0.05794 0.30901
# Poissons Ratio (z) = 0.20188 0.12654
#
# Static dielectric constant tensor:
#      x y z
#    x 2.055250 -0.033560 0.040160 
#    y -0.033560 2.036060 -0.035300 
#    z 0.040160 -0.035300 1.968050 
# 
# From -- ./inp_files/273677.got.cif
#   From: 2010.05.17/outbox.cif.g08.bks.cpg/sg2_137_cif.got.tgz:273677.got - 2010.06.03 11:33:40.
