data_PCOD9059568
_publ_section_title
;
Structure prediction by ZEFSAII (Michael W. Deem and Ramdas Pophale) SiO2 
 PCOD9059568
Probable space group: P -1
;
_chemical_formula_sum "Si O2"
_cell_formula_units_Z 14
_cell_length_a 12.801399
_cell_length_b 7.726997
_cell_length_c 6.555145
_cell_angle_alpha 90.693693
_cell_angle_beta 84.535062
_cell_angle_gamma 70.391400
_cell_volume 607.359807
_symmetry_space_group_name_H-M "P -1"
_symmetry_group_IT_number 2
_symmetry_cell_setting 'triclinic'
loop_
_space_group_symop_operation_xyz
x,y,z
-x,-y,-z
loop_
_atom_site_type_symbol
_atom_site_label
_atom_site_fract_x
_atom_site_fract_y
_atom_site_fract_z
Si Si1 0.615693 0.257656 0.375402
Si Si2 0.885112 0.496270 0.121887
Si Si3 0.503316 0.349313 0.782517
Si Si4 0.098373 0.863214 0.114472
Si Si5 0.688184 0.698646 0.903485
Si Si6 0.314935 0.930166 0.041842
Si Si7 0.809363 0.389173 0.545125
O O1 0.535064 0.232651 0.566648
O O2 0.538496 0.441649 0.278560
O O3 0.659072 0.095279 0.203066
O O4 0.720402 0.307733 0.452575
O O5 0.872190 0.471551 0.365030
O O6 0.860765 0.319276 0.033660
O O7 0.788303 0.667648 0.048170
O O8 0.000000 0.500000 0.000000
O O9 0.410649 0.327372 0.947902
O O10 0.619042 0.268925 0.878983
O O11 0.101258 0.770499 0.337002
O O12 0.187688 0.964591 0.112533
O O13 0.000000 0.000000 0.000000
O O14 0.737893 0.555970 0.709277
O O15 0.649344 0.912539 0.857795
#
# Coordination Sequence:
#
# PCOD9059568 Si02
#       7
#     2   2   2   2   2   2   2
#     4  11  23  41  72  97 132 182 233 271 339 406
#     4  11  24  47  70  98 136 178 227 284 343 407
#     4  11  24  41  67 100 139 182 223 280 337 405
#     4  11  24  44  70 100 135 175 233 282 337 405
#     4  11  26  41  66 100 144 175 226 278 343 401
#     4  12  24  43  64 102 138 179 223 287 330 400
#     4  11  23  47  70  99 133 184 225 279 346 406
#
# _framework density 23.050585999999999
#
# number of rings (size 3 to 8) (size 9 to 14) (size 15 to 20)
#    0.000    0.857    4.286    2.571    4.000    4.571 
#    0.000    0.000    0.000    0.000    0.000    0.000 
#    0.000    0.000    0.000    0.000    0.000    0.000 
#
# Total GULP energy -78127.143654 kJ/mol
# GULP energy per Si atom -5580.510261 kJ/mol
# Density = 2.299812 g / cm^3
# Si number density = 23.050586 Si / 1000 Ang^3
#
#
#
# Elastic Constant Matrix: (Units=GPa)
#
#
# Indices 1 2 3 4 5 6 
#
# 1 94.6034 14.4435 41.9286 -16.7468 -15.3469 -14.9738
# 2 14.4435 85.7589 39.2409 -12.6878 7.2770 1.4607
# 3 41.9286 39.2409 125.8557 -8.5659 -19.3851 -0.5719
# 4 -16.7468 -12.6878 -8.5659 33.0206 -4.1964 16.3301
# 5 -15.3469 7.2770 -19.3851 -4.1964 41.7235 -12.4692
# 6 -14.9738 1.4607 -0.5719 16.3301 -12.4692 35.7015
#
#
#
# Elastic Compliance Matrix: (Units=1/GPa)
#
#
# Indices 1 2 3 4 5 6 
#
# 1 0.015063 -0.001119 -0.003363 0.003767 0.006613 0.006896
# 2 -0.001119 0.015928 -0.005245 0.006598 -0.006951 -0.006651
# 3 -0.003363 -0.005245 0.011477 -0.000626 0.005282 0.001119
# 4 0.003767 0.006598 -0.000626 0.043924 -0.001400 -0.019280
# 5 0.006613 -0.006951 0.005282 -0.001400 0.034675 0.015894
# 6 0.006896 -0.006651 0.001119 -0.019280 0.015894 0.045563
#
#
# Mechanical properties :
#
#
# Convention : Reuss Voigt Hill
#
# Bulk Modulus (GPa) = 43.45241 55.27155 49.36198
# Shear Modulus (GPa) = 25.80552 36.12946 30.96749
#
# Velocity S-wave (km/s) = 3.34955 3.96333 3.66930
# Velocity P-wave (km/s) = 5.81817 6.70630 6.27796
#
# Compressibility (1/GPa) = 0.02301368
#
# Stress axis : x y z
#
# Youngs Moduli (GPa) = 66.38808 62.78101 87.12779
#
# Poissons Ratio (x) = 0.07028 0.29300
# Poissons Ratio (y) = 0.07432 0.45700
# Poissons Ratio (z) = 0.22325 0.32930
#
# Static dielectric constant tensor:
#      x y z
#    x 1.962890 -0.130470 0.047170 
#    y -0.130470 2.083860 -0.075200 
#    z 0.047170 -0.075200 1.956540 
# 
# From -- ./inp_files/79822.got.cif
#   From: 2010.05.17/outbox.cif.g08.bks.cpg/sg2_40_cif.got.tgz:79822.got - 2010.06.03 11:33:40.
