data_PCOD9059132
_publ_section_title
;
Structure prediction by ZEFSAII (Michael W. Deem and Ramdas Pophale) SiO2 
 PCOD9059132
Probable space group: P -1
;
_chemical_formula_sum "Si O2"
_cell_formula_units_Z 12
_cell_length_a 11.390552
_cell_length_b 9.906625
_cell_length_c 5.253063
_cell_angle_alpha 104.859806
_cell_angle_beta 73.416342
_cell_angle_gamma 119.681266
_cell_volume 488.829067
_symmetry_space_group_name_H-M "P -1"
_symmetry_group_IT_number 2
_symmetry_cell_setting 'triclinic'
loop_
_space_group_symop_operation_xyz
x,y,z
-x,-y,-z
loop_
_atom_site_type_symbol
_atom_site_label
_atom_site_fract_x
_atom_site_fract_y
_atom_site_fract_z
Si Si1 0.340035 0.994405 0.176812
Si Si2 0.701946 0.199139 0.375234
Si Si3 0.539152 0.644075 0.741199
Si Si4 0.696265 0.482859 0.749794
Si Si5 0.016419 0.375084 0.104293
Si Si6 0.966017 0.068578 0.800224
O O1 0.331088 0.894630 0.384812
O O2 0.190416 0.968017 0.162091
O O3 0.413433 0.178579 0.282036
O O4 0.375298 0.916841 0.869392
O O5 0.668580 0.346758 0.493506
O O6 0.868099 0.273853 0.276058
O O7 0.500000 0.500000 0.500000
O O8 0.670748 0.632101 0.777605
O O9 0.414974 0.599057 0.996580
O O10 0.853498 0.539284 0.755095
O O11 0.000000 0.500000 0.000000
O O12 0.048912 0.256139 0.858096
O O13 0.000000 0.000000 0.500000
O O14 0.000000 0.000000 0.000000
#
# Coordination Sequence:
#
# PCOD9059132 Si02
#       6
#     2   2   2   2   2   2
#     4  11  26  47  72 104 150 187 251 299 362 441
#     4  11  26  48  76 111 143 191 242 309 374 429
#     4  11  29  47  74 104 148 202 247 299 359 440
#     4  11  26  48  73 108 149 193 248 299 367 439
#     4  11  25  46  78 111 147 186 241 309 372 438
#     4  11  23  40  68 102 141 188 232 295 364 424
#
# _framework density 24.548461
#
# number of rings (size 3 to 8) (size 9 to 14) (size 15 to 20)
#    0.000    1.000    0.000    5.500   11.667    2.667 
#    0.000    0.000    0.000    0.000    0.000    0.000 
#    0.000    0.000    0.000    0.000    0.000    0.000 
#
# Total GULP energy -67177.824653 kJ/mol
# GULP energy per Si atom -5598.152054 kJ/mol
# Density = 2.449259 g / cm^3
# Si number density = 24.548461 Si / 1000 Ang^3
#
#
#
# Elastic Constant Matrix: (Units=GPa)
#
#
# Indices 1 2 3 4 5 6 
#
# 1 95.2902 52.4553 35.8967 -0.3047 4.2856 -4.2258
# 2 52.4553 159.1189 66.5158 28.4779 6.0863 -22.6544
# 3 35.8967 66.5158 173.7668 34.2213 1.5357 -9.7839
# 4 -0.3047 28.4779 34.2213 55.4851 -0.8922 5.6113
# 5 4.2856 6.0863 1.5357 -0.8922 45.0877 5.9935
# 6 -4.2258 -22.6544 -9.7839 5.6113 5.9935 51.3667
#
#
#
# Elastic Compliance Matrix: (Units=1/GPa)
#
#
# Indices 1 2 3 4 5 6 
#
# 1 0.013708 -0.004626 -0.001896 0.003780 -0.000320 -0.001649
# 2 -0.004626 0.010034 -0.001722 -0.004583 -0.001531 0.004396
# 3 -0.001896 -0.001722 0.007636 -0.003936 -0.000055 0.000976
# 4 0.003780 -0.004583 -0.003936 0.023373 0.001546 -0.005194
# 5 -0.000320 -0.001531 -0.000055 0.001546 0.022921 -0.003555
# 6 -0.001649 0.004396 0.000976 -0.005194 -0.003555 0.022439
#
#
# Mechanical properties :
#
#
# Convention : Reuss Voigt Hill
#
# Bulk Modulus (GPa) = 67.15076 81.99016 74.57046
# Shear Modulus (GPa) = 41.13145 48.60845 44.86995
#
# Velocity S-wave (km/s) = 4.09775 4.45466 4.27993
# Velocity P-wave (km/s) = 7.05709 7.74148 7.40719
#
# Compressibility (1/GPa) = 0.01489186
#
# Stress axis : x y z
#
# Youngs Moduli (GPa) = 72.94981 99.66269 130.95782
#
# Poissons Ratio (x) = 0.46101 0.24825
# Poissons Ratio (y) = 0.33744 0.22547
# Poissons Ratio (z) = 0.13829 0.17159
#
# Static dielectric constant tensor:
#      x y z
#    x 2.087920 0.039220 0.054930 
#    y 0.039220 1.894540 -0.019340 
#    z 0.054930 -0.019340 1.928450 
# 
# From -- ./inp_files/60550.got.cif
#   From: 2010.05.17/outbox.cif.g08.bks.cpg/sg2_31_cif.got.tgz:60550.got - 2010.06.03 11:33:40.
