data_PCOD9059794
_publ_section_title
;
Structure prediction by ZEFSAII (Michael W. Deem and Ramdas Pophale) SiO2 
 PCOD9059794
Probable space group: P -1
;
_chemical_formula_sum "Si O2"
_cell_formula_units_Z 16
_cell_length_a 11.697856
_cell_length_b 17.328982
_cell_length_c 6.261861
_cell_angle_alpha 65.135648
_cell_angle_beta 130.891484
_cell_angle_gamma 130.549731
_cell_volume 729.092069
_symmetry_space_group_name_H-M "P -1"
_symmetry_group_IT_number 2
_symmetry_cell_setting 'triclinic'
loop_
_space_group_symop_operation_xyz
x,y,z
-x,-y,-z
loop_
_atom_site_type_symbol
_atom_site_label
_atom_site_fract_x
_atom_site_fract_y
_atom_site_fract_z
Si Si1 0.243324 0.238848 0.192660
Si Si2 0.105545 0.086974 0.853207
Si Si3 0.638342 0.874624 0.223859
Si Si4 0.465004 0.526339 0.678177
Si Si5 0.097410 0.757793 0.088874
Si Si6 0.953490 0.581763 0.786333
Si Si7 0.268633 0.763297 0.691133
Si Si8 0.238332 0.921009 0.714677
O O1 0.269950 0.169680 0.470691
O O2 0.406799 0.352479 0.299636
O O3 0.237488 0.194001 0.005864
O O4 0.053651 0.230312 0.995477
O O5 0.223885 0.065223 0.870572
O O6 0.954526 0.093057 0.538054
O O7 0.000000 0.000000 0.000000
O O8 0.623261 0.958744 0.233292
O O9 0.450199 0.786632 0.996268
O O10 0.500000 0.500000 0.500000
O O11 0.748975 0.524328 0.525225
O O12 0.500000 0.500000 0.000000
O O13 0.237221 0.750436 0.417187
O O14 0.212670 0.853316 0.965509
O O15 0.983675 0.654025 0.938117
O O16 0.096820 0.663217 0.697970
O O17 0.000000 0.500000 0.000000
O O18 0.269298 0.864499 0.627602
#
# Coordination Sequence:
#
# PCOD9059794 Si02
#       8
#     2   2   2   2   2   2   2   2
#     4  12  24  44  74 102 142 188 245 301 360 442
#     4  12  24  42  71 104 142 187 240 295 362 436
#     4  12  26  42  69 108 141 183 244 299 355 440
#     4  12  28  48  79 113 146 195 259 315 373 442
#     4  11  23  44  71  96 138 187 231 292 367 440
#     4  11  26  50  70 102 142 186 241 308 381 440
#     4  11  26  45  70  99 140 189 234 294 370 447
#     4  11  23  42  68  99 141 184 230 286 362 436
#
# _framework density 21.945101000000001
#
# number of rings (size 3 to 8) (size 9 to 14) (size 15 to 20)
#    0.000    0.500    5.000    3.000    3.500    4.000 
#    0.000    0.000    0.000    0.000    0.000    0.000 
#    0.000    0.000    0.000    0.000    0.000    0.000 
#
# Total GULP energy -89342.530126 kJ/mol
# GULP energy per Si atom -5583.908133 kJ/mol
# Density = 2.189515 g / cm^3
# Si number density = 21.945101 Si / 1000 Ang^3
#
#
#
# Elastic Constant Matrix: (Units=GPa)
#
#
# Indices 1 2 3 4 5 6 
#
# 1 52.6192 15.3336 23.8659 -2.1222 3.0837 5.5579
# 2 15.3336 123.0410 40.7226 9.7136 -7.5940 -1.4840
# 3 23.8659 40.7226 136.5118 20.2641 3.3330 5.5123
# 4 -2.1222 9.7136 20.2641 38.4873 4.2999 10.2508
# 5 3.0837 -7.5940 3.3330 4.2999 29.9299 6.4866
# 6 5.5579 -1.4840 5.5123 10.2508 6.4866 32.1922
#
#
#
# Elastic Compliance Matrix: (Units=1/GPa)
#
#
# Indices 1 2 3 4 5 6 
#
# 1 0.022141 -0.002106 -0.003777 0.005178 -0.002167 -0.004485
# 2 -0.002106 0.009497 -0.002295 -0.001957 0.002896 0.001234
# 3 -0.003777 -0.002295 0.009351 -0.004624 -0.000691 0.000557
# 4 0.005178 -0.001957 -0.004624 0.032148 -0.003005 -0.009824
# 5 -0.002167 0.002896 -0.000691 -0.003005 0.036112 -0.005694
# 6 -0.004485 0.001234 0.000557 -0.009824 -0.005694 0.036075
#
#
# Mechanical properties :
#
#
# Convention : Reuss Voigt Hill
#
# Bulk Modulus (GPa) = 40.59531 52.44625 46.52078
# Shear Modulus (GPa) = 29.43050 35.60521 32.51786
#
# Velocity S-wave (km/s) = 3.66607 4.03236 3.85357
# Velocity P-wave (km/s) = 6.03812 6.75504 6.40661
#
# Compressibility (1/GPa) = 0.02463339
#
# Stress axis : x y z
#
# Youngs Moduli (GPa) = 45.16556 105.29093 106.93916
#
# Poissons Ratio (x) = 0.22171 0.40393
# Poissons Ratio (y) = 0.09510 0.24544
# Poissons Ratio (z) = 0.17060 0.24165
#
# Static dielectric constant tensor:
#      x y z
#    x 1.885290 -0.032850 -0.086130 
#    y -0.032850 1.789680 0.010210 
#    z -0.086130 0.010210 1.838170 
# 
# From -- ./inp_files/81273.got.cif
#   From: 2010.05.17/outbox.cif.g08.bks.cpg/sg2_41_cif.got.tgz:81273.got - 2010.06.03 11:33:40.
