data_PCOD9059220
_publ_section_title
;
Structure prediction by ZEFSAII (Michael W. Deem and Ramdas Pophale) SiO2 
 PCOD9059220
Probable space group: P -1
;
_chemical_formula_sum "Si O2"
_cell_formula_units_Z 16
_cell_length_a 15.104655
_cell_length_b 9.210166
_cell_length_c 9.060333
_cell_angle_alpha 71.798566
_cell_angle_beta 110.094481
_cell_angle_gamma 140.922205
_cell_volume 743.962273
_symmetry_space_group_name_H-M "P -1"
_symmetry_group_IT_number 2
_symmetry_cell_setting 'triclinic'
loop_
_space_group_symop_operation_xyz
x,y,z
-x,-y,-z
loop_
_atom_site_type_symbol
_atom_site_label
_atom_site_fract_x
_atom_site_fract_y
_atom_site_fract_z
Si Si1 0.627907 0.101768 0.653347
Si Si2 0.695001 0.444787 0.813993
Si Si3 0.849943 0.008624 0.370452
Si Si4 0.502515 0.341691 0.141451
Si Si5 0.792524 0.543972 0.156079
Si Si6 0.474760 0.428726 0.674762
Si Si7 0.034149 0.034104 0.270518
Si Si8 0.166969 0.706946 0.556376
O O1 0.683217 0.316411 0.709560
O O2 0.746594 0.179380 0.583892
O O3 0.500000 0.000000 0.500000
O O4 0.580212 0.922107 0.810885
O O5 0.544481 0.350355 0.777456
O O6 0.812747 0.719784 0.769689
O O7 0.749844 0.440063 0.999955
O O8 0.815014 0.136106 0.364815
O O9 0.945813 0.074933 0.265353
O O10 0.691941 0.755447 0.330959
O O11 0.931158 0.030993 0.548571
O O12 0.663396 0.488842 0.157469
O O13 0.452775 0.347333 0.267061
O O14 0.500000 0.500000 0.000000
O O15 0.794606 0.403909 0.309417
O O16 0.938030 0.818784 0.171062
O O17 0.500000 0.500000 0.500000
O O18 0.000000 0.500000 0.500000
#
# Coordination Sequence:
#
# PCOD9059220 Si02
#       8
#     2   2   2   2   2   2   2   2
#     4  12  27  48  77 107 147 192 252 305 360 438
#     4  12  27  46  71 108 146 190 240 306 375 430
#     4  11  23  40  72 103 134 188 244 298 354 428
#     4  12  26  48  71 108 151 190 239 310 371 431
#     4  12  26  47  72 105 153 193 240 308 374 434
#     4  12  23  40  71 105 135 182 249 295 353 435
#     4  11  24  45  72 104 146 185 242 304 364 433
#     4  12  25  46  72 106 146 196 247 299 365 442
#
# _framework density 21.506467000000001
#
# number of rings (size 3 to 8) (size 9 to 14) (size 15 to 20)
#    0.000    0.250    6.250    3.375    1.750    1.500 
#    2.250    1.250    0.000    0.000    0.000    0.000 
#    0.000    0.000    0.000    0.000    0.000    0.000 
#
# Total GULP energy -89183.076955 kJ/mol
# GULP energy per Si atom -5573.942310 kJ/mol
# Density = 2.145752 g / cm^3
# Si number density = 21.506467 Si / 1000 Ang^3
#
#
#
# Elastic Constant Matrix: (Units=GPa)
#
#
# Indices 1 2 3 4 5 6 
#
# 1 100.1453 21.8418 8.4516 10.8755 11.9649 1.4513
# 2 21.8418 85.8507 27.4313 9.4021 0.8317 -6.2265
# 3 8.4516 27.4313 82.2170 9.9937 8.8546 -0.1646
# 4 10.8755 9.4021 9.9937 24.3547 -5.4090 -1.4951
# 5 11.9649 0.8317 8.8546 -5.4090 35.9447 1.0752
# 6 1.4513 -6.2265 -0.1646 -1.4951 1.0752 39.8402
#
#
#
# Elastic Compliance Matrix: (Units=1/GPa)
#
#
# Indices 1 2 3 4 5 6 
#
# 1 0.011708 -0.002661 0.000904 -0.005714 -0.004891 -0.000921
# 2 -0.002661 0.014071 -0.004299 -0.002071 0.001243 0.002167
# 3 0.000904 -0.004299 0.014722 -0.005872 -0.004689 -0.000738
# 4 -0.005714 -0.002071 -0.005872 0.049300 0.010773 0.001420
# 5 -0.004891 0.001243 -0.004689 0.010773 0.032199 -0.000112
# 6 -0.000921 0.002167 -0.000738 0.001420 -0.000112 0.025526
#
#
# Mechanical properties :
#
#
# Convention : Reuss Voigt Hill
#
# Bulk Modulus (GPa) = 35.22645 42.62917 38.92781
# Shear Modulus (GPa) = 29.56832 34.06047 31.81439
#
# Velocity S-wave (km/s) = 3.71193 3.98393 3.85033
# Velocity P-wave (km/s) = 5.89799 6.40522 6.15683
#
# Compressibility (1/GPa) = 0.02838776
#
# Stress axis : x y z
#
# Youngs Moduli (GPa) = 85.41303 71.07007 67.92740
#
# Poissons Ratio (x) = 0.18912 -0.06139
# Poissons Ratio (y) = 0.22729 0.29201
# Poissons Ratio (z) = -0.07719 0.30552
#
# Static dielectric constant tensor:
#      x y z
#    x 1.815240 -0.118670 -0.031650 
#    y -0.118670 2.162900 0.009090 
#    z -0.031650 0.009090 1.879860 
# 
# From -- ./inp_files/205727.got.cif
#   From: 2010.05.17/outbox.cif.g08.bks.cpg/sg2_103_cif.got.tgz:205727.got - 2010.06.03 11:33:40.
