data_PCOD9059983
_publ_section_title
;
Structure prediction by ZEFSAII (Michael W. Deem and Ramdas Pophale) SiO2 
 PCOD9059983
Probable space group: P -1
;
_chemical_formula_sum "Si O2"
_cell_formula_units_Z 14
_cell_length_a 11.236904
_cell_length_b 6.694991
_cell_length_c 9.710395
_cell_angle_alpha 109.119371
_cell_angle_beta 56.706321
_cell_angle_gamma 107.137691
_cell_volume 570.801667
_symmetry_space_group_name_H-M "P -1"
_symmetry_group_IT_number 2
_symmetry_cell_setting 'triclinic'
loop_
_space_group_symop_operation_xyz
x,y,z
-x,-y,-z
loop_
_atom_site_type_symbol
_atom_site_label
_atom_site_fract_x
_atom_site_fract_y
_atom_site_fract_z
Si Si1 0.104540 0.425162 0.114937
Si Si2 0.336873 0.882779 0.330607
Si Si3 0.110000 0.832221 0.012534
Si Si4 0.358072 0.332558 0.574594
Si Si5 0.158416 0.506896 0.532074
Si Si6 0.124798 0.060335 0.323915
Si Si7 0.652417 0.806216 0.134288
O O1 0.131462 0.622414 0.037080
O O2 0.255224 0.349955 0.039674
O O3 0.065730 0.988350 0.195908
O O4 0.008937 0.239988 0.043241
O O5 0.238684 0.718710 0.456793
O O6 0.489288 0.804156 0.192266
O O7 0.365020 0.112323 0.439845
O O8 0.251899 0.927126 0.256275
O O9 0.256901 0.957709 0.885629
O O10 0.500000 0.500000 0.500000
O O11 0.231164 0.445827 0.615305
O O12 0.343022 0.269925 0.728678
O O13 0.173721 0.307643 0.379427
O O14 0.995448 0.521222 0.683642
O O15 0.000000 0.000000 0.500000
#
# Coordination Sequence:
#
# PCOD9059983 Si02
#       7
#     2   2   2   2   2   2   2
#     4  11  25  42  76 106 142 182 237 304 359 411
#     4  11  27  44  73 106 142 194 239 289 359 429
#     4  11  25  46  69 106 146 187 237 296 355 419
#     4  11  23  42  72 107 144 184 238 294 355 422
#     4  11  24  47  76 106 141 186 249 291 351 433
#     4  11  26  48  72 101 144 196 243 288 348 433
#     4  12  26  42  72 109 145 182 233 300 366 417
#
# _framework density 24.526909
#
# number of rings (size 3 to 8) (size 9 to 14) (size 15 to 20)
#    0.000    0.857    2.857    3.429    8.000    2.286 
#    0.000    1.429    0.000    0.000    0.000    0.000 
#    0.000    0.000    0.000    0.000    0.000    0.000 
#
# Total GULP energy -78515.627758 kJ/mol
# GULP energy per Si atom -5608.259126 kJ/mol
# Density = 2.447108 g / cm^3
# Si number density = 24.526909 Si / 1000 Ang^3
#
#
#
# Elastic Constant Matrix: (Units=GPa)
#
#
# Indices 1 2 3 4 5 6 
#
# 1 124.0204 50.9613 57.4246 5.0437 -1.9146 -25.0521
# 2 50.9613 169.9874 56.4523 -23.9655 -10.4136 -1.1933
# 3 57.4246 56.4523 133.5636 -7.1844 -15.4142 -17.2887
# 4 5.0437 -23.9655 -7.1844 54.9615 -6.0584 -9.6931
# 5 -1.9146 -10.4136 -15.4142 -6.0584 52.7098 14.9646
# 6 -25.0521 -1.1933 -17.2887 -9.6931 14.9646 46.6421
#
#
#
# Elastic Compliance Matrix: (Units=1/GPa)
#
#
# Indices 1 2 3 4 5 6 
#
# 1 0.012148 -0.002850 -0.003768 -0.002203 -0.003061 0.005580
# 2 -0.002850 0.007972 -0.002009 0.003329 0.001824 -0.001965
# 3 -0.003768 -0.002009 0.010467 0.001328 0.002299 0.001343
# 4 -0.002203 0.003329 0.001328 0.020814 0.002533 0.002907
# 5 -0.003061 0.001824 0.002299 0.002533 0.022276 -0.007366
# 6 0.005580 -0.001965 0.001343 0.002907 -0.007366 0.027852
#
#
# Mechanical properties :
#
#
# Convention : Reuss Voigt Hill
#
# Bulk Modulus (GPa) = 74.99909 84.13863 79.56886
# Shear Modulus (GPa) = 40.57604 48.37823 44.47714
#
# Velocity S-wave (km/s) = 4.07178 4.44605 4.26303
# Velocity P-wave (km/s) = 7.26296 7.79330 7.53280
#
# Compressibility (1/GPa) = 0.01333349
#
# Stress axis : x y z
#
# Youngs Moduli (GPa) = 82.31604 125.44600 95.54043
#
# Poissons Ratio (x) = 0.35747 0.36002
# Poissons Ratio (y) = 0.23456 0.19192
# Poissons Ratio (z) = 0.31018 0.25199
#
# Static dielectric constant tensor:
#      x y z
#    x 1.955310 -0.023050 0.004020 
#    y -0.023050 2.003300 0.029100 
#    z 0.004020 0.029100 1.918310 
# 
# From -- ./inp_files/76642.got.cif
#   From: 2010.05.17/outbox.cif.g08.bks.cpg/sg2_39_cif.got.tgz:76642.got - 2010.06.03 11:33:40.
