data_PCOD9059472
_publ_section_title
;
Structure prediction by ZEFSAII (Michael W. Deem and Ramdas Pophale) SiO2 
 PCOD9059472
Probable space group: P -1
;
_chemical_formula_sum "Si O2"
_cell_formula_units_Z 14
_cell_length_a 5.141422
_cell_length_b 10.656172
_cell_length_c 11.962425
_cell_angle_alpha 121.829132
_cell_angle_beta 91.525139
_cell_angle_gamma 68.286202
_cell_volume 505.404070
_symmetry_space_group_name_H-M "P -1"
_symmetry_group_IT_number 2
_symmetry_cell_setting 'triclinic'
loop_
_space_group_symop_operation_xyz
x,y,z
-x,-y,-z
loop_
_atom_site_type_symbol
_atom_site_label
_atom_site_fract_x
_atom_site_fract_y
_atom_site_fract_z
Si Si1 0.099268 0.172074 0.074506
Si Si2 0.166343 0.673499 0.556432
Si Si3 0.734037 0.590457 0.958993
Si Si4 0.340353 0.519063 0.696200
Si Si5 0.604429 0.308276 0.779106
Si Si6 0.348983 0.016290 0.389065
Si Si7 0.606646 0.076045 0.213267
O O1 0.223637 0.278792 0.053910
O O2 0.314782 0.118426 0.157952
O O3 0.777768 0.306165 0.159367
O O4 0.144530 0.025210 0.920508
O O5 0.121675 0.574145 0.613984
O O6 0.370351 0.559580 0.410198
O O7 0.327368 0.780227 0.663681
O O8 0.883337 0.806497 0.560737
O O9 0.720164 0.443207 0.820460
O O10 0.475737 0.668379 0.080600
O O11 0.000000 0.500000 0.000000
O O12 0.346183 0.382194 0.719679
O O13 0.777449 0.119208 0.673175
O O14 0.500000 0.000000 0.500000
O O15 0.577190 0.973003 0.269923
#
# Coordination Sequence:
#
# PCOD9059472 Si02
#       7
#     2   2   2   2   2   2   2
#     4  11  23  46  76 110 151 189 253 313 375 436
#     4  11  27  49  74 106 152 199 257 299 379 448
#     4  11  23  41  69 105 147 186 238 312 370 446
#     4  11  24  48  73 108 144 204 247 315 360 453
#     4  11  25  42  70 108 144 192 247 303 384 429
#     4  12  27  49  75 108 152 203 250 309 374 457
#     4  11  25  46  75 111 148 197 246 318 373 443
#
# _framework density 27.700603999999998
#
# number of rings (size 3 to 8) (size 9 to 14) (size 15 to 20)
#    0.000    0.857    4.286    1.714    2.000    4.571 
#    7.714    0.000    0.000    0.000    0.000    0.000 
#    0.000    0.000    0.000    0.000    0.000    0.000 
#
# Total GULP energy -78378.369059 kJ/mol
# GULP energy per Si atom -5598.454933 kJ/mol
# Density = 2.763756 g / cm^3
# Si number density = 27.700604 Si / 1000 Ang^3
#
#
#
# Elastic Constant Matrix: (Units=GPa)
#
#
# Indices 1 2 3 4 5 6 
#
# 1 57.9141 2.9568 43.7849 6.7558 1.0636 -14.2438
# 2 2.9568 146.4323 54.1395 -26.6501 -3.1666 -8.8293
# 3 43.7849 54.1395 187.9107 -13.3959 -17.2063 -7.1527
# 4 6.7558 -26.6501 -13.3959 59.1388 -2.8391 -6.6544
# 5 1.0636 -3.1666 -17.2063 -2.8391 50.6472 3.8125
# 6 -14.2438 -8.8293 -7.1527 -6.6544 3.8125 40.3543
#
#
#
# Elastic Compliance Matrix: (Units=1/GPa)
#
#
# Indices 1 2 3 4 5 6 
#
# 1 0.024252 0.001760 -0.006360 -0.002711 -0.003290 0.007682
# 2 0.001760 0.008492 -0.002556 0.003322 -0.000385 0.002611
# 3 -0.006360 -0.002556 0.007837 0.001321 0.002820 -0.001464
# 4 -0.002711 0.003322 0.001321 0.019435 0.001572 0.003060
# 5 -0.003290 -0.000385 0.002820 0.001572 0.021022 -0.002472
# 6 0.007682 0.002611 -0.001464 0.003060 -0.002472 0.028542
#
#
# Mechanical properties :
#
#
# Convention : Reuss Voigt Hill
#
# Bulk Modulus (GPa) = 38.06764 66.00217 52.03491
# Shear Modulus (GPa) = 37.69399 49.45312 43.57355
#
# Velocity S-wave (km/s) = 3.69286 4.22983 3.97043
# Velocity P-wave (km/s) = 5.65290 6.90898 6.31226
#
# Compressibility (1/GPa) = 0.02626903
#
# Stress axis : x y z
#
# Youngs Moduli (GPa) = 41.23447 117.75455 127.60427
#
# Poissons Ratio (x) = -0.20729 0.81159
# Poissons Ratio (y) = -0.07259 0.32615
# Poissons Ratio (z) = 0.26226 0.30097
#
# Static dielectric constant tensor:
#      x y z
#    x 2.389110 -0.304860 0.198180 
#    y -0.304860 2.619700 -0.305480 
#    z 0.198180 -0.305480 2.426040 
# 
# From -- ./inp_files/365272.got.cif
#   From: 2010.05.17/outbox.cif.g08.bks.cpg/sg2_183_cif.got.tgz:365272.got - 2010.06.03 11:33:40.
