data_PCOD9059987
_publ_section_title
;
Structure prediction by ZEFSAII (Michael W. Deem and Ramdas Pophale) SiO2 
 PCOD9059987
Probable space group: P -1
;
_chemical_formula_sum "Si O2"
_cell_formula_units_Z 12
_cell_length_a 9.263723
_cell_length_b 8.351905
_cell_length_c 8.948997
_cell_angle_alpha 110.393535
_cell_angle_beta 91.790119
_cell_angle_gamma 48.256219
_cell_volume 463.843967
_symmetry_space_group_name_H-M "P -1"
_symmetry_group_IT_number 2
_symmetry_cell_setting 'triclinic'
loop_
_space_group_symop_operation_xyz
x,y,z
-x,-y,-z
loop_
_atom_site_type_symbol
_atom_site_label
_atom_site_fract_x
_atom_site_fract_y
_atom_site_fract_z
Si Si1 0.133349 0.584466 0.425016
Si Si2 0.355217 0.658116 0.275665
Si Si3 0.996488 0.328629 0.235403
Si Si4 0.772253 0.669577 0.105043
Si Si5 0.450310 0.884076 0.571049
Si Si6 0.613627 0.188774 0.992625
O O1 0.170808 0.692380 0.334943
O O2 0.027872 0.502663 0.332761
O O3 0.348870 0.340039 0.411749
O O4 0.028398 0.735142 0.623137
O O5 0.372261 0.793224 0.440511
O O6 0.551874 0.370464 0.179720
O O7 0.343021 0.742637 0.136540
O O8 0.189056 0.091654 0.080369
O O9 0.800921 0.499386 0.179294
O O10 0.590130 0.753858 0.023166
O O11 0.000000 0.500000 0.000000
O O12 0.299273 0.092810 0.751398
O O13 0.500000 0.000000 0.500000
#
# Coordination Sequence:
#
# PCOD9059987 Si02
#       6
#     2   2   2   2   2   2
#     4  11  23  42  72 109 134 184 238 277 350 413
#     4  11  25  44  72 103 142 184 227 292 348 400
#     4  11  24  45  75 103 138 187 229 282 349 417
#     4  12  26  45  74 104 134 187 237 278 346 418
#     4  12  22  48  73  97 145 184 230 290 343 414
#     4  11  25  50  68 101 149 177 228 295 342 407
#
# _framework density 25.870768000000002
#
# number of rings (size 3 to 8) (size 9 to 14) (size 15 to 20)
#    0.000    0.667    5.000    1.500    4.667    2.000 
#    6.000    4.167    0.000    0.000    0.000    0.000 
#    0.000    0.000    0.000    0.000    0.000    0.000 
#
# Total GULP energy -67274.977557 kJ/mol
# GULP energy per Si atom -5606.248130 kJ/mol
# Density = 2.581189 g / cm^3
# Si number density = 25.870768 Si / 1000 Ang^3
#
#
#
# Elastic Constant Matrix: (Units=GPa)
#
#
# Indices 1 2 3 4 5 6 
#
# 1 82.3273 44.0938 31.3634 10.9440 -14.0529 7.3586
# 2 44.0938 117.7969 36.0949 40.5273 -1.1446 -12.2676
# 3 31.3634 36.0949 101.6647 30.3010 -20.9421 9.1185
# 4 10.9440 40.5273 30.3010 66.3111 -2.7451 -3.7566
# 5 -14.0529 -1.1446 -20.9421 -2.7451 46.2725 0.5233
# 6 7.3586 -12.2676 9.1185 -3.7566 0.5233 43.8753
#
#
#
# Elastic Compliance Matrix: (Units=1/GPa)
#
#
# Indices 1 2 3 4 5 6 
#
# 1 0.017670 -0.007142 -0.002378 0.002470 0.004309 -0.004306
# 2 -0.007142 0.014602 -0.002144 -0.006605 -0.003229 0.005199
# 3 -0.002378 -0.002144 0.014188 -0.004762 0.005405 -0.003622
# 4 0.002470 -0.006605 -0.004762 0.020902 -0.000335 0.000522
# 5 0.004309 -0.003229 0.005405 -0.000335 0.025301 -0.003079
# 6 -0.004306 0.005199 -0.003622 0.000522 -0.003079 0.025802
#
#
# Mechanical properties :
#
#
# Convention : Reuss Voigt Hill
#
# Bulk Modulus (GPa) = 43.22742 58.32146 50.77444
# Shear Modulus (GPa) = 33.44449 43.97425 38.70937
#
# Velocity S-wave (km/s) = 3.59939 4.12729 3.87235
# Velocity P-wave (km/s) = 5.83261 6.73090 6.29779
#
# Compressibility (1/GPa) = 0.02313346
#
# Stress axis : x y z
#
# Youngs Moduli (GPa) = 56.59454 68.48453 70.47996
#
# Poissons Ratio (x) = 0.48910 0.16758
# Poissons Ratio (y) = 0.40418 0.15109
# Poissons Ratio (z) = 0.13457 0.14681
#
# Static dielectric constant tensor:
#      x y z
#    x 2.021540 0.017280 -0.037930 
#    y 0.017280 2.031540 -0.051210 
#    z -0.037930 -0.051210 2.142120 
# 
# From -- ./inp_files/153706.got.cif
#   From: 2010.05.17/outbox.cif.g08.bks.cpg/sg2_77_cif.got.tgz:153706.got - 2010.06.03 11:33:40.
