data_PCOD9059334
_publ_section_title
;
Structure prediction by ZEFSAII (Michael W. Deem and Ramdas Pophale) SiO2 
 PCOD9059334
Probable space group: P -1
;
_chemical_formula_sum "Si O2"
_cell_formula_units_Z 16
_cell_length_a 11.919004
_cell_length_b 5.322104
_cell_length_c 24.738521
_cell_angle_alpha 62.760774
_cell_angle_beta 29.340077
_cell_angle_gamma 56.274852
_cell_volume 638.194938
_symmetry_space_group_name_H-M "P -1"
_symmetry_group_IT_number 2
_symmetry_cell_setting 'triclinic'
loop_
_space_group_symop_operation_xyz
x,y,z
-x,-y,-z
loop_
_atom_site_type_symbol
_atom_site_label
_atom_site_fract_x
_atom_site_fract_y
_atom_site_fract_z
Si Si1 0.471268 0.730264 0.571759
Si Si2 0.114457 0.144101 0.304264
Si Si3 0.565331 0.167026 0.905871
Si Si4 0.823144 0.728201 0.510153
Si Si5 0.236832 0.563374 0.918760
Si Si6 0.017209 0.260269 0.751538
Si Si7 0.648982 0.773764 0.302131
Si Si8 0.559263 0.902174 0.209775
O O1 0.709820 0.596603 0.522552
O O2 0.427753 0.431648 0.602142
O O3 0.500000 0.000000 0.500000
O O4 0.206538 0.924560 0.691285
O O5 0.271448 0.028205 0.193698
O O6 0.292499 0.138705 0.280950
O O7 0.941239 0.481042 0.327897
O O8 0.960795 0.935884 0.405749
O O9 0.324110 0.399010 0.955549
O O10 0.741903 0.313939 0.845739
O O11 0.500000 0.000000 0.000000
O O12 0.000000 0.500000 0.500000
O O13 0.571039 0.910230 0.629460
O O14 0.267090 0.890889 0.879725
O O15 0.423610 0.354167 0.816755
O O16 0.000000 0.500000 0.000000
O O17 0.079909 0.271401 0.787338
O O18 0.623326 0.714439 0.256517
#
# Coordination Sequence:
#
# PCOD9059334 Si02
#       8
#     2   2   2   2   2   2   2   2
#     4  11  23  41  65  98 138 188 239 297 357 429
#     4  11  24  46  69 103 143 189 239 305 361 439
#     4  11  26  45  71 103 139 187 242 301 370 438
#     4  11  25  41  70 102 142 190 239 295 362 435
#     4  11  26  49  75 108 144 193 243 311 370 438
#     4  11  23  43  68  96 141 182 238 298 363 427
#     4  11  26  41  67 106 141 193 244 296 362 443
#     4  11  26  46  76 104 153 189 245 303 377 436
#
# _framework density 25.070708
#
# number of rings (size 3 to 8) (size 9 to 14) (size 15 to 20)
#    0.000    1.000    1.250    4.125    8.750    6.500 
#    0.000    0.000    0.000    0.000    0.000    0.000 
#    0.000    0.000    0.000    0.000    0.000    0.000 
#
# Total GULP energy -89209.559121 kJ/mol
# GULP energy per Si atom -5575.597445 kJ/mol
# Density = 2.501365 g / cm^3
# Si number density = 25.070708 Si / 1000 Ang^3
#
#
#
# Elastic Constant Matrix: (Units=GPa)
#
#
# Indices 1 2 3 4 5 6 
#
# 1 172.7185 24.7132 48.4843 -11.8228 -28.0593 -45.3021
# 2 24.7132 88.0397 22.9483 -20.9703 -6.9875 -25.5588
# 3 48.4843 22.9483 77.2376 -29.1794 -16.2988 -16.4012
# 4 -11.8228 -20.9703 -29.1794 34.7732 -3.6914 -2.0194
# 5 -28.0593 -6.9875 -16.2988 -3.6914 54.4144 7.8240
# 6 -45.3021 -25.5588 -16.4012 -2.0194 7.8240 50.8338
#
#
#
# Elastic Compliance Matrix: (Units=1/GPa)
#
#
# Indices 1 2 3 4 5 6 
#
# 1 0.008994 0.001014 -0.003162 0.001739 0.002914 0.007125
# 2 0.001014 0.016805 0.002020 0.013049 0.002718 0.010104
# 3 -0.003162 0.002020 0.025820 0.022922 0.007003 0.006361
# 4 0.001739 0.013049 0.022922 0.058568 0.011093 0.016126
# 5 0.002914 0.002718 0.007003 0.011093 0.022622 0.003182
# 6 0.007125 0.010104 0.006361 0.016126 0.003182 0.033305
#
#
# Mechanical properties :
#
#
# Convention : Reuss Voigt Hill
#
# Bulk Modulus (GPa) = 19.46977 58.92080 39.19528
# Shear Modulus (GPa) = 27.24935 44.12759 35.68847
#
# Velocity S-wave (km/s) = 3.30039 4.19994 3.77704
# Velocity P-wave (km/s) = 4.72295 6.86092 5.88975
#
# Compressibility (1/GPa) = 0.05136169
#
# Stress axis : x y z
#
# Youngs Moduli (GPa) = 111.19076 59.50667 38.72946
#
# Poissons Ratio (x) = -0.06031 0.12245
# Poissons Ratio (y) = -0.11270 -0.07823
# Poissons Ratio (z) = 0.35156 -0.12019
#
# Static dielectric constant tensor:
#      x y z
#    x -1.813790 -2.788450 -0.580250 
#    y -2.788450 0.110860 -0.314090 
#    z -0.580250 -0.314090 2.153320 
# 
# From -- ./inp_files/617888.got.cif
#   From: 2010.05.17/outbox.cif.g08.bks.cpg/sg2_309_cif.got.tgz:617888.got - 2010.06.03 11:33:40.
