data_PCOD9059369
_publ_section_title
;
Structure prediction by ZEFSAII (Michael W. Deem and Ramdas Pophale) SiO2 
 PCOD9059369
Probable space group: P -1
;
_chemical_formula_sum "Si O2"
_cell_formula_units_Z 16
_cell_length_a 8.997852
_cell_length_b 14.819115
_cell_length_c 6.015853
_cell_angle_alpha 78.508948
_cell_angle_beta 75.041326
_cell_angle_gamma 112.169504
_cell_volume 677.090640
_symmetry_space_group_name_H-M "P -1"
_symmetry_group_IT_number 2
_symmetry_cell_setting 'triclinic'
loop_
_space_group_symop_operation_xyz
x,y,z
-x,-y,-z
loop_
_atom_site_type_symbol
_atom_site_label
_atom_site_fract_x
_atom_site_fract_y
_atom_site_fract_z
Si Si1 0.926940 0.016202 0.268299
Si Si2 0.597007 0.714936 0.677736
Si Si3 0.626819 0.506760 0.248294
Si Si4 0.172910 0.803999 0.778428
Si Si5 0.803365 0.465725 0.570378
Si Si6 0.382758 0.766617 0.073459
Si Si7 0.466566 0.135713 0.615038
Si Si8 0.151803 0.344737 0.243875
O O1 0.719861 0.943831 0.362015
O O2 0.930985 0.128667 0.205140
O O3 0.000000 0.000000 0.500000
O O4 0.000000 0.000000 0.000000
O O5 0.482018 0.592571 0.809702
O O6 0.548871 0.756651 0.454492
O O7 0.791099 0.731929 0.611735
O O8 0.533304 0.771314 0.851870
O O9 0.500000 0.500000 0.500000
O O10 0.768250 0.482181 0.322725
O O11 0.728838 0.616926 0.041511
O O12 0.366201 0.860537 0.574686
O O13 0.047295 0.706908 0.723557
O O14 0.221252 0.771746 0.010962
O O15 0.696093 0.348292 0.740574
O O16 0.784416 0.550962 0.689859
O O17 0.000000 0.500000 0.500000
O O18 0.479391 0.862519 0.152652
#
# Coordination Sequence:
#
# PCOD9059369 Si02
#       8
#     2   2   2   2   2   2   2   2
#     4  12  31  56  87 120 152 195 255 324 391 468
#     4  11  23  41  67 101 141 194 251 307 373 441
#     4  12  23  39  61  96 138 200 246 310 369 437
#     4  11  28  48  75 111 147 198 251 309 392 457
#     4  12  24  39  62  98 146 195 252 297 368 440
#     4  11  24  43  70 103 147 197 244 302 378 452
#     4  11  26  49  80 105 152 192 247 314 389 461
#     4  12  25  41  67 101 150 193 256 313 361 443
#
# _framework density 23.630514000000002
#
# number of rings (size 3 to 8) (size 9 to 14) (size 15 to 20)
#    0.000    0.500    3.750    3.750    8.750    1.500 
#    2.250    0.000    0.000    0.000    0.000    0.000 
#    0.000    0.000    0.000    0.000    0.000    0.000 
#
# Total GULP energy -89184.005971 kJ/mol
# GULP energy per Si atom -5574.000373 kJ/mol
# Density = 2.357673 g / cm^3
# Si number density = 23.630514 Si / 1000 Ang^3
#
#
#
# Elastic Constant Matrix: (Units=GPa)
#
#
# Indices 1 2 3 4 5 6 
#
# 1 142.3324 27.8997 30.6020 15.1814 28.1726 11.2966
# 2 27.8997 79.2675 17.9191 7.3366 12.3583 9.3425
# 3 30.6020 17.9191 59.5464 13.4318 6.4741 1.3878
# 4 15.1814 7.3366 13.4318 21.1691 3.8863 3.1243
# 5 28.1726 12.3583 6.4741 3.8863 45.8700 0.3557
# 6 11.2966 9.3425 1.3878 3.1243 0.3557 53.5772
#
#
#
# Elastic Compliance Matrix: (Units=1/GPa)
#
#
# Indices 1 2 3 4 5 6 
#
# 1 0.009342 -0.001396 -0.003129 -0.003168 -0.004641 -0.001430
# 2 -0.001396 0.014553 -0.003037 -0.001351 -0.002504 -0.002069
# 3 -0.003129 -0.003037 0.021643 -0.010728 0.000584 0.001250
# 4 -0.003168 -0.001351 -0.010728 0.057289 -0.001014 -0.002153
# 5 -0.004641 -0.002504 0.000584 -0.001014 0.025319 0.001291
# 6 -0.001430 -0.002069 0.001250 -0.002153 0.001291 0.019412
#
#
# Mechanical properties :
#
#
# Convention : Reuss Voigt Hill
#
# Bulk Modulus (GPa) = 32.87858 48.22088 40.54973
# Shear Modulus (GPa) = 28.93230 37.77162 33.35196
#
# Velocity S-wave (km/s) = 3.50288 4.00237 3.76093
# Velocity P-wave (km/s) = 5.50491 6.46600 6.00471
#
# Compressibility (1/GPa) = 0.03041494
#
# Stress axis : x y z
#
# Youngs Moduli (GPa) = 107.04423 68.71628 46.20527
#
# Poissons Ratio (x) = 0.09590 0.14456
# Poissons Ratio (y) = 0.14939 0.14032
# Poissons Ratio (z) = 0.33490 0.20868
#
# Static dielectric constant tensor:
#      x y z
#    x 1.694330 0.113920 -0.117520 
#    y 0.113920 1.886360 0.099020 
#    z -0.117520 0.099020 1.994390 
# 
# From -- ./inp_files/37960.got.cif
#   From: 2010.05.17/outbox.cif.g08.bks.cpg/sg2_19_cif.got.tgz:37960.got - 2010.06.03 11:33:40.
