data_PCOD9059462
_publ_section_title
;
Structure prediction by ZEFSAII (Michael W. Deem and Ramdas Pophale) SiO2 
 PCOD9059462
Probable space group: P -1
;
_chemical_formula_sum "Si O2"
_cell_formula_units_Z 12
_cell_length_a 8.795045
_cell_length_b 14.325924
_cell_length_c 14.105324
_cell_angle_alpha 20.735941
_cell_angle_beta 52.570644
_cell_angle_gamma 51.360414
_cell_volume 489.674371
_symmetry_space_group_name_H-M "P -1"
_symmetry_group_IT_number 2
_symmetry_cell_setting 'triclinic'
loop_
_space_group_symop_operation_xyz
x,y,z
-x,-y,-z
loop_
_atom_site_type_symbol
_atom_site_label
_atom_site_fract_x
_atom_site_fract_y
_atom_site_fract_z
Si Si1 0.550150 0.618810 0.147034
Si Si2 0.564740 0.165288 0.726105
Si Si3 0.431127 0.673714 0.767398
Si Si4 0.893230 0.228814 0.891155
Si Si5 0.831336 0.461063 0.424331
Si Si6 0.186972 0.096605 0.583281
O O1 0.599106 0.383212 0.428351
O O2 0.631967 0.507078 0.119979
O O3 0.319597 0.671547 0.164781
O O4 0.596113 0.887696 0.921118
O O5 0.714570 0.217704 0.701354
O O6 0.349837 0.282815 0.739975
O O7 0.624114 0.792888 0.554815
O O8 0.263266 0.917834 0.633148
O O9 0.500000 0.500000 0.000000
O O10 0.019187 0.459030 0.632896
O O11 0.871047 0.095699 0.129561
O O12 0.000000 0.000000 0.000000
O O13 0.003361 0.336625 0.401796
#
# Coordination Sequence:
#
# PCOD9059462 Si02
#       6
#     2   2   2   2   2   2
#     4  12  24  45  68 104 135 181 240 287 341 413
#     4  11  28  44  69 101 149 187 223 288 359 424
#     4  11  23  41  70 101 138 182 234 299 346 397
#     4  12  23  39  72 104 138 174 238 293 345 412
#     4  11  25  43  68 100 144 187 225 285 360 419
#     4  11  23  41  69 103 138 180 236 286 355 408
#
# _framework density 24.506083
#
# number of rings (size 3 to 8) (size 9 to 14) (size 15 to 20)
#    0.000    0.667    5.000    2.000    4.667    2.667 
#    0.000    1.667    0.000    0.000    0.000    0.000 
#    0.000    0.000    0.000    0.000    0.000    0.000 
#
# Total GULP energy -67016.208158 kJ/mol
# GULP energy per Si atom -5584.684013 kJ/mol
# Density = 2.445031 g / cm^3
# Si number density = 24.506083 Si / 1000 Ang^3
#
#
#
# Elastic Constant Matrix: (Units=GPa)
#
#
# Indices 1 2 3 4 5 6 
#
# 1 86.4877 35.5235 47.6993 -3.8824 -28.9010 18.3721
# 2 35.5235 189.7786 47.4334 -37.6323 -19.9598 19.2508
# 3 47.6993 47.4334 151.2171 -25.1114 -27.9862 32.5677
# 4 -3.8824 -37.6323 -25.1114 41.9963 21.4735 -14.4128
# 5 -28.9010 -19.9598 -27.9862 21.4735 37.0510 -8.2412
# 6 18.3721 19.2508 32.5677 -14.4128 -8.2412 49.7006
#
#
#
# Elastic Compliance Matrix: (Units=1/GPa)
#
#
# Indices 1 2 3 4 5 6 
#
# 1 0.022515 -0.003737 -0.003474 -0.016029 0.020930 -0.005777
# 2 -0.003737 0.007232 -0.000641 0.008030 -0.004010 0.000664
# 3 -0.003474 -0.000641 0.009447 0.002613 0.001764 -0.003608
# 4 -0.016029 0.008030 0.002613 0.052136 -0.034068 0.010573
# 5 0.020930 -0.004010 0.001764 -0.034068 0.060639 -0.007164
# 6 -0.005777 0.000664 -0.003608 0.010573 -0.007164 0.026241
#
#
# Mechanical properties :
#
#
# Convention : Reuss Voigt Hill
#
# Bulk Modulus (GPa) = 42.57232 76.53287 59.55259
# Shear Modulus (GPa) = 24.78363 45.53806 35.16085
#
# Velocity S-wave (km/s) = 3.18358 4.31540 3.79196
# Velocity P-wave (km/s) = 5.56089 7.49188 6.59741
#
# Compressibility (1/GPa) = 0.02348944
#
# Stress axis : x y z
#
# Youngs Moduli (GPa) = 44.41496 138.26629 105.84963
#
# Poissons Ratio (x) = 0.51676 0.36770
# Poissons Ratio (y) = 0.16600 0.06789
# Poissons Ratio (z) = 0.15429 0.08868
#
# Static dielectric constant tensor:
#      x y z
#    x 2.067590 0.037900 0.121260 
#    y 0.037900 2.014340 0.035790 
#    z 0.121260 0.035790 2.107920 
# 
# From -- ./inp_files/19923.got.cif
#   From: 2010.05.17/outbox.cif.g08.bks.cpg/sg2_10_cif.got.tgz:19923.got - 2010.06.03 11:33:40.
