data_PCOD9059599
_publ_section_title
;
Structure prediction by ZEFSAII (Michael W. Deem and Ramdas Pophale) SiO2 
 PCOD9059599
Probable space group: P -1
;
_chemical_formula_sum "Si O2"
_cell_formula_units_Z 16
_cell_length_a 11.609397
_cell_length_b 12.591207
_cell_length_c 5.135324
_cell_angle_alpha 91.205571
_cell_angle_beta 77.558505
_cell_angle_gamma 61.119337
_cell_volume 634.959046
_symmetry_space_group_name_H-M "P -1"
_symmetry_group_IT_number 2
_symmetry_cell_setting 'triclinic'
loop_
_space_group_symop_operation_xyz
x,y,z
-x,-y,-z
loop_
_atom_site_type_symbol
_atom_site_label
_atom_site_fract_x
_atom_site_fract_y
_atom_site_fract_z
Si Si1 0.146050 0.890268 0.640463
Si Si2 0.308718 0.756318 0.059894
Si Si3 0.244620 0.548303 0.214426
Si Si4 0.682901 0.912719 0.750519
Si Si5 0.483760 0.171732 0.824747
Si Si6 0.066006 0.311268 0.668037
Si Si7 0.262157 0.402371 0.677816
Si Si8 0.895726 0.889311 0.008402
O O1 0.195563 0.851248 0.322955
O O2 0.011909 0.883520 0.767941
O O3 0.258890 0.799278 0.791703
O O4 0.113180 0.025777 0.741302
O O5 0.313099 0.629393 0.115630
O O6 0.441509 0.761494 0.079322
O O7 0.305881 0.458808 0.424912
O O8 0.084518 0.634346 0.366453
O O9 0.246616 0.474834 0.953827
O O10 0.593259 0.860926 0.918720
O O11 0.813464 0.802096 0.549463
O O12 0.748308 0.951232 0.955236
O O13 0.592077 0.038888 0.647736
O O14 0.374987 0.262304 0.675994
O O15 0.121296 0.405241 0.680499
O O16 0.063903 0.247204 0.935572
#
# Coordination Sequence:
#
# PCOD9059599 Si02
#       8
#     2   2   2   2   2   2   2   2
#     4  11  25  42  72 111 148 180 238 296 378 433
#     4  12  25  48  71 102 143 199 239 302 350 429
#     4  12  28  49  77 105 143 193 253 306 362 413
#     4  11  24  47  74 116 146 193 232 301 375 443
#     4  11  26  48  74 106 153 195 244 290 357 453
#     4  12  25  45  79 110 148 181 244 312 375 427
#     4  12  28  49  72 109 143 200 245 301 354 427
#     4  11  23  41  74 111 146 185 230 304 379 440
#
# _framework density 25.198474999999998
#
# number of rings (size 3 to 8) (size 9 to 14) (size 15 to 20)
#    0.000    0.500    3.750    3.750    1.750    4.500 
#    2.250    0.000    0.000    0.000    0.000    0.000 
#    0.000    0.000    0.000    0.000    0.000    0.000 
#
# Total GULP energy -89772.352775 kJ/mol
# GULP energy per Si atom -5610.772048 kJ/mol
# Density = 2.514112 g / cm^3
# Si number density = 25.198475 Si / 1000 Ang^3
#
#
#
# Elastic Constant Matrix: (Units=GPa)
#
#
# Indices 1 2 3 4 5 6 
#
# 1 121.2402 25.4640 4.6500 -11.0329 -5.5490 19.5215
# 2 25.4640 103.8955 34.0594 -20.8650 0.9383 10.2229
# 3 4.6500 34.0594 83.0230 5.9080 -0.6410 1.3621
# 4 -11.0329 -20.8650 5.9080 52.1865 -2.3748 -2.6039
# 5 -5.5490 0.9383 -0.6410 -2.3748 29.7999 -2.5399
# 6 19.5215 10.2229 1.3621 -2.6039 -2.5399 43.4595
#
#
#
# Elastic Compliance Matrix: (Units=1/GPa)
#
#
# Indices 1 2 3 4 5 6 
#
# 1 0.009378 -0.001794 0.000202 0.001134 0.001588 -0.003636
# 2 -0.001794 0.013200 -0.005675 0.005422 -0.000596 -0.001831
# 3 0.000202 -0.005675 0.014628 -0.003841 0.000273 0.000572
# 4 0.001134 0.005422 -0.003841 0.022069 0.001696 -0.000243
# 5 0.001588 -0.000596 0.000273 0.001696 0.034142 0.001515
# 6 -0.003636 -0.001831 0.000572 -0.000243 0.001515 0.025130
#
#
# Mechanical properties :
#
#
# Convention : Reuss Voigt Hill
#
# Bulk Modulus (GPa) = 44.10699 48.50061 46.30380
# Shear Modulus (GPa) = 35.55229 41.35486 38.45358
#
# Velocity S-wave (km/s) = 3.76026 4.05552 3.91068
# Velocity P-wave (km/s) = 6.03279 6.42020 6.22951
#
# Compressibility (1/GPa) = 0.02267215
#
# Stress axis : x y z
#
# Youngs Moduli (GPa) = 106.62816 75.76038 68.36334
#
# Poissons Ratio (x) = 0.13588 -0.01379
# Poissons Ratio (y) = 0.19125 0.38796
# Poissons Ratio (z) = -0.02152 0.42993
#
# Static dielectric constant tensor:
#      x y z
#    x 1.958840 -0.028760 -0.007970 
#    y -0.028760 2.025090 0.022160 
#    z -0.007970 0.022160 1.983690 
# 
# From -- ./inp_files/70556.got.cif
#   From: 2010.05.17/outbox.cif.g08.bks.cpg/sg2_36_cif.got.tgz:70556.got - 2010.06.03 11:33:40.
