data_PCOD9059743
_publ_section_title
;
Structure prediction by ZEFSAII (Michael W. Deem and Ramdas Pophale) SiO2 
 PCOD9059743
Probable space group: P -1
;
_chemical_formula_sum "Si O2"
_cell_formula_units_Z 14
_cell_length_a 8.755744
_cell_length_b 9.450447
_cell_length_c 21.302260
_cell_angle_alpha 149.073885
_cell_angle_beta 56.537036
_cell_angle_gamma 132.502473
_cell_volume 666.019509
_symmetry_space_group_name_H-M "P -1"
_symmetry_group_IT_number 2
_symmetry_cell_setting 'triclinic'
loop_
_space_group_symop_operation_xyz
x,y,z
-x,-y,-z
loop_
_atom_site_type_symbol
_atom_site_label
_atom_site_fract_x
_atom_site_fract_y
_atom_site_fract_z
Si Si1 0.236245 0.695785 0.497269
Si Si2 0.959478 0.827041 0.876139
Si Si3 0.382300 0.277308 0.883718
Si Si4 0.411366 0.362120 0.657415
Si Si5 0.902657 0.638607 0.368896
Si Si6 0.500949 0.678269 0.888042
Si Si7 0.599038 0.262369 0.390013
O O1 0.348301 0.521382 0.370604
O O2 0.378646 0.820896 0.575440
O O3 0.000000 0.500000 0.500000
O O4 0.283986 0.986582 0.551881
O O5 0.738873 0.758025 0.873520
O O6 0.964593 0.496941 0.748474
O O7 0.150574 0.053792 0.875241
O O8 0.000000 0.000000 0.000000
O O9 0.388012 0.484806 0.902094
O O10 0.481789 0.054778 0.753381
O O11 0.500000 0.500000 0.000000
O O12 0.299294 0.456842 0.665186
O O13 0.401653 0.485646 0.774732
O O14 0.827446 0.469141 0.388007
O O15 0.000000 0.000000 0.500000
O O16 0.500000 0.000000 0.000000
O O17 0.500000 0.500000 0.500000
#
# Coordination Sequence:
#
# PCOD9059743 Si02
#       7
#     2   2   2   2   2   2   2
#     4  11  24  42  66  99 139 182 224 281 348 415
#     4  11  25  46  73 102 136 184 241 284 345 425
#     4  11  25  46  72 102 139 182 238 289 342 418
#     4  11  25  43  66 100 144 175 227 291 346 401
#     4  11  25  42  71 103 136 184 235 281 347 418
#     4  12  27  46  73 102 141 185 233 294 351 411
#     4  11  23  42  68 100 137 178 231 279 345 412
#
# _framework density 21.020405
#
# number of rings (size 3 to 8) (size 9 to 14) (size 15 to 20)
#    0.000    0.857    4.286    1.714   12.000    0.571 
#    0.000    1.429    0.000    0.000    0.000    0.000 
#    0.000    0.000    0.000    0.000    0.000    0.000 
#
# Total GULP energy -78163.086792 kJ/mol
# GULP energy per Si atom -5583.077628 kJ/mol
# Density = 2.097256 g / cm^3
# Si number density = 21.020405 Si / 1000 Ang^3
#
#
#
# Elastic Constant Matrix: (Units=GPa)
#
#
# Indices 1 2 3 4 5 6 
#
# 1 77.4849 18.0631 30.2964 -3.5962 -15.3711 -1.6030
# 2 18.0631 121.5714 25.1898 -8.1045 -6.8631 -1.7040
# 3 30.2964 25.1898 146.6965 -8.0944 -14.3510 -11.3622
# 4 -3.5962 -8.1045 -8.0944 32.9282 -5.7869 5.2845
# 5 -15.3711 -6.8631 -14.3510 -5.7869 41.7204 -5.4395
# 6 -1.6030 -1.7040 -11.3622 5.2845 -5.4395 40.7309
#
#
#
# Elastic Compliance Matrix: (Units=1/GPa)
#
#
# Indices 1 2 3 4 5 6 
#
# 1 0.015169 -0.001396 -0.002310 0.001538 0.004822 0.000339
# 2 -0.001396 0.008824 -0.001049 0.001926 0.000828 -0.000118
# 3 -0.002310 -0.001049 0.007939 0.001477 0.002197 0.002182
# 4 0.001538 0.001926 0.001477 0.032827 0.005559 -0.002964
# 5 0.004822 0.000828 0.002197 0.005559 0.027910 0.003843
# 6 0.000339 -0.000118 0.002182 -0.002964 0.003843 0.026066
#
#
# Mechanical properties :
#
#
# Convention : Reuss Voigt Hill
#
# Bulk Modulus (GPa) = 44.59675 54.76128 49.67901
# Shear Modulus (GPa) = 36.84082 41.22280 39.03181
#
# Velocity S-wave (km/s) = 4.19097 4.43322 4.31380
# Velocity P-wave (km/s) = 6.68439 7.23275 6.96396
#
# Compressibility (1/GPa) = 0.02242316
#
# Stress axis : x y z
#
# Youngs Moduli (GPa) = 65.92200 113.32988 125.95417
#
# Poissons Ratio (x) = 0.15817 0.29100
# Poissons Ratio (y) = 0.09200 0.13209
# Poissons Ratio (z) = 0.15230 0.11885
#
# Static dielectric constant tensor:
#      x y z
#    x 1.738970 -0.008880 -0.041390 
#    y -0.008880 1.846550 0.098710 
#    z -0.041390 0.098710 1.934220 
# 
# From -- ./inp_files/227341.got.cif
#   From: 2010.05.17/outbox.cif.g08.bks.cpg/sg2_114_cif.got.tgz:227341.got - 2010.06.03 11:33:40.
