data_PCOD9059654
_publ_section_title
;
Structure prediction by ZEFSAII (Michael W. Deem and Ramdas Pophale) SiO2 
 PCOD9059654
Probable space group: P -1
;
_chemical_formula_sum "Si O2"
_cell_formula_units_Z 14
_cell_length_a 8.968955
_cell_length_b 9.379785
_cell_length_c 20.337057
_cell_angle_alpha 47.615372
_cell_angle_beta 48.838768
_cell_angle_gamma 30.952193
_cell_volume 635.362864
_symmetry_space_group_name_H-M "P -1"
_symmetry_group_IT_number 2
_symmetry_cell_setting 'triclinic'
loop_
_space_group_symop_operation_xyz
x,y,z
-x,-y,-z
loop_
_atom_site_type_symbol
_atom_site_label
_atom_site_fract_x
_atom_site_fract_y
_atom_site_fract_z
Si Si1 0.519405 0.591899 0.114998
Si Si2 0.387164 0.821431 0.272509
Si Si3 0.102659 0.706361 0.308948
Si Si4 0.674438 0.176426 0.559379
Si Si5 0.996525 0.147835 0.016635
Si Si6 0.463330 0.082811 0.409291
Si Si7 0.045643 0.561058 0.852006
O O1 0.278416 0.656760 0.209868
O O2 0.764051 0.514322 0.115531
O O3 0.713959 0.320658 0.093068
O O4 0.310022 0.890813 0.042769
O O5 0.244250 0.722181 0.323256
O O6 0.340874 0.886374 0.342098
O O7 0.730628 0.567892 0.233230
O O8 0.230077 0.097997 0.186864
O O9 0.179629 0.426133 0.378989
O O10 0.751524 0.989279 0.327968
O O11 0.500000 0.500000 0.500000
O O12 0.565235 0.087544 0.571581
O O13 0.000000 0.000000 0.500000
O O14 0.966259 0.394329 0.929658
O O15 0.000000 0.000000 0.000000
O O16 0.500000 0.000000 0.500000
#
# Coordination Sequence:
#
# PCOD9059654 Si02
#       7
#     2   2   2   2   2   2   2
#     4  11  23  43  66  91 127 171 213 260 318 385
#     4  11  23  42  65  93 126 165 211 265 316 377
#     4  11  23  42  65  93 123 163 213 261 312 373
#     4  12  25  43  65  94 130 169 208 258 317 379
#     4  12  25  41  64  96 131 167 212 269 318 372
#     4  12  24  41  66  95 127 167 209 259 312 375
#     4  11  23  42  66  92 124 170 215 258 316 383
#
# _framework density 22.034652000000001
#
# number of rings (size 3 to 8) (size 9 to 14) (size 15 to 20)
#    0.000    0.571    0.000   10.286    0.000    3.429 
#    0.000    0.000    0.000    0.000    0.000    0.000 
#    0.000    0.000    0.000    0.000    0.000    0.000 
#
# Total GULP energy -78385.184063 kJ/mol
# GULP energy per Si atom -5598.941719 kJ/mol
# Density = 2.198450 g / cm^3
# Si number density = 22.034652 Si / 1000 Ang^3
#
#
#
# Elastic Constant Matrix: (Units=GPa)
#
#
# Indices 1 2 3 4 5 6 
#
# 1 94.4166 20.4709 51.4843 10.1870 8.7911 30.7523
# 2 20.4709 109.7350 7.6551 -0.3517 10.6387 7.5112
# 3 51.4843 7.6551 50.9730 5.0559 7.0915 16.8049
# 4 10.1870 -0.3517 5.0559 61.1901 2.3261 -1.0978
# 5 8.7911 10.6387 7.0915 2.3261 28.8616 5.2296
# 6 30.7523 7.5112 16.8049 -1.0978 5.2296 39.6336
#
#
#
# Elastic Compliance Matrix: (Units=1/GPa)
#
#
# Indices 1 2 3 4 5 6 
#
# 1 0.028478 -0.002909 -0.024374 -0.002974 0.000690 -0.011383
# 2 -0.002909 0.009840 0.001844 0.000513 -0.003245 0.000053
# 3 -0.024374 0.001844 0.044392 0.000568 -0.004267 0.000319
# 4 -0.002974 0.000513 0.000568 0.016888 -0.001256 0.002603
# 5 0.000690 -0.003245 -0.004267 -0.001256 0.037340 -0.003073
# 6 -0.011383 0.000053 0.000319 0.002603 -0.003073 0.034396
#
#
# Mechanical properties :
#
#
# Convention : Reuss Voigt Hill
#
# Bulk Modulus (GPa) = 31.41734 46.03835 38.72784
# Shear Modulus (GPa) = 21.47556 37.63800 29.55678
#
# Velocity S-wave (km/s) = 3.12529 4.13743 3.66646
# Velocity P-wave (km/s) = 5.22612 6.61540 5.96137
#
# Compressibility (1/GPa) = 0.03182956
#
# Stress axis : x y z
#
# Youngs Moduli (GPa) = 35.11544 101.63065 22.52657
#
# Poissons Ratio (x) = 0.29567 0.54907
# Poissons Ratio (y) = 0.10216 -0.04153
# Poissons Ratio (z) = 0.85591 -0.18739
#
# Static dielectric constant tensor:
#      x y z
#    x 1.752300 -0.007180 0.027740 
#    y -0.007180 1.759690 0.012130 
#    z 0.027740 0.012130 1.794080 
# 
# From -- ./inp_files/217961.got.cif
#   From: 2010.05.17/outbox.cif.g08.bks.cpg/sg2_109_cif.got.tgz:217961.got - 2010.06.03 11:33:40.
