data_PCOD9059885
_publ_section_title
;
Structure prediction by ZEFSAII (Michael W. Deem and Ramdas Pophale) SiO2 
 PCOD9059885
Probable space group: P -1
;
_chemical_formula_sum "Si O2"
_cell_formula_units_Z 14
_cell_length_a 9.395163
_cell_length_b 21.818660
_cell_length_c 6.782218
_cell_angle_alpha 65.428453
_cell_angle_beta 53.915838
_cell_angle_gamma 32.919942
_cell_volume 600.768467
_symmetry_space_group_name_H-M "P -1"
_symmetry_group_IT_number 2
_symmetry_cell_setting 'triclinic'
loop_
_space_group_symop_operation_xyz
x,y,z
-x,-y,-z
loop_
_atom_site_type_symbol
_atom_site_label
_atom_site_fract_x
_atom_site_fract_y
_atom_site_fract_z
Si Si1 0.653460 0.629047 0.577215
Si Si2 0.370104 0.699237 0.294469
Si Si3 0.710620 0.122544 0.971969
Si Si4 0.393817 0.935555 0.208935
Si Si5 0.389178 0.596424 0.093326
Si Si6 0.740527 0.752275 0.492637
Si Si7 0.292345 0.079350 0.371474
O O1 0.565298 0.652197 0.390304
O O2 0.644006 0.708103 0.558014
O O3 0.000000 0.500000 0.500000
O O4 0.419515 0.650998 0.846963
O O5 0.321053 0.787086 0.112790
O O6 0.523305 0.593256 0.180321
O O7 0.023326 0.787886 0.503315
O O8 0.717616 0.094574 0.779085
O O9 0.433464 0.181353 0.251067
O O10 0.000000 0.000000 0.000000
O O11 0.648632 0.831964 0.287801
O O12 0.199786 0.040550 0.375701
O O13 0.508368 0.944712 0.921139
O O14 0.090317 0.655806 0.345743
O O15 0.500000 0.500000 0.000000
O O16 0.500000 0.000000 0.500000
#
# Coordination Sequence:
#
# PCOD9059885 Si02
#       7
#     2   2   2   2   2   2   2
#     4  12  27  52  76 109 148 196 261 325 377 455
#     4  12  26  46  75 109 152 201 249 312 388 448
#     4  12  26  42  73 113 155 197 246 304 373 466
#     4  11  23  42  70 106 148 202 239 302 378 448
#     4  12  27  50  77 108 145 199 260 322 384 445
#     4  12  25  48  75 108 156 195 252 315 381 449
#     4  11  24  44  72 111 154 195 256 304 371 471
#
# _framework density 23.303487000000001
#
# number of rings (size 3 to 8) (size 9 to 14) (size 15 to 20)
#    0.000    0.286    4.286    5.143    2.000    4.571 
#    2.571    0.000    0.000    0.000    0.000    0.000 
#    0.000    0.000    0.000    0.000    0.000    0.000 
#
# Total GULP energy -78126.699214 kJ/mol
# GULP energy per Si atom -5580.478515 kJ/mol
# Density = 2.325045 g / cm^3
# Si number density = 23.303487 Si / 1000 Ang^3
#
#
#
# Elastic Constant Matrix: (Units=GPa)
#
#
# Indices 1 2 3 4 5 6 
#
# 1 148.2091 48.0248 60.1639 13.8339 18.5038 35.7320
# 2 48.0248 71.4675 32.5076 13.0854 19.4230 11.6808
# 3 60.1639 32.5076 118.8399 6.5522 -3.8414 8.2385
# 4 13.8339 13.0854 6.5522 39.2005 10.3091 3.8432
# 5 18.5038 19.4230 -3.8414 10.3091 59.2602 10.6584
# 6 35.7320 11.6808 8.2385 3.8432 10.6584 45.6598
#
#
#
# Elastic Compliance Matrix: (Units=1/GPa)
#
#
# Indices 1 2 3 4 5 6 
#
# 1 0.011827 -0.004364 -0.004286 -0.001023 -0.001099 -0.007023
# 2 -0.004364 0.020393 -0.003360 -0.003419 -0.004991 0.000257
# 3 -0.004286 -0.003360 0.011509 -0.000211 0.002959 0.001464
# 4 -0.001023 -0.003419 -0.000211 0.027942 -0.003465 0.000170
# 5 -0.001099 -0.004991 0.002959 -0.003465 0.020154 -0.002810
# 6 -0.007023 0.000257 0.001464 0.000170 -0.002810 0.027709
#
#
# Mechanical properties :
#
#
# Convention : Reuss Voigt Hill
#
# Bulk Modulus (GPa) = 50.73546 68.87878 59.80712
# Shear Modulus (GPa) = 33.30567 42.01210 37.65888
#
# Velocity S-wave (km/s) = 3.78460 4.25057 4.02434
# Velocity P-wave (km/s) = 6.39660 7.32880 6.87851
#
# Compressibility (1/GPa) = 0.01971008
#
# Stress axis : x y z
#
# Youngs Moduli (GPa) = 84.55074 49.03541 86.88547
#
# Poissons Ratio (x) = 0.21400 0.37240
# Poissons Ratio (y) = 0.36899 0.29191
# Poissons Ratio (z) = 0.36240 0.16474
#
# Static dielectric constant tensor:
#      x y z
#    x 2.001340 0.132720 -0.022550 
#    y 0.132720 1.912710 0.002190 
#    z -0.022550 0.002190 1.876770 
# 
# From -- ./inp_files/52656.got.cif
#   From: 2010.05.17/outbox.cif.g08.bks.cpg/sg2_27_cif.got.tgz:52656.got - 2010.06.03 11:33:40.
