data_PCOD9059337
_publ_section_title
;
Structure prediction by ZEFSAII (Michael W. Deem and Ramdas Pophale) SiO2 
 PCOD9059337
Probable space group: P -1
;
_chemical_formula_sum "Si O2"
_cell_formula_units_Z 14
_cell_length_a 8.562658
_cell_length_b 18.389543
_cell_length_c 21.167911
_cell_angle_alpha 161.724392
_cell_angle_beta 138.915018
_cell_angle_gamma 50.257594
_cell_volume 637.990650
_symmetry_space_group_name_H-M "P -1"
_symmetry_group_IT_number 2
_symmetry_cell_setting 'triclinic'
loop_
_space_group_symop_operation_xyz
x,y,z
-x,-y,-z
loop_
_atom_site_type_symbol
_atom_site_label
_atom_site_fract_x
_atom_site_fract_y
_atom_site_fract_z
Si Si1 0.287193 0.200764 0.253055
Si Si2 0.853147 0.691079 0.121257
Si Si3 0.576826 0.759712 0.819338
Si Si4 0.119744 0.887518 0.157221
Si Si5 0.529878 0.969931 0.238356
Si Si6 0.727073 0.898781 0.493823
Si Si7 0.903550 0.633406 0.233399
O O1 0.364850 0.480697 0.537818
O O2 0.354681 0.244153 0.236261
O O3 0.446364 0.063538 0.225803
O O4 0.000000 0.000000 0.000000
O O5 0.585440 0.713511 0.037172
O O6 0.843466 0.711652 0.210769
O O7 0.038881 0.908905 0.314457
O O8 0.000000 0.500000 0.000000
O O9 0.834004 0.816054 0.985054
O O10 0.500000 0.000000 0.000000
O O11 0.318460 0.941434 0.204398
O O12 0.208182 0.106258 0.417069
O O13 0.121029 0.650265 0.001921
O O14 0.797317 0.191544 0.521417
O O15 0.711348 0.661675 0.251862
O O16 0.500000 0.000000 0.500000
#
# Coordination Sequence:
#
# PCOD9059337 Si02
#       7
#     2   2   2   2   2   2   2
#     4  11  24  50  73 102 146 188 233 295 371 426
#     4  11  23  41  65  99 137 184 233 287 349 417
#     4  11  27  45  76 106 140 180 242 303 356 430
#     4  12  24  44  69 100 137 186 233 286 356 416
#     4  11  24  44  68  98 140 184 232 290 350 423
#     4  11  24  40  65  98 135 180 237 282 342 414
#     4  11  24  44  67  94 142 183 229 291 345 419
#
# _framework density 21.943897
#
# number of rings (size 3 to 8) (size 9 to 14) (size 15 to 20)
#    0.000    0.857    4.286    3.429    6.000    1.714 
#    0.000    0.000    0.000    0.000    0.000    0.000 
#    0.000    0.000    0.000    0.000    0.000    0.000 
#
# Total GULP energy -78041.412415 kJ/mol
# GULP energy per Si atom -5574.386601 kJ/mol
# Density = 2.189395 g / cm^3
# Si number density = 21.943897 Si / 1000 Ang^3
#
#
#
# Elastic Constant Matrix: (Units=GPa)
#
#
# Indices 1 2 3 4 5 6 
#
# 1 90.5402 20.0520 46.9061 -10.7670 0.5615 -6.5079
# 2 20.0520 137.0917 39.1462 -12.4353 -14.2027 -5.8618
# 3 46.9061 39.1462 103.5724 -2.9379 -1.7256 -19.5928
# 4 -10.7670 -12.4353 -2.9379 36.6240 0.5872 -3.5596
# 5 0.5615 -14.2027 -1.7256 0.5872 36.9506 2.1003
# 6 -6.5079 -5.8618 -19.5928 -3.5596 2.1003 37.4409
#
#
#
# Elastic Compliance Matrix: (Units=1/GPa)
#
#
# Indices 1 2 3 4 5 6 
#
# 1 0.014980 0.000013 -0.006795 0.003818 -0.000569 -0.000555
# 2 0.000013 0.008779 -0.003242 0.002649 0.003195 -0.000247
# 3 -0.006795 -0.003242 0.015066 -0.001283 -0.000767 0.006116
# 4 0.003818 0.002649 -0.001283 0.029531 0.000249 0.003200
# 5 -0.000569 0.003195 -0.000767 0.000249 0.028349 -0.001567
# 6 -0.000555 -0.000247 0.006116 0.003200 -0.001567 0.030166
#
#
# Mechanical properties :
#
#
# Convention : Reuss Voigt Hill
#
# Bulk Modulus (GPa) = 53.26096 60.37921 56.82008
# Shear Modulus (GPa) = 32.64152 37.20977 34.92564
#
# Velocity S-wave (km/s) = 3.86099 4.12233 3.99380
# Velocity P-wave (km/s) = 6.64834 7.08753 6.87145
#
# Compressibility (1/GPa) = 0.01877548
#
# Stress axis : x y z
#
# Youngs Moduli (GPa) = 66.75522 113.90734 66.37517
#
# Poissons Ratio (x) = -0.00147 0.45104
# Poissons Ratio (y) = -0.00086 0.21522
# Poissons Ratio (z) = 0.45362 0.36934
#
# Static dielectric constant tensor:
#      x y z
#    x 1.819660 -0.045340 0.004980 
#    y -0.045340 1.794330 0.078990 
#    z 0.004980 0.078990 2.145630 
# 
# From -- ./inp_files/591131.got.cif
#   From: 2010.05.17/outbox.cif.g08.bks.cpg/sg2_296_cif.got.tgz:591131.got - 2010.06.03 11:33:40.
