data_PCOD9059723
_publ_section_title
;
Structure prediction by ZEFSAII (Michael W. Deem and Ramdas Pophale) SiO2 
 PCOD9059723
Probable space group: P -1
;
_chemical_formula_sum "Si O2"
_cell_formula_units_Z 14
_cell_length_a 22.889628
_cell_length_b 6.628608
_cell_length_c 9.886038
_cell_angle_alpha 134.224198
_cell_angle_beta 141.419644
_cell_angle_gamma 65.068184
_cell_volume 644.133580
_symmetry_space_group_name_H-M "P -1"
_symmetry_group_IT_number 2
_symmetry_cell_setting 'triclinic'
loop_
_space_group_symop_operation_xyz
x,y,z
-x,-y,-z
loop_
_atom_site_type_symbol
_atom_site_label
_atom_site_fract_x
_atom_site_fract_y
_atom_site_fract_z
Si Si1 0.896989 0.169973 0.512194
Si Si2 0.899302 0.813269 0.797715
Si Si3 0.942189 0.170521 0.289956
Si Si4 0.351732 0.701102 0.508954
Si Si5 0.246036 0.087256 0.628719
Si Si6 0.606679 0.725741 0.808101
Si Si7 0.523277 0.210285 0.952812
O O1 0.917288 0.513248 0.739972
O O2 0.886613 0.160745 0.326330
O O3 0.809467 0.013720 0.378803
O O4 0.980489 0.015454 0.628599
O O5 0.814670 0.762748 0.508925
O O6 0.877444 0.003349 0.971284
O O7 0.000000 0.000000 0.000000
O O8 0.000000 0.500000 0.500000
O O9 0.333003 0.402325 0.252303
O O10 0.260440 0.805088 0.443917
O O11 0.420056 0.966431 0.669579
O O12 0.418592 0.703503 0.761624
O O13 0.349951 0.276753 0.962989
O O14 0.500000 0.500000 0.500000
O O15 0.590308 0.047653 0.912212
O O16 0.500000 0.500000 0.000000
#
# Coordination Sequence:
#
# PCOD9059723 Si02
#       7
#     2   2   2   2   2   2   2
#     4  11  24  41  66  96 131 172 227 270 332 406
#     4  12  24  43  66  95 133 175 218 279 338 390
#     4  11  23  42  67  95 129 176 221 272 336 397
#     4   9  20  38  59  88 129 168 212 272 325 383
#     4  11  24  39  65  98 134 171 226 276 331 397
#     4   9  20  42  65  91 131 175 214 268 328 384
#     4   9  18  36  64  93 121 167 217 267 330 393
#
# _framework density 21.734622999999999
#
# number of rings (size 3 to 8) (size 9 to 14) (size 15 to 20)
#    0.000    1.714    2.857    1.286    0.000    6.286 
#    0.000    2.857    0.000    0.000    0.000    0.000 
#    0.000    0.000    0.000    0.000    0.000    0.000 
#
# Total GULP energy -78126.342368 kJ/mol
# GULP energy per Si atom -5580.453026 kJ/mol
# Density = 2.168515 g / cm^3
# Si number density = 21.734623 Si / 1000 Ang^3
#
#
#
# Elastic Constant Matrix: (Units=GPa)
#
#
# Indices 1 2 3 4 5 6 
#
# 1 89.6475 33.4381 22.8886 2.4778 -33.6857 -18.6079
# 2 33.4381 161.9208 57.4761 10.5742 -9.6772 -9.5265
# 3 22.8886 57.4761 101.3355 2.0248 -25.3695 -8.3976
# 4 2.4778 10.5742 2.0248 30.3123 -14.7685 -7.3336
# 5 -33.6857 -9.6772 -25.3695 -14.7685 33.4541 5.6638
# 6 -18.6079 -9.5265 -8.3976 -7.3336 5.6638 34.3436
#
#
#
# Elastic Compliance Matrix: (Units=1/GPa)
#
#
# Indices 1 2 3 4 5 6 
#
# 1 0.030416 -0.007636 0.009097 0.024338 0.043590 0.014595
# 2 -0.007636 0.010109 -0.007715 -0.010238 -0.014628 -0.002993
# 3 0.009097 -0.007715 0.019231 0.015477 0.027278 0.006297
# 4 0.024338 -0.010238 0.015477 0.067169 0.059782 0.018615
# 5 0.043590 -0.014628 0.027278 0.059782 0.113187 0.020329
# 6 0.014595 -0.002993 0.006297 0.018615 0.020329 0.038357
#
#
# Mechanical properties :
#
#
# Convention : Reuss Voigt Hill
#
# Bulk Modulus (GPa) = 21.16453 64.50105 42.83279
# Shear Modulus (GPa) = 16.30114 35.56205 25.93159
#
# Velocity S-wave (km/s) = 2.74160 4.04938 3.45788
# Velocity P-wave (km/s) = 4.44754 7.18362 5.97432
#
# Compressibility (1/GPa) = 0.04724887
#
# Stress axis : x y z
#
# Youngs Moduli (GPa) = 32.87712 98.91701 51.99966
#
# Poissons Ratio (x) = 0.75532 -0.47303
# Poissons Ratio (y) = 0.25105 0.40117
# Poissons Ratio (z) = -0.29908 0.76313
#
# Static dielectric constant tensor:
#      x y z
#    x 1.877330 -0.031760 0.010990 
#    y -0.031760 1.781010 -0.001330 
#    z 0.010990 -0.001330 1.835580 
# 
# From -- ./inp_files/124783.got.cif
#   From: 2010.05.17/outbox.cif.g08.bks.cpg/sg2_63_cif.got.tgz:124783.got - 2010.06.03 11:33:40.
