data_PCOD9059996
_publ_section_title
;
Structure prediction by ZEFSAII (Michael W. Deem and Ramdas Pophale) SiO2 
 PCOD9059996
Probable space group: P -1
;
_chemical_formula_sum "Si O2"
_cell_formula_units_Z 16
_cell_length_a 9.619599
_cell_length_b 14.031599
_cell_length_c 8.748514
_cell_angle_alpha 138.037440
_cell_angle_beta 116.114727
_cell_angle_gamma 72.780370
_cell_volume 708.009627
_symmetry_space_group_name_H-M "P -1"
_symmetry_group_IT_number 2
_symmetry_cell_setting 'triclinic'
loop_
_space_group_symop_operation_xyz
x,y,z
-x,-y,-z
loop_
_atom_site_type_symbol
_atom_site_label
_atom_site_fract_x
_atom_site_fract_y
_atom_site_fract_z
Si Si1 0.634194 0.113293 0.244065
Si Si2 0.423627 0.387858 0.945282
Si Si3 0.439042 0.864139 0.409303
Si Si4 0.972866 0.025892 0.198356
Si Si5 0.133195 0.741019 0.954620
Si Si6 0.084389 0.318415 0.746095
Si Si7 0.100106 0.445486 0.213768
Si Si8 0.347456 0.638098 0.685500
O O1 0.612057 0.118067 0.420957
O O2 0.798526 0.055021 0.200759
O O3 0.608055 0.261034 0.316637
O O4 0.500000 0.000000 0.000000
O O5 0.424442 0.240657 0.676335
O O6 0.244063 0.410921 0.907071
O O7 0.500000 0.500000 0.000000
O O8 0.518372 0.377458 0.139447
O O9 0.290653 0.776767 0.164083
O O10 0.500000 0.000000 0.500000
O O11 0.070709 0.163029 0.478091
O O12 0.032539 0.875615 0.102482
O O13 0.000000 0.000000 0.000000
O O14 0.204416 0.716250 0.791691
O O15 0.029274 0.601378 0.781468
O O16 0.948776 0.411323 0.725413
O O17 0.082690 0.319725 0.930153
O O18 0.268959 0.486016 0.412910
#
# Coordination Sequence:
#
# PCOD9059996 Si02
#       8
#     2   2   2   2   2   2   2   2
#     4  12  26  45  73 105 146 195 241 305 374 434
#     4  11  26  44  72 103 146 192 245 297 370 438
#     4  11  25  46  71 100 146 192 239 298 375 440
#     4  12  25  44  72 108 143 186 254 307 358 438
#     4  11  23  42  73 100 139 189 238 300 365 433
#     4  11  24  44  71 101 143 193 242 306 364 435
#     4  11  24  43  72 102 145 186 247 301 368 439
#     4  11  24  47  71 106 149 193 242 302 374 435
#
# _framework density 22.598562999999999
#
# number of rings (size 3 to 8) (size 9 to 14) (size 15 to 20)
#    0.000    0.750    2.500    4.875    5.250    5.500 
#    0.000    0.000    0.000    0.000    0.000    0.000 
#    0.000    0.000    0.000    0.000    0.000    0.000 
#
# Total GULP energy -89302.127771 kJ/mol
# GULP energy per Si atom -5581.382986 kJ/mol
# Density = 2.254713 g / cm^3
# Si number density = 22.598563 Si / 1000 Ang^3
#
#
#
# Elastic Constant Matrix: (Units=GPa)
#
#
# Indices 1 2 3 4 5 6 
#
# 1 106.5987 34.6534 43.7902 -20.6715 11.2671 17.9097
# 2 34.6534 64.1820 35.7197 5.9161 -10.1860 25.8118
# 3 43.7902 35.7197 153.5569 -16.4454 -5.2463 18.5628
# 4 -20.6715 5.9161 -16.4454 36.0811 5.9659 -0.9028
# 5 11.2671 -10.1860 -5.2463 5.9659 44.5922 1.4149
# 6 17.9097 25.8118 18.5628 -0.9028 1.4149 46.7494
#
#
#
# Elastic Compliance Matrix: (Units=1/GPa)
#
#
# Indices 1 2 3 4 5 6 
#
# 1 0.016634 -0.011058 -0.001243 0.012205 -0.008531 0.000720
# 2 -0.011058 0.032333 -0.004118 -0.015850 0.012217 -0.012656
# 3 -0.001243 -0.004118 0.008277 0.003747 -0.000140 -0.000460
# 4 0.012205 -0.015850 0.003747 0.041072 -0.011877 0.003740
# 5 -0.008531 0.012217 -0.000140 -0.011877 0.029088 -0.004532
# 6 0.000720 -0.012656 -0.000460 0.003740 -0.004532 0.028495
#
#
# Mechanical properties :
#
#
# Convention : Reuss Voigt Hill
#
# Bulk Modulus (GPa) = 40.97295 61.40714 51.19004
# Shear Modulus (GPa) = 25.39742 39.49616 32.44679
#
# Velocity S-wave (km/s) = 3.35603 4.18512 3.79329
# Velocity P-wave (km/s) = 5.76085 7.11236 6.47198
#
# Compressibility (1/GPa) = 0.02440635
#
# Stress axis : x y z
#
# Youngs Moduli (GPa) = 60.11928 30.92830 120.82162
#
# Poissons Ratio (x) = 0.34200 0.15013
# Poissons Ratio (y) = 0.66479 0.49753
# Poissons Ratio (z) = 0.07471 0.12736
#
# Static dielectric constant tensor:
#      x y z
#    x 1.794320 -0.005740 -0.121610 
#    y -0.005740 1.921170 -0.096610 
#    z -0.121610 -0.096610 2.090290 
# 
# From -- ./inp_files/209569.got.cif
#   From: 2010.05.17/outbox.cif.g08.bks.cpg/sg2_105_cif.got.tgz:209569.got - 2010.06.03 11:33:40.
