data_PCOD9059218
_publ_section_title
;
Structure prediction by ZEFSAII (Michael W. Deem and Ramdas Pophale) SiO2 
 PCOD9059218
Probable space group: P -1
;
_chemical_formula_sum "Si O2"
_cell_formula_units_Z 14
_cell_length_a 9.220096
_cell_length_b 9.037228
_cell_length_c 10.350771
_cell_angle_alpha 110.784357
_cell_angle_beta 50.070214
_cell_angle_gamma 102.535444
_cell_volume 618.259069
_symmetry_space_group_name_H-M "P -1"
_symmetry_group_IT_number 2
_symmetry_cell_setting 'triclinic'
loop_
_space_group_symop_operation_xyz
x,y,z
-x,-y,-z
loop_
_atom_site_type_symbol
_atom_site_label
_atom_site_fract_x
_atom_site_fract_y
_atom_site_fract_z
Si Si1 0.818907 0.857806 0.527634
Si Si2 0.772937 0.177186 0.739597
Si Si3 0.686549 0.503208 0.485519
Si Si4 0.137789 0.763933 0.838619
Si Si5 0.485964 0.328337 0.768357
Si Si6 0.179720 0.589120 0.989447
Si Si7 0.209376 0.080426 0.746084
O O1 0.735996 0.684663 0.526645
O O2 0.813911 0.910007 0.393366
O O3 0.031906 0.839153 0.457052
O O4 0.718668 0.992328 0.715101
O O5 0.597067 0.270700 0.811247
O O6 0.850223 0.279494 0.844976
O O7 0.500000 0.500000 0.500000
O O8 0.862509 0.396559 0.296277
O O9 0.630114 0.417863 0.622153
O O10 0.269592 0.696090 0.857549
O O11 0.210918 0.903883 0.749499
O O12 0.957043 0.831531 0.044713
O O13 0.315947 0.452984 0.922754
O O14 0.397307 0.176447 0.701822
O O15 0.000000 0.500000 0.000000
#
# Coordination Sequence:
#
# PCOD9059218 Si02
#       7
#     2   2   2   2   2   2   2
#     4  11  24  47  69  97 149 184 227 283 357 408
#     4  11  26  43  69 103 142 183 224 295 352 403
#     4  12  24  41  73 104 132 187 236 279 337 415
#     4  11  23  40  72 102 133 180 244 270 345 407
#     4  12  25  42  72 107 138 177 238 288 339 408
#     4  12  22  47  72  98 138 184 229 284 348 419
#     4  11  23  43  73 101 134 188 230 285 336 423
#
# _framework density 22.644228999999999
#
# number of rings (size 3 to 8) (size 9 to 14) (size 15 to 20)
#    0.000    0.571    5.714    2.143    2.000    1.714 
#    0.000    7.143    0.000    0.000    0.000    0.000 
#    0.000    0.000    0.000    0.000    0.000    0.000 
#
# Total GULP energy -78038.603942 kJ/mol
# GULP energy per Si atom -5574.185996 kJ/mol
# Density = 2.259269 g / cm^3
# Si number density = 22.644229 Si / 1000 Ang^3
#
#
#
# Elastic Constant Matrix: (Units=GPa)
#
#
# Indices 1 2 3 4 5 6 
#
# 1 95.3983 50.4983 24.3557 25.8561 -6.1087 10.4165
# 2 50.4983 194.5400 50.4911 31.4674 13.1880 4.4862
# 3 24.3557 50.4911 98.9847 29.1751 5.1958 4.7288
# 4 25.8561 31.4674 29.1751 41.9256 1.6289 -0.5964
# 5 -6.1087 13.1880 5.1958 1.6289 28.1542 15.1056
# 6 10.4165 4.4862 4.7288 -0.5964 15.1056 34.0678
#
#
#
# Elastic Compliance Matrix: (Units=1/GPa)
#
#
# Indices 1 2 3 4 5 6 
#
# 1 0.016122 -0.003401 -0.000004 -0.007928 0.010536 -0.009291
# 2 -0.003401 0.007114 -0.002223 -0.001465 -0.004963 0.002587
# 3 -0.000004 -0.002223 0.013634 -0.007836 -0.000120 -0.001682
# 4 -0.007928 -0.001465 -0.007836 0.035590 -0.005208 0.006637
# 5 0.010536 -0.004963 -0.000120 -0.005208 0.054941 -0.027003
# 6 -0.009291 0.002587 -0.001682 0.006637 -0.027003 0.044176
#
#
# Mechanical properties :
#
#
# Convention : Reuss Voigt Hill
#
# Bulk Modulus (GPa) = 39.04374 71.06814 55.05594
# Shear Modulus (GPa) = 26.12713 38.40137 32.26425
#
# Velocity S-wave (km/s) = 3.40046 4.12255 3.77879
# Velocity P-wave (km/s) = 5.71815 7.35617 6.58827
#
# Compressibility (1/GPa) = 0.02561230
#
# Stress axis : x y z
#
# Youngs Moduli (GPa) = 62.02755 140.56749 73.34755
#
# Poissons Ratio (x) = 0.47812 0.00031
# Poissons Ratio (y) = 0.21098 0.16306
# Poissons Ratio (z) = 0.00026 0.31249
#
# Static dielectric constant tensor:
#      x y z
#    x 1.811990 0.121550 -0.089420 
#    y 0.121550 1.650080 0.200580 
#    z -0.089420 0.200580 1.889730 
# 
# From -- ./inp_files/383097.got.cif
#   From: 2010.05.17/outbox.cif.g08.bks.cpg/sg2_192_cif.got.tgz:383097.got - 2010.06.03 11:33:40.
