data_PCOD9059213
_publ_section_title
;
Structure prediction by ZEFSAII (Michael W. Deem and Ramdas Pophale) SiO2 
 PCOD9059213
Probable space group: P -1
;
_chemical_formula_sum "Si O2"
_cell_formula_units_Z 16
_cell_length_a 6.063377
_cell_length_b 11.954143
_cell_length_c 11.617335
_cell_angle_alpha 111.526398
_cell_angle_beta 65.021553
_cell_angle_gamma 116.211594
_cell_volume 667.739226
_symmetry_space_group_name_H-M "P -1"
_symmetry_group_IT_number 2
_symmetry_cell_setting 'triclinic'
loop_
_space_group_symop_operation_xyz
x,y,z
-x,-y,-z
loop_
_atom_site_type_symbol
_atom_site_label
_atom_site_fract_x
_atom_site_fract_y
_atom_site_fract_z
Si Si1 0.304741 0.459519 0.656593
Si Si2 0.760515 0.108998 0.438264
Si Si3 0.189907 0.738585 0.301479
Si Si4 0.909135 0.608335 0.999244
Si Si5 0.393752 0.841249 0.060742
Si Si6 0.421483 0.700719 0.606891
Si Si7 0.741929 0.899899 0.802212
Si Si8 0.370232 0.521620 0.209577
O O1 0.225335 0.567334 0.649361
O O2 0.393022 0.365900 0.520187
O O3 0.535621 0.533368 0.719897
O O4 0.068855 0.356488 0.735037
O O5 0.873767 0.167909 0.559715
O O6 0.688450 0.215415 0.420607
O O7 0.965932 0.071191 0.299267
O O8 0.500000 0.000000 0.500000
O O9 0.387302 0.798959 0.178845
O O10 0.283637 0.638689 0.313476
O O11 0.632916 0.592789 0.108567
O O12 0.147490 0.739345 0.012183
O O13 0.822952 0.572245 0.872470
O O14 0.000000 0.500000 0.000000
O O15 0.337452 0.973523 0.134095
O O16 0.649832 0.851192 0.934505
O O17 0.566038 0.796143 0.712401
#
# Coordination Sequence:
#
# PCOD9059213 Si02
#       8
#     2   2   2   2   2   2   2   2
#     4  11  24  45  75 112 158 191 244 316 388 447
#     4  12  28  49  82 112 145 205 263 310 383 459
#     4  12  24  45  78 113 148 199 254 312 376 463
#     4  11  23  43  70 110 148 201 250 307 377 452
#     4  11  26  50  73 106 157 203 251 310 385 444
#     4  11  26  48  73 115 150 196 248 318 383 446
#     4  11  28  51  71 108 155 204 247 323 373 457
#     4  11  23  40  71 113 147 194 248 307 376 453
#
# _framework density 23.961449999999999
#
# number of rings (size 3 to 8) (size 9 to 14) (size 15 to 20)
#    0.000    0.750    5.000    0.750    7.000    2.500 
#    2.250    1.875    0.000    0.000    0.000    0.000 
#    0.000    0.000    0.000    0.000    0.000    0.000 
#
# Total GULP energy -89280.779729 kJ/mol
# GULP energy per Si atom -5580.048733 kJ/mol
# Density = 2.390691 g / cm^3
# Si number density = 23.961450 Si / 1000 Ang^3
#
#
#
# Elastic Constant Matrix: (Units=GPa)
#
#
# Indices 1 2 3 4 5 6 
#
# 1 49.7468 39.8954 47.0507 -0.4044 -7.1270 -0.0254
# 2 39.8954 107.3701 65.2590 4.4753 1.4306 -4.0061
# 3 47.0507 65.2590 167.5625 -3.3644 -22.6427 5.7696
# 4 -0.4044 4.4753 -3.3644 44.4813 1.5339 1.0444
# 5 -7.1270 1.4306 -22.6427 1.5339 47.8533 -6.8651
# 6 -0.0254 -4.0061 5.7696 1.0444 -6.8651 32.6699
#
#
#
# Elastic Compliance Matrix: (Units=1/GPa)
#
#
# Indices 1 2 3 4 5 6 
#
# 1 0.032727 -0.008964 -0.005340 0.000695 0.002651 0.000404
# 2 -0.008964 0.015256 -0.003979 -0.001847 -0.003339 0.001924
# 3 -0.005340 -0.003979 0.009575 0.000986 0.003614 -0.001455
# 4 0.000695 -0.001847 0.000986 0.022785 -0.000276 -0.001186
# 5 0.002651 -0.003339 0.003614 -0.000276 0.023676 0.003938
# 6 0.000404 0.001924 -0.001455 -0.001186 0.003938 0.031968
#
#
# Mechanical properties :
#
#
# Convention : Reuss Voigt Hill
#
# Bulk Modulus (GPa) = 47.63700 69.89882 58.76791
# Shear Modulus (GPa) = 27.84723 36.49919 32.17321
#
# Velocity S-wave (km/s) = 3.41276 3.90711 3.66827
# Velocity P-wave (km/s) = 5.95425 7.04193 6.52080
#
# Compressibility (1/GPa) = 0.02099209
#
# Stress axis : x y z
#
# Youngs Moduli (GPa) = 30.55589 65.54804 104.43398
#
# Poissons Ratio (x) = 0.58755 0.55771
# Poissons Ratio (y) = 0.27389 0.41556
# Poissons Ratio (z) = 0.16318 0.26082
#
# Static dielectric constant tensor:
#      x y z
#    x 2.002830 0.012450 -0.027060 
#    y 0.012450 1.925500 -0.052500 
#    z -0.027060 -0.052500 1.967890 
# 
# From -- ./inp_files/364986.got.cif
#   From: 2010.05.17/outbox.cif.g08.bks.cpg/sg2_183_cif.got.tgz:364986.got - 2010.06.03 11:33:40.
