data_PCOD9059458
_publ_section_title
;
Structure prediction by ZEFSAII (Michael W. Deem and Ramdas Pophale) SiO2 
 PCOD9059458
Probable space group: P -1
;
_chemical_formula_sum "Si O2"
_cell_formula_units_Z 15
_cell_length_a 20.240489
_cell_length_b 11.344993
_cell_length_c 15.552854
_cell_angle_alpha 143.993177
_cell_angle_beta 164.339122
_cell_angle_gamma 37.176826
_cell_volume 563.157473
_symmetry_space_group_name_H-M "P -1"
_symmetry_group_IT_number 2
_symmetry_cell_setting 'triclinic'
loop_
_space_group_symop_operation_xyz
x,y,z
-x,-y,-z
loop_
_atom_site_type_symbol
_atom_site_label
_atom_site_fract_x
_atom_site_fract_y
_atom_site_fract_z
Si Si1 0.182667 0.379152 0.552135
Si Si2 0.723984 0.776795 0.976294
Si Si3 0.774561 0.163456 0.866375
Si Si4 0.501417 0.770685 0.288059
Si Si5 0.813714 0.320921 0.816342
Si Si6 0.284095 0.303898 0.826835
Si Si7 0.042669 0.041756 0.791822
Si Si8 0.500000 0.000000 0.000000
O O1 0.961123 0.557398 0.371300
O O2 0.360359 0.376545 0.693602
O O3 0.306384 0.359171 0.788269
O O4 0.037362 0.180667 0.248964
O O5 0.864761 0.551665 0.030172
O O6 0.454671 0.719818 0.577365
O O7 0.678745 0.918215 0.085852
O O8 0.846065 0.881111 0.110380
O O9 0.579296 0.302449 0.763363
O O10 0.806871 0.234296 0.853076
O O11 0.672903 0.949835 0.619258
O O12 0.250664 0.872337 0.989776
O O13 0.991827 0.209914 0.901382
O O14 0.518425 0.248905 0.146005
O O15 0.210234 0.065766 0.603546
#
# Coordination Sequence:
#
# PCOD9059458 Si02
#       8
#     2   2   2   2   2   2   2   1
#     4  11  24  46  65 106 144 183 232 290 349 423
#     4  11  25  45  71  95 139 185 238 289 345 416
#     4  11  23  41  69 101 140 177 228 289 356 408
#     4  11  24  38  69 108 134 180 225 293 355 418
#     4  11  24  44  68 103 136 185 231 291 348 419
#     4  11  25  45  71  97 144 190 233 288 352 416
#     4  12  23  46  70 103 139 182 235 290 355 416
#     4  12  24  52  66 100 134 198 234 282 350 420
#
# _framework density 26.635532999999999
#
# number of rings (size 3 to 8) (size 9 to 14) (size 15 to 20)
#    0.000    0.800    4.000    3.200    3.733    1.067 
#    4.800    0.000    0.000    0.000    0.000    0.000 
#    0.000    0.000    0.000    0.000    0.000    0.000 
#
# Total GULP energy -83812.660398 kJ/mol
# GULP energy per Si atom -5587.510693 kJ/mol
# Density = 2.657491 g / cm^3
# Si number density = 26.635533 Si / 1000 Ang^3
#
#
#
# Elastic Constant Matrix: (Units=GPa)
#
#
# Indices 1 2 3 4 5 6 
#
# 1 248.2880 96.9488 30.7835 -17.9731 27.4390 -38.3887
# 2 96.9488 135.1754 18.3496 -20.3529 24.3339 -11.5389
# 3 30.7835 18.3496 84.0248 8.3014 6.5538 -7.9719
# 4 -17.9731 -20.3529 8.3014 37.6386 -2.4076 0.5956
# 5 27.4390 24.3339 6.5538 -2.4076 43.2758 -9.1519
# 6 -38.3887 -11.5389 -7.9719 0.5956 -9.1519 44.1727
#
#
#
# Elastic Compliance Matrix: (Units=1/GPa)
#
#
# Indices 1 2 3 4 5 6 
#
# 1 0.006497 -0.003805 -0.001199 0.001188 -0.000834 0.004247
# 2 -0.003805 0.011589 -0.001411 0.004531 -0.003936 -0.001411
# 3 -0.001199 -0.001411 0.013199 -0.004292 -0.000488 0.000928
# 4 0.001188 0.004531 -0.004292 0.030470 -0.000772 0.000871
# 5 -0.000834 -0.003936 -0.000488 -0.000772 0.026662 0.003693
# 6 0.004247 -0.001411 0.000928 0.000871 0.003693 0.026882
#
#
# Mechanical properties :
#
#
# Convention : Reuss Voigt Hill
#
# Bulk Modulus (GPa) = 54.18805 84.40578 69.29691
# Shear Modulus (GPa) = 37.23568 46.44450 41.84009
#
# Velocity S-wave (km/s) = 3.74300 4.18030 3.96768
# Velocity P-wave (km/s) = 6.25048 7.42010 6.86026
#
# Compressibility (1/GPa) = 0.01845425
#
# Stress axis : x y z
#
# Youngs Moduli (GPa) = 153.91990 86.28871 75.76451
#
# Poissons Ratio (x) = 0.32836 0.09081
# Poissons Ratio (y) = 0.58571 0.10692
# Poissons Ratio (z) = 0.18449 0.12178
#
# Static dielectric constant tensor:
#      x y z
#    x 2.107960 0.062470 -0.112930 
#    y 0.062470 2.370230 -0.044750 
#    z -0.112930 -0.044750 2.244250 
# 
# From -- ./inp_files/538325.got.cif
#   From: 2010.05.17/outbox.cif.g08.bks.cpg/sg2_270_cif.got.tgz:538325.got - 2010.06.03 11:33:40.
