data_PCOD9059420
_publ_section_title
;
Structure prediction by ZEFSAII (Michael W. Deem and Ramdas Pophale) SiO2 
 PCOD9059420
Probable space group: P -1
;
_chemical_formula_sum "Si O2"
_cell_formula_units_Z 12
_cell_length_a 14.247610
_cell_length_b 7.786784
_cell_length_c 18.361907
_cell_angle_alpha 112.753821
_cell_angle_beta 19.667986
_cell_angle_gamma 123.387095
_cell_volume 506.034023
_symmetry_space_group_name_H-M "P -1"
_symmetry_group_IT_number 2
_symmetry_cell_setting 'triclinic'
loop_
_space_group_symop_operation_xyz
x,y,z
-x,-y,-z
loop_
_atom_site_type_symbol
_atom_site_label
_atom_site_fract_x
_atom_site_fract_y
_atom_site_fract_z
Si Si1 0.185196 0.119725 0.275583
Si Si2 0.330341 0.376981 0.026926
Si Si3 0.748778 0.140587 0.936458
Si Si4 0.466401 0.048609 0.795160
Si Si5 0.507345 0.933586 0.390083
Si Si6 0.612159 0.373869 0.450841
O O1 0.477279 0.390075 0.123298
O O2 0.819150 0.070408 0.544327
O O3 0.177227 0.024377 0.185273
O O4 0.344550 0.018813 0.191832
O O5 0.469492 0.243456 0.868123
O O6 0.500000 0.500000 0.000000
O O7 0.912679 0.217563 0.314125
O O8 0.037955 0.394553 0.734567
O O9 0.789357 0.163524 0.997820
O O10 0.405883 0.063043 0.756935
O O11 0.608354 0.802232 0.348639
O O12 0.659967 0.198508 0.342892
O O13 0.500000 0.500000 0.500000
#
# Coordination Sequence:
#
# PCOD9059420 Si02
#       6
#     2   2   2   2   2   2
#     4  11  23  41  68 105 138 180 219 275 351 406
#     4  12  22  43  69 100 142 174 219 284 344 405
#     4  11  24  44  68  99 145 175 224 285 336 407
#     4  12  23  41  70 106 134 176 228 279 344 412
#     4  11  26  46  70 102 134 181 235 281 340 407
#     4  11  24  49  72  92 137 188 229 282 344 402
#
# _framework density 23.713820999999999
#
# number of rings (size 3 to 8) (size 9 to 14) (size 15 to 20)
#    0.000    0.667    5.000    3.000    0.000    0.667 
#    6.000    9.167    0.000    0.000    0.000    0.000 
#    0.000    0.000    0.000    0.000    0.000    0.000 
#
# Total GULP energy -66835.141579 kJ/mol
# GULP energy per Si atom -5569.595132 kJ/mol
# Density = 2.365985 g / cm^3
# Si number density = 23.713821 Si / 1000 Ang^3
#
#
#
# Elastic Constant Matrix: (Units=GPa)
#
#
# Indices 1 2 3 4 5 6 
#
# 1 138.1543 27.1258 40.7339 25.2812 24.4925 -4.8992
# 2 27.1258 133.1392 46.2169 4.0286 14.1088 1.0610
# 3 40.7339 46.2169 104.5113 20.4176 11.0377 -0.4911
# 4 25.2812 4.0286 20.4176 37.4896 8.2681 4.2477
# 5 24.4925 14.1088 11.0377 8.2681 44.2906 6.9131
# 6 -4.8992 1.0610 -0.4911 4.2477 6.9131 42.0897
#
#
#
# Elastic Compliance Matrix: (Units=1/GPa)
#
#
# Indices 1 2 3 4 5 6 
#
# 1 0.009646 -0.000677 -0.002113 -0.004637 -0.004078 0.002253
# 2 -0.000677 0.009180 -0.004006 0.002101 -0.001903 -0.000256
# 3 -0.002113 -0.004006 0.013217 -0.005422 0.000078 0.000544
# 4 -0.004637 0.002101 -0.005422 0.033477 -0.002436 -0.003634
# 5 -0.004078 -0.001903 0.000078 -0.002436 0.026584 -0.004546
# 6 0.002253 -0.000256 0.000544 -0.003634 -0.004546 0.025147
#
#
# Mechanical properties :
#
#
# Convention : Reuss Voigt Hill
#
# Bulk Modulus (GPa) = 54.20097 67.10646 60.65371
# Shear Modulus (GPa) = 36.49817 42.22252 39.36035
#
# Velocity S-wave (km/s) = 3.92740 4.22418 4.07849
# Velocity P-wave (km/s) = 6.59332 7.22160 6.91460
#
# Compressibility (1/GPa) = 0.01844985
#
# Stress axis : x y z
#
# Youngs Moduli (GPa) = 103.67499 108.93535 75.66075
#
# Poissons Ratio (x) = 0.07378 0.15985
# Poissons Ratio (y) = 0.07022 0.30310
# Poissons Ratio (z) = 0.21904 0.43641
#
# Static dielectric constant tensor:
#      x y z
#    x 2.432780 -0.328430 -0.117570 
#    y -0.328430 2.044070 0.044440 
#    z -0.117570 0.044440 1.919180 
# 
# From -- ./inp_files/487489.got.cif
#   From: 2010.05.17/outbox.cif.g08.bks.cpg/sg2_244_cif.got.tgz:487489.got - 2010.06.03 11:33:40.
