data_PCOD9059296
_publ_section_title
;
Structure prediction by ZEFSAII (Michael W. Deem and Ramdas Pophale) SiO2 
 PCOD9059296
Probable space group: P -1
;
_chemical_formula_sum "Si O2"
_cell_formula_units_Z 14
_cell_length_a 8.402251
_cell_length_b 19.339301
_cell_length_c 6.976000
_cell_angle_alpha 128.262277
_cell_angle_beta 99.996027
_cell_angle_gamma 51.772403
_cell_volume 657.575499
_symmetry_space_group_name_H-M "P -1"
_symmetry_group_IT_number 2
_symmetry_cell_setting 'triclinic'
loop_
_space_group_symop_operation_xyz
x,y,z
-x,-y,-z
loop_
_atom_site_type_symbol
_atom_site_label
_atom_site_fract_x
_atom_site_fract_y
_atom_site_fract_z
Si Si1 0.869062 0.670428 0.270577
Si Si2 0.206799 0.785969 0.594350
Si Si3 0.537748 0.134672 0.281364
Si Si4 0.084748 0.720507 0.126081
Si Si5 0.572769 0.539095 0.421136
Si Si6 0.878070 0.518222 0.697581
Si Si7 0.174616 0.128121 0.040639
O O1 0.623545 0.753018 0.425453
O O2 0.925745 0.737217 0.281550
O O3 0.022044 0.600688 0.369325
O O4 0.900479 0.584444 0.972080
O O5 0.309823 0.846150 0.751904
O O6 0.166907 0.779194 0.349518
O O7 0.387638 0.647956 0.444860
O O8 0.997166 0.839274 0.773132
O O9 0.357045 0.137681 0.141074
O O10 0.688923 0.009701 0.203340
O O11 0.256293 0.579960 0.872218
O O12 0.963278 0.788100 0.022580
O O13 0.500000 0.500000 0.500000
O O14 0.652332 0.586169 0.665645
O O15 0.000000 0.500000 0.500000
#
# Coordination Sequence:
#
# PCOD9059296 Si02
#       7
#     2   2   2   2   2   2   2
#     4  11  24  41  68 104 138 176 238 281 341 419
#     4  12  26  46  71 105 139 182 236 289 339 424
#     4  11  26  48  75  99 136 188 238 286 348 412
#     4  12  25  45  70 101 146 180 225 292 348 412
#     4  12  24  41  68  99 143 186 221 276 359 410
#     4  11  23  41  64  99 139 182 223 279 340 415
#     4  11  26  52  69 100 141 183 235 295 345 405
#
# _framework density 21.290333
#
# number of rings (size 3 to 8) (size 9 to 14) (size 15 to 20)
#    0.000    0.571    4.286    3.429    6.000    1.143 
#    0.000    0.000    0.000    0.000    0.000    0.000 
#    0.000    0.000    0.000    0.000    0.000    0.000 
#
# Total GULP energy -77965.144250 kJ/mol
# GULP energy per Si atom -5568.938875 kJ/mol
# Density = 2.124188 g / cm^3
# Si number density = 21.290333 Si / 1000 Ang^3
#
#
#
# Elastic Constant Matrix: (Units=GPa)
#
#
# Indices 1 2 3 4 5 6 
#
# 1 95.9608 -7.3204 13.5170 -10.4390 11.2699 12.6569
# 2 -7.3204 67.5084 27.6442 3.5598 5.7336 -5.5029
# 3 13.5170 27.6442 60.8654 -25.2955 2.1670 -3.0951
# 4 -10.4390 3.5598 -25.2955 23.8722 0.4509 -1.9937
# 5 11.2699 5.7336 2.1670 0.4509 25.2225 0.1839
# 6 12.6569 -5.5029 -3.0951 -1.9937 0.1839 31.9647
#
#
#
# Elastic Compliance Matrix: (Units=1/GPa)
#
#
# Indices 1 2 3 4 5 6 
#
# 1 0.012614 0.003121 -0.004056 0.000465 -0.005970 -0.004787
# 2 0.003121 0.027384 -0.025218 -0.029411 -0.004922 -0.000769
# 3 -0.004056 -0.025218 0.053710 0.059378 0.001824 0.006159
# 4 0.000465 -0.029411 0.059378 0.110025 -0.000644 0.007368
# 5 -0.005970 -0.004922 0.001824 -0.000644 0.043278 0.001404
# 6 -0.004787 -0.000769 0.006159 0.007368 0.001404 0.034095
#
#
# Mechanical properties :
#
#
# Convention : Reuss Voigt Hill
#
# Bulk Modulus (GPa) = 24.15363 32.44626 28.29994
# Shear Modulus (GPa) = 14.40042 28.91145 21.65594
#
# Velocity S-wave (km/s) = 2.60356 3.68905 3.19277
# Velocity P-wave (km/s) = 4.51747 5.78087 5.18777
#
# Compressibility (1/GPa) = 0.04140165
#
# Stress axis : x y z
#
# Youngs Moduli (GPa) = 79.28011 36.51759 18.61860
#
# Poissons Ratio (x) = -0.11398 0.07552
# Poissons Ratio (y) = -0.24745 0.46952
# Poissons Ratio (z) = 0.32159 0.92089
#
# Static dielectric constant tensor:
#      x y z
#    x 1.830330 -0.030210 0.036560 
#    y -0.030210 1.759850 0.057140 
#    z 0.036560 0.057140 1.807140 
# 
# From -- ./inp_files/28309.got.cif
#   From: 2010.05.17/outbox.cif.g08.bks.cpg/sg2_15_cif.got.tgz:28309.got - 2010.06.03 11:33:40.
