data_PCOD9059191
_publ_section_title
;
Structure prediction by ZEFSAII (Michael W. Deem and Ramdas Pophale) SiO2 
 PCOD9059191
Probable space group: P -1
;
_chemical_formula_sum "Si O2"
_cell_formula_units_Z 16
_cell_length_a 16.062959
_cell_length_b 9.426575
_cell_length_c 14.983293
_cell_angle_alpha 64.725709
_cell_angle_beta 144.699086
_cell_angle_gamma 142.188610
_cell_volume 633.889591
_symmetry_space_group_name_H-M "P -1"
_symmetry_group_IT_number 2
_symmetry_cell_setting 'triclinic'
loop_
_space_group_symop_operation_xyz
x,y,z
-x,-y,-z
loop_
_atom_site_type_symbol
_atom_site_label
_atom_site_fract_x
_atom_site_fract_y
_atom_site_fract_z
Si Si1 0.792597 0.796656 0.453859
Si Si2 0.949848 0.632537 0.728718
Si Si3 0.000268 0.503988 0.361722
Si Si4 0.660169 0.761880 0.002475
Si Si5 0.882371 0.636007 0.359076
Si Si6 0.262280 0.454544 0.115828
Si Si7 0.121618 0.021846 0.224364
Si Si8 0.460875 0.813450 0.359549
O O1 0.182277 0.949988 0.891854
O O2 0.946314 0.050260 0.590970
O O3 0.777778 0.608454 0.531018
O O4 0.000000 0.000000 0.500000
O O5 0.066381 0.621542 0.760067
O O6 0.523387 0.643449 0.237172
O O7 0.768085 0.383210 0.712271
O O8 0.953134 0.325231 0.441333
O O9 0.848200 0.513311 0.268726
O O10 0.316370 0.845422 0.544455
O O11 0.867325 0.861323 0.096035
O O12 0.500000 0.500000 0.000000
O O13 0.395432 0.590181 0.771179
O O14 0.329294 0.653195 0.191338
O O15 0.001264 0.218837 0.887868
O O16 0.229662 0.269672 0.198066
O O17 0.355932 0.163188 0.450666
#
# Coordination Sequence:
#
# PCOD9059191 Si02
#       8
#     2   2   2   2   2   2   2   2
#     4  12  21  41  72  99 133 177 232 294 344 407
#     4  12  25  42  72 102 134 187 230 287 358 405
#     4  11  26  45  67  95 140 198 225 271 355 430
#     4  12  24  41  68 108 137 171 238 306 344 405
#     4  11  24  45  67  97 141 181 234 283 344 424
#     4  11  23  40  70 104 134 181 229 289 355 401
#     4  11  24  41  71 107 139 175 237 296 346 410
#     4  12  23  48  68  99 150 184 228 285 349 424
#
# _framework density 25.240991000000001
#
# number of rings (size 3 to 8) (size 9 to 14) (size 15 to 20)
#    0.000    0.500    6.250    3.000    0.000    0.500 
#    2.250    0.625    0.000    0.000    0.000    0.000 
#    0.000    0.000    0.000    0.000    0.000    0.000 
#
# Total GULP energy -89531.932346 kJ/mol
# GULP energy per Si atom -5595.745772 kJ/mol
# Density = 2.518354 g / cm^3
# Si number density = 25.240991 Si / 1000 Ang^3
#
#
#
# Elastic Constant Matrix: (Units=GPa)
#
#
# Indices 1 2 3 4 5 6 
#
# 1 123.5628 8.7256 9.9292 5.0271 -6.5650 7.7269
# 2 8.7256 93.0917 -10.6411 7.7233 -3.8628 4.3979
# 3 9.9292 -10.6411 57.2610 24.0045 -14.1408 -11.9193
# 4 5.0271 7.7233 24.0045 33.9236 -9.0387 3.3599
# 5 -6.5650 -3.8628 -14.1408 -9.0387 40.0097 14.2120
# 6 7.7269 4.3979 -11.9193 3.3599 14.2120 40.1035
#
#
#
# Elastic Compliance Matrix: (Units=1/GPa)
#
#
# Indices 1 2 3 4 5 6 
#
# 1 0.008593 -0.000993 -0.002489 0.001517 0.001870 -0.003076
# 2 -0.000993 0.011988 0.005392 -0.006091 0.001342 0.000514
# 3 -0.002489 0.005392 0.031513 -0.023605 0.002205 0.010451
# 4 0.001517 -0.006091 -0.023605 0.050712 0.007599 -0.013582
# 5 0.001870 0.001342 0.002205 0.007599 0.032147 -0.011881
# 6 -0.003076 0.000514 0.010451 -0.013582 -0.011881 0.033926
#
#
# Mechanical properties :
#
#
# Convention : Reuss Voigt Hill
#
# Bulk Modulus (GPa) = 17.88485 32.21591 25.05038
# Shear Modulus (GPa) = 27.21862 40.53415 33.87638
#
# Velocity S-wave (km/s) = 3.28739 4.01170 3.66747
# Velocity P-wave (km/s) = 4.63791 5.85229 5.28013
#
# Compressibility (1/GPa) = 0.05591324
#
# Stress axis : x y z
#
# Youngs Moduli (GPa) = 116.37127 83.41569 31.73327
#
# Poissons Ratio (x) = 0.08282 0.07899
# Poissons Ratio (y) = 0.11554 -0.17109
# Poissons Ratio (z) = 0.28965 -0.44974
#
# Static dielectric constant tensor:
#      x y z
#    x 2.051030 -0.050300 -0.007410 
#    y -0.050300 1.994390 -0.040820 
#    z -0.007410 -0.040820 2.129370 
# 
# From -- ./inp_files/529680.got.cif
#   From: 2010.05.17/outbox.cif.g08.bks.cpg/sg2_265_cif.got.tgz:529680.got - 2010.06.03 11:33:40.
