data_PCOD9059818
_publ_section_title
;
Structure prediction by ZEFSAII (Michael W. Deem and Ramdas Pophale) SiO2 
 PCOD9059818
Probable space group: P -1
;
_chemical_formula_sum "Si O2"
_cell_formula_units_Z 16
_cell_length_a 11.089921
_cell_length_b 12.871500
_cell_length_c 16.516571
_cell_angle_alpha 23.762174
_cell_angle_beta 128.061787
_cell_angle_gamma 131.855574
_cell_volume 707.447278
_symmetry_space_group_name_H-M "P -1"
_symmetry_group_IT_number 2
_symmetry_cell_setting 'triclinic'
loop_
_space_group_symop_operation_xyz
x,y,z
-x,-y,-z
loop_
_atom_site_type_symbol
_atom_site_label
_atom_site_fract_x
_atom_site_fract_y
_atom_site_fract_z
Si Si1 0.324792 0.516218 0.437855
Si Si2 0.283739 0.077072 0.047235
Si Si3 0.351534 0.561622 0.608167
Si Si4 0.900413 0.179164 0.692959
Si Si5 0.364250 0.698937 0.886814
Si Si6 0.617427 0.011419 0.466296
Si Si7 0.114228 0.136038 0.238299
Si Si8 0.884368 0.001760 0.374479
O O1 0.500000 0.500000 0.500000
O O2 0.317780 0.482640 0.556701
O O3 0.300665 0.806939 0.204870
O O4 0.192923 0.289515 0.493433
O O5 0.456802 0.209340 0.068509
O O6 0.141155 0.970014 0.131339
O O7 0.273768 0.305452 0.816962
O O8 0.273637 0.800281 0.419897
O O9 0.539244 0.723192 0.591176
O O10 0.000000 0.500000 0.500000
O O11 0.960817 0.015373 0.767289
O O12 0.262254 0.893144 0.735172
O O13 0.376104 0.739389 0.766863
O O14 0.257553 0.401796 0.081548
O O15 0.796361 0.042663 0.548101
O O16 0.500000 0.000000 0.500000
O O17 0.989024 0.185101 0.214674
O O18 0.000000 0.000000 0.500000
#
# Coordination Sequence:
#
# PCOD9059818 Si02
#       8
#     2   2   2   2   2   2   2   2
#     4  11  23  46  71  96 142 183 228 288 343 407
#     4  11  23  43  73 105 133 181 233 283 343 424
#     4  11  23  42  69 105 136 177 231 280 346 414
#     4  11  25  46  66  97 145 181 227 292 345 412
#     4  12  24  44  69 103 138 178 237 285 343 423
#     4  12  22  40  69 101 138 181 222 285 348 406
#     4  12  25  41  71 100 139 183 228 285 354 410
#     4  12  26  49  70  98 144 186 230 294 353 405
#
# _framework density 22.616527000000001
#
# number of rings (size 3 to 8) (size 9 to 14) (size 15 to 20)
#    0.000    0.500    7.500    1.875    1.750    2.000 
#    6.750    0.000    0.000    0.000    0.000    0.000 
#    0.000    0.000    0.000    0.000    0.000    0.000 
#
# Total GULP energy -89458.305088 kJ/mol
# GULP energy per Si atom -5591.144068 kJ/mol
# Density = 2.256505 g / cm^3
# Si number density = 22.616527 Si / 1000 Ang^3
#
#
#
# Elastic Constant Matrix: (Units=GPa)
#
#
# Indices 1 2 3 4 5 6 
#
# 1 100.0844 20.5163 22.0364 11.1252 -26.7727 -16.3527
# 2 20.5163 117.6533 29.4657 -10.2563 -9.6772 -5.4019
# 3 22.0364 29.4657 121.6145 11.8565 -21.7372 -5.2940
# 4 11.1252 -10.2563 11.8565 34.3285 5.3163 -6.1951
# 5 -26.7727 -9.6772 -21.7372 5.3163 37.2389 -4.0727
# 6 -16.3527 -5.4019 -5.2940 -6.1951 -4.0727 30.7606
#
#
#
# Elastic Compliance Matrix: (Units=1/GPa)
#
#
# Indices 1 2 3 4 5 6 
#
# 1 0.015960 -0.002123 0.001057 -0.006679 0.013448 0.008729
# 2 -0.002123 0.009918 -0.002648 0.004915 -0.001087 0.001003
# 3 0.001057 -0.002648 0.010589 -0.005597 0.007244 0.001751
# 4 -0.006679 0.004915 -0.005597 0.036928 -0.011821 0.002221
# 5 0.013448 -0.001087 0.007244 -0.011821 0.043421 0.011573
# 6 0.008729 0.001003 0.001751 0.002221 0.011573 0.039607
#
#
# Mechanical properties :
#
#
# Convention : Reuss Voigt Hill
#
# Bulk Modulus (GPa) = 34.43578 53.70989 44.07283
# Shear Modulus (GPa) = 28.81316 38.28786 33.55051
#
# Velocity S-wave (km/s) = 3.57317 4.11897 3.85574
# Velocity P-wave (km/s) = 5.68176 6.81328 6.27308
#
# Compressibility (1/GPa) = 0.02903956
#
# Stress axis : x y z
#
# Youngs Moduli (GPa) = 62.65640 100.82502 94.43408
#
# Poissons Ratio (x) = 0.21408 -0.09985
# Poissons Ratio (y) = 0.13304 0.25007
# Poissons Ratio (z) = -0.06625 0.26700
#
# Static dielectric constant tensor:
#      x y z
#    x 1.903130 -0.004780 -0.013190 
#    y -0.004780 1.897600 -0.000020 
#    z -0.013190 -0.000020 1.823370 
# 
# From -- ./inp_files/518589.got.cif
#   From: 2010.05.17/outbox.cif.g08.bks.cpg/sg2_260_cif.got.tgz:518589.got - 2010.06.03 11:33:40.
