data_PCOD9059785
_publ_section_title
;
Structure prediction by ZEFSAII (Michael W. Deem and Ramdas Pophale) SiO2 
 PCOD9059785
Probable space group: P -1
;
_chemical_formula_sum "Si O2"
_cell_formula_units_Z 14
_cell_length_a 15.130459
_cell_length_b 17.407786
_cell_length_c 23.263677
_cell_angle_alpha 161.907811
_cell_angle_beta 16.480819
_cell_angle_gamma 154.960716
_cell_volume 538.775769
_symmetry_space_group_name_H-M "P -1"
_symmetry_group_IT_number 2
_symmetry_cell_setting 'triclinic'
loop_
_space_group_symop_operation_xyz
x,y,z
-x,-y,-z
loop_
_atom_site_type_symbol
_atom_site_label
_atom_site_fract_x
_atom_site_fract_y
_atom_site_fract_z
Si Si1 0.399257 0.925822 0.768234
Si Si2 0.525022 0.715919 0.302207
Si Si3 0.315179 0.278379 0.182063
Si Si4 0.691690 0.579415 0.494665
Si Si5 0.599104 0.362287 0.897793
Si Si6 0.898458 0.099697 0.870211
Si Si7 0.985946 0.234081 0.789002
O O1 0.223402 0.676813 0.706348
O O2 0.753524 0.814510 0.456684
O O3 0.325366 0.090484 0.987869
O O4 0.389784 0.124455 0.864495
O O5 0.868394 0.713108 0.113687
O O6 0.500000 0.000000 0.500000
O O7 0.299145 0.572355 0.384693
O O8 0.511043 0.546798 0.135654
O O9 0.654915 0.232274 0.964848
O O10 0.099161 0.156315 0.277391
O O11 0.500000 0.500000 0.500000
O O12 0.029121 0.689477 0.355489
O O13 0.445816 0.762731 0.812570
O O14 0.500000 0.500000 0.000000
O O15 0.011869 0.063041 0.708486
O O16 0.000000 0.500000 0.000000
#
# Coordination Sequence:
#
# PCOD9059785 Si02
#       7
#     2   2   2   2   2   2   2
#     4  11  24  42  71  98 140 189 230 281 345 422
#     4  11  25  46  68  94 141 185 230 285 350 411
#     4  11  23  42  68  98 133 186 235 275 347 418
#     4  12  22  43  75 104 136 180 234 288 340 419
#     4  11  27  45  69 103 138 185 237 286 347 412
#     4  12  24  43  71 105 138 179 231 289 348 409
#     4  12  23  38  66 108 143 173 220 295 355 398
#
# _framework density 25.984836000000001
#
# number of rings (size 3 to 8) (size 9 to 14) (size 15 to 20)
#    0.000    0.571    5.714    1.714    4.000    1.143 
#    0.000    0.000    0.000    0.000    0.000    0.000 
#    0.000    0.000    0.000    0.000    0.000    0.000 
#
# Total GULP energy -78244.772807 kJ/mol
# GULP energy per Si atom -5588.912343 kJ/mol
# Density = 2.592569 g / cm^3
# Si number density = 25.984836 Si / 1000 Ang^3
#
#
#
# Elastic Constant Matrix: (Units=GPa)
#
#
# Indices 1 2 3 4 5 6 
#
# 1 62.3503 3.4957 14.5423 1.0807 -10.1988 -27.9113
# 2 3.4957 134.8657 23.2138 37.4495 -9.9861 -39.7795
# 3 14.5423 23.2138 90.3692 8.1011 4.8460 -3.1689
# 4 1.0807 37.4495 8.1011 56.2279 -4.9168 -12.6718
# 5 -10.1988 -9.9861 4.8460 -4.9168 28.4477 3.2989
# 6 -27.9113 -39.7795 -3.1689 -12.6718 3.2989 40.9990
#
#
#
# Elastic Compliance Matrix: (Units=1/GPa)
#
#
# Indices 1 2 3 4 5 6 
#
# 1 0.033861 0.010403 -0.007914 0.001985 0.013767 0.032039
# 2 0.010403 0.015736 -0.004954 -0.004874 0.006947 0.019901
# 3 -0.007914 -0.004954 0.013718 -0.001078 -0.006058 -0.008980
# 4 0.001985 -0.004874 -0.001078 0.022090 0.002637 0.003154
# 5 0.013767 0.006947 -0.006058 0.002637 0.042502 0.013039
# 6 0.032039 0.019901 -0.008980 0.003154 0.013039 0.064743
#
#
# Mechanical properties :
#
#
# Convention : Reuss Voigt Hill
#
# Bulk Modulus (GPa) = 17.12765 41.12099 29.12432
# Shear Modulus (GPa) = 23.03701 41.55714 32.29708
#
# Velocity S-wave (km/s) = 2.98074 4.00344 3.52933
# Velocity P-wave (km/s) = 4.29559 6.10159 5.27644
#
# Compressibility (1/GPa) = 0.05838514
#
# Stress axis : x y z
#
# Youngs Moduli (GPa) = 29.53250 63.54994 72.89457
#
# Poissons Ratio (x) = -0.66110 0.57688
# Poissons Ratio (y) = -0.30722 0.36111
# Poissons Ratio (z) = 0.23372 0.31482
#
# Static dielectric constant tensor:
#      x y z
#    x 1.997860 -0.036450 -0.022400 
#    y -0.036450 1.910330 -0.121020 
#    z -0.022400 -0.121020 1.930100 
# 
# From -- ./inp_files/612198.got.cif
#   From: 2010.05.17/outbox.cif.g08.bks.cpg/sg2_307_cif.got.tgz:612198.got - 2010.06.03 11:33:40.
