data_PCOD9059698
_publ_section_title
;
Structure prediction by ZEFSAII (Michael W. Deem and Ramdas Pophale) SiO2 
 PCOD9059698
Probable space group: P -1
;
_chemical_formula_sum "Si O2"
_cell_formula_units_Z 16
_cell_length_a 11.143957
_cell_length_b 14.211694
_cell_length_c 10.223834
_cell_angle_alpha 68.734640
_cell_angle_beta 42.961383
_cell_angle_gamma 101.084126
_cell_volume 712.984378
_symmetry_space_group_name_H-M "P -1"
_symmetry_group_IT_number 2
_symmetry_cell_setting 'triclinic'
loop_
_space_group_symop_operation_xyz
x,y,z
-x,-y,-z
loop_
_atom_site_type_symbol
_atom_site_label
_atom_site_fract_x
_atom_site_fract_y
_atom_site_fract_z
Si Si1 0.491327 0.606377 0.384556
Si Si2 0.257328 0.023319 0.412988
Si Si3 0.961227 0.890164 0.988687
Si Si4 0.907933 0.819608 0.565715
Si Si5 0.956941 0.450008 0.331488
Si Si6 0.671363 0.557626 0.030323
Si Si7 0.111761 0.265751 0.637752
Si Si8 0.783262 0.302945 0.814857
O O1 0.500000 0.500000 0.500000
O O2 0.216677 0.542695 0.612584
O O3 0.627604 0.631705 0.128356
O O4 0.671887 0.760609 0.234892
O O5 0.229055 0.129778 0.340762
O O6 0.117187 0.903923 0.470463
O O7 0.557524 0.134150 0.114492
O O8 0.136225 0.960799 0.684532
O O9 0.992569 0.806826 0.101044
O O10 0.000000 0.000000 0.000000
O O11 0.004598 0.852132 0.323716
O O12 0.732105 0.648494 0.807814
O O13 0.784124 0.335355 0.646534
O O14 0.191206 0.595768 0.153477
O O15 0.086919 0.416026 0.159375
O O16 0.417048 0.386422 0.331767
O O17 0.041773 0.349983 0.613219
#
# Coordination Sequence:
#
# PCOD9059698 Si02
#       8
#     2   2   2   2   2   2   2   2
#     4  12  25  49  73 103 148 191 247 294 354 434
#     4  11  25  42  70  97 146 192 235 291 364 436
#     4  12  26  47  69 102 145 198 233 290 369 433
#     4  11  23  42  67 103 137 189 236 292 361 418
#     4  11  25  42  73 109 136 182 244 306 354 420
#     4  12  23  44  76 103 139 186 242 302 357 413
#     4  12  24  44  72 102 143 189 234 300 358 421
#     4  11  24  42  66 108 141 176 246 300 352 427
#
# _framework density 22.440884
#
# number of rings (size 3 to 8) (size 9 to 14) (size 15 to 20)
#    0.000    0.500    6.250    1.875    3.500    1.500 
#    2.250    1.250    0.000    0.000    0.000    0.000 
#    0.000    0.000    0.000    0.000    0.000    0.000 
#
# Total GULP energy -89283.748741 kJ/mol
# GULP energy per Si atom -5580.234296 kJ/mol
# Density = 2.238981 g / cm^3
# Si number density = 22.440884 Si / 1000 Ang^3
#
#
#
# Elastic Constant Matrix: (Units=GPa)
#
#
# Indices 1 2 3 4 5 6 
#
# 1 102.2181 26.4887 51.1850 3.8475 7.4323 -0.5396
# 2 26.4887 85.7635 20.0599 -0.1950 -16.2637 14.1779
# 3 51.1850 20.0599 112.4378 -9.9087 3.5640 9.8683
# 4 3.8475 -0.1950 -9.9087 28.0666 -3.4996 -4.3038
# 5 7.4323 -16.2637 3.5640 -3.4996 29.5364 -0.4719
# 6 -0.5396 14.1779 9.8683 -4.3038 -0.4719 52.3506
#
#
#
# Elastic Compliance Matrix: (Units=1/GPa)
#
#
# Indices 1 2 3 4 5 6 
#
# 1 0.014756 -0.004583 -0.006312 -0.004702 -0.005998 0.002143
# 2 -0.004583 0.015774 -0.000589 0.001158 0.009983 -0.004023
# 3 -0.006312 -0.000589 0.012466 0.005021 0.000325 -0.001840
# 4 -0.004702 0.001158 0.005021 0.039088 0.005878 0.001958
# 5 -0.005998 0.009983 0.000325 0.005878 0.041489 -0.001970
# 6 0.002143 -0.004023 -0.001840 0.001958 -0.001970 0.020704
#
#
# Mechanical properties :
#
#
# Convention : Reuss Voigt Hill
#
# Bulk Modulus (GPa) = 49.93219 55.09849 52.51534
# Shear Modulus (GPa) = 28.74878 35.50312 32.12595
#
# Velocity S-wave (km/s) = 3.58311 3.98184 3.78773
# Velocity P-wave (km/s) = 6.27831 6.76359 6.52546
#
# Compressibility (1/GPa) = 0.02002716
#
# Stress axis : x y z
#
# Youngs Moduli (GPa) = 67.76986 63.39447 80.21919
#
# Poissons Ratio (x) = 0.29057 0.50633
# Poissons Ratio (y) = 0.31062 0.04725
# Poissons Ratio (z) = 0.42776 0.03734
#
# Static dielectric constant tensor:
#      x y z
#    x 1.893680 0.035670 0.046130 
#    y 0.035670 1.914610 0.030770 
#    z 0.046130 0.030770 1.905490 
# 
# From -- ./inp_files/433788.got.cif
#   From: 2010.05.17/outbox.cif.g08.bks.cpg/sg2_217_cif.got.tgz:433788.got - 2010.06.03 11:33:40.
