data_PCOD9059545
_publ_section_title
;
Structure prediction by ZEFSAII (Michael W. Deem and Ramdas Pophale) SiO2 
 PCOD9059545
Probable space group: P -1
;
_chemical_formula_sum "Si O2"
_cell_formula_units_Z 14
_cell_length_a 24.843308
_cell_length_b 6.032107
_cell_length_c 8.567473
_cell_angle_alpha 66.223583
_cell_angle_beta 147.537096
_cell_angle_gamma 115.224550
_cell_volume 620.907037
_symmetry_space_group_name_H-M "P -1"
_symmetry_group_IT_number 2
_symmetry_cell_setting 'triclinic'
loop_
_space_group_symop_operation_xyz
x,y,z
-x,-y,-z
loop_
_atom_site_type_symbol
_atom_site_label
_atom_site_fract_x
_atom_site_fract_y
_atom_site_fract_z
Si Si1 0.487219 0.693981 0.058617
Si Si2 0.322879 0.434446 0.264371
Si Si3 0.770806 0.113305 0.114712
Si Si4 0.851944 0.997513 0.013622
Si Si5 0.702784 0.607170 0.157816
Si Si6 0.896322 0.514652 0.828926
Si Si7 0.989690 0.267030 0.657083
O O1 0.571397 0.630812 0.403995
O O2 0.500000 0.500000 0.000000
O O3 0.375895 0.584071 0.883578
O O4 0.500000 0.000000 0.000000
O O5 0.295097 0.695234 0.167688
O O6 0.234527 0.230582 0.179241
O O7 0.313990 0.441583 0.052891
O O8 0.871087 0.218388 0.431599
O O9 0.827597 0.024782 0.128353
O O10 0.695792 0.895063 0.077230
O O11 0.962292 0.938537 0.258962
O O12 0.844147 0.248838 0.838641
O O13 0.816859 0.606805 0.494787
O O14 0.000000 0.500000 0.000000
O O15 0.935606 0.677385 0.028895
O O16 0.000000 0.500000 0.500000
#
# Coordination Sequence:
#
# PCOD9059545 Si02
#       7
#     2   2   2   2   2   2   2
#     4  12  31  53  84 115 150 196 254 315 387 454
#     4  11  25  48  77 104 144 193 248 308 380 453
#     4  11  24  43  73 106 141 196 251 302 377 445
#     4  11  23  41  71  97 149 189 253 302 373 439
#     4  11  28  47  73 106 152 192 245 313 374 452
#     4  12  26  42  67 106 147 192 248 303 368 446
#     4  12  23  40  67 101 144 199 246 297 366 443
#
# _framework density 22.54766
#
# number of rings (size 3 to 8) (size 9 to 14) (size 15 to 20)
#    0.000    0.571    2.857    3.429   12.000    4.000 
#    0.000    0.000    0.000    0.000    0.000    0.000 
#    0.000    0.000    0.000    0.000    0.000    0.000 
#
# Total GULP energy -78157.196599 kJ/mol
# GULP energy per Si atom -5582.656900 kJ/mol
# Density = 2.249634 g / cm^3
# Si number density = 22.547660 Si / 1000 Ang^3
#
#
#
# Elastic Constant Matrix: (Units=GPa)
#
#
# Indices 1 2 3 4 5 6 
#
# 1 85.2231 25.5207 31.2248 8.0092 -4.6515 -0.6830
# 2 25.5207 127.9303 24.1970 -11.6807 3.9855 16.2738
# 3 31.2248 24.1970 150.6852 -11.5797 1.2722 -14.6121
# 4 8.0092 -11.6807 -11.5797 22.1113 0.5094 8.8238
# 5 -4.6515 3.9855 1.2722 0.5094 37.4262 5.2505
# 6 -0.6830 16.2738 -14.6121 8.8238 5.2505 39.7721
#
#
#
# Elastic Compliance Matrix: (Units=1/GPa)
#
#
# Indices 1 2 3 4 5 6 
#
# 1 0.015073 -0.003757 -0.003062 -0.010152 0.002145 0.002640
# 2 -0.003757 0.010403 -0.000824 0.009049 -0.000754 -0.006532
# 3 -0.003062 -0.000824 0.007949 0.003872 -0.000963 0.002473
# 4 -0.010152 0.009049 0.003872 0.062167 -0.000941 -0.016122
# 5 0.002145 -0.000754 -0.000963 -0.000941 0.027595 -0.003443
# 6 0.002640 -0.006532 0.002473 -0.016122 -0.003443 0.032801
#
#
# Mechanical properties :
#
#
# Convention : Reuss Voigt Hill
#
# Bulk Modulus (GPa) = 55.13190 58.41373 56.77282
# Shear Modulus (GPa) = 28.19767 38.72165 33.45966
#
# Velocity S-wave (km/s) = 3.54019 4.14856 3.85639
# Velocity P-wave (km/s) = 6.41989 6.99360 6.71287
#
# Compressibility (1/GPa) = 0.01813832
#
# Stress axis : x y z
#
# Youngs Moduli (GPa) = 66.34216 96.12922 125.80749
#
# Poissons Ratio (x) = 0.36119 0.38527
# Poissons Ratio (y) = 0.24927 0.10360
# Poissons Ratio (z) = 0.20316 0.07916
#
# Static dielectric constant tensor:
#      x y z
#    x 2.070860 -0.033650 -0.278960 
#    y -0.033650 1.974700 0.023540 
#    z -0.278960 0.023540 2.162050 
# 
# From -- ./inp_files/39623.got.cif
#   From: 2010.05.17/outbox.cif.g08.bks.cpg/sg2_20_cif.got.tgz:39623.got - 2010.06.03 11:33:40.
