data_PCOD9059272
_publ_section_title
;
Structure prediction by ZEFSAII (Michael W. Deem and Ramdas Pophale) SiO2 
 PCOD9059272
Probable space group: P -1
;
_chemical_formula_sum "Si O2"
_cell_formula_units_Z 16
_cell_length_a 19.899832
_cell_length_b 8.245504
_cell_length_c 9.188204
_cell_angle_alpha 32.424461
_cell_angle_beta 64.349266
_cell_angle_gamma 65.011905
_cell_volume 723.619961
_symmetry_space_group_name_H-M "P -1"
_symmetry_group_IT_number 2
_symmetry_cell_setting 'triclinic'
loop_
_space_group_symop_operation_xyz
x,y,z
-x,-y,-z
loop_
_atom_site_type_symbol
_atom_site_label
_atom_site_fract_x
_atom_site_fract_y
_atom_site_fract_z
Si Si1 0.786193 0.838526 0.805541
Si Si2 0.419732 0.509670 0.143498
Si Si3 0.299281 0.548705 0.611341
Si Si4 0.956964 0.708212 0.765087
Si Si5 0.675922 0.923344 0.316637
Si Si6 0.824702 0.776970 0.477713
Si Si7 0.550652 0.267658 0.727912
Si Si8 0.072033 0.749973 0.099959
O O1 0.869728 0.767073 0.842916
O O2 0.792546 0.800009 0.654636
O O3 0.761200 0.192432 0.593051
O O4 0.732501 0.611975 0.097798
O O5 0.353732 0.732680 0.959015
O O6 0.500000 0.500000 0.000000
O O7 0.388626 0.188129 0.436117
O O8 0.431589 0.631600 0.202289
O O9 0.320710 0.276607 0.683208
O O10 0.369150 0.744373 0.419168
O O11 0.957710 0.524884 0.752857
O O12 0.000000 0.000000 0.500000
O O13 0.000000 0.500000 0.000000
O O14 0.755566 0.838530 0.384261
O O15 0.876988 0.446048 0.675704
O O16 0.873418 0.056573 0.190827
O O17 0.500000 0.500000 0.500000
O O18 0.500000 0.000000 0.000000
O O19 0.000000 0.000000 0.000000
#
# Coordination Sequence:
#
# PCOD9059272 Si02
#       8
#     2   2   2   2   2   2   2   2
#     4  11  23  41  63  93 126 165 213 266 319 386
#     4  11  24  43  63  91 127 165 210 264 320 387
#     4  11  23  41  64  92 127 165 211 265 322 386
#     4  11  23  41  63  92 128 168 214 266 322 388
#     4  11  24  43  63  92 128 166 212 265 322 389
#     4  11  24  43  66  97 133 172 220 274 330 396
#     4  11  23  41  64  93 125 162 209 261 315 381
#     4  11  24  43  66  98 135 173 221 279 333 395
#
# _framework density 22.111052999999998
#
# number of rings (size 3 to 8) (size 9 to 14) (size 15 to 20)
#    0.000    1.000    0.000    9.000    0.000    6.000 
#    0.000    0.000    0.000    0.000    0.000    0.000 
#    0.000    0.000    0.000    0.000    0.000    0.000 
#
# Total GULP energy -89357.716441 kJ/mol
# GULP energy per Si atom -5584.857278 kJ/mol
# Density = 2.206073 g / cm^3
# Si number density = 22.111053 Si / 1000 Ang^3
#
#
#
# Elastic Constant Matrix: (Units=GPa)
#
#
# Indices 1 2 3 4 5 6 
#
# 1 114.2474 18.1789 56.8867 11.2370 7.0177 -7.1120
# 2 18.1789 41.8829 25.9549 -0.9079 -9.6581 -23.0021
# 3 56.8867 25.9549 180.0909 0.6150 -10.6187 -3.8451
# 4 11.2370 -0.9079 0.6150 31.3931 -14.0392 0.6249
# 5 7.0177 -9.6581 -10.6187 -14.0392 58.4916 -10.7876
# 6 -7.1120 -23.0021 -3.8451 0.6249 -10.7876 25.4976
#
#
#
# Elastic Compliance Matrix: (Units=1/GPa)
#
#
# Indices 1 2 3 4 5 6 
#
# 1 0.012648 -0.010877 -0.003056 -0.007979 -0.007583 -0.009758
# 2 -0.010877 0.097122 -0.006135 0.022789 0.040157 0.100088
# 3 -0.003056 -0.006135 0.007278 0.000830 -0.000114 -0.005358
# 4 -0.007979 0.022789 0.000830 0.043861 0.020179 0.025920
# 5 -0.007583 0.040157 -0.000114 0.020179 0.038674 0.049962
# 6 -0.009758 0.100088 -0.005358 0.025920 0.049962 0.146485
#
#
# Mechanical properties :
#
#
# Convention : Reuss Voigt Hill
#
# Bulk Modulus (GPa) = 13.00160 59.80690 36.40425
# Shear Modulus (GPa) = 12.14059 38.75652 25.44856
#
# Velocity S-wave (km/s) = 2.34577 4.19120 3.39624
# Velocity P-wave (km/s) = 3.63728 7.10835 5.64617
#
# Compressibility (1/GPa) = 0.07691361
#
# Stress axis : x y z
#
# Youngs Moduli (GPa) = 79.06110 10.29637 137.39547
#
# Poissons Ratio (x) = 0.11199 0.41988
# Poissons Ratio (y) = 0.85993 0.84287
# Poissons Ratio (z) = 0.24161 0.06316
#
# Static dielectric constant tensor:
#      x y z
#    x 1.901770 -0.003540 0.021070 
#    y -0.003540 1.846320 0.011160 
#    z 0.021070 0.011160 1.795860 
# 
# From -- ./inp_files/343199.got.cif
#   From: 2010.05.17/outbox.cif.g08.bks.cpg/sg2_172_cif.got.tgz:343199.got - 2010.06.03 11:33:40.
