data_PCOD9059592
_publ_section_title
;
Structure prediction by ZEFSAII (Michael W. Deem and Ramdas Pophale) SiO2 
 PCOD9059592
Probable space group: P -1
;
_chemical_formula_sum "Si O2"
_cell_formula_units_Z 13
_cell_length_a 16.093103
_cell_length_b 16.685157
_cell_length_c 9.337184
_cell_angle_alpha 30.495491
_cell_angle_beta 37.556620
_cell_angle_gamma 26.102229
_cell_volume 557.765754
_symmetry_space_group_name_H-M "P -1"
_symmetry_group_IT_number 2
_symmetry_cell_setting 'triclinic'
loop_
_space_group_symop_operation_xyz
x,y,z
-x,-y,-z
loop_
_atom_site_type_symbol
_atom_site_label
_atom_site_fract_x
_atom_site_fract_y
_atom_site_fract_z
Si Si1 0.420158 0.194870 0.474285
Si Si2 0.000000 0.500000 0.500000
Si Si3 0.506383 0.653285 0.602955
Si Si4 0.309513 0.808844 0.063063
Si Si5 0.520407 0.767410 0.097814
Si Si6 0.098224 0.930563 0.690784
Si Si7 0.079384 0.674070 0.880459
O O1 0.389445 0.341310 0.421055
O O2 0.227962 0.346169 0.413882
O O3 0.592963 0.123540 0.253592
O O4 0.480060 0.978164 0.784731
O O5 0.031585 0.366323 0.811686
O O6 0.606714 0.414187 0.780681
O O7 0.490303 0.770004 0.302558
O O8 0.289401 0.795938 0.725712
O O9 0.380416 0.769586 0.191060
O O10 0.083242 0.984202 0.104356
O O11 0.733849 0.545966 0.109044
O O12 0.136351 0.765925 0.773304
O O13 0.039900 0.138074 0.368329
#
# Coordination Sequence:
#
# PCOD9059592 Si02
#       7
#     2   1   2   2   2   2   2
#     4  12  28  45  72 105 148 181 234 299 355 409
#     4  12  24  48  68  98 140 188 228 286 356 414
#     4  12  25  48  70 106 146 183 233 297 348 413
#     4  12  24  45  75 106 139 189 237 284 348 423
#     4  12  23  46  74 104 140 191 233 289 348 422
#     4  11  23  43  71 107 135 186 236 286 341 418
#     4  11  23  41  74 104 136 183 241 286 336 423
#
# _framework density 23.307275000000001
#
# number of rings (size 3 to 8) (size 9 to 14) (size 15 to 20)
#    0.000    0.308    4.615    5.538    2.154    0.615 
#    2.769    1.538    0.000    0.000    0.000    0.000 
#    0.000    0.000    0.000    0.000    0.000    0.000 
#
# Total GULP energy -72645.424764 kJ/mol
# GULP energy per Si atom -5588.109597 kJ/mol
# Density = 2.325423 g / cm^3
# Si number density = 23.307275 Si / 1000 Ang^3
#
#
#
# Elastic Constant Matrix: (Units=GPa)
#
#
# Indices 1 2 3 4 5 6 
#
# 1 29.6436 5.0310 10.9625 8.3860 5.1735 11.1126
# 2 5.0310 110.5527 41.6545 23.9621 -5.1901 -15.0488
# 3 10.9625 41.6545 118.2923 17.8052 7.5296 5.1177
# 4 8.3860 23.9621 17.8052 38.2428 3.3607 -1.2118
# 5 5.1735 -5.1901 7.5296 3.3607 22.3740 4.2756
# 6 11.1126 -15.0488 5.1177 -1.2118 4.2756 19.1952
#
#
#
# Elastic Compliance Matrix: (Units=1/GPa)
#
#
# Indices 1 2 3 4 5 6 
#
# 1 0.049992 -0.005205 0.000201 -0.008348 -0.005389 -0.032403
# 2 -0.005205 0.014377 -0.004616 -0.005639 0.004222 0.014219
# 3 0.000201 -0.004616 0.010848 -0.002104 -0.003301 -0.006025
# 4 -0.008348 -0.005639 -0.002104 0.033006 -0.004399 0.004037
# 5 -0.005389 0.004222 -0.003301 -0.004399 0.049453 -0.003984
# 6 -0.032403 0.014219 -0.006025 0.004037 -0.003984 0.084752
#
#
# Mechanical properties :
#
#
# Convention : Reuss Voigt Hill
#
# Bulk Modulus (GPa) = 17.86405 41.53162 29.69783
# Shear Modulus (GPa) = 17.83638 29.35177 23.59407
#
# Velocity S-wave (km/s) = 2.76935 3.55257 3.18513
# Velocity P-wave (km/s) = 4.23166 5.88944 5.12799
#
# Compressibility (1/GPa) = 0.05597836
#
# Stress axis : x y z
#
# Youngs Moduli (GPa) = 20.00311 69.55387 92.18622
#
# Poissons Ratio (x) = 0.36205 -0.01857
# Poissons Ratio (y) = 0.10412 0.42549
# Poissons Ratio (z) = -0.00403 0.32103
#
# Static dielectric constant tensor:
#      x y z
#    x 1.837830 0.016440 -0.009160 
#    y 0.016440 1.851580 0.025020 
#    z -0.009160 0.025020 1.923300 
# 
# From -- ./inp_files/314374.got.cif
#   From: 2010.05.17/outbox.cif.g08.bks.cpg/sg2_158_cif.got.tgz:314374.got - 2010.06.03 11:33:40.
