data_PCOD9059696
_publ_section_title
;
Structure prediction by ZEFSAII (Michael W. Deem and Ramdas Pophale) SiO2 
 PCOD9059696
Probable space group: P -1
;
_chemical_formula_sum "Si O2"
_cell_formula_units_Z 14
_cell_length_a 10.450156
_cell_length_b 9.580711
_cell_length_c 13.776576
_cell_angle_alpha 57.677609
_cell_angle_beta 147.716444
_cell_angle_gamma 132.054679
_cell_volume 545.265809
_symmetry_space_group_name_H-M "P -1"
_symmetry_group_IT_number 2
_symmetry_cell_setting 'triclinic'
loop_
_space_group_symop_operation_xyz
x,y,z
-x,-y,-z
loop_
_atom_site_type_symbol
_atom_site_label
_atom_site_fract_x
_atom_site_fract_y
_atom_site_fract_z
Si Si1 0.421957 0.646350 0.842314
Si Si2 0.842330 0.083802 0.619705
Si Si3 0.716265 0.203364 0.687517
Si Si4 0.382411 0.393893 0.746907
Si Si5 0.258148 0.792748 0.946261
Si Si6 0.111648 0.925581 0.984107
Si Si7 0.877105 0.603838 0.612043
O O1 0.407746 0.579991 0.746411
O O2 0.135205 0.621791 0.706792
O O3 0.646425 0.858864 0.932105
O O4 0.500000 0.500000 0.000000
O O5 0.779902 0.202872 0.614769
O O6 0.116315 0.218089 0.689127
O O7 0.586522 0.969572 0.428710
O O8 0.878494 0.938669 0.768209
O O9 0.923748 0.164489 0.899423
O O10 0.737044 0.401305 0.648659
O O11 0.636081 0.358094 0.945004
O O12 0.326513 0.385634 0.599897
O O13 0.191641 0.801338 0.012001
O O14 0.013260 0.752816 0.730187
O O15 0.500000 0.000000 0.000000
#
# Coordination Sequence:
#
# PCOD9059696 Si02
#       7
#     2   2   2   2   2   2   2
#     4  12  20  42  73 104 133 171 234 291 333 387
#     4  11  23  42  67 102 137 175 224 279 342 402
#     4  11  27  42  65 104 141 182 221 274 346 413
#     4  12  25  42  76 104 134 174 231 291 339 393
#     4  12  25  47  72 103 133 180 233 282 340 402
#     4  12  25  46  72  98 140 181 227 283 339 405
#     4  12  25  43  69 103 141 175 229 282 340 405
#
# _framework density 25.675550000000001
#
# number of rings (size 3 to 8) (size 9 to 14) (size 15 to 20)
#    0.000    0.286    7.143    1.714    4.000    3.429 
#    0.000    1.429    0.000    0.000    0.000    0.000 
#    0.000    0.000    0.000    0.000    0.000    0.000 
#
# Total GULP energy -78491.722622 kJ/mol
# GULP energy per Si atom -5606.551616 kJ/mol
# Density = 2.561711 g / cm^3
# Si number density = 25.675550 Si / 1000 Ang^3
#
#
#
# Elastic Constant Matrix: (Units=GPa)
#
#
# Indices 1 2 3 4 5 6 
#
# 1 66.7413 21.7299 15.0325 10.1076 -10.1125 -14.1263
# 2 21.7299 73.0090 19.1133 15.0022 -21.4350 -7.3826
# 3 15.0325 19.1133 123.3615 -4.1353 -32.9846 4.5566
# 4 10.1076 15.0022 -4.1353 43.7206 -0.0284 -10.3829
# 5 -10.1125 -21.4350 -32.9846 -0.0284 41.3044 -2.7576
# 6 -14.1263 -7.3826 4.5566 -10.3829 -2.7576 32.5534
#
#
#
# Elastic Compliance Matrix: (Units=1/GPa)
#
#
# Indices 1 2 3 4 5 6 
#
# 1 0.018499 -0.003494 -0.001493 -0.001525 0.001998 0.007127
# 2 -0.003494 0.018618 -0.000399 -0.005176 0.008607 0.001840
# 3 -0.001493 -0.000399 0.010502 0.001203 0.007737 -0.001169
# 4 -0.001525 -0.005176 0.001203 0.026621 -0.001657 0.006346
# 5 0.001998 0.008607 0.007737 -0.001657 0.035626 0.004225
# 6 0.007127 0.001840 -0.001169 0.006346 0.004225 0.036775
#
#
# Mechanical properties :
#
#
# Convention : Reuss Voigt Hill
#
# Bulk Modulus (GPa) = 27.13917 41.65147 34.39532
# Shear Modulus (GPa) = 29.46440 37.33140 33.39790
#
# Velocity S-wave (km/s) = 3.39125 3.81723 3.61053
# Velocity P-wave (km/s) = 5.09187 5.97376 5.55035
#
# Compressibility (1/GPa) = 0.03684711
#
# Stress axis : x y z
#
# Youngs Moduli (GPa) = 54.05564 53.71136 95.21771
#
# Poissons Ratio (x) = 0.18769 0.14215
# Poissons Ratio (y) = 0.18890 0.03798
# Poissons Ratio (z) = 0.08070 0.02143
#
# Static dielectric constant tensor:
#      x y z
#    x 2.052910 -0.014640 0.002960 
#    y -0.014640 1.996870 -0.006060 
#    z 0.002960 -0.006060 1.993090 
# 
# From -- ./inp_files/188488.got.cif
#   From: 2010.05.17/outbox.cif.g08.bks.cpg/sg2_95_cif.got.tgz:188488.got - 2010.06.03 11:33:40.
