data_PCOD9059294
_publ_section_title
;
Structure prediction by ZEFSAII (Michael W. Deem and Ramdas Pophale) SiO2 
 PCOD9059294
Probable space group: P -1
;
_chemical_formula_sum "Si O2"
_cell_formula_units_Z 16
_cell_length_a 11.448353
_cell_length_b 16.802853
_cell_length_c 8.717597
_cell_angle_alpha 56.881273
_cell_angle_beta 125.155972
_cell_angle_gamma 79.925947
_cell_volume 802.953511
_symmetry_space_group_name_H-M "P -1"
_symmetry_group_IT_number 2
_symmetry_cell_setting 'triclinic'
loop_
_space_group_symop_operation_xyz
x,y,z
-x,-y,-z
loop_
_atom_site_type_symbol
_atom_site_label
_atom_site_fract_x
_atom_site_fract_y
_atom_site_fract_z
Si Si1 0.849084 0.799817 0.169838
Si Si2 0.481115 0.619855 0.212426
Si Si3 0.566329 0.091841 0.785804
Si Si4 0.511550 0.829245 0.996030
Si Si5 0.294729 0.644009 0.758159
Si Si6 0.209330 0.848267 0.275665
Si Si7 0.210059 0.683600 0.205260
Si Si8 0.762941 0.880131 0.658439
O O1 0.090152 0.688757 0.501378
O O2 0.732458 0.761480 0.179113
O O3 0.788903 0.848023 0.894790
O O4 0.750227 0.930808 0.060085
O O5 0.386998 0.648844 0.277531
O O6 0.695264 0.462765 0.522454
O O7 0.493464 0.725097 0.077434
O O8 0.323164 0.637823 0.966880
O O9 0.635610 0.154632 0.686706
O O10 0.374186 0.134892 0.510480
O O11 0.527739 0.124827 0.902774
O O12 0.351209 0.966278 0.627524
O O13 0.291692 0.754926 0.584116
O O14 0.500000 0.500000 0.000000
O O15 0.167636 0.779284 0.205709
O O16 0.000000 0.000000 0.000000
O O17 0.988823 0.774355 0.869062
#
# Coordination Sequence:
#
# PCOD9059294 Si02
#       8
#     2   2   2   2   2   2   2   2
#     4  11  23  42  64  97 135 168 212 274 323 377
#     4  11  26  43  67  92 138 169 216 266 324 390
#     4  11  23  41  64  99 130 167 215 273 320 381
#     4  11  25  41  66  99 128 170 221 260 324 393
#     4  12  25  43  67  94 129 173 217 268 322 382
#     4  12  23  42  68  94 130 167 223 268 318 384
#     4  11  24  47  63  96 133 172 211 272 327 380
#     4  11  23  41  68  92 133 169 216 266 326 373
#
# _framework density 19.926435999999999
#
# number of rings (size 3 to 8) (size 9 to 14) (size 15 to 20)
#    0.000    0.750    5.000    3.000    8.750    0.500 
#    2.250    1.875    0.000    0.000    0.000    0.000 
#    0.000    0.000    0.000    0.000    0.000    0.000 
#
# Total GULP energy -89316.867273 kJ/mol
# GULP energy per Si atom -5582.304205 kJ/mol
# Density = 1.988108 g / cm^3
# Si number density = 19.926436 Si / 1000 Ang^3
#
#
#
# Elastic Constant Matrix: (Units=GPa)
#
#
# Indices 1 2 3 4 5 6 
#
# 1 104.0258 34.7766 43.6881 -9.9929 11.2202 14.9375
# 2 34.7766 111.0753 55.6105 -9.1450 6.0335 -4.1681
# 3 43.6881 55.6105 131.4268 -10.7619 21.9751 10.4125
# 4 -9.9929 -9.1450 -10.7619 23.8098 -2.2560 -2.6760
# 5 11.2202 6.0335 21.9751 -2.2560 32.0902 0.8531
# 6 14.9375 -4.1681 10.4125 -2.6760 0.8531 30.0493
#
#
#
# Elastic Compliance Matrix: (Units=1/GPa)
#
#
# Indices 1 2 3 4 5 6 
#
# 1 0.012709 -0.002881 -0.001976 0.002478 -0.002222 -0.005749
# 2 -0.002881 0.012642 -0.004955 0.002167 0.002042 0.005037
# 3 -0.001976 -0.004955 0.011818 0.001625 -0.006264 -0.003478
# 4 0.002478 0.002167 0.001625 0.044953 0.000708 0.002489
# 5 -0.002222 0.002042 -0.006264 0.000708 0.035825 0.002604
# 6 -0.005749 0.005037 -0.003478 0.002489 0.002604 0.038188
#
#
# Mechanical properties :
#
#
# Convention : Reuss Voigt Hill
#
# Bulk Modulus (GPa) = 56.99192 68.29757 62.64474
# Shear Modulus (GPa) = 27.53211 31.35339 29.44275
#
# Velocity S-wave (km/s) = 3.72114 3.97099 3.84809
# Velocity P-wave (km/s) = 6.86482 7.44139 7.15891
#
# Compressibility (1/GPa) = 0.01754635
#
# Stress axis : x y z
#
# Youngs Moduli (GPa) = 78.68384 79.10171 84.61734
#
# Poissons Ratio (x) = 0.22789 0.16719
# Poissons Ratio (y) = 0.22668 0.41924
# Poissons Ratio (z) = 0.15546 0.39191
#
# Static dielectric constant tensor:
#      x y z
#    x 1.738480 -0.033810 -0.027710 
#    y -0.033810 1.716770 0.030150 
#    z -0.027710 0.030150 1.733110 
# 
# From -- ./inp_files/278205.got.cif
#   From: 2010.05.17/outbox.cif.g08.bks.cpg/sg2_140_cif.got.tgz:278205.got - 2010.06.03 11:33:40.
