data_PCOD9059025
_publ_section_title
;
Structure prediction by ZEFSAII (Michael W. Deem and Ramdas Pophale) SiO2 
 PCOD9059025
Probable space group: P -1
;
_chemical_formula_sum "Si O2"
_cell_formula_units_Z 14
_cell_length_a 8.774806
_cell_length_b 8.583323
_cell_length_c 25.546146
_cell_angle_alpha 41.646103
_cell_angle_beta 139.076101
_cell_angle_gamma 109.919088
_cell_volume 718.234090
_symmetry_space_group_name_H-M "P -1"
_symmetry_group_IT_number 2
_symmetry_cell_setting 'triclinic'
loop_
_space_group_symop_operation_xyz
x,y,z
-x,-y,-z
loop_
_atom_site_type_symbol
_atom_site_label
_atom_site_fract_x
_atom_site_fract_y
_atom_site_fract_z
Si Si1 0.009672 0.742162 0.807242
Si Si2 0.655032 0.266878 0.642070
Si Si3 0.516444 0.591387 0.619799
Si Si4 0.466861 0.354909 0.857861
Si Si5 0.845630 0.324602 0.877605
Si Si6 0.723661 0.042483 0.110419
Si Si7 0.900872 0.816957 0.637221
O O1 0.249669 0.780585 0.881571
O O2 0.036181 0.453906 0.896980
O O3 0.971104 0.799326 0.721489
O O4 0.739355 0.977407 0.709060
O O5 0.500000 0.500000 0.500000
O O6 0.492223 0.391331 0.622423
O O7 0.960122 0.191948 0.755280
O O8 0.679783 0.432962 0.753294
O O9 0.685560 0.714207 0.604263
O O10 0.240550 0.866459 0.494698
O O11 0.645372 0.424518 0.849912
O O12 0.172267 0.613337 0.727986
O O13 0.435545 0.115168 0.882838
O O14 0.610124 0.223185 0.983454
O O15 0.000000 0.000000 0.000000
#
# Coordination Sequence:
#
# PCOD9059025 Si02
#       7
#     2   2   2   2   2   2   2
#     4   9  21  38  61  91 115 156 205 242 298 359
#     4  10  17  37  64  90 113 152 209 247 285 346
#     4  10  19  37  60  87 119 160 202 241 295 368
#     4  11  22  39  59  90 126 156 197 253 305 350
#     4  11  25  40  58  89 125 161 197 246 311 359
#     4   9  21  37  62  87 118 158 205 247 290 354
#     4  10  19  35  63  87 114 160 205 243 294 358
#
# _framework density 19.492251
#
# number of rings (size 3 to 8) (size 9 to 14) (size 15 to 20)
#    0.857    1.143    2.857    0.857    6.000    1.714 
#    0.000    0.000    0.000    2.571    0.000    0.000 
#    0.000    0.000    0.000    0.000    0.000    0.000 
#
# Total GULP energy -77981.503604 kJ/mol
# GULP energy per Si atom -5570.107400 kJ/mol
# Density = 1.944789 g / cm^3
# Si number density = 19.492251 Si / 1000 Ang^3
#
#
#
# Elastic Constant Matrix: (Units=GPa)
#
#
# Indices 1 2 3 4 5 6 
#
# 1 26.2799 5.3232 10.8013 -5.6462 8.9049 -8.7624
# 2 5.3232 96.0123 17.8747 -17.0540 1.1750 -8.7238
# 3 10.8013 17.8747 90.7497 -18.3899 13.5133 0.2682
# 4 -5.6462 -17.0540 -18.3899 25.6950 -3.0419 6.7801
# 5 8.9049 1.1750 13.5133 -3.0419 24.1841 -7.2340
# 6 -8.7624 -8.7238 0.2682 6.7801 -7.2340 20.2002
#
#
#
# Elastic Compliance Matrix: (Units=1/GPa)
#
#
# Indices 1 2 3 4 5 6 
#
# 1 0.049388 0.000074 -0.003861 0.002423 -0.010681 0.016869
# 2 0.000074 0.012125 -0.001474 0.006216 0.002180 0.003982
# 3 -0.003861 -0.001474 0.015147 0.010398 -0.008352 -0.008994
# 4 0.002423 0.006216 0.010398 0.054801 -0.005082 -0.016616
# 5 -0.010681 0.002180 -0.008352 -0.005082 0.054479 0.017635
# 6 0.016869 0.003982 -0.008994 -0.016616 0.017635 0.070554
#
#
# Mechanical properties :
#
#
# Convention : Reuss Voigt Hill
#
# Bulk Modulus (GPa) = 15.11995 31.22670 23.17333
# Shear Modulus (GPa) = 17.29740 25.95206 21.62473
#
# Velocity S-wave (km/s) = 2.98216 3.65280 3.33438
# Velocity P-wave (km/s) = 4.43073 5.81768 5.17092
#
# Compressibility (1/GPa) = 0.06613777
#
# Stress axis : x y z
#
# Youngs Moduli (GPa) = 20.24787 82.47488 66.02125
#
# Poissons Ratio (x) = -0.00614 0.25494
# Poissons Ratio (y) = -0.00151 0.09730
# Poissons Ratio (z) = 0.07819 0.12155
#
# Static dielectric constant tensor:
#      x y z
#    x 1.666370 -0.017230 0.052450 
#    y -0.017230 1.712600 -0.022080 
#    z 0.052450 -0.022080 1.680470 
# 
# From -- ./inp_files/469797.got.cif
#   From: 2010.05.17/outbox.cif.g08.bks.cpg/sg2_235_cif.got.tgz:469797.got - 2010.06.03 11:33:40.
