data_PCOD9059268
_publ_section_title
;
Structure prediction by ZEFSAII (Michael W. Deem and Ramdas Pophale) SiO2 
 PCOD9059268
Probable space group: P -1
;
_chemical_formula_sum "Si O2"
_cell_formula_units_Z 16
_cell_length_a 22.302433
_cell_length_b 5.605800
_cell_length_c 5.195422
_cell_angle_alpha 89.503315
_cell_angle_beta 76.816676
_cell_angle_gamma 63.362784
_cell_volume 562.026935
_symmetry_space_group_name_H-M "P -1"
_symmetry_group_IT_number 2
_symmetry_cell_setting 'triclinic'
loop_
_space_group_symop_operation_xyz
x,y,z
-x,-y,-z
loop_
_atom_site_type_symbol
_atom_site_label
_atom_site_fract_x
_atom_site_fract_y
_atom_site_fract_z
Si Si1 0.844833 0.369241 0.327359
Si Si2 0.644679 0.508870 0.061849
Si Si3 0.893252 0.057018 0.781108
Si Si4 0.718530 0.853166 0.578223
Si Si5 0.230713 0.989221 0.976060
Si Si6 0.524658 0.707390 0.845195
Si Si7 0.403711 0.910144 0.632050
Si Si8 0.975372 0.407087 0.274701
O O1 0.874320 0.124645 0.501916
O O2 0.763907 0.544803 0.457578
O O3 0.894397 0.499863 0.357064
O O4 0.860990 0.299139 0.014382
O O5 0.606623 0.564637 0.820906
O O6 0.618156 0.311325 0.231857
O O7 0.624441 0.797562 0.205278
O O8 0.726426 0.323734 0.984663
O O9 0.850498 0.899458 0.910191
O O10 0.974416 0.912261 0.759962
O O11 0.739002 0.881914 0.845424
O O12 0.636403 0.000999 0.601009
O O13 0.749779 0.979931 0.333716
O O14 0.500000 0.500000 0.000000
O O15 0.486190 0.775790 0.605889
O O16 0.500000 0.000000 0.000000
O O17 0.000000 0.500000 0.500000
O O18 0.000000 0.500000 0.000000
#
# Coordination Sequence:
#
# PCOD9059268 Si02
#       8
#     2   2   2   2   2   2   2   2
#     4  12  24  41  64  93 125 164 212 268 326 394
#     4   9  18  34  58  89 125 167 215 269 328 393
#     4  12  24  41  64  93 125 164 212 268 326 394
#     4  11  23  41  62  91 125 167 212 264 326 396
#     4  11  23  41  62  91 125 167 212 264 326 396
#     4   8  14  28  53  84 120 162 210 264 324 388
#     4   9  18  34  58  89 125 167 215 269 328 393
#     4  12  24  42  64  90 126 168 212 266 326 396
#
# _framework density 28.468384
#
# number of rings (size 3 to 8) (size 9 to 14) (size 15 to 20)
#    0.000    1.500    0.000    6.000    0.000    2.000 
#    0.000    0.625    0.000    0.000    0.000   27.125 
#    0.000    0.000    0.000    0.000    0.000    0.000 
#
# Total GULP energy -89527.885819 kJ/mol
# GULP energy per Si atom -5595.492864 kJ/mol
# Density = 2.840359 g / cm^3
# Si number density = 28.468384 Si / 1000 Ang^3
#
#
#
# Elastic Constant Matrix: (Units=GPa)
#
#
# Indices 1 2 3 4 5 6 
#
# 1 123.7325 40.9867 50.3821 -20.7896 26.7388 -4.2415
# 2 40.9867 144.2131 41.1764 -0.5476 -2.7441 -0.2330
# 3 50.3821 41.1764 87.0797 -2.3653 -1.6493 19.1572
# 4 -20.7896 -0.5476 -2.3653 59.0984 17.7708 4.4331
# 5 26.7388 -2.7441 -1.6493 17.7708 48.7742 -8.9831
# 6 -4.2415 -0.2330 19.1572 4.4331 -8.9831 64.0198
#
#
#
# Elastic Compliance Matrix: (Units=1/GPa)
#
#
# Indices 1 2 3 4 5 6 
#
# 1 0.016929 -0.002476 -0.008904 0.009351 -0.012885 0.001322
# 2 -0.002476 0.008497 -0.002850 -0.001783 0.002612 0.001210
# 3 -0.008904 -0.002850 0.019149 -0.003729 0.005758 -0.005264
# 4 0.009351 -0.001783 -0.003729 0.024617 -0.014698 -0.002038
# 5 -0.012885 0.002612 0.005758 -0.014698 0.033852 0.003201
# 6 0.001322 0.001210 -0.005264 -0.002038 0.003201 0.017878
#
#
# Mechanical properties :
#
#
# Convention : Reuss Voigt Hill
#
# Bulk Modulus (GPa) = 62.06145 68.90173 65.48159
# Shear Modulus (GPa) = 32.30915 49.21049 40.75982
#
# Velocity S-wave (km/s) = 3.37250 4.16216 3.78796
# Velocity P-wave (km/s) = 6.08379 6.88139 6.49484
#
# Compressibility (1/GPa) = 0.01611306
#
# Stress axis : x y z
#
# Youngs Moduli (GPa) = 59.07009 117.69384 52.22163
#
# Poissons Ratio (x) = 0.29147 0.46501
# Poissons Ratio (y) = 0.14629 0.14883
# Poissons Ratio (z) = 0.52599 0.33542
#
# Static dielectric constant tensor:
#      x y z
#    x 2.176660 0.017070 -0.006790 
#    y 0.017070 2.326490 0.040370 
#    z -0.006790 0.040370 2.199130 
# 
# From -- ./inp_files/13577.got.cif
#   From: 2010.05.17/outbox.cif.g08.bks.cpg/sg2_7_cif.got.tgz:13577.got - 2010.06.03 11:33:40.
