data_PCOD9059023
_publ_section_title
;
Structure prediction by ZEFSAII (Michael W. Deem and Ramdas Pophale) SiO2 
 PCOD9059023
Probable space group: P -1
;
_chemical_formula_sum "Si O2"
_cell_formula_units_Z 16
_cell_length_a 5.049749
_cell_length_b 22.688353
_cell_length_c 5.069701
_cell_angle_alpha 93.673201
_cell_angle_beta 99.462595
_cell_angle_gamma 87.882029
_cell_volume 571.551706
_symmetry_space_group_name_H-M "P -1"
_symmetry_group_IT_number 2
_symmetry_cell_setting 'triclinic'
loop_
_space_group_symop_operation_xyz
x,y,z
-x,-y,-z
loop_
_atom_site_type_symbol
_atom_site_label
_atom_site_fract_x
_atom_site_fract_y
_atom_site_fract_z
Si Si1 0.495631 0.628730 0.828876
Si Si2 0.201820 0.700395 0.202125
Si Si3 0.999268 0.457289 0.238007
Si Si4 0.040606 0.930577 0.920067
Si Si5 0.160484 0.293399 0.377452
Si Si6 0.680037 0.165326 0.842979
Si Si7 0.556622 0.069043 0.490360
Si Si8 0.277600 0.162524 0.258700
O O1 0.748409 0.586609 0.783197
O O2 0.546732 0.682055 0.643376
O O3 0.255108 0.583435 0.776230
O O4 0.451512 0.661418 0.111966
O O5 0.259398 0.769874 0.248898
O O6 0.015076 0.679645 0.405609
O O7 0.004342 0.697798 0.915303
O O8 0.000000 0.500000 0.500000
O O9 0.000000 0.500000 0.000000
O O10 0.187052 0.926911 0.659444
O O11 0.014371 0.851968 0.965606
O O12 0.291254 0.917119 0.180515
O O13 0.000000 0.000000 0.000000
O O14 0.174208 0.223243 0.396117
O O15 0.480473 0.143298 0.550846
O O16 0.483656 0.176939 0.062252
O O17 0.281152 0.083704 0.235705
O O18 0.500000 0.000000 0.500000
#
# Coordination Sequence:
#
# PCOD9059023 Si02
#       8
#     2   2   2   2   2   2   2   2
#     4  12  28  56  88 127 176 222 284 334 408 488
#     4  12  28  48  79 119 163 211 274 339 414 486
#     4  12  30  55  89 128 176 228 275 334 397 478
#     4  11  23  40  62  88 131 185 253 320 399 485
#     4  12  28  48  80 119 162 214 271 341 413 487
#     4  11  24  42  66  98 143 188 257 329 407 483
#     4  11  25  41  62  96 133 191 257 330 407 494
#     4  11  24  42  66  99 141 191 253 330 408 481
#
# _framework density 27.993964999999999
#
# number of rings (size 3 to 8) (size 9 to 14) (size 15 to 20)
#    0.000    0.500    3.750    3.000    5.250    9.000 
#    0.000    0.000    0.000    0.000    0.000    0.000 
#    0.000    0.000    0.000    0.000    0.000    0.000 
#
# Total GULP energy -89542.096685 kJ/mol
# GULP energy per Si atom -5596.381043 kJ/mol
# Density = 2.793025 g / cm^3
# Si number density = 27.993965 Si / 1000 Ang^3
#
#
#
# Elastic Constant Matrix: (Units=GPa)
#
#
# Indices 1 2 3 4 5 6 
#
# 1 213.8322 69.7128 57.1780 13.1387 -20.2373 24.3378
# 2 69.7128 220.6724 54.6531 23.5989 6.4294 22.6533
# 3 57.1780 54.6531 213.1367 3.6748 -21.3131 14.3052
# 4 13.1387 23.5989 3.6748 35.9628 7.4392 -14.9147
# 5 -20.2373 6.4294 -21.3131 7.4392 64.9916 6.0904
# 6 24.3378 22.6533 14.3052 -14.9147 6.0904 61.8279
#
#
#
# Elastic Compliance Matrix: (Units=1/GPa)
#
#
# Indices 1 2 3 4 5 6 
#
# 1 0.005979 -0.001161 -0.000850 -0.002910 0.002280 -0.002658
# 2 -0.001161 0.005864 -0.001014 -0.004204 -0.000567 -0.002415
# 3 -0.000850 -0.001014 0.005407 -0.000251 0.001710 -0.000774
# 4 -0.002910 -0.004204 -0.000251 0.038120 -0.006111 0.012542
# 5 0.002280 -0.000567 0.001710 -0.006111 0.017817 -0.004315
# 6 -0.002658 -0.002415 -0.000774 0.012542 -0.004315 0.021735
#
#
# Mechanical properties :
#
#
# Convention : Reuss Voigt Hill
#
# Bulk Modulus (GPa) = 89.28157 112.30325 100.79241
# Shear Modulus (GPa) = 47.75291 63.62963 55.69127
#
# Velocity S-wave (km/s) = 4.13465 4.77275 4.46511
# Velocity P-wave (km/s) = 7.39974 8.40096 7.91620
#
# Compressibility (1/GPa) = 0.01120052
#
# Stress axis : x y z
#
# Youngs Moduli (GPa) = 167.23963 170.54473 184.93961
#
# Poissons Ratio (x) = 0.19797 0.15716
# Poissons Ratio (y) = 0.19413 0.18757
# Poissons Ratio (z) = 0.14212 0.17297
#
# Static dielectric constant tensor:
#      x y z
#    x 2.356360 -0.029660 0.287430 
#    y -0.029660 2.300560 0.001580 
#    z 0.287430 0.001580 2.193430 
# 
# From -- ./inp_files/11284.got.cif
#   From: 2010.05.17/outbox.cif.g08.bks.cpg/sg2_6_cif.got.tgz:11284.got - 2010.06.03 11:33:40.
