data_PCOD9059823
_publ_section_title
;
Structure prediction by ZEFSAII (Michael W. Deem and Ramdas Pophale) SiO2 
 PCOD9059823
Probable space group: P -1
;
_chemical_formula_sum "Si O2"
_cell_formula_units_Z 14
_cell_length_a 8.041759
_cell_length_b 11.190890
_cell_length_c 14.238354
_cell_angle_alpha 150.771603
_cell_angle_beta 82.371603
_cell_angle_gamma 87.964723
_cell_volume 589.037924
_symmetry_space_group_name_H-M "P -1"
_symmetry_group_IT_number 2
_symmetry_cell_setting 'triclinic'
loop_
_space_group_symop_operation_xyz
x,y,z
-x,-y,-z
loop_
_atom_site_type_symbol
_atom_site_label
_atom_site_fract_x
_atom_site_fract_y
_atom_site_fract_z
Si Si1 0.692324 0.197682 0.884406
Si Si2 0.356148 0.250959 0.505990
Si Si3 0.748908 0.956795 0.920509
Si Si4 0.837401 0.317938 0.314347
Si Si5 0.053518 0.979507 0.591014
Si Si6 0.673774 0.760420 0.298752
Si Si7 0.312687 0.551787 0.382227
O O1 0.885972 0.085877 0.744800
O O2 0.580441 0.048420 0.732462
O O3 0.693187 0.112420 0.934536
O O4 0.635579 0.504889 0.091954
O O5 0.238621 0.399719 0.531058
O O6 0.244972 0.305478 0.647238
O O7 0.514314 0.366214 0.589409
O O8 0.650827 0.752421 0.817467
O O9 0.952556 0.779862 0.768856
O O10 0.762221 0.140702 0.131112
O O11 0.765886 0.324004 0.427727
O O12 0.188362 0.146683 0.707869
O O13 0.168232 0.687970 0.408822
O O14 0.000000 0.000000 0.500000
O O15 0.500000 0.000000 0.500000
#
# Coordination Sequence:
#
# PCOD9059823 Si02
#       7
#     2   2   2   2   2   2   2
#     4  12  25  47  76 101 141 194 238 293 360 414
#     4  12  25  44  71 103 146 189 233 295 354 423
#     4  11  24  41  73 105 139 185 234 294 355 421
#     4  11  23  42  69 105 144 181 235 289 355 422
#     4  12  26  48  75 104 142 191 243 293 348 429
#     4  12  27  51  69 102 146 186 243 298 349 424
#     4  12  25  44  68 106 147 182 234 295 357 417
#
# _framework density 23.767569999999999
#
# number of rings (size 3 to 8) (size 9 to 14) (size 15 to 20)
#    0.000    0.286    7.143    2.143    0.000    2.286 
#    2.571    0.000    0.000    0.000    0.000    0.000 
#    0.000    0.000    0.000    0.000    0.000    0.000 
#
# Total GULP energy -78430.442771 kJ/mol
# GULP energy per Si atom -5602.174484 kJ/mol
# Density = 2.371347 g / cm^3
# Si number density = 23.767570 Si / 1000 Ang^3
#
#
#
# Elastic Constant Matrix: (Units=GPa)
#
#
# Indices 1 2 3 4 5 6 
#
# 1 96.3716 34.8618 40.7389 13.3565 10.0267 25.2858
# 2 34.8618 132.1694 38.4163 8.5237 1.0983 9.7373
# 3 40.7389 38.4163 144.7367 25.9249 22.6923 12.3795
# 4 13.3565 8.5237 25.9249 47.3957 0.3246 6.1677
# 5 10.0267 1.0983 22.6923 0.3246 35.4037 13.8813
# 6 25.2858 9.7373 12.3795 6.1677 13.8813 42.4991
#
#
#
# Elastic Compliance Matrix: (Units=1/GPa)
#
#
# Indices 1 2 3 4 5 6 
#
# 1 0.014383 -0.002415 -0.002655 -0.001229 0.000550 -0.007232
# 2 -0.002415 0.008784 -0.001936 0.000234 0.001913 -0.000671
# 3 -0.002655 -0.001936 0.009771 -0.004443 -0.006124 0.001822
# 4 -0.001229 0.000234 -0.004443 0.024180 0.004094 -0.002874
# 5 0.000550 0.001913 -0.006124 0.004094 0.036416 -0.011470
# 6 -0.007232 -0.000671 0.001822 -0.002874 -0.011470 0.031619
#
#
# Mechanical properties :
#
#
# Convention : Reuss Voigt Hill
#
# Bulk Modulus (GPa) = 52.83777 66.81240 59.82508
# Shear Modulus (GPa) = 34.37070 42.34375 38.35722
#
# Velocity S-wave (km/s) = 3.80691 4.22545 4.02163
# Velocity P-wave (km/s) = 6.45002 7.20956 6.84034
#
# Compressibility (1/GPa) = 0.01892586
#
# Stress axis : x y z
#
# Youngs Moduli (GPa) = 69.52667 113.84087 102.34868
#
# Poissons Ratio (x) = 0.27487 0.27173
# Poissons Ratio (y) = 0.16787 0.19819
# Poissons Ratio (z) = 0.18459 0.22045
#
# Static dielectric constant tensor:
#      x y z
#    x 1.923020 0.001230 0.007660 
#    y 0.001230 1.931400 0.039330 
#    z 0.007660 0.039330 1.891830 
# 
# From -- ./inp_files/501132.got.cif
#   From: 2010.05.17/outbox.cif.g08.bks.cpg/sg2_251_cif.got.tgz:501132.got - 2010.06.03 11:33:40.
