data_PCOD9059299
_publ_section_title
;
Structure prediction by ZEFSAII (Michael W. Deem and Ramdas Pophale) SiO2 
 PCOD9059299
Probable space group: P -1
;
_chemical_formula_sum "Si O2"
_cell_formula_units_Z 16
_cell_length_a 15.090562
_cell_length_b 8.646021
_cell_length_c 15.088308
_cell_angle_alpha 101.301251
_cell_angle_beta 28.485458
_cell_angle_gamma 118.495123
_cell_volume 698.248651
_symmetry_space_group_name_H-M "P -1"
_symmetry_group_IT_number 2
_symmetry_cell_setting 'triclinic'
loop_
_space_group_symop_operation_xyz
x,y,z
-x,-y,-z
loop_
_atom_site_type_symbol
_atom_site_label
_atom_site_fract_x
_atom_site_fract_y
_atom_site_fract_z
Si Si1 0.962254 0.217142 0.749965
Si Si2 0.934490 0.377635 0.334518
Si Si3 0.544877 0.086965 0.791042
Si Si4 0.232274 0.926444 0.708497
Si Si5 0.324587 0.280711 0.547084
Si Si6 0.296056 0.521694 0.191637
Si Si7 0.118844 0.895917 0.387108
Si Si8 0.872207 0.601095 0.122401
O O1 0.834897 0.122263 0.756511
O O2 0.089597 0.455451 0.654944
O O3 0.149138 0.181271 0.605075
O O4 0.738561 0.090059 0.000504
O O5 0.704048 0.198663 0.576381
O O6 0.924035 0.265095 0.244573
O O7 0.169923 0.488807 0.204251
O O8 0.597028 0.267551 0.828219
O O9 0.645288 0.992995 0.746676
O O10 0.500000 0.000000 0.500000
O O11 0.280310 0.117195 0.637739
O O12 0.065309 0.826269 0.931910
O O13 0.607584 0.443007 0.288952
O O14 0.225512 0.383033 0.696316
O O15 0.078826 0.333621 0.423166
O O16 0.500000 0.500000 0.000000
O O17 0.000000 0.000000 0.500000
O O18 0.000000 0.500000 0.000000
#
# Coordination Sequence:
#
# PCOD9059299 Si02
#       8
#     2   2   2   2   2   2   2   2
#     4  12  25  43  70 101 140 184 240 282 356 428
#     4  11  26  45  67 104 140 188 237 292 358 422
#     4  11  24  45  69  98 146 185 234 297 348 419
#     4  12  27  47  77 104 145 187 241 301 367 428
#     4  11  28  45  75 111 137 187 243 292 369 434
#     4  11  23  43  68  98 145 185 235 290 352 420
#     4  11  23  41  65 100 140 186 231 285 347 421
#     4  11  24  52  75 101 144 183 234 308 363 422
#
# _framework density 22.914472
#
# number of rings (size 3 to 8) (size 9 to 14) (size 15 to 20)
#    0.000    0.750    3.750    3.000   10.500    3.000 
#    0.000    0.000    0.000    0.000    0.000    0.000 
#    0.000    0.000    0.000    0.000    0.000    0.000 
#
# Total GULP energy -89512.947124 kJ/mol
# GULP energy per Si atom -5594.559195 kJ/mol
# Density = 2.286232 g / cm^3
# Si number density = 22.914472 Si / 1000 Ang^3
#
#
#
# Elastic Constant Matrix: (Units=GPa)
#
#
# Indices 1 2 3 4 5 6 
#
# 1 102.3247 10.4366 37.7524 -3.6595 -13.7661 -31.1433
# 2 10.4366 58.1891 -0.4060 10.3833 1.7972 -27.1211
# 3 37.7524 -0.4060 131.5400 -4.8824 -18.0239 -21.5469
# 4 -3.6595 10.3833 -4.8824 38.8982 -2.5648 4.3101
# 5 -13.7661 1.7972 -18.0239 -2.5648 35.3790 10.6574
# 6 -31.1433 -27.1211 -21.5469 4.3101 10.6574 37.9486
#
#
#
# Elastic Compliance Matrix: (Units=1/GPa)
#
#
# Indices 1 2 3 4 5 6 
#
# 1 0.014140 0.004018 -0.001860 -0.001465 0.000166 0.013540
# 2 0.004018 0.035090 0.002690 -0.013111 -0.010111 0.034232
# 3 -0.001860 0.002690 0.009284 -0.000130 0.002347 0.005024
# 4 -0.001465 -0.013111 -0.000130 0.031325 0.007188 -0.016222
# 5 0.000166 -0.010111 0.002347 0.007188 0.035548 -0.016557
# 6 0.013540 0.034232 0.005024 -0.016222 -0.016557 0.071273
#
#
# Mechanical properties :
#
#
# Convention : Reuss Voigt Hill
#
# Bulk Modulus (GPa) = 14.66025 43.06886 28.86456
# Shear Modulus (GPa) = 23.84367 38.72988 31.28678
#
# Velocity S-wave (km/s) = 3.22926 4.11566 3.69910
# Velocity P-wave (km/s) = 4.50731 6.43592 5.55594
#
# Compressibility (1/GPa) = 0.06821165
#
# Stress axis : x y z
#
# Youngs Moduli (GPa) = 70.72186 28.49792 107.71328
#
# Poissons Ratio (x) = -0.11450 0.20030
# Poissons Ratio (y) = -0.28416 -0.28980
# Poissons Ratio (z) = 0.13152 -0.07667
#
# Static dielectric constant tensor:
#      x y z
#    x 1.905530 0.025880 -0.020770 
#    y 0.025880 1.860940 0.015980 
#    z -0.020770 0.015980 1.782310 
# 
# From -- ./inp_files/505037.got.cif
#   From: 2010.05.17/outbox.cif.g08.bks.cpg/sg2_253_cif.got.tgz:505037.got - 2010.06.03 11:33:40.
