data_PCOD9059350
_publ_section_title
;
Structure prediction by ZEFSAII (Michael W. Deem and Ramdas Pophale) SiO2 
 PCOD9059350
Probable space group: P -1
;
_chemical_formula_sum "Si O2"
_cell_formula_units_Z 14
_cell_length_a 7.518611
_cell_length_b 16.072042
_cell_length_c 6.737994
_cell_angle_alpha 102.577925
_cell_angle_beta 65.898545
_cell_angle_gamma 130.023279
_cell_volume 567.984603
_symmetry_space_group_name_H-M "P -1"
_symmetry_group_IT_number 2
_symmetry_cell_setting 'triclinic'
loop_
_space_group_symop_operation_xyz
x,y,z
-x,-y,-z
loop_
_atom_site_type_symbol
_atom_site_label
_atom_site_fract_x
_atom_site_fract_y
_atom_site_fract_z
Si Si1 0.662857 0.932022 0.559323
Si Si2 0.815536 0.212249 0.543814
Si Si3 0.349588 0.701567 0.588101
Si Si4 0.718819 0.711867 0.893610
Si Si5 0.960051 0.286087 0.929262
Si Si6 0.665643 0.479438 0.289582
Si Si7 0.143357 0.070973 0.163148
O O1 0.416938 0.890732 0.526328
O O2 0.626457 0.817402 0.508024
O O3 0.700978 0.953900 0.788874
O O4 0.909599 0.030925 0.391235
O O5 0.775906 0.302537 0.560662
O O6 0.073016 0.256787 0.348710
O O7 0.824969 0.201187 0.767057
O O8 0.310850 0.595876 0.617740
O O9 0.219116 0.725429 0.826826
O O10 0.834696 0.715691 0.052165
O O11 0.476210 0.594502 0.879359
O O12 0.691848 0.805257 0.922985
O O13 0.097449 0.404453 0.831339
O O14 0.500000 0.500000 0.500000
O O15 0.000000 0.000000 0.000000
#
# Coordination Sequence:
#
# PCOD9059350 Si02
#       7
#     2   2   2   2   2   2   2
#     4   9  22  43  65  90 128 157 214 264 314 379
#     4   9  21  42  65  90 129 166 209 261 320 371
#     4   9  22  43  64  91 128 164 215 264 300 387
#     4  11  23  43  61  97 133 157 219 268 302 388
#     4  11  23  41  66  95 130 174 212 252 325 375
#     4  12  23  42  66  95 131 174 207 265 321 366
#     4  11  24  41  69  95 121 170 210 262 329 373
#
# _framework density 24.648551999999999
#
# number of rings (size 3 to 8) (size 9 to 14) (size 15 to 20)
#    0.857    0.857    2.857    0.857    2.000    4.571 
#    5.143    1.429    0.000    0.000    0.000    0.000 
#    0.000    0.000    0.000    0.000    0.000    0.000 
#
# Total GULP energy -78174.493294 kJ/mol
# GULP energy per Si atom -5583.892378 kJ/mol
# Density = 2.459245 g / cm^3
# Si number density = 24.648552 Si / 1000 Ang^3
#
#
#
# Elastic Constant Matrix: (Units=GPa)
#
#
# Indices 1 2 3 4 5 6 
#
# 1 78.8483 31.3423 34.1641 10.8501 42.2470 3.8131
# 2 31.3423 102.4743 26.1455 -17.5692 17.5452 3.7634
# 3 34.1641 26.1455 93.8526 7.6627 39.5331 7.8138
# 4 10.8501 -17.5692 7.6627 35.2760 14.2950 10.1538
# 5 42.2470 17.5452 39.5331 14.2950 49.0195 -2.5582
# 6 3.8131 3.7634 7.8138 10.1538 -2.5582 47.8436
#
#
#
# Elastic Compliance Matrix: (Units=1/GPa)
#
#
# Indices 1 2 3 4 5 6 
#
# 1 0.025677 -0.004579 0.001236 -0.000984 -0.021348 -0.002821
# 2 -0.004579 0.014077 -0.001565 0.010895 -0.003162 -0.002968
# 3 0.001236 -0.001565 0.017256 0.002515 -0.015372 -0.004149
# 4 -0.000984 0.010895 0.002515 0.044428 -0.018642 -0.011615
# 5 -0.021348 -0.003162 -0.015372 -0.018642 0.058366 0.011538
# 6 -0.002821 -0.002968 -0.004149 -0.011615 0.011538 0.025119
#
#
# Mechanical properties :
#
#
# Convention : Reuss Voigt Hill
#
# Bulk Modulus (GPa) = 21.18920 50.94210 36.06565
# Shear Modulus (GPa) = 23.75629 38.66270 31.20950
#
# Velocity S-wave (km/s) = 3.10788 3.96480 3.56220
# Velocity P-wave (km/s) = 4.63614 6.45537 5.61985
#
# Compressibility (1/GPa) = 0.04719385
#
# Stress axis : x y z
#
# Youngs Moduli (GPa) = 38.94516 71.03972 57.95005
#
# Poissons Ratio (x) = 0.32528 -0.07163
# Poissons Ratio (y) = 0.17832 0.09071
# Poissons Ratio (z) = -0.04814 0.11120
#
# Static dielectric constant tensor:
#      x y z
#    x 2.034630 -0.007890 0.006020 
#    y -0.007890 1.952930 0.002310 
#    z 0.006020 0.002310 2.056820 
# 
# From -- ./inp_files/44942.got.cif
#   From: 2010.05.17/outbox.cif.g08.bks.cpg/sg2_23_cif.got.tgz:44942.got - 2010.06.03 11:33:40.
