data_PCOD9059084
_publ_section_title
;
Structure prediction by ZEFSAII (Michael W. Deem and Ramdas Pophale) SiO2 
 PCOD9059084
Probable space group: P -1
;
_chemical_formula_sum "Si O2"
_cell_formula_units_Z 12
_cell_length_a 14.110712
_cell_length_b 11.818967
_cell_length_c 8.372985
_cell_angle_alpha 64.512183
_cell_angle_beta 85.116021
_cell_angle_gamma 30.359640
_cell_volume 496.178267
_symmetry_space_group_name_H-M "P -1"
_symmetry_group_IT_number 2
_symmetry_cell_setting 'triclinic'
loop_
_space_group_symop_operation_xyz
x,y,z
-x,-y,-z
loop_
_atom_site_type_symbol
_atom_site_label
_atom_site_fract_x
_atom_site_fract_y
_atom_site_fract_z
Si Si1 0.222640 0.305262 0.508545
Si Si2 0.230307 0.597055 0.343098
Si Si3 0.719855 0.680751 0.983339
Si Si4 0.582496 0.625805 0.209147
Si Si5 0.288550 0.657346 0.964427
Si Si6 0.906697 0.720943 0.033105
O O1 0.222073 0.456200 0.430979
O O2 0.000000 0.500000 0.500000
O O3 0.147982 0.377108 0.292286
O O4 0.478047 0.950468 0.752268
O O5 0.373712 0.469851 0.557722
O O6 0.328626 0.525280 0.200184
O O7 0.962680 0.971778 0.185613
O O8 0.972061 0.334411 0.077549
O O9 0.676372 0.655682 0.164662
O O10 0.768916 0.766940 0.959250
O O11 0.712479 0.408989 0.168776
O O12 0.293125 0.970583 0.018291
O O13 0.500000 0.500000 0.000000
#
# Coordination Sequence:
#
# PCOD9059084 Si02
#       6
#     2   2   2   2   2   2
#     4  12  22  42  74 106 152 193 233 301 369 438
#     4  11  26  48  72 107 146 188 249 302 361 439
#     4  11  24  42  66 112 148 190 241 292 373 441
#     4  12  23  46  73 103 147 189 241 303 363 438
#     4  11  27  48  73 103 140 195 251 303 362 427
#     4  11  23  40  66 105 152 193 234 295 361 440
#
# _framework density 24.184856
#
# number of rings (size 3 to 8) (size 9 to 14) (size 15 to 20)
#    0.000    0.667    3.333    4.500    0.000    3.333 
#    0.000    0.000    0.000    0.000    0.000    0.000 
#    0.000    0.000    0.000    0.000    0.000    0.000 
#
# Total GULP energy -66982.988657 kJ/mol
# GULP energy per Si atom -5581.915721 kJ/mol
# Density = 2.412981 g / cm^3
# Si number density = 24.184856 Si / 1000 Ang^3
#
#
#
# Elastic Constant Matrix: (Units=GPa)
#
#
# Indices 1 2 3 4 5 6 
#
# 1 104.9681 53.4208 35.9243 10.8170 7.4512 -20.4205
# 2 53.4208 147.6361 26.7741 19.9672 -3.3751 -19.1117
# 3 35.9243 26.7741 97.8099 23.2777 10.9694 2.0668
# 4 10.8170 19.9672 23.2777 39.0216 -0.2022 7.5470
# 5 7.4512 -3.3751 10.9694 -0.2022 35.4943 2.7683
# 6 -20.4205 -19.1117 2.0668 7.5470 2.7683 43.5566
#
#
#
# Elastic Compliance Matrix: (Units=1/GPa)
#
#
# Indices 1 2 3 4 5 6 
#
# 1 0.013988 -0.003614 -0.003778 -0.000844 -0.002543 0.005460
# 2 -0.003614 0.009109 -0.000460 -0.003940 0.001518 0.002911
# 3 -0.003778 -0.000460 0.013742 -0.006691 -0.003438 -0.001247
# 4 -0.000844 -0.003940 -0.006691 0.033383 0.002666 -0.007760
# 5 -0.002543 0.001518 -0.003438 0.002666 0.030143 -0.002741
# 6 0.005460 0.002911 -0.001247 -0.007760 -0.002741 0.028373
#
#
# Mechanical properties :
#
#
# Convention : Reuss Voigt Hill
#
# Bulk Modulus (GPa) = 47.31364 64.73916 56.02640
# Shear Modulus (GPa) = 33.00604 39.23415 36.12009
#
# Velocity S-wave (km/s) = 3.69825 4.03210 3.86878
# Velocity P-wave (km/s) = 6.15157 6.96446 6.57060
#
# Compressibility (1/GPa) = 0.02113555
#
# Stress axis : x y z
#
# Youngs Moduli (GPa) = 71.48804 109.78468 72.77016
#
# Poissons Ratio (x) = 0.39673 0.27491
# Poissons Ratio (y) = 0.25833 0.03349
# Poissons Ratio (z) = 0.27007 0.05053
#
# Static dielectric constant tensor:
#      x y z
#    x 2.036210 -0.005270 -0.063960 
#    y -0.005270 2.124410 0.130540 
#    z -0.063960 0.130540 2.047000 
# 
# From -- ./inp_files/304980.got.cif
#   From: 2010.05.17/outbox.cif.g08.bks.cpg/sg2_153_cif.got.tgz:304980.got - 2010.06.03 11:33:40.
