data_PCOD9059614
_publ_section_title
;
Structure prediction by ZEFSAII (Michael W. Deem and Ramdas Pophale) SiO2 
 PCOD9059614
Probable space group: P -1
;
_chemical_formula_sum "Si O2"
_cell_formula_units_Z 14
_cell_length_a 8.398185
_cell_length_b 9.564652
_cell_length_c 9.987464
_cell_angle_alpha 102.427222
_cell_angle_beta 64.750039
_cell_angle_gamma 125.793219
_cell_volume 587.914764
_symmetry_space_group_name_H-M "P -1"
_symmetry_group_IT_number 2
_symmetry_cell_setting 'triclinic'
loop_
_space_group_symop_operation_xyz
x,y,z
-x,-y,-z
loop_
_atom_site_type_symbol
_atom_site_label
_atom_site_fract_x
_atom_site_fract_y
_atom_site_fract_z
Si Si1 0.337195 0.512035 0.152785
Si Si2 0.136560 0.421864 0.935409
Si Si3 0.891967 0.793236 0.637689
Si Si4 0.301404 0.844987 0.614891
Si Si5 0.822170 0.053252 0.844827
Si Si6 0.492059 0.098168 0.831953
Si Si7 0.520528 0.366410 0.378487
O O1 0.269932 0.394288 0.279893
O O2 0.419638 0.706443 0.200176
O O3 0.500000 0.500000 0.000000
O O4 0.152858 0.419047 0.090314
O O5 0.341467 0.545212 0.790815
O O6 0.004337 0.232942 0.880624
O O7 0.000000 0.500000 0.000000
O O8 0.732543 0.785428 0.579776
O O9 0.106147 0.798120 0.577950
O O10 0.924414 0.951093 0.743809
O O11 0.351495 0.702604 0.605159
O O12 0.500000 0.000000 0.500000
O O13 0.321174 0.943432 0.766684
O O14 0.693801 0.086337 0.785551
O O15 0.633649 0.932413 0.991306
O O16 0.500000 0.500000 0.500000
#
# Coordination Sequence:
#
# PCOD9059614 Si02
#       7
#     2   2   2   2   2   2   2
#     4  12  23  40  72 109 145 185 239 304 360 432
#     4  12  24  44  74 109 146 191 246 301 369 431
#     4  12  27  49  76 108 146 190 247 300 374 434
#     4  12  31  50  72 105 146 195 248 302 360 445
#     4  11  23  41  78 107 140 192 235 305 367 429
#     4  11  23  45  70 108 150 184 245 299 363 433
#     4  12  29  52  75 106 150 196 247 303 369 444
#
# _framework density 23.812975999999999
#
# number of rings (size 3 to 8) (size 9 to 14) (size 15 to 20)
#    0.000    0.286    5.714    2.571    6.000    3.429 
#    0.000    0.000    0.000    0.000    0.000    0.000 
#    0.000    0.000    0.000    0.000    0.000    0.000 
#
# Total GULP energy -78063.075690 kJ/mol
# GULP energy per Si atom -5575.933978 kJ/mol
# Density = 2.375878 g / cm^3
# Si number density = 23.812976 Si / 1000 Ang^3
#
#
#
# Elastic Constant Matrix: (Units=GPa)
#
#
# Indices 1 2 3 4 5 6 
#
# 1 128.5667 27.6779 11.5916 7.4353 -34.0617 9.2507
# 2 27.6779 121.1879 12.8410 19.8434 -20.2423 -18.1892
# 3 11.5916 12.8410 53.6843 6.8011 -10.4593 -11.1532
# 4 7.4353 19.8434 6.8011 44.0652 1.5026 -3.2377
# 5 -34.0617 -20.2423 -10.4593 1.5026 29.1813 2.3868
# 6 9.2507 -18.1892 -11.1532 -3.2377 2.3868 41.9320
#
#
#
# Elastic Compliance Matrix: (Units=1/GPa)
#
#
# Indices 1 2 3 4 5 6 
#
# 1 0.012083 -0.000566 -0.000236 -0.002519 0.014081 -0.003970
# 2 -0.000566 0.010919 0.000341 -0.004803 0.006941 0.004186
# 3 -0.000236 0.000341 0.021555 -0.003308 0.007428 0.005255
# 4 -0.002519 -0.004803 -0.003308 0.026101 -0.008811 0.000109
# 5 0.014081 0.006941 0.007428 -0.008811 0.058811 -0.002148
# 6 -0.003970 0.004186 0.005255 0.000109 -0.002148 0.028068
#
#
# Mechanical properties :
#
#
# Convention : Reuss Voigt Hill
#
# Bulk Modulus (GPa) = 22.91736 45.29552 34.10644
# Shear Modulus (GPa) = 28.90115 39.79092 34.34603
#
# Velocity S-wave (km/s) = 3.48756 4.09219 3.80191
# Velocity P-wave (km/s) = 5.08549 6.43356 5.79883
#
# Compressibility (1/GPa) = 0.04363505
#
# Stress axis : x y z
#
# Youngs Moduli (GPa) = 82.75982 91.58473 46.39364
#
# Poissons Ratio (x) = 0.05183 0.01094
# Poissons Ratio (y) = 0.04684 -0.01581
# Poissons Ratio (z) = 0.01951 -0.03122
#
# Static dielectric constant tensor:
#      x y z
#    x 1.922980 0.009010 0.033640 
#    y 0.009010 1.887170 -0.019650 
#    z 0.033640 -0.019650 1.965040 
# 
# From -- ./inp_files/342887.got.cif
#   From: 2010.05.17/outbox.cif.g08.bks.cpg/sg2_172_cif.got.tgz:342887.got - 2010.06.03 11:33:40.
