data_PCOD9059482
_publ_section_title
;
Structure prediction by ZEFSAII (Michael W. Deem and Ramdas Pophale) SiO2 
 PCOD9059482
Probable space group: P -1
;
_chemical_formula_sum "Si O2"
_cell_formula_units_Z 16
_cell_length_a 8.105449
_cell_length_b 11.910571
_cell_length_c 13.530822
_cell_angle_alpha 111.098912
_cell_angle_beta 88.564653
_cell_angle_gamma 142.956795
_cell_volume 649.321959
_symmetry_space_group_name_H-M "P -1"
_symmetry_group_IT_number 2
_symmetry_cell_setting 'triclinic'
loop_
_space_group_symop_operation_xyz
x,y,z
-x,-y,-z
loop_
_atom_site_type_symbol
_atom_site_label
_atom_site_fract_x
_atom_site_fract_y
_atom_site_fract_z
Si Si1 0.252456 0.356124 0.292544
Si Si2 0.457078 0.221437 0.531413
Si Si3 0.904795 0.580117 0.037498
Si Si4 0.935665 0.170054 0.428491
Si Si5 0.553480 0.739028 0.881416
Si Si6 0.952906 0.564013 0.348040
Si Si7 0.841446 0.154354 0.062968
Si Si8 0.657032 0.044465 0.694077
O O1 0.500691 0.611747 0.398358
O O2 0.372540 0.331125 0.207066
O O3 0.118324 0.222125 0.353719
O O4 0.967194 0.238806 0.198426
O O5 0.366849 0.107248 0.391149
O O6 0.797009 0.373894 0.594541
O O7 0.227840 0.022395 0.554188
O O8 0.611520 0.400313 0.057567
O O9 0.173066 0.822573 0.164632
O O10 0.899311 0.626118 0.941611
O O11 0.000000 0.500000 0.000000
O O12 0.664846 0.084476 0.355786
O O13 0.136833 0.396239 0.553282
O O14 0.311370 0.656395 0.784366
O O15 0.810057 0.994861 0.983509
O O16 0.133205 0.759436 0.329060
O O17 0.500000 0.000000 0.000000
#
# Coordination Sequence:
#
# PCOD9059482 Si02
#       8
#     2   2   2   2   2   2   2   2
#     4  12  26  37  60  95 129 164 200 247 314 372
#     4   9  19  38  64  90 121 159 204 256 299 364
#     4  11  23  41  69  91 115 164 207 260 308 351
#     4   9  19  36  61  89 124 161 199 253 303 354
#     4  11  25  43  59  93 131 156 203 259 302 370
#     4   8  17  38  64  87 119 161 208 251 297 357
#     4  12  25  42  65  90 116 165 214 253 296 363
#     4   8  17  36  62  95 117 151 213 261 295 352
#
# _framework density 24.641089000000001
#
# number of rings (size 3 to 8) (size 9 to 14) (size 15 to 20)
#    0.000    2.000    1.250    3.375    3.500    5.000 
#    0.000    5.625    0.000    0.000    0.000    0.000 
#    0.000    0.000    0.000    0.000    0.000    0.000 
#
# Total GULP energy -89521.433950 kJ/mol
# GULP energy per Si atom -5595.089622 kJ/mol
# Density = 2.458500 g / cm^3
# Si number density = 24.641089 Si / 1000 Ang^3
#
#
#
# Elastic Constant Matrix: (Units=GPa)
#
#
# Indices 1 2 3 4 5 6 
#
# 1 76.2858 31.0903 20.7808 -1.0651 -27.1224 -0.0804
# 2 31.0903 106.6673 43.2023 -4.6802 -27.9387 2.4450
# 3 20.7808 43.2023 130.7121 7.9180 -21.3994 -4.6726
# 4 -1.0651 -4.6802 7.9180 45.2858 -1.5183 -13.6466
# 5 -27.1224 -27.9387 -21.3994 -1.5183 51.4561 -2.1926
# 6 -0.0804 2.4450 -4.6726 -13.6466 -2.1926 25.6942
#
#
#
# Elastic Compliance Matrix: (Units=1/GPa)
#
#
# Indices 1 2 3 4 5 6 
#
# 1 0.017014 -0.002806 -0.000591 0.000844 0.007278 0.001282
# 2 -0.002806 0.012646 -0.003190 0.001787 0.004093 -0.000494
# 3 -0.000591 -0.003190 0.009233 -0.001493 0.001810 0.001342
# 4 0.000844 0.001787 -0.001493 0.026840 0.002183 0.014003
# 5 0.007278 0.004093 0.001810 0.002183 0.026454 0.003379
# 6 0.001282 -0.000494 0.001342 0.014003 0.003379 0.046940
#
#
# Mechanical properties :
#
#
# Convention : Reuss Voigt Hill
#
# Bulk Modulus (GPa) = 38.87952 55.97912 47.42932
# Shear Modulus (GPa) = 31.08024 39.05999 35.07012
#
# Velocity S-wave (km/s) = 3.55536 3.98572 3.77667
# Velocity P-wave (km/s) = 5.71548 6.62936 6.18931
#
# Compressibility (1/GPa) = 0.02572048
#
# Stress axis : x y z
#
# Youngs Moduli (GPa) = 58.77540 79.07470 108.30386
#
# Poissons Ratio (x) = 0.22185 0.06405
# Poissons Ratio (y) = 0.16490 0.34545
# Poissons Ratio (z) = 0.03476 0.25222
#
# Static dielectric constant tensor:
#      x y z
#    x 2.074100 0.020190 0.062930 
#    y 0.020190 1.911960 0.006870 
#    z 0.062930 0.006870 1.943650 
# 
# From -- ./inp_files/500703.got.cif
#   From: 2010.05.17/outbox.cif.g08.bks.cpg/sg2_251_cif.got.tgz:500703.got - 2010.06.03 11:33:40.
