data_PCOD9059731
_publ_section_title
;
Structure prediction by ZEFSAII (Michael W. Deem and Ramdas Pophale) SiO2 
 PCOD9059731
Probable space group: P -1
;
_chemical_formula_sum "Si O2"
_cell_formula_units_Z 16
_cell_length_a 20.129428
_cell_length_b 13.871690
_cell_length_c 11.680136
_cell_angle_alpha 35.263886
_cell_angle_beta 152.375529
_cell_angle_gamma 147.758940
_cell_volume 776.499351
_symmetry_space_group_name_H-M "P -1"
_symmetry_group_IT_number 2
_symmetry_cell_setting 'triclinic'
loop_
_space_group_symop_operation_xyz
x,y,z
-x,-y,-z
loop_
_atom_site_type_symbol
_atom_site_label
_atom_site_fract_x
_atom_site_fract_y
_atom_site_fract_z
Si Si1 0.500146 0.806520 0.651478
Si Si2 0.726845 0.278850 0.814449
Si Si3 0.142197 0.949372 0.395169
Si Si4 0.820731 0.674250 0.555728
Si Si5 0.543823 0.041126 0.160274
Si Si6 0.482109 0.647189 0.030263
Si Si7 0.232451 0.233981 0.059548
Si Si8 0.090613 0.925628 0.599184
O O1 0.337669 0.711863 0.419143
O O2 0.492765 0.704842 0.858024
O O3 0.500000 0.000000 0.500000
O O4 0.653669 0.821073 0.796804
O O5 0.834280 0.496504 0.800670
O O6 0.562129 0.161780 0.746663
O O7 0.819679 0.154137 0.098849
O O8 0.166251 0.957379 0.559575
O O9 0.951058 0.842201 0.189078
O O10 0.264287 0.873120 0.611093
O O11 0.209662 0.142245 0.239785
O O12 0.910721 0.753758 0.495492
O O13 0.897620 0.872515 0.548261
O O14 0.632825 0.609360 0.323017
O O15 0.499711 0.186916 0.017696
O O16 0.500000 0.000000 0.000000
O O17 0.321537 0.457141 0.987647
#
# Coordination Sequence:
#
# PCOD9059731 Si02
#       8
#     2   2   2   2   2   2   2   2
#     4  12  22  40  67  98 132 171 222 274 332 396
#     4  12  23  41  66 100 130 175 220 272 329 398
#     4  11  23  44  64  91 138 175 220 276 331 396
#     4  11  23  42  67  97 132 169 227 274 338 392
#     4  12  23  44  68  94 135 176 220 273 329 394
#     4  12  23  43  69  97 131 175 225 278 330 392
#     4  11  25  41  67  98 129 177 228 269 335 400
#     4  11  24  43  65  98 136 173 218 283 335 391
#
# _framework density 20.605297
#
# number of rings (size 3 to 8) (size 9 to 14) (size 15 to 20)
#    0.000    0.500    6.250    1.500    1.750    2.500 
#    0.000    2.500    0.000    0.000    0.000    0.000 
#    0.000    0.000    0.000    0.000    0.000    0.000 
#
# Total GULP energy -89168.448129 kJ/mol
# GULP energy per Si atom -5573.028008 kJ/mol
# Density = 2.055840 g / cm^3
# Si number density = 20.605297 Si / 1000 Ang^3
#
#
#
# Elastic Constant Matrix: (Units=GPa)
#
#
# Indices 1 2 3 4 5 6 
#
# 1 93.9419 45.9139 38.0820 -16.0235 -2.3636 10.9530
# 2 45.9139 130.7334 34.9977 -30.0303 9.8488 15.7572
# 3 38.0820 34.9977 84.4974 -7.3742 14.8599 -0.4549
# 4 -16.0235 -30.0303 -7.3742 31.6091 3.4823 6.2804
# 5 -2.3636 9.8488 14.8599 3.4823 29.7477 1.5027
# 6 10.9530 15.7572 -0.4549 6.2804 1.5027 29.0566
#
#
#
# Elastic Compliance Matrix: (Units=1/GPa)
#
#
# Indices 1 2 3 4 5 6 
#
# 1 0.016338 -0.002333 -0.006904 0.005147 0.005239 -0.006385
# 2 -0.002333 0.013806 -0.002731 0.013655 -0.004517 -0.009368
# 3 -0.006904 -0.002731 0.017383 -0.002164 -0.008340 0.005255
# 4 0.005147 0.013655 -0.002164 0.051598 -0.008055 -0.020115
# 5 0.005239 -0.004517 -0.008340 -0.008055 0.040638 -0.000016
# 6 -0.006385 -0.009368 0.005255 -0.020115 -0.000016 0.046334
#
#
# Mechanical properties :
#
#
# Convention : Reuss Voigt Hill
#
# Bulk Modulus (GPa) = 42.38730 60.79556 51.59143
# Shear Modulus (GPa) = 22.94687 30.76128 26.85407
#
# Velocity S-wave (km/s) = 3.34074 3.86797 3.61399
# Velocity P-wave (km/s) = 5.95789 7.03684 6.51973
#
# Compressibility (1/GPa) = 0.02359197
#
# Stress axis : x y z
#
# Youngs Moduli (GPa) = 61.20833 72.43404 57.52616
#
# Poissons Ratio (x) = 0.16895 0.39714
# Poissons Ratio (y) = 0.14277 0.15712
# Poissons Ratio (z) = 0.42256 0.19783
#
# Static dielectric constant tensor:
#      x y z
#    x 1.811140 0.003970 0.018330 
#    y 0.003970 1.778230 0.048880 
#    z 0.018330 0.048880 1.816830 
# 
# From -- ./inp_files/471871.got.cif
#   From: 2010.05.17/outbox.cif.g08.bks.cpg/sg2_236_cif.got.tgz:471871.got - 2010.06.03 11:33:40.
