data_PCOD9059209
_publ_section_title
;
Structure prediction by ZEFSAII (Michael W. Deem and Ramdas Pophale) SiO2 
 PCOD9059209
Probable space group: P -1
;
_chemical_formula_sum "Si O2"
_cell_formula_units_Z 16
_cell_length_a 15.887259
_cell_length_b 12.197371
_cell_length_c 10.284810
_cell_angle_alpha 130.645681
_cell_angle_beta 35.736236
_cell_angle_gamma 110.968193
_cell_volume 814.905900
_symmetry_space_group_name_H-M "P -1"
_symmetry_group_IT_number 2
_symmetry_cell_setting 'triclinic'
loop_
_space_group_symop_operation_xyz
x,y,z
-x,-y,-z
loop_
_atom_site_type_symbol
_atom_site_label
_atom_site_fract_x
_atom_site_fract_y
_atom_site_fract_z
Si Si1 0.386120 0.102231 0.614514
Si Si2 0.411610 0.436103 0.853431
Si Si3 0.134696 0.979861 0.209204
Si Si4 0.911998 0.759651 0.747693
Si Si5 0.172536 0.537628 0.436505
Si Si6 0.231260 0.636182 0.711956
Si Si7 0.347981 0.459162 0.675975
Si Si8 0.515201 0.085113 0.176539
O O1 0.415697 0.261901 0.703711
O O2 0.435988 0.031848 0.355554
O O3 0.500000 0.000000 0.500000
O O4 0.214572 0.137549 0.908186
O O5 0.584664 0.426237 0.604040
O O6 0.300956 0.512157 0.925037
O O7 0.339981 0.502084 0.132543
O O8 0.084434 0.126888 0.286390
O O9 0.167287 0.819886 0.965017
O O10 0.303737 0.952381 0.041843
O O11 0.000000 0.000000 0.500000
O O12 0.857882 0.622712 0.657490
O O13 0.060838 0.665593 0.576003
O O14 0.152762 0.596950 0.654145
O O15 0.227136 0.547188 0.782918
O O16 0.500000 0.500000 0.500000
O O17 0.414612 0.271583 0.432718
O O18 0.500000 0.000000 0.000000
#
# Coordination Sequence:
#
# PCOD9059209 Si02
#       8
#     2   2   2   2   2   2   2   2
#     4  10  17  37  66  84 121 168 206 259 314 368
#     4   9  18  35  61  89 122 158 203 255 318 371
#     4  12  26  43  63  92 136 173 209 269 332 380
#     4  10  23  43  62  90 132 165 212 261 330 381
#     4  10  23  38  66  95 121 163 210 266 317 383
#     4  11  21  39  62  95 123 165 217 252 319 382
#     4   9  18  36  60  85 127 160 200 254 308 375
#     4  11  23  39  65  99 124 164 221 262 318 379
#
# _framework density 19.634170000000001
#
# number of rings (size 3 to 8) (size 9 to 14) (size 15 to 20)
#    0.000    1.750    5.000    0.375    3.500    1.500 
#    0.000    4.375    0.000    0.000    0.000    0.000 
#    0.000    0.000    0.000    0.000    0.000    0.000 
#
# Total GULP energy -89182.909755 kJ/mol
# GULP energy per Si atom -5573.931860 kJ/mol
# Density = 1.958948 g / cm^3
# Si number density = 19.634170 Si / 1000 Ang^3
#
#
#
# Elastic Constant Matrix: (Units=GPa)
#
#
# Indices 1 2 3 4 5 6 
#
# 1 111.7155 53.5181 49.8115 1.9052 33.7361 -20.8996
# 2 53.5181 106.9844 33.4628 2.9308 6.5558 -38.4547
# 3 49.8115 33.4628 94.2022 -2.8479 15.5920 -9.2587
# 4 1.9052 2.9308 -2.8479 23.3751 -0.6812 -0.3493
# 5 33.7361 6.5558 15.5920 -0.6812 34.5950 -1.4735
# 6 -20.8996 -38.4547 -9.2587 -0.3493 -1.4735 26.3116
#
#
#
# Elastic Compliance Matrix: (Units=1/GPa)
#
#
# Indices 1 2 3 4 5 6 
#
# 1 0.019542 -0.005259 -0.005480 -0.001975 -0.015415 0.005018
# 2 -0.005259 0.023169 -0.003260 -0.002346 0.003383 0.028696
# 3 -0.005480 -0.003260 0.014464 0.002538 -0.000679 -0.004032
# 4 -0.001975 -0.002346 0.002538 0.043550 0.001939 -0.003418
# 5 -0.015415 0.003383 -0.000679 0.001939 0.043425 -0.005081
# 6 0.005018 0.028696 -0.004032 -0.003418 -0.005081 0.082182
#
#
# Mechanical properties :
#
#
# Convention : Reuss Voigt Hill
#
# Bulk Modulus (GPa) = 34.27386 65.16522 49.71954
# Shear Modulus (GPa) = 18.93539 28.59698 23.76619
#
# Velocity S-wave (km/s) = 3.10886 3.82054 3.48293
# Velocity P-wave (km/s) = 5.51188 7.26111 6.44611
#
# Compressibility (1/GPa) = 0.02917675
#
# Stress axis : x y z
#
# Youngs Moduli (GPa) = 51.17237 43.16126 69.13750
#
# Poissons Ratio (x) = 0.22699 0.37887
# Poissons Ratio (y) = 0.26912 0.22538
# Poissons Ratio (z) = 0.28043 0.14070
#
# Static dielectric constant tensor:
#      x y z
#    x 1.715100 -0.039830 -0.031780 
#    y -0.039830 1.696080 0.011660 
#    z -0.031780 0.011660 1.718300 
# 
# From -- ./inp_files/308257.got.cif
#   From: 2010.05.17/outbox.cif.g08.bks.cpg/sg2_155_cif.got.tgz:308257.got - 2010.06.03 11:33:40.
