data_PCOD9059031
_publ_section_title
;
Structure prediction by ZEFSAII (Michael W. Deem and Ramdas Pophale) SiO2 
 PCOD9059031
Probable space group: P -1
;
_chemical_formula_sum "Si O2"
_cell_formula_units_Z 16
_cell_length_a 5.356652
_cell_length_b 18.016086
_cell_length_c 21.252976
_cell_angle_alpha 20.009657
_cell_angle_beta 96.205542
_cell_angle_gamma 105.390718
_cell_volume 611.463450
_symmetry_space_group_name_H-M "P -1"
_symmetry_group_IT_number 2
_symmetry_cell_setting 'triclinic'
loop_
_space_group_symop_operation_xyz
x,y,z
-x,-y,-z
loop_
_atom_site_type_symbol
_atom_site_label
_atom_site_fract_x
_atom_site_fract_y
_atom_site_fract_z
Si Si1 0.163620 0.146109 0.605965
Si Si2 0.881598 0.239872 0.405421
Si Si3 0.225087 0.156544 0.737007
Si Si4 0.656926 0.831306 0.133554
Si Si5 0.456511 0.173162 0.000919
Si Si6 0.311611 0.393003 0.932184
Si Si7 0.171316 0.331497 0.206702
Si Si8 0.694409 0.123396 0.264670
O O1 0.384955 0.074400 0.635919
O O2 0.057301 0.256075 0.460129
O O3 0.899832 0.869547 0.834475
O O4 0.261343 0.270105 0.577741
O O5 0.842052 0.482592 0.209082
O O6 0.001815 0.229569 0.348210
O O7 0.571842 0.001021 0.597216
O O8 0.362719 0.284091 0.705848
O O9 0.349261 0.961531 0.887929
O O10 0.881283 0.028989 0.839276
O O11 0.542630 0.703482 0.164536
O O12 0.500000 0.000000 0.000000
O O13 0.000000 0.000000 0.000000
O O14 0.508118 0.345602 0.925293
O O15 0.502372 0.596465 0.827041
O O16 0.979512 0.168791 0.273820
O O17 0.225944 0.609696 0.972341
#
# Coordination Sequence:
#
# PCOD9059031 Si02
#       8
#     2   2   2   2   2   2   2   2
#     4  11  23  40  63  90 128 167 216 266 325 385
#     4  12  25  42  64  91 122 172 216 261 330 390
#     4   9  18  32  59  89 129 167 212 264 318 382
#     4   8  14  28  50  89 123 163 209 257 314 378
#     4   9  18  32  59  89 129 167 212 264 318 382
#     4  11  23  40  63  90 128 167 216 266 325 385
#     4  11  24  43  66  91 124 165 215 271 327 387
#     4  11  24  43  66  91 124 165 215 271 327 387
#
# _framework density 26.166734000000002
#
# number of rings (size 3 to 8) (size 9 to 14) (size 15 to 20)
#    0.000    1.750    2.500    1.875    3.500    3.500 
#    0.000    0.000    0.000    0.750    0.000    3.500 
#    0.000    0.000    0.000    0.000    0.000    0.000 
#
# Total GULP energy -89486.437028 kJ/mol
# GULP energy per Si atom -5592.902314 kJ/mol
# Density = 2.610718 g / cm^3
# Si number density = 26.166734 Si / 1000 Ang^3
#
#
#
# Elastic Constant Matrix: (Units=GPa)
#
#
# Indices 1 2 3 4 5 6 
#
# 1 98.6998 16.6198 40.2187 -2.4044 -1.5172 12.0976
# 2 16.6198 180.8595 34.5820 14.8349 -10.3337 15.3824
# 3 40.2187 34.5820 159.4952 50.4007 -2.0287 11.8896
# 4 -2.4044 14.8349 50.4007 41.6586 9.5238 1.3264
# 5 -1.5172 -10.3337 -2.0287 9.5238 30.8002 12.4885
# 6 12.0976 15.3824 11.8896 1.3264 12.4885 35.3658
#
#
#
# Elastic Compliance Matrix: (Units=1/GPa)
#
#
# Indices 1 2 3 4 5 6 
#
# 1 0.012937 -0.000731 -0.005577 0.008212 -0.001732 -0.001929
# 2 -0.000731 0.006506 0.000386 -0.003862 0.005143 -0.004381
# 3 -0.005577 0.000386 0.014374 -0.019771 0.009183 -0.005594
# 4 0.008212 -0.003862 -0.019771 0.054881 -0.024003 0.011935
# 5 -0.001732 0.005143 0.009183 -0.024003 0.050988 -0.021836
# 6 -0.001929 -0.004381 -0.005594 0.011935 -0.021836 0.039985
#
#
# Mechanical properties :
#
#
# Convention : Reuss Voigt Hill
#
# Bulk Modulus (GPa) = 45.50989 69.09951 57.30470
# Shear Modulus (GPa) = 25.14596 44.74053 34.94325
#
# Velocity S-wave (km/s) = 3.10335 4.13949 3.65829
# Velocity P-wave (km/s) = 5.50191 7.02224 6.30805
#
# Compressibility (1/GPa) = 0.02197324
#
# Stress axis : x y z
#
# Youngs Moduli (GPa) = 77.29662 153.71130 69.57119
#
# Poissons Ratio (x) = 0.11236 0.38800
# Poissons Ratio (y) = 0.05650 -0.02687
# Poissons Ratio (z) = 0.43108 -0.05937
#
# Static dielectric constant tensor:
#      x y z
#    x 2.055210 0.016420 -0.014200 
#    y 0.016420 2.058710 -0.002130 
#    z -0.014200 -0.002130 2.064720 
# 
# From -- ./inp_files/126201.got.cif
#   From: 2010.05.17/outbox.cif.g08.bks.cpg/sg2_64_cif.got.tgz:126201.got - 2010.06.03 11:33:40.
