data_PCOD9059902
_publ_section_title
;
Structure prediction by ZEFSAII (Michael W. Deem and Ramdas Pophale) SiO2 
 PCOD9059902
Probable space group: P -1
;
_chemical_formula_sum "Si O2"
_cell_formula_units_Z 16
_cell_length_a 11.191893
_cell_length_b 12.060381
_cell_length_c 9.050559
_cell_angle_alpha 59.730749
_cell_angle_beta 50.962320
_cell_angle_gamma 53.886535
_cell_volume 749.176431
_symmetry_space_group_name_H-M "P -1"
_symmetry_group_IT_number 2
_symmetry_cell_setting 'triclinic'
loop_
_space_group_symop_operation_xyz
x,y,z
-x,-y,-z
loop_
_atom_site_type_symbol
_atom_site_label
_atom_site_fract_x
_atom_site_fract_y
_atom_site_fract_z
Si Si1 0.977182 0.367243 0.540233
Si Si2 0.562511 0.836679 0.032041
Si Si3 0.040993 0.350726 0.152723
Si Si4 0.410125 0.869303 0.810795
Si Si5 0.313521 0.616888 0.046731
Si Si6 0.718040 0.817650 0.383320
Si Si7 0.270895 0.606731 0.765771
Si Si8 0.578714 0.657140 0.392533
O O1 0.796363 0.380105 0.727193
O O2 0.000000 0.500000 0.500000
O O3 0.001574 0.364329 0.348554
O O4 0.119594 0.237515 0.601872
O O5 0.763514 0.751443 0.944771
O O6 0.498279 0.818933 0.933705
O O7 0.488323 0.774819 0.261215
O O8 0.500000 0.000000 0.000000
O O9 0.913240 0.292414 0.215419
O O10 0.000000 0.500000 0.000000
O O11 0.557427 0.843545 0.594920
O O12 0.304614 0.037249 0.775510
O O13 0.311968 0.770982 0.922183
O O14 0.500000 0.500000 0.000000
O O15 0.248105 0.572664 0.976348
O O16 0.706442 0.703729 0.353054
O O17 0.430346 0.647892 0.612588
O O18 0.329201 0.482218 0.682430
#
# Coordination Sequence:
#
# PCOD9059902 Si02
#       8
#     2   2   2   2   2   2   2   2
#     4  12  27  43  72 106 140 187 237 298 356 420
#     4  12  25  44  73 102 140 187 235 287 357 427
#     4  12  26  46  68 106 141 182 238 295 355 427
#     4  11  24  45  72 100 140 190 233 289 353 424
#     4  12  27  43  71 105 145 182 239 294 353 422
#     4  11  23  47  72  99 140 186 241 285 351 431
#     4  11  25  42  68 102 140 180 231 295 351 412
#     4  11  23  42  71 100 138 182 233 286 356 412
#
# _framework density 21.356784999999999
#
# number of rings (size 3 to 8) (size 9 to 14) (size 15 to 20)
#    0.000    0.500    5.000    3.000    7.000    0.500 
#    0.000    0.625    0.000    0.000    0.000    0.000 
#    0.000    0.000    0.000    0.000    0.000    0.000 
#
# Total GULP energy -89435.735404 kJ/mol
# GULP energy per Si atom -5589.733463 kJ/mol
# Density = 2.130818 g / cm^3
# Si number density = 21.356785 Si / 1000 Ang^3
#
#
#
# Elastic Constant Matrix: (Units=GPa)
#
#
# Indices 1 2 3 4 5 6 
#
# 1 110.6645 34.0914 24.2410 6.1394 20.9861 -12.3605
# 2 34.0914 87.0397 24.7427 -1.9165 -4.0254 -11.5499
# 3 24.2410 24.7427 111.9050 7.6941 5.1395 -4.3370
# 4 6.1394 -1.9165 7.6941 28.9399 2.6325 5.6637
# 5 20.9861 -4.0254 5.1395 2.6325 46.8847 0.6497
# 6 -12.3605 -11.5499 -4.3370 5.6637 0.6497 35.5572
#
#
#
# Elastic Compliance Matrix: (Units=1/GPa)
#
#
# Indices 1 2 3 4 5 6 
#
# 1 0.012192 -0.004350 -0.001111 -0.002700 -0.005602 0.003222
# 2 -0.004350 0.014408 -0.002416 0.001721 0.003317 0.002538
# 3 -0.001111 -0.002416 0.009938 -0.002598 -0.000660 0.000467
# 4 -0.002700 0.001721 -0.002598 0.037261 -0.000359 -0.006625
# 5 -0.005602 0.003317 -0.000660 -0.000359 0.024232 -0.001336
# 6 0.003222 0.002538 0.000467 -0.006625 -0.001336 0.031205
#
#
# Mechanical properties :
#
#
# Convention : Reuss Voigt Hill
#
# Bulk Modulus (GPa) = 48.11574 52.86216 50.48895
# Shear Modulus (GPa) = 32.91249 37.37864 35.14556
#
# Velocity S-wave (km/s) = 3.92992 4.18808 4.06105
# Velocity P-wave (km/s) = 6.57044 6.94207 6.75881
#
# Compressibility (1/GPa) = 0.02078322
#
# Stress axis : x y z
#
# Youngs Moduli (GPa) = 82.02141 69.40711 100.62393
#
# Poissons Ratio (x) = 0.30195 0.11183
# Poissons Ratio (y) = 0.35682 0.24306
# Poissons Ratio (z) = 0.09115 0.16765
#
# Static dielectric constant tensor:
#      x y z
#    x 1.823040 -0.011960 -0.006380 
#    y -0.011960 1.825470 -0.015050 
#    z -0.006380 -0.015050 1.802770 
# 
# From -- ./inp_files/261952.got.cif
#   From: 2010.05.17/outbox.cif.g08.bks.cpg/sg2_131_cif.got.tgz:261952.got - 2010.06.03 11:33:40.
