data_PCOD9059821
_publ_section_title
;
Structure prediction by ZEFSAII (Michael W. Deem and Ramdas Pophale) SiO2 
 PCOD9059821
Probable space group: P -1
;
_chemical_formula_sum "Si O2"
_cell_formula_units_Z 16
_cell_length_a 11.497946
_cell_length_b 9.909847
_cell_length_c 10.318325
_cell_angle_alpha 137.355147
_cell_angle_beta 78.973267
_cell_angle_gamma 94.915928
_cell_volume 779.097104
_symmetry_space_group_name_H-M "P -1"
_symmetry_group_IT_number 2
_symmetry_cell_setting 'triclinic'
loop_
_space_group_symop_operation_xyz
x,y,z
-x,-y,-z
loop_
_atom_site_type_symbol
_atom_site_label
_atom_site_fract_x
_atom_site_fract_y
_atom_site_fract_z
Si Si1 0.140523 0.502920 0.599970
Si Si2 0.172240 0.942842 0.494524
Si Si3 0.898388 0.067084 0.211771
Si Si4 0.420777 0.889715 0.040541
Si Si5 0.591526 0.514375 0.372181
Si Si6 0.006791 0.351543 0.769731
Si Si7 0.574606 0.959234 0.583208
Si Si8 0.160606 0.084091 0.155436
O O1 0.097668 0.707782 0.683199
O O2 0.273903 0.526295 0.635934
O O3 0.151072 0.310612 0.368225
O O4 0.057348 0.459195 0.708791
O O5 0.296714 0.968606 0.421455
O O6 0.094688 0.152361 0.633782
O O7 0.176803 0.925840 0.636958
O O8 0.113612 0.749878 0.313683
O O9 0.036651 0.995024 0.163293
O O10 0.846096 0.942843 0.017842
O O11 0.469937 0.928089 0.198655
O O12 0.282701 0.977214 0.111254
O O13 0.431365 0.657869 0.844233
O O14 0.500000 0.000000 0.000000
O O15 0.500000 0.500000 0.500000
O O16 0.580887 0.728341 0.458671
O O17 0.000000 0.500000 0.000000
O O18 0.500000 0.000000 0.500000
#
# Coordination Sequence:
#
# PCOD9059821 Si02
#       8
#     2   2   2   2   2   2   2   2
#     4  12  23  45  68 104 139 180 240 283 344 430
#     4  11  26  46  65 103 148 178 227 295 364 412
#     4  11  26  39  72 105 143 180 227 291 348 421
#     4  12  25  48  78 102 136 192 243 291 355 426
#     4  12  25  47  75 103 134 191 240 292 354 426
#     4  11  26  42  70  99 139 190 229 280 366 432
#     4  12  29  49  73 105 146 184 242 307 355 421
#     4  11  23  42  69 105 138 179 233 286 347 412
#
# _framework density 20.536591999999999
#
# number of rings (size 3 to 8) (size 9 to 14) (size 15 to 20)
#    0.000    0.500    6.250    0.375   10.500    0.500 
#    0.000    0.000    0.000    0.000    0.000    0.000 
#    0.000    0.000    0.000    0.000    0.000    0.000 
#
# Total GULP energy -89499.640351 kJ/mol
# GULP energy per Si atom -5593.727522 kJ/mol
# Density = 2.048985 g / cm^3
# Si number density = 20.536592 Si / 1000 Ang^3
#
#
#
# Elastic Constant Matrix: (Units=GPa)
#
#
# Indices 1 2 3 4 5 6 
#
# 1 77.3602 28.8833 14.8981 -7.0296 3.0775 11.9570
# 2 28.8833 121.2141 38.1633 -18.0173 -5.0113 23.2617
# 3 14.8981 38.1633 163.3762 -7.4616 19.0551 13.6214
# 4 -7.0296 -18.0173 -7.4616 34.5002 -0.7167 0.8142
# 5 3.0775 -5.0113 19.0551 -0.7167 27.5334 0.3467
# 6 11.9570 23.2617 13.6214 0.8142 0.3467 31.5137
#
#
#
# Elastic Compliance Matrix: (Units=1/GPa)
#
#
# Indices 1 2 3 4 5 6 
#
# 1 0.014711 -0.002603 -0.000129 0.001655 -0.001940 -0.003626
# 2 -0.002603 0.011897 -0.002197 0.005461 0.004207 -0.007032
# 3 -0.000129 -0.002197 0.007427 0.000354 -0.005498 -0.001488
# 4 0.001655 0.005461 0.000354 0.032415 0.001479 -0.005666
# 5 -0.001940 0.004207 -0.005498 0.001479 0.041151 -0.000484
# 6 -0.003626 -0.007032 -0.001488 -0.005666 -0.000484 0.039094
#
#
# Mechanical properties :
#
#
# Convention : Reuss Voigt Hill
#
# Bulk Modulus (GPa) = 41.36100 58.42665 49.89382
# Shear Modulus (GPa) = 30.37428 37.37652 33.87540
#
# Velocity S-wave (km/s) = 3.84999 4.27077 4.06583
# Velocity P-wave (km/s) = 6.32037 7.26850 6.81095
#
# Compressibility (1/GPa) = 0.02417737
#
# Stress axis : x y z
#
# Youngs Moduli (GPa) = 67.97475 84.05607 134.64009
#
# Poissons Ratio (x) = 0.21880 0.01741
# Poissons Ratio (y) = 0.17694 0.29576
# Poissons Ratio (z) = 0.00879 0.18464
#
# Static dielectric constant tensor:
#      x y z
#    x 1.755020 -0.023280 0.021960 
#    y -0.023280 1.708850 -0.009130 
#    z 0.021960 -0.009130 1.740000 
# 
# From -- ./inp_files/245896.got.cif
#   From: 2010.05.17/outbox.cif.g08.bks.cpg/sg2_123_cif.got.tgz:245896.got - 2010.06.03 11:33:40.
