data_PCOD9059929
_publ_section_title
;
Structure prediction by ZEFSAII (Michael W. Deem and Ramdas Pophale) SiO2 
 PCOD9059929
Probable space group: P -1
;
_chemical_formula_sum "Si O2"
_cell_formula_units_Z 16
_cell_length_a 9.354273
_cell_length_b 8.210739
_cell_length_c 14.733875
_cell_angle_alpha 138.604698
_cell_angle_beta 81.078250
_cell_angle_gamma 89.833199
_cell_volume 726.823531
_symmetry_space_group_name_H-M "P -1"
_symmetry_group_IT_number 2
_symmetry_cell_setting 'triclinic'
loop_
_space_group_symop_operation_xyz
x,y,z
-x,-y,-z
loop_
_atom_site_type_symbol
_atom_site_label
_atom_site_fract_x
_atom_site_fract_y
_atom_site_fract_z
Si Si1 0.341554 0.430277 0.495424
Si Si2 0.653691 0.912790 0.997095
Si Si3 0.836632 0.382233 0.720981
Si Si4 0.886541 0.636944 0.642042
Si Si5 0.889497 0.121273 0.939371
Si Si6 0.876746 0.690292 0.217068
Si Si7 0.333802 0.062405 0.503208
Si Si8 0.794830 0.045856 0.202034
O O1 0.500000 0.500000 0.500000
O O2 0.273875 0.392546 0.388830
O O3 0.343063 0.196012 0.462052
O O4 0.236547 0.664333 0.650510
O O5 0.714090 0.616275 0.862217
O O6 0.767343 0.050270 0.988102
O O7 0.658718 0.988081 0.133192
O O8 0.500000 0.000000 0.000000
O O9 0.915262 0.495762 0.675863
O O10 0.961609 0.308589 0.754947
O O11 0.754855 0.164180 0.601341
O O12 0.000000 0.500000 0.500000
O O13 0.883088 0.932924 0.776507
O O14 0.061807 0.034352 0.908640
O O15 0.870380 0.419449 0.061016
O O16 0.762741 0.756360 0.338577
O O17 0.828477 0.891655 0.226877
O O18 0.500000 0.000000 0.500000
#
# Coordination Sequence:
#
# PCOD9059929 Si02
#       8
#     2   2   2   2   2   2   2   2
#     4  12  27  46  73 101 145 191 240 290 362 433
#     4  11  27  46  73 107 146 190 240 298 364 433
#     4  11  26  46  72 106 146 188 243 297 362 427
#     4  11  23  42  71 105 139 186 241 292 352 429
#     4  11  25  44  74 104 142 189 239 294 365 417
#     4  12  26  47  72 109 144 188 244 301 359 431
#     4  12  28  47  71 105 149 191 236 305 368 427
#     4  12  25  46  75 101 145 187 244 299 357 434
#
# _framework density 22.013597000000001
#
# number of rings (size 3 to 8) (size 9 to 14) (size 15 to 20)
#    0.000    0.500    2.500    4.875   12.250    0.000 
#    0.000    0.625    0.000    0.000    0.000    0.000 
#    0.000    0.000    0.000    0.000    0.000    0.000 
#
# Total GULP energy -89475.728996 kJ/mol
# GULP energy per Si atom -5592.233062 kJ/mol
# Density = 2.196349 g / cm^3
# Si number density = 22.013597 Si / 1000 Ang^3
#
#
#
# Elastic Constant Matrix: (Units=GPa)
#
#
# Indices 1 2 3 4 5 6 
#
# 1 108.6129 37.2910 12.7131 -2.1865 12.2063 -19.8248
# 2 37.2910 98.8601 17.2529 -6.5943 11.5843 -12.5684
# 3 12.7131 17.2529 89.7085 12.6825 26.5064 -5.9253
# 4 -2.1865 -6.5943 12.6825 37.3797 -0.0596 6.4551
# 5 12.2063 11.5843 26.5064 -0.0596 36.6442 -2.7688
# 6 -19.8248 -12.5684 -5.9253 6.4551 -2.7688 45.5826
#
#
#
# Elastic Compliance Matrix: (Units=1/GPa)
#
#
# Indices 1 2 3 4 5 6 
#
# 1 0.011403 -0.003585 0.000170 -0.000708 -0.002491 0.003942
# 2 -0.003585 0.012226 -0.001693 0.002315 -0.001353 0.001182
# 3 0.000170 -0.001693 0.015545 -0.005894 -0.010638 0.001816
# 4 -0.000708 0.002315 -0.005894 0.029894 0.003479 -0.004458
# 5 -0.002491 -0.001353 -0.010638 0.003479 0.036162 -0.001136
# 6 0.003942 0.001182 0.001816 -0.004458 -0.001136 0.024777
#
#
# Mechanical properties :
#
#
# Convention : Reuss Voigt Hill
#
# Bulk Modulus (GPa) = 34.53139 47.96619 41.24879
# Shear Modulus (GPa) = 33.36062 39.24959 36.30511
#
# Velocity S-wave (km/s) = 3.89711 4.22710 4.06546
# Velocity P-wave (km/s) = 5.99753 6.75731 6.38872
#
# Compressibility (1/GPa) = 0.02895916
#
# Stress axis : x y z
#
# Youngs Moduli (GPa) = 87.69371 81.79046 64.32862
#
# Poissons Ratio (x) = 0.29324 -0.01094
# Poissons Ratio (y) = 0.31440 0.10889
# Poissons Ratio (z) = -0.01492 0.13845
#
# Static dielectric constant tensor:
#      x y z
#    x 1.868590 -0.007720 0.031140 
#    y -0.007720 1.783200 -0.014430 
#    z 0.031140 -0.014430 1.832970 
# 
# From -- ./inp_files/447802.got.cif
#   From: 2010.05.17/outbox.cif.g08.bks.cpg/sg2_224_cif.got.tgz:447802.got - 2010.06.03 11:33:40.
