data_PCOD9059451
_publ_section_title
;
Structure prediction by ZEFSAII (Michael W. Deem and Ramdas Pophale) SiO2 
 PCOD9059451
Probable space group: P -1
;
_chemical_formula_sum "Si O2"
_cell_formula_units_Z 14
_cell_length_a 13.377622
_cell_length_b 11.500143
_cell_length_c 11.287927
_cell_angle_alpha 98.147801
_cell_angle_beta 84.591527
_cell_angle_gamma 158.927761
_cell_volume 614.546013
_symmetry_space_group_name_H-M "P -1"
_symmetry_group_IT_number 2
_symmetry_cell_setting 'triclinic'
loop_
_space_group_symop_operation_xyz
x,y,z
-x,-y,-z
loop_
_atom_site_type_symbol
_atom_site_label
_atom_site_fract_x
_atom_site_fract_y
_atom_site_fract_z
Si Si1 0.141439 0.585634 0.105862
Si Si2 0.681519 0.458125 0.019067
Si Si3 0.897073 0.162203 0.275309
Si Si4 0.327683 0.445926 0.212725
Si Si5 0.267563 0.655209 0.522509
Si Si6 0.235645 0.881575 0.328603
Si Si7 0.753374 0.908951 0.815189
O O1 0.337649 0.697349 0.046507
O O2 0.937529 0.289160 0.174138
O O3 0.276484 0.827711 0.214328
O O4 0.000000 0.500000 0.000000
O O5 0.618498 0.478101 0.922167
O O6 0.489030 0.280799 0.123890
O O7 0.996079 0.819101 0.079832
O O8 0.029908 0.181042 0.230375
O O9 0.085581 0.412126 0.398060
O O10 0.575815 0.794289 0.291775
O O11 0.335296 0.320524 0.232240
O O12 0.033142 0.447216 0.609581
O O13 0.500000 0.000000 0.500000
O O14 0.473703 0.790205 0.586050
O O15 0.158300 0.920747 0.283954
#
# Coordination Sequence:
#
# PCOD9059451 Si02
#       7
#     2   2   2   2   2   2   2
#     4  11  24  43  68 106 146 173 225 287 359 402
#     4  11  23  41  69 100 146 191 226 272 344 425
#     4  11  25  46  72 100 134 184 237 286 340 409
#     4  11  24  43  70 101 138 186 236 279 338 412
#     4  12  26  49  72  99 136 184 237 282 343 417
#     4  12  27  43  72 104 140 181 229 288 350 408
#     4  12  24  45  66 104 145 185 230 282 341 416
#
# _framework density 22.781044999999999
#
# number of rings (size 3 to 8) (size 9 to 14) (size 15 to 20)
#    0.000    0.571    2.857    5.571    2.000    1.714 
#    0.000    4.286    0.000    0.000    0.000    0.000 
#    0.000    0.000    0.000    0.000    0.000    0.000 
#
# Total GULP energy -78363.745911 kJ/mol
# GULP energy per Si atom -5597.410422 kJ/mol
# Density = 2.272919 g / cm^3
# Si number density = 22.781045 Si / 1000 Ang^3
#
#
#
# Elastic Constant Matrix: (Units=GPa)
#
#
# Indices 1 2 3 4 5 6 
#
# 1 94.4431 55.3541 31.6395 -13.9001 3.0082 -7.9220
# 2 55.3541 -24.0462 1.6615 28.7247 39.6848 -33.4258
# 3 31.6395 1.6615 88.0090 17.2949 12.8721 -16.6500
# 4 -13.9001 28.7247 17.2949 31.2590 6.3350 10.5266
# 5 3.0082 39.6848 12.8721 6.3350 18.3660 1.1974
# 6 -7.9220 -33.4258 -16.6500 10.5266 1.1974 27.2885
#
#
#
# Elastic Compliance Matrix: (Units=1/GPa)
#
#
# Indices 1 2 3 4 5 6 
#
# 1 0.010265 0.003474 -0.001820 0.002325 -0.009081 0.005626
# 2 0.003474 -0.002337 -0.005329 0.008334 0.005901 -0.008580
# 3 -0.001820 -0.005329 0.012887 -0.004728 0.004252 0.002445
# 4 0.002325 0.008334 -0.004728 0.034855 -0.026820 -0.004270
# 5 -0.009081 0.005901 0.004252 -0.026820 0.048453 0.015405
# 6 0.005626 -0.008580 0.002445 -0.004270 0.015405 0.030232
#
#
# Mechanical properties :
#
#
# Convention : Reuss Voigt Hill
#
# Bulk Modulus (GPa) = 74.26429 37.30179 55.78304
# Shear Modulus (GPa) = 34.20105 20.03274 27.11690
#
# Velocity S-wave (km/s) = 3.87886 2.96862 3.45385
# Velocity P-wave (km/s) = 7.26159 5.30659 6.35966
#
# Compressibility (1/GPa) = 0.01346542
#
# Stress axis : x y z
#
# Youngs Moduli (GPa) = 97.41457 -427.85171 77.59652
#
# Poissons Ratio (x) = 1.48641 0.14125
# Poissons Ratio (y) = -0.33843 0.41350
# Poissons Ratio (z) = 0.17732 -2.27993
#
# Static dielectric constant tensor:
#      x y z
#    x 1.857200 -0.001860 -0.011350 
#    y -0.001860 1.853270 -0.011600 
#    z -0.011350 -0.011600 1.862670 
# 
# From -- ./inp_files/451408.got.cif
#   From: 2010.05.17/outbox.cif.g08.bks.cpg/sg2_226_cif.got.tgz:451408.got - 2010.06.03 11:33:40.
