data_PCOD9059729
_publ_section_title
;
Structure prediction by ZEFSAII (Michael W. Deem and Ramdas Pophale) SiO2 
 PCOD9059729
Probable space group: P -1
;
_chemical_formula_sum "Si O2"
_cell_formula_units_Z 15
_cell_length_a 21.215775
_cell_length_b 12.326637
_cell_length_c 9.934737
_cell_angle_alpha 63.610290
_cell_angle_beta 41.410025
_cell_angle_gamma 29.477447
_cell_volume 649.504558
_symmetry_space_group_name_H-M "P -1"
_symmetry_group_IT_number 2
_symmetry_cell_setting 'triclinic'
loop_
_space_group_symop_operation_xyz
x,y,z
-x,-y,-z
loop_
_atom_site_type_symbol
_atom_site_label
_atom_site_fract_x
_atom_site_fract_y
_atom_site_fract_z
Si Si1 0.500000 0.500000 0.000000
Si Si2 0.118277 0.800027 0.547181
Si Si3 0.191617 0.358128 0.919220
Si Si4 0.207874 0.749543 0.949018
Si Si5 0.063308 0.136517 0.813150
Si Si6 0.899637 0.458299 0.316170
Si Si7 0.638498 0.166332 0.750179
Si Si8 0.513271 0.922034 0.878060
O O1 0.382628 0.514265 0.253037
O O2 0.328448 0.781330 0.208596
O O3 0.044521 0.745034 0.689641
O O4 0.000000 0.000000 0.500000
O O5 0.012573 0.974877 0.756229
O O6 0.001334 0.674370 0.097647
O O7 0.094975 0.333262 0.077837
O O8 0.252192 0.328412 0.687671
O O9 0.373336 0.152429 0.860200
O O10 0.412989 0.480542 0.866312
O O11 0.232046 0.847472 0.775819
O O12 0.150758 0.702973 0.968815
O O13 0.170027 0.056426 0.546332
O O14 0.763519 0.621707 0.583230
O O15 0.589331 0.091427 0.925906
O O16 0.500000 0.000000 0.000000
#
# Coordination Sequence:
#
# PCOD9059729 Si02
#       8
#     1   2   2   2   2   2   2   2
#     4  12  24  40  64 102 130 170 218 274 340 392
#     4  12  23  42  71  99 135 174 225 282 340 405
#     4  11  26  45  72  99 138 188 230 280 345 415
#     4  11  23  42  67  96 135 174 219 282 337 400
#     4  11  24  43  66  97 131 177 227 274 340 400
#     4  11  25  47  68 103 138 182 233 282 345 416
#     4  12  25  41  65  99 132 172 224 278 337 399
#     4  12  26  45  68 100 138 181 231 284 342 408
#
# _framework density 23.094526999999999
#
# number of rings (size 3 to 8) (size 9 to 14) (size 15 to 20)
#    0.000    0.533    5.333    2.400    1.867    3.200 
#    0.000    0.000    0.000    0.000    0.000    0.000 
#    0.000    0.000    0.000    0.000    0.000    0.000 
#
# Total GULP energy -83650.842652 kJ/mol
# GULP energy per Si atom -5576.722843 kJ/mol
# Density = 2.304196 g / cm^3
# Si number density = 23.094527 Si / 1000 Ang^3
#
#
#
# Elastic Constant Matrix: (Units=GPa)
#
#
# Indices 1 2 3 4 5 6 
#
# 1 97.3376 20.9883 9.7899 -7.6609 12.6904 17.2514
# 2 20.9883 69.4268 -1.7995 -24.2255 -10.8341 5.5409
# 3 9.7899 -1.7995 79.4070 -20.5663 27.0068 13.3377
# 4 -7.6609 -24.2255 -20.5663 34.0403 2.8211 -2.5226
# 5 12.6904 -10.8341 27.0068 2.8211 36.7057 -2.0155
# 6 17.2514 5.5409 13.3377 -2.5226 -2.0155 48.7162
#
#
#
# Elastic Compliance Matrix: (Units=1/GPa)
#
#
# Indices 1 2 3 4 5 6 
#
# 1 0.012941 -0.004118 0.002146 0.001548 -0.007659 -0.004939
# 2 -0.004118 0.022508 0.004721 0.017581 0.003168 -0.001353
# 3 0.002146 0.004721 0.026266 0.020817 -0.020728 -0.008268
# 4 0.001548 0.017581 0.020817 0.055635 -0.015268 -0.005998
# 5 -0.007659 0.003168 -0.020728 -0.015268 0.047757 0.009212
# 6 -0.004939 -0.001353 -0.008268 -0.005998 0.009212 0.024764
#
#
# Mechanical properties :
#
#
# Convention : Reuss Voigt Hill
#
# Bulk Modulus (GPa) = 14.87781 33.79210 24.33495
# Shear Modulus (GPa) = 24.18080 38.37195 31.27638
#
# Velocity S-wave (km/s) = 3.23930 4.08059 3.68404
# Velocity P-wave (km/s) = 4.52183 6.07170 5.35315
#
# Compressibility (1/GPa) = 0.06721420
#
# Stress axis : x y z
#
# Youngs Moduli (GPa) = 77.27286 44.42915 38.07253
#
# Poissons Ratio (x) = 0.18294 -0.08172
# Poissons Ratio (y) = 0.31818 -0.17974
# Poissons Ratio (z) = -0.16586 -0.20975
#
# Static dielectric constant tensor:
#      x y z
#    x 2.093180 0.097210 -0.139100 
#    y 0.097210 1.987010 -0.060750 
#    z -0.139100 -0.060750 1.909460 
# 
# From -- ./inp_files/346037.got.cif
#   From: 2010.05.17/outbox.cif.g08.bks.cpg/sg2_174_cif.got.tgz:346037.got - 2010.06.03 11:33:40.
