data_PCOD9059820
_publ_section_title
;
Structure prediction by ZEFSAII (Michael W. Deem and Ramdas Pophale) SiO2 
 PCOD9059820
Probable space group: P -1
;
_chemical_formula_sum "Si O2"
_cell_formula_units_Z 14
_cell_length_a 18.501931
_cell_length_b 5.385279
_cell_length_c 26.568933
_cell_angle_alpha 108.852669
_cell_angle_beta 13.472232
_cell_angle_gamma 108.715622
_cell_volume 583.396330
_symmetry_space_group_name_H-M "P -1"
_symmetry_group_IT_number 2
_symmetry_cell_setting 'triclinic'
loop_
_space_group_symop_operation_xyz
x,y,z
-x,-y,-z
loop_
_atom_site_type_symbol
_atom_site_label
_atom_site_fract_x
_atom_site_fract_y
_atom_site_fract_z
Si Si1 0.601677 0.889675 0.812199
Si Si2 0.157340 0.427500 0.038274
Si Si3 0.118602 0.152088 0.215659
Si Si4 0.734322 0.094858 0.628909
Si Si5 0.703905 0.167024 0.410390
Si Si6 0.767538 0.468426 0.201636
Si Si7 0.836037 0.732965 0.451694
O O1 0.364495 0.670491 0.935844
O O2 0.928029 0.768423 0.599706
O O3 0.684110 0.071423 0.720701
O O4 0.462414 0.079070 0.961177
O O5 0.421990 0.224433 0.830631
O O6 0.927433 0.344668 0.234594
O O7 0.947774 0.445571 0.131087
O O8 0.928419 0.035067 0.288708
O O9 0.017077 0.456792 0.307563
O O10 0.023461 0.975035 0.315376
O O11 0.760596 0.813612 0.565108
O O12 0.445383 0.285805 0.628865
O O13 0.500000 0.000000 0.500000
O O14 0.490738 0.269466 0.358113
O O15 0.000000 0.500000 0.000000
#
# Coordination Sequence:
#
# PCOD9059820 Si02
#       7
#     2   2   2   2   2   2   2
#     4  11  24  48  72 103 140 192 250 300 356 425
#     4  12  24  45  74 104 145 192 242 299 361 438
#     4  11  24  47  73 101 150 185 247 295 366 433
#     4  11  27  44  73 104 143 191 245 303 358 429
#     4  11  23  42  69 105 136 193 236 296 359 438
#     4  11  25  41  71 104 144 187 236 302 367 433
#     4  11  27  47  69 111 144 195 233 304 369 441
#
# _framework density 23.997409999999999
#
# number of rings (size 3 to 8) (size 9 to 14) (size 15 to 20)
#    0.000    0.857    1.429    5.143    8.000    1.714 
#    0.000    0.000    0.000    0.000    0.000    0.000 
#    0.000    0.000    0.000    0.000    0.000    0.000 
#
# Total GULP energy -78142.897650 kJ/mol
# GULP energy per Si atom -5581.635546 kJ/mol
# Density = 2.394279 g / cm^3
# Si number density = 23.997410 Si / 1000 Ang^3
#
#
#
# Elastic Constant Matrix: (Units=GPa)
#
#
# Indices 1 2 3 4 5 6 
#
# 1 156.0288 29.1326 99.3271 22.7290 -15.4085 3.1222
# 2 29.1326 88.5703 63.2382 11.6906 7.6495 5.5245
# 3 99.3271 63.2382 222.2800 50.6019 -6.6671 -7.6323
# 4 22.7290 11.6906 50.6019 58.3642 -4.4391 1.4429
# 5 -15.4085 7.6495 -6.6671 -4.4391 57.4642 0.5271
# 6 3.1222 5.5245 -7.6323 1.4429 0.5271 36.8611
#
#
#
# Elastic Compliance Matrix: (Units=1/GPa)
#
#
# Indices 1 2 3 4 5 6 
#
# 1 0.009285 -0.000207 -0.004132 0.000206 0.002069 -0.001649
# 2 -0.000207 0.014883 -0.004533 0.000921 -0.002463 -0.003153
# 3 -0.004132 -0.004533 0.008954 -0.005315 0.000096 0.003090
# 4 0.000206 0.000921 -0.005315 0.021606 0.001004 -0.002116
# 5 0.002069 -0.002463 0.000096 0.001004 0.018374 -0.000088
# 6 -0.001649 -0.003153 0.003090 -0.002116 -0.000088 0.028465
#
#
# Mechanical properties :
#
#
# Convention : Reuss Voigt Hill
#
# Bulk Modulus (GPa) = 65.02849 94.47497 79.75173
# Shear Modulus (GPa) = 40.18078 48.88330 44.53204
#
# Velocity S-wave (km/s) = 4.09636 4.51824 4.31246
# Velocity P-wave (km/s) = 7.03779 8.16539 7.62247
#
# Compressibility (1/GPa) = 0.01537787
#
# Stress axis : x y z
#
# Youngs Moduli (GPa) = 107.69761 67.18987 111.68574
#
# Poissons Ratio (x) = 0.01392 0.46144
# Poissons Ratio (y) = 0.02232 0.50631
# Poissons Ratio (z) = 0.44496 0.30459
#
# Static dielectric constant tensor:
#      x y z
#    x 2.337430 0.413670 -0.358420 
#    y 0.413670 2.168130 -0.243330 
#    z -0.358420 -0.243330 2.240370 
# 
# From -- ./inp_files/89993.got.cif
#   From: 2010.05.17/outbox.cif.g08.bks.cpg/sg2_45_cif.got.tgz:89993.got - 2010.06.03 11:33:40.
