data_PCOD9059179
_publ_section_title
;
Structure prediction by ZEFSAII (Michael W. Deem and Ramdas Pophale) SiO2 
 PCOD9059179
Probable space group: P -1
;
_chemical_formula_sum "Si O2"
_cell_formula_units_Z 14
_cell_length_a 10.588138
_cell_length_b 8.498992
_cell_length_c 9.005982
_cell_angle_alpha 67.637882
_cell_angle_beta 117.910419
_cell_angle_gamma 83.516471
_cell_volume 618.894746
_symmetry_space_group_name_H-M "P -1"
_symmetry_group_IT_number 2
_symmetry_cell_setting 'triclinic'
loop_
_space_group_symop_operation_xyz
x,y,z
-x,-y,-z
loop_
_atom_site_type_symbol
_atom_site_label
_atom_site_fract_x
_atom_site_fract_y
_atom_site_fract_z
Si Si1 0.635331 0.113379 0.361085
Si Si2 0.940607 0.698273 0.322614
Si Si3 0.306355 0.248446 0.610304
Si Si4 0.488762 0.508202 0.668591
Si Si5 0.999536 0.524619 0.817188
Si Si6 0.047066 0.981013 0.358622
Si Si7 0.231888 0.722966 0.898647
O O1 0.555974 0.286207 0.363025
O O2 0.681614 0.209416 0.207878
O O3 0.793695 0.994867 0.573248
O O4 0.586460 0.945471 0.334568
O O5 0.787849 0.804879 0.290149
O O6 0.069549 0.781241 0.391720
O O7 0.000000 0.500000 0.500000
O O8 0.929422 0.668927 0.154675
O O9 0.383273 0.383137 0.676850
O O10 0.171066 0.368408 0.379729
O O11 0.500000 0.500000 0.500000
O O12 0.646727 0.400947 0.876709
O O13 0.119357 0.624234 0.808508
O O14 0.000000 0.500000 0.000000
O O15 0.896980 0.110912 0.148593
O O16 0.000000 0.000000 0.500000
#
# Coordination Sequence:
#
# PCOD9059179 Si02
#       7
#     2   2   2   2   2   2   2
#     4  11  21  43  73  93 126 173 218 274 326 376
#     4  10  18  34  64  96 123 161 217 267 313 381
#     4  11  21  43  70  91 124 175 225 264 320 393
#     4  12  28  45  60  95 140 175 210 267 339 394
#     4  11  22  39  64  97 132 170 212 266 328 391
#     4  10  17  37  66 100 123 153 214 282 316 362
#     4  11  22  43  66  95 130 162 220 272 318 383
#
# _framework density 22.620971000000001
#
# number of rings (size 3 to 8) (size 9 to 14) (size 15 to 20)
#    0.000    1.143    4.286    6.429    0.000    1.143 
#    5.143    1.429    0.000    0.000    0.000    0.000 
#    0.000    0.000    0.000    0.000    0.000    0.000 
#
# Total GULP energy -77963.160566 kJ/mol
# GULP energy per Si atom -5568.797183 kJ/mol
# Density = 2.256949 g / cm^3
# Si number density = 22.620971 Si / 1000 Ang^3
#
#
#
# Elastic Constant Matrix: (Units=GPa)
#
#
# Indices 1 2 3 4 5 6 
#
# 1 18.5309 7.6478 18.1561 -1.7422 2.4077 -2.9427
# 2 7.6478 144.6474 18.2291 2.3203 2.7658 -12.6618
# 3 18.1561 18.2291 92.1532 1.1509 15.8728 -30.3980
# 4 -1.7422 2.3203 1.1509 26.2448 -11.8126 4.4029
# 5 2.4077 2.7658 15.8728 -11.8126 37.4701 7.9731
# 6 -2.9427 -12.6618 -30.3980 4.4029 7.9731 40.9604
#
#
#
# Elastic Compliance Matrix: (Units=1/GPa)
#
#
# Indices 1 2 3 4 5 6 
#
# 1 0.073221 -0.002999 -0.021115 0.014064 0.012131 -0.015210
# 2 -0.002999 0.007348 0.000497 -0.002241 -0.001913 0.003038
# 3 -0.021115 0.000497 0.026311 -0.015451 -0.019732 0.023665
# 4 0.014064 -0.002241 -0.015451 0.056551 0.028480 -0.022772
# 5 0.012131 -0.001913 -0.019732 0.028480 0.049130 -0.026989
# 6 -0.015210 0.003038 0.023665 -0.022772 -0.026989 0.049524
#
#
# Mechanical properties :
#
#
# Convention : Reuss Voigt Hill
#
# Bulk Modulus (GPa) = 16.76583 38.15529 27.46056
# Shear Modulus (GPa) = 15.18831 35.02161 25.10496
#
# Velocity S-wave (km/s) = 2.59400 3.93898 3.33499
# Velocity P-wave (km/s) = 4.04963 6.13117 5.19571
#
# Compressibility (1/GPa) = 0.05964512
#
# Stress axis : x y z
#
# Youngs Moduli (GPa) = 13.65735 136.09552 38.00668
#
# Poissons Ratio (x) = 0.40819 0.80252
# Poissons Ratio (y) = 0.04096 -0.01890
# Poissons Ratio (z) = 0.28838 -0.06767
#
# Static dielectric constant tensor:
#      x y z
#    x 1.938060 0.013790 -0.007170 
#    y 0.013790 2.065380 -0.046270 
#    z -0.007170 -0.046270 1.858720 
# 
# From -- ./inp_files/237966.got.cif
#   From: 2010.05.17/outbox.cif.g08.bks.cpg/sg2_119_cif.got.tgz:237966.got - 2010.06.03 11:33:40.
