data_PCOD9059803
_publ_section_title
;
Structure prediction by ZEFSAII (Michael W. Deem and Ramdas Pophale) SiO2 
 PCOD9059803
Probable space group: P -1
;
_chemical_formula_sum "Si O2"
_cell_formula_units_Z 14
_cell_length_a 11.475769
_cell_length_b 8.327630
_cell_length_c 10.471809
_cell_angle_alpha 43.701517
_cell_angle_beta 75.225333
_cell_angle_gamma 65.308679
_cell_volume 626.441568
_symmetry_space_group_name_H-M "P -1"
_symmetry_group_IT_number 2
_symmetry_cell_setting 'triclinic'
loop_
_space_group_symop_operation_xyz
x,y,z
-x,-y,-z
loop_
_atom_site_type_symbol
_atom_site_label
_atom_site_fract_x
_atom_site_fract_y
_atom_site_fract_z
Si Si1 0.140204 0.492370 0.596002
Si Si2 0.304564 0.634473 0.023232
Si Si3 0.138052 0.421564 0.339339
Si Si4 0.628493 0.337946 0.484162
Si Si5 0.608889 0.866281 0.867763
Si Si6 0.676334 0.960474 0.071360
Si Si7 0.374840 0.916603 0.607374
O O1 0.130200 0.525746 0.426708
O O2 0.250406 0.587144 0.561059
O O3 0.998678 0.608408 0.627322
O O4 0.198427 0.205856 0.790824
O O5 0.335361 0.750770 0.080766
O O6 0.331464 0.822402 0.805967
O O7 0.172704 0.592548 0.125417
O O8 0.379454 0.369182 0.087992
O O9 0.254639 0.161348 0.465505
O O10 0.500000 0.500000 0.500000
O O11 0.602623 0.322223 0.351385
O O12 0.664769 0.052671 0.676733
O O13 0.458942 0.025721 0.838474
O O14 0.674629 0.836592 0.005450
O O15 0.500000 0.000000 0.500000
#
# Coordination Sequence:
#
# PCOD9059803 Si02
#       7
#     2   2   2   2   2   2   2
#     4  11  24  48  70 102 144 193 245 291 360 432
#     4  12  25  45  71 106 142 186 238 296 362 431
#     4  11  26  47  71 102 144 193 240 294 362 427
#     4  12  23  44  72 102 145 188 237 306 357 422
#     4  11  24  41  68 111 138 184 241 297 369 420
#     4  11  23  42  69 101 146 184 234 303 357 425
#     4  12  26  45  74 108 143 182 242 299 360 430
#
# _framework density 22.348452999999999
#
# number of rings (size 3 to 8) (size 9 to 14) (size 15 to 20)
#    0.000    0.571    4.286    3.857    4.000    1.143 
#    2.571    1.429    0.000    0.000    0.000    0.000 
#    0.000    0.000    0.000    0.000    0.000    0.000 
#
# Total GULP energy -78016.852575 kJ/mol
# GULP energy per Si atom -5572.632327 kJ/mol
# Density = 2.229759 g / cm^3
# Si number density = 22.348453 Si / 1000 Ang^3
#
#
#
# Elastic Constant Matrix: (Units=GPa)
#
#
# Indices 1 2 3 4 5 6 
#
# 1 150.5968 54.8134 38.6800 -1.8715 -23.7194 -22.2067
# 2 54.8134 100.7178 27.5734 -3.8064 -14.2465 -2.1019
# 3 38.6800 27.5734 99.1084 7.0008 -17.9484 -10.6673
# 4 -1.8715 -3.8064 7.0008 37.1342 0.2868 -11.4169
# 5 -23.7194 -14.2465 -17.9484 0.2868 29.8091 0.5631
# 6 -22.2067 -2.1019 -10.6673 -11.4169 0.5631 44.9305
#
#
#
# Elastic Compliance Matrix: (Units=1/GPa)
#
#
# Indices 1 2 3 4 5 6 
#
# 1 0.010069 -0.004202 -0.001460 0.001797 0.005016 0.004827
# 2 -0.004202 0.012983 -0.001908 0.000941 0.001736 -0.001705
# 3 -0.001460 -0.001908 0.012496 -0.002197 0.005443 0.001530
# 4 0.001797 0.000941 -0.002197 0.029999 0.000117 0.008032
# 5 0.005016 0.001736 0.005443 0.000117 0.041581 0.003361
# 6 0.004827 -0.001705 0.001530 0.008032 0.003361 0.026925
#
#
# Mechanical properties :
#
#
# Convention : Reuss Voigt Hill
#
# Bulk Modulus (GPa) = 48.99694 65.83963 57.41828
# Shear Modulus (GPa) = 32.05248 37.66517 34.85883
#
# Velocity S-wave (km/s) = 3.79121 4.10977 3.95370
# Velocity P-wave (km/s) = 6.41374 7.21420 6.82571
#
# Compressibility (1/GPa) = 0.02040944
#
# Stress axis : x y z
#
# Youngs Moduli (GPa) = 99.31752 77.02160 80.02615
#
# Poissons Ratio (x) = 0.32364 0.11680
# Poissons Ratio (y) = 0.41732 0.15268
# Poissons Ratio (z) = 0.14496 0.14695
#
# Static dielectric constant tensor:
#      x y z
#    x 1.834190 0.075790 0.043130 
#    y 0.075790 1.923790 0.068540 
#    z 0.043130 0.068540 1.958560 
# 
# From -- ./inp_files/416047.got.cif
#   From: 2010.05.17/outbox.cif.g08.bks.cpg/sg2_209_cif.got.tgz:416047.got - 2010.06.03 11:33:40.
