data_PCOD9059906
_publ_section_title
;
Structure prediction by ZEFSAII (Michael W. Deem and Ramdas Pophale) SiO2 
 PCOD9059906
Probable space group: P -1
;
_chemical_formula_sum "Si O2"
_cell_formula_units_Z 16
_cell_length_a 8.976227
_cell_length_b 28.227589
_cell_length_c 10.985439
_cell_angle_alpha 150.607383
_cell_angle_beta 50.851356
_cell_angle_gamma 147.015274
_cell_volume 690.227135
_symmetry_space_group_name_H-M "P -1"
_symmetry_group_IT_number 2
_symmetry_cell_setting 'triclinic'
loop_
_space_group_symop_operation_xyz
x,y,z
-x,-y,-z
loop_
_atom_site_type_symbol
_atom_site_label
_atom_site_fract_x
_atom_site_fract_y
_atom_site_fract_z
Si Si1 0.793931 0.138513 0.993071
Si Si2 0.801915 0.374206 0.161979
Si Si3 0.457593 0.380313 0.187882
Si Si4 0.291525 0.451494 0.813196
Si Si5 0.668804 0.196969 0.439476
Si Si6 0.455294 0.667187 0.556515
Si Si7 0.796605 0.159324 0.753971
Si Si8 0.631170 0.741937 0.386533
O O1 0.778281 0.172382 0.938501
O O2 0.538186 0.963068 0.752894
O O3 0.768600 0.200844 0.260934
O O4 0.121524 0.219551 0.016650
O O5 0.677934 0.384064 0.133161
O O6 0.553575 0.295008 0.218094
O O7 0.110249 0.539009 0.411324
O O8 0.851957 0.279307 0.921128
O O9 0.500000 0.500000 0.500000
O O10 0.527398 0.433346 0.133450
O O11 0.410786 0.389445 0.630521
O O12 0.954006 0.321940 0.655604
O O13 0.387441 0.562500 0.116335
O O14 0.481589 0.221158 0.565672
O O15 0.635289 0.785320 0.619054
O O16 0.061712 0.187481 0.651522
O O17 0.500000 0.000000 0.500000
#
# Coordination Sequence:
#
# PCOD9059906 Si02
#       8
#     2   2   2   2   2   2   2   2
#     4  11  25  49  70 100 139 179 237 285 343 417
#     4  11  24  43  73 101 134 184 229 287 345 403
#     4  12  22  43  75 102 133 175 239 283 339 410
#     4  12  23  44  70 106 136 180 228 292 342 406
#     4  11  26  44  74 101 136 184 230 293 344 404
#     4  11  23  42  71 101 138 175 232 287 340 407
#     4  12  29  47  66  98 145 187 226 282 354 418
#     4  12  26  44  67 103 141 181 234 285 345 415
#
# _framework density 23.180774
#
# number of rings (size 3 to 8) (size 9 to 14) (size 15 to 20)
#    0.000    0.500    5.000    2.250    5.250    1.500 
#    0.000    1.250    0.000    0.000    0.000    0.000 
#    0.000    0.000    0.000    0.000    0.000    0.000 
#
# Total GULP energy -89566.806540 kJ/mol
# GULP energy per Si atom -5597.925409 kJ/mol
# Density = 2.312801 g / cm^3
# Si number density = 23.180774 Si / 1000 Ang^3
#
#
#
# Elastic Constant Matrix: (Units=GPa)
#
#
# Indices 1 2 3 4 5 6 
#
# 1 145.8398 35.2897 5.2205 2.7419 2.6701 19.6167
# 2 35.2897 104.1883 23.3985 1.2334 14.2133 -0.5672
# 3 5.2205 23.3985 43.4496 10.6489 14.4207 15.5595
# 4 2.7419 1.2334 10.6489 37.2581 4.1385 8.9656
# 5 2.6701 14.2133 14.4207 4.1385 33.2293 -2.0545
# 6 19.6167 -0.5672 15.5595 8.9656 -2.0545 38.6631
#
#
#
# Elastic Compliance Matrix: (Units=1/GPa)
#
#
# Indices 1 2 3 4 5 6 
#
# 1 0.008348 -0.003442 0.003155 0.000052 -0.000922 -0.005617
# 2 -0.003442 0.012773 -0.007922 0.001122 -0.001593 0.004777
# 3 0.003155 -0.007922 0.038988 -0.005478 -0.014147 -0.016889
# 4 0.000052 0.001122 -0.005478 0.029758 -0.002111 -0.004818
# 5 -0.000922 -0.001593 -0.014147 -0.002111 0.037786 0.008635
# 6 -0.005617 0.004777 -0.016889 -0.004818 0.008635 0.037157
#
#
# Mechanical properties :
#
#
# Convention : Reuss Voigt Hill
#
# Bulk Modulus (GPa) = 22.88746 46.81057 34.84902
# Shear Modulus (GPa) = 25.53751 37.13472 31.33612
#
# Velocity S-wave (km/s) = 3.32274 4.00679 3.68069
# Velocity P-wave (km/s) = 4.96142 6.45317 5.75583
#
# Compressibility (1/GPa) = 0.04369204
#
# Stress axis : x y z
#
# Youngs Moduli (GPa) = 119.78808 78.29114 25.64908
#
# Poissons Ratio (x) = 0.26944 -0.08092
# Poissons Ratio (y) = 0.41226 0.20318
# Poissons Ratio (z) = -0.37792 0.62019
#
# Static dielectric constant tensor:
#      x y z
#    x 1.810470 -0.021320 0.012130 
#    y -0.021320 1.895430 -0.098900 
#    z 0.012130 -0.098900 1.948330 
# 
# From -- ./inp_files/271941.got.cif
#   From: 2010.05.17/outbox.cif.g08.bks.cpg/sg2_136_cif.got.tgz:271941.got - 2010.06.03 11:33:40.
