data_PCOD9059193
_publ_section_title
;
Structure prediction by ZEFSAII (Michael W. Deem and Ramdas Pophale) SiO2 
 PCOD9059193
Probable space group: P -1
;
_chemical_formula_sum "Si O2"
_cell_formula_units_Z 16
_cell_length_a 16.003258
_cell_length_b 11.502156
_cell_length_c 9.093007
_cell_angle_alpha 83.739185
_cell_angle_beta 124.664377
_cell_angle_gamma 138.853785
_cell_volume 731.433781
_symmetry_space_group_name_H-M "P -1"
_symmetry_group_IT_number 2
_symmetry_cell_setting 'triclinic'
loop_
_space_group_symop_operation_xyz
x,y,z
-x,-y,-z
loop_
_atom_site_type_symbol
_atom_site_label
_atom_site_fract_x
_atom_site_fract_y
_atom_site_fract_z
Si Si1 0.960952 0.831744 0.419791
Si Si2 0.323077 0.155747 0.533812
Si Si3 0.767765 0.952625 0.874506
Si Si4 0.166462 0.691513 0.755954
Si Si5 0.389820 0.416535 0.052677
Si Si6 0.468043 0.868302 0.605254
Si Si7 0.513516 0.914115 0.178261
Si Si8 0.070072 0.362462 0.298805
O O1 0.924137 0.709908 0.536746
O O2 0.780554 0.664184 0.154725
O O3 0.000000 0.000000 0.500000
O O4 0.142989 0.973637 0.486881
O O5 0.253802 0.110579 0.305561
O O6 0.465250 0.389536 0.710917
O O7 0.437181 0.144569 0.658658
O O8 0.697896 0.786084 0.940045
O O9 0.634738 0.936484 0.762251
O O10 0.976400 0.195405 0.099378
O O11 0.325986 0.930302 0.808866
O O12 0.000000 0.500000 0.500000
O O13 0.064022 0.657815 0.791339
O O14 0.296407 0.708354 0.933575
O O15 0.500000 0.500000 0.000000
O O16 0.454903 0.930791 0.732237
O O17 0.273928 0.609297 0.426454
O O18 0.500000 0.000000 0.500000
#
# Coordination Sequence:
#
# PCOD9059193 Si02
#       8
#     2   2   2   2   2   2   2   2
#     4  12  25  47  74 107 141 186 255 304 365 433
#     4  12  27  46  72 107 152 189 241 306 371 439
#     4  12  27  48  72 109 149 194 245 296 381 442
#     4  11  23  40  70 105 138 187 247 298 353 421
#     4  12  26  47  78 105 143 194 250 309 359 433
#     4  12  26  47  70 103 147 192 236 296 369 444
#     4  11  24  43  67 105 148 184 244 299 354 437
#     4  12  25  45  75 104 144 197 242 304 367 436
#
# _framework density 21.874842999999998
#
# number of rings (size 3 to 8) (size 9 to 14) (size 15 to 20)
#    0.000    0.250    7.500    1.125    1.750    2.000 
#    2.250    0.000    0.000    0.000    0.000    0.000 
#    0.000    0.000    0.000    0.000    0.000    0.000 
#
# Total GULP energy -89545.523312 kJ/mol
# GULP energy per Si atom -5596.595207 kJ/mol
# Density = 2.182505 g / cm^3
# Si number density = 21.874843 Si / 1000 Ang^3
#
#
#
# Elastic Constant Matrix: (Units=GPa)
#
#
# Indices 1 2 3 4 5 6 
#
# 1 57.2140 23.9608 35.6505 -0.7528 -1.2559 -6.2473
# 2 23.9608 121.0271 65.4906 6.6208 4.2835 2.1577
# 3 35.6505 65.4906 173.0724 15.4176 -6.1476 3.4307
# 4 -0.7528 6.6208 15.4176 37.0680 -6.7506 -1.1582
# 5 -1.2559 4.2835 -6.1476 -6.7506 46.8081 0.4152
# 6 -6.2473 2.1577 3.4307 -1.1582 0.4152 23.1228
#
#
#
# Elastic Compliance Matrix: (Units=1/GPa)
#
#
# Indices 1 2 3 4 5 6 
#
# 1 0.021750 -0.002495 -0.003901 0.002841 0.000649 0.006819
# 2 -0.002495 0.010791 -0.003529 -0.000844 -0.001629 -0.001170
# 3 -0.003901 -0.003529 0.008238 -0.002774 0.000919 -0.002103
# 4 0.002841 -0.000844 -0.002774 0.029145 0.003969 0.002647
# 5 0.000649 -0.001629 0.000919 0.003969 0.022223 -0.000009
# 6 0.006819 -0.001170 -0.002103 0.002647 -0.000009 0.045643
#
#
# Mechanical properties :
#
#
# Convention : Reuss Voigt Hill
#
# Bulk Modulus (GPa) = 47.78056 66.83525 57.30791
# Shear Modulus (GPa) = 30.37338 36.48057 33.42697
#
# Velocity S-wave (km/s) = 3.73031 4.08817 3.91333
# Velocity P-wave (km/s) = 6.35954 7.27351 6.83183
#
# Compressibility (1/GPa) = 0.02092901
#
# Stress axis : x y z
#
# Youngs Moduli (GPa) = 45.97650 92.67184 121.38451
#
# Poissons Ratio (x) = 0.23121 0.47357
# Poissons Ratio (y) = 0.11471 0.42835
# Poissons Ratio (z) = 0.17937 0.32702
#
# Static dielectric constant tensor:
#      x y z
#    x 1.813340 -0.004670 -0.008540 
#    y -0.004670 1.813460 -0.004640 
#    z -0.008540 -0.004640 1.833710 
# 
# From -- ./inp_files/333293.got.cif
#   From: 2010.05.17/outbox.cif.g08.bks.cpg/sg2_167_cif.got.tgz:333293.got - 2010.06.03 11:33:40.
