data_PCOD9059266
_publ_section_title
;
Structure prediction by ZEFSAII (Michael W. Deem and Ramdas Pophale) SiO2 
 PCOD9059266
Probable space group: P -1
;
_chemical_formula_sum "Si O2"
_cell_formula_units_Z 16
_cell_length_a 11.580855
_cell_length_b 15.793204
_cell_length_c 19.563415
_cell_angle_alpha 161.392879
_cell_angle_beta 50.104367
_cell_angle_gamma 129.830353
_cell_volume 868.100032
_symmetry_space_group_name_H-M "P -1"
_symmetry_group_IT_number 2
_symmetry_cell_setting 'triclinic'
loop_
_space_group_symop_operation_xyz
x,y,z
-x,-y,-z
loop_
_atom_site_type_symbol
_atom_site_label
_atom_site_fract_x
_atom_site_fract_y
_atom_site_fract_z
Si Si1 0.575574 0.117967 0.376243
Si Si2 0.281239 0.769534 0.446437
Si Si3 0.111511 0.703667 0.662198
Si Si4 0.490931 0.516393 0.935329
Si Si5 0.834998 0.721292 0.172901
Si Si6 0.041443 0.309439 0.150584
Si Si7 0.980300 0.402971 0.767246
Si Si8 0.223363 0.150573 0.556130
O O1 0.648447 0.115760 0.422191
O O2 0.710533 0.300988 0.425555
O O3 0.404592 0.191453 0.506549
O O4 0.556036 0.820025 0.124240
O O5 0.415825 0.709783 0.300987
O O6 0.182819 0.479964 0.266267
O O7 0.178376 0.975455 0.611989
O O8 0.000000 0.500000 0.500000
O O9 0.086587 0.671860 0.729051
O O10 0.070424 0.004608 0.893712
O O11 0.322467 0.446398 0.918901
O O12 0.500000 0.500000 0.000000
O O13 0.830993 0.713408 0.250032
O O14 0.961849 0.610961 0.994663
O O15 0.024470 0.451782 0.192869
O O16 0.131399 0.264915 0.616786
O O17 0.841789 0.161394 0.645293
#
# Coordination Sequence:
#
# PCOD9059266 Si02
#       8
#     2   2   2   2   2   2   2   2
#     4  12  22  38  58  88 126 156 199 248 308 355
#     4  12  21  33  60  91 122 156 191 251 311 363
#     4  11  24  40  65  91 118 156 201 258 312 354
#     4  12  21  31  52  91 127 157 184 243 311 373
#     4  12  21  35  58  90 125 161 200 238 306 365
#     4  11  23  41  62  91 122 156 202 252 304 359
#     4  11  24  41  61  88 124 164 207 243 293 360
#     4  11  24  40  60  89 125 166 203 242 291 369
#
# _framework density 18.431054
#
# number of rings (size 3 to 8) (size 9 to 14) (size 15 to 20)
#    0.000    0.500    7.500    3.000    0.000    0.000 
#    0.000    0.625    0.000    0.750    0.000    0.000 
#    0.000    0.000    0.000    0.000    0.000    0.000 
#
# Total GULP energy -89248.877294 kJ/mol
# GULP energy per Si atom -5578.054831 kJ/mol
# Density = 1.838910 g / cm^3
# Si number density = 18.431054 Si / 1000 Ang^3
#
#
#
# Elastic Constant Matrix: (Units=GPa)
#
#
# Indices 1 2 3 4 5 6 
#
# 1 48.0131 29.5844 22.7214 3.4938 -6.5734 1.3910
# 2 29.5844 98.4314 35.8884 -13.4686 -12.6211 5.8015
# 3 22.7214 35.8884 102.7674 2.2768 7.8803 -2.8907
# 4 3.4938 -13.4686 2.2768 33.8736 7.6207 6.1473
# 5 -6.5734 -12.6211 7.8803 7.6207 26.5847 2.7950
# 6 1.3910 5.8015 -2.8907 6.1473 2.7950 25.6581
#
#
#
# Elastic Compliance Matrix: (Units=1/GPa)
#
#
# Indices 1 2 3 4 5 6 
#
# 1 0.028723 -0.007250 -0.004172 -0.007226 0.006906 0.000591
# 2 -0.007250 0.016237 -0.004858 0.007331 0.005909 -0.006226
# 3 -0.004172 -0.004858 0.013045 -0.001473 -0.007196 0.003931
# 4 -0.007226 0.007331 -0.001473 0.036650 -0.007387 -0.009408
# 5 0.006906 0.005909 -0.007196 -0.007387 0.046996 -0.005871
# 6 0.000591 -0.006226 0.003931 -0.009408 -0.005871 0.043686
#
#
# Mechanical properties :
#
#
# Convention : Reuss Voigt Hill
#
# Bulk Modulus (GPa) = 39.29944 47.28893 43.29418
# Shear Modulus (GPa) = 22.08689 27.95780 25.02235
#
# Velocity S-wave (km/s) = 3.46548 3.89895 3.68859
# Velocity P-wave (km/s) = 6.11403 6.78100 6.45613
#
# Compressibility (1/GPa) = 0.02544566
#
# Stress axis : x y z
#
# Youngs Moduli (GPa) = 34.81504 61.58587 76.66048
#
# Poissons Ratio (x) = 0.44651 0.31979
# Poissons Ratio (y) = 0.25241 0.37243
# Poissons Ratio (z) = 0.14523 0.29919
#
# Static dielectric constant tensor:
#      x y z
#    x 1.624700 0.015730 -0.000020 
#    y 0.015730 1.706840 -0.007170 
#    z -0.000020 -0.007170 1.671090 
# 
# From -- ./inp_files/77021.got.cif
#   From: 2010.05.17/outbox.cif.g08.bks.cpg/sg2_39_cif.got.tgz:77021.got - 2010.06.03 11:33:40.
