data_PCOD9059300
_publ_section_title
;
Structure prediction by ZEFSAII (Michael W. Deem and Ramdas Pophale) SiO2 
 PCOD9059300
Probable space group: P -1
;
_chemical_formula_sum "Si O2"
_cell_formula_units_Z 15
_cell_length_a 11.858708
_cell_length_b 11.529027
_cell_length_c 13.112349
_cell_angle_alpha 81.596170
_cell_angle_beta 139.021677
_cell_angle_gamma 67.151951
_cell_volume 743.978741
_symmetry_space_group_name_H-M "P -1"
_symmetry_group_IT_number 2
_symmetry_cell_setting 'triclinic'
loop_
_space_group_symop_operation_xyz
x,y,z
-x,-y,-z
loop_
_atom_site_type_symbol
_atom_site_label
_atom_site_fract_x
_atom_site_fract_y
_atom_site_fract_z
Si Si1 0.500000 0.000000 0.000000
Si Si2 0.253191 0.838246 0.622016
Si Si3 0.544146 0.714135 0.139208
Si Si4 0.301076 0.390860 0.506772
Si Si5 0.189556 0.912719 0.237487
Si Si6 0.914247 0.244052 0.656131
Si Si7 0.013787 0.129251 0.273841
Si Si8 0.201148 0.509187 0.842936
O O1 0.408713 0.184190 0.891897
O O2 0.221539 0.119189 0.861152
O O3 0.191986 0.757466 0.521420
O O4 0.522186 0.673320 0.889537
O O5 0.000000 0.000000 0.500000
O O6 0.247997 0.953268 0.528228
O O7 0.598245 0.690883 0.299237
O O8 0.737326 0.525169 0.231939
O O9 0.243310 0.823452 0.902047
O O10 0.513092 0.243620 0.584665
O O11 0.251108 0.555386 0.451283
O O12 0.026996 0.465214 0.293253
O O13 0.131784 0.831643 0.280988
O O14 0.117326 0.063561 0.237488
O O15 0.000000 0.000000 0.000000
O O16 0.907033 0.309235 0.216087
#
# Coordination Sequence:
#
# PCOD9059300 Si02
#       8
#     1   2   2   2   2   2   2   2
#     4  12  20  40  70 102 138 164 234 292 342 396
#     4  11  23  41  65 100 142 181 218 277 358 423
#     4  12  23  44  68 106 135 180 229 292 349 409
#     4  12  26  43  71 102 138 182 240 287 339 412
#     4  11  23  48  72  97 132 187 239 279 346 414
#     4  11  24  42  70 101 136 177 232 288 346 414
#     4  11  24  45  71  99 137 189 228 281 356 413
#     4  12  26  43  68 106 144 178 230 290 353 416
#
# _framework density 20.161867000000001
#
# number of rings (size 3 to 8) (size 9 to 14) (size 15 to 20)
#    0.000    0.533    6.667    2.000    1.867    1.600 
#    2.400    2.667    0.000    0.000    0.000    0.000 
#    0.000    0.000    0.000    0.000    0.000    0.000 
#
# Total GULP energy -83591.805936 kJ/mol
# GULP energy per Si atom -5572.787062 kJ/mol
# Density = 2.011598 g / cm^3
# Si number density = 20.161867 Si / 1000 Ang^3
#
#
#
# Elastic Constant Matrix: (Units=GPa)
#
#
# Indices 1 2 3 4 5 6 
#
# 1 103.2265 60.7085 36.0305 4.0335 9.1821 -17.6688
# 2 60.7085 156.9693 33.4792 -11.1959 -1.9197 -12.4601
# 3 36.0305 33.4792 57.8938 -4.4320 5.5314 -1.4238
# 4 4.0335 -11.1959 -4.4320 25.2288 -8.1284 3.1796
# 5 9.1821 -1.9197 5.5314 -8.1284 30.3476 -10.2321
# 6 -17.6688 -12.4601 -1.4238 3.1796 -10.2321 45.8255
#
#
#
# Elastic Compliance Matrix: (Units=1/GPa)
#
#
# Indices 1 2 3 4 5 6 
#
# 1 0.016934 -0.005252 -0.007579 -0.008491 -0.004877 0.004366
# 2 -0.005252 0.009422 -0.002130 0.005973 0.004533 0.001069
# 3 -0.007579 -0.002130 0.023666 0.004149 -0.002242 -0.003555
# 4 -0.008491 0.005973 0.004149 0.049368 0.014865 -0.001627
# 5 -0.004877 0.004533 -0.002242 0.014865 0.041650 0.007551
# 6 0.004366 0.001069 -0.003555 -0.001627 0.007551 0.025484
#
#
# Mechanical properties :
#
#
# Convention : Reuss Voigt Hill
#
# Bulk Modulus (GPa) = 49.74746 64.28068 57.01407
# Shear Modulus (GPa) = 24.61274 32.80512 28.70893
#
# Velocity S-wave (km/s) = 3.49772 4.03809 3.77758
# Velocity P-wave (km/s) = 6.40622 7.32756 6.88233
#
# Compressibility (1/GPa) = 0.02010153
#
# Stress axis : x y z
#
# Youngs Moduli (GPa) = 59.05227 106.13088 42.25467
#
# Poissons Ratio (x) = 0.55735 0.32024
# Poissons Ratio (y) = 0.31012 0.09001
# Poissons Ratio (z) = 0.44755 0.22607
#
# Static dielectric constant tensor:
#      x y z
#    x 1.689070 -0.021260 -0.021630 
#    y -0.021260 1.752830 -0.010440 
#    z -0.021630 -0.010440 1.743570 
# 
# From -- ./inp_files/425124.got.cif
#   From: 2010.05.17/outbox.cif.g08.bks.cpg/sg2_213_cif.got.tgz:425124.got - 2010.06.03 11:33:40.
