data_PCOD9059916
_publ_section_title
;
Structure prediction by ZEFSAII (Michael W. Deem and Ramdas Pophale) SiO2 
 PCOD9059916
Probable space group: P -1
;
_chemical_formula_sum "Si O2"
_cell_formula_units_Z 14
_cell_length_a 12.714053
_cell_length_b 5.853557
_cell_length_c 11.866012
_cell_angle_alpha 96.089220
_cell_angle_beta 51.305407
_cell_angle_gamma 69.789740
_cell_volume 580.930870
_symmetry_space_group_name_H-M "P -1"
_symmetry_group_IT_number 2
_symmetry_cell_setting 'triclinic'
loop_
_space_group_symop_operation_xyz
x,y,z
-x,-y,-z
loop_
_atom_site_type_symbol
_atom_site_label
_atom_site_fract_x
_atom_site_fract_y
_atom_site_fract_z
Si Si1 0.540486 0.865003 0.845184
Si Si2 0.133385 0.698496 0.938091
Si Si3 0.728528 0.017892 0.566844
Si Si4 0.021070 0.565475 0.225054
Si Si5 0.768664 0.022900 0.945663
Si Si6 0.542838 0.697197 0.411234
Si Si7 0.228637 0.701866 0.260596
O O1 0.611982 0.554261 0.810488
O O2 0.668218 0.882601 0.688209
O O3 0.366779 0.018056 0.914591
O O4 0.500000 0.000000 0.000000
O O5 0.267034 0.483739 0.752118
O O6 0.053530 0.595552 0.074382
O O7 0.232903 0.761545 0.961923
O O8 0.000000 0.000000 0.000000
O O9 0.570589 0.234819 0.618253
O O10 0.826991 0.117549 0.578983
O O11 0.846660 0.798173 0.387341
O O12 0.130712 0.599276 0.248612
O O13 0.065595 0.259216 0.188324
O O14 0.735419 0.141601 0.849298
O O15 0.500000 0.500000 0.500000
O O16 0.500000 0.000000 0.500000
#
# Coordination Sequence:
#
# PCOD9059916 Si02
#       7
#     2   2   2   2   2   2   2
#     4  12  23  41  68 104 141 190 236 299 377 457
#     4  11  27  49  80 103 145 198 255 324 381 457
#     4  12  27  44  74 103 152 196 246 317 379 457
#     4  11  25  45  70 107 144 194 247 312 384 460
#     4  11  24  43  71 105 144 186 250 301 386 455
#     4  12  31  54  80 116 153 202 266 323 388 459
#     4  11  23  42  71 102 146 185 251 298 385 448
#
# _framework density 24.099250999999999
#
# number of rings (size 3 to 8) (size 9 to 14) (size 15 to 20)
#    0.000    0.571    2.857    3.429   10.000    5.143 
#    0.000    0.000    0.000    0.000    0.000    0.000 
#    0.000    0.000    0.000    0.000    0.000    0.000 
#
# Total GULP energy -78111.156086 kJ/mol
# GULP energy per Si atom -5579.368292 kJ/mol
# Density = 2.404440 g / cm^3
# Si number density = 24.099251 Si / 1000 Ang^3
#
#
#
# Elastic Constant Matrix: (Units=GPa)
#
#
# Indices 1 2 3 4 5 6 
#
# 1 73.3916 9.2245 18.7417 -0.5843 16.0879 -10.4124
# 2 9.2245 132.9814 59.7434 6.2764 10.0328 -18.9398
# 3 18.7417 59.7434 157.6558 21.0306 0.9018 -4.1555
# 4 -0.5843 6.2764 21.0306 40.2103 -1.7947 -0.1367
# 5 16.0879 10.0328 0.9018 -1.7947 35.2401 11.7283
# 6 -10.4124 -18.9398 -4.1555 -0.1367 11.7283 34.3241
#
#
#
# Elastic Compliance Matrix: (Units=1/GPa)
#
#
# Indices 1 2 3 4 5 6 
#
# 1 0.018364 0.002482 -0.002879 0.000860 -0.012601 0.010901
# 2 0.002482 0.011012 -0.004230 0.000245 -0.007052 0.008728
# 3 -0.002879 -0.004230 0.008690 -0.003796 0.003188 -0.003260
# 4 0.000860 0.000245 -0.003796 0.026877 0.001116 -0.000338
# 5 -0.012601 -0.007052 0.003188 0.001116 0.043496 -0.022186
# 6 0.010901 0.008728 -0.003260 -0.000338 -0.022186 0.044442
#
#
# Mechanical properties :
#
#
# Convention : Reuss Voigt Hill
#
# Bulk Modulus (GPa) = 34.70712 59.93868 47.32290
# Shear Modulus (GPa) = 29.11380 40.37618 34.74499
#
# Velocity S-wave (km/s) = 3.47951 4.09762 3.80115
# Velocity P-wave (km/s) = 5.52953 6.87844 6.24054
#
# Compressibility (1/GPa) = 0.02881253
#
# Stress axis : x y z
#
# Youngs Moduli (GPa) = 54.45302 90.81275 115.06999
#
# Poissons Ratio (x) = -0.22542 0.33129
# Poissons Ratio (y) = -0.13517 0.48677
# Poissons Ratio (z) = 0.15677 0.38416
#
# Static dielectric constant tensor:
#      x y z
#    x 2.014860 0.042830 -0.014110 
#    y 0.042830 1.976490 -0.010490 
#    z -0.014110 -0.010490 1.460640 
# 
# From -- ./inp_files/27791.got.cif
#   From: 2010.05.17/outbox.cif.g08.bks.cpg/sg2_14_cif.got.tgz:27791.got - 2010.06.03 11:33:40.
