data_PCOD9059305
_publ_section_title
;
Structure prediction by ZEFSAII (Michael W. Deem and Ramdas Pophale) SiO2 
 PCOD9059305
Probable space group: P -1
;
_chemical_formula_sum "Si O2"
_cell_formula_units_Z 16
_cell_length_a 17.429433
_cell_length_b 6.534044
_cell_length_c 18.427250
_cell_angle_alpha 130.880101
_cell_angle_beta 28.745985
_cell_angle_gamma 120.169810
_cell_volume 748.290750
_symmetry_space_group_name_H-M "P -1"
_symmetry_group_IT_number 2
_symmetry_cell_setting 'triclinic'
loop_
_space_group_symop_operation_xyz
x,y,z
-x,-y,-z
loop_
_atom_site_type_symbol
_atom_site_label
_atom_site_fract_x
_atom_site_fract_y
_atom_site_fract_z
Si Si1 0.942204 0.210385 0.662123
Si Si2 0.816703 0.365709 0.417072
Si Si3 0.622844 0.609725 0.975380
Si Si4 0.501547 0.388071 0.770082
Si Si5 0.771219 0.113672 0.922678
Si Si6 0.003809 0.269158 0.879678
Si Si7 0.723563 0.526485 0.377518
Si Si8 0.447679 0.935787 0.610017
O O1 0.912621 0.091050 0.738917
O O2 0.054273 0.441440 0.628695
O O3 0.761988 0.358519 0.824939
O O4 0.000000 0.000000 0.500000
O O5 0.688801 0.359827 0.586365
O O6 0.708365 0.508349 0.472315
O O7 0.903064 0.047286 0.252834
O O8 0.523279 0.726411 0.156628
O O9 0.500000 0.500000 0.000000
O O10 0.719965 0.825459 0.911501
O O11 0.416184 0.215956 0.744403
O O12 0.395525 0.691832 0.920367
O O13 0.838165 0.228019 0.968246
O O14 0.106966 0.392717 0.761969
O O15 0.000000 0.500000 0.000000
O O16 0.592538 0.739306 0.489031
O O17 0.700699 0.223611 0.301987
O O18 0.500000 0.000000 0.500000
#
# Coordination Sequence:
#
# PCOD9059305 Si02
#       8
#     2   2   2   2   2   2   2   2
#     4  11  27  48  76 103 139 186 240 303 357 430
#     4  12  25  48  70 111 141 187 252 290 356 435
#     4  11  28  49  70 104 144 185 236 297 373 424
#     4  11  27  42  73 102 144 185 237 301 348 431
#     4  11  27  47  68 108 146 183 240 293 361 434
#     4  12  27  43  70 102 149 195 232 294 357 424
#     4  11  24  40  68  97 144 185 242 288 347 413
#     4  11  23  41  65 104 138 185 240 286 342 423
#
# _framework density 21.382062000000001
#
# number of rings (size 3 to 8) (size 9 to 14) (size 15 to 20)
#    0.000    0.750    5.000    0.000   10.500    3.000 
#    0.000    0.000    0.000    0.000    0.000    0.000 
#    0.000    0.000    0.000    0.000    0.000    0.000 
#
# Total GULP energy -89317.699227 kJ/mol
# GULP energy per Si atom -5582.356202 kJ/mol
# Density = 2.133340 g / cm^3
# Si number density = 21.382062 Si / 1000 Ang^3
#
#
#
# Elastic Constant Matrix: (Units=GPa)
#
#
# Indices 1 2 3 4 5 6 
#
# 1 109.6638 60.2952 35.6930 -2.3979 8.6266 19.4769
# 2 60.2952 125.4944 46.8758 -13.3030 13.5668 6.5986
# 3 35.6930 46.8758 85.3801 -1.6227 18.5362 -0.8628
# 4 -2.3979 -13.3030 -1.6227 26.8272 5.5608 -7.2410
# 5 8.6266 13.5668 18.5362 5.5608 39.6954 -1.6265
# 6 19.4769 6.5986 -0.8628 -7.2410 -1.6265 38.4780
#
#
#
# Elastic Compliance Matrix: (Units=1/GPa)
#
#
# Indices 1 2 3 4 5 6 
#
# 1 0.014507 -0.005914 -0.003084 -0.003854 0.000558 -0.007100
# 2 -0.005914 0.013216 -0.004172 0.006705 -0.002149 0.001804
# 3 -0.003084 -0.004172 0.016541 0.000492 -0.005594 0.002503
# 4 -0.003854 0.006705 0.000492 0.044224 -0.007518 0.008817
# 5 0.000558 -0.002149 -0.005594 -0.007518 0.029462 -0.000208
# 6 -0.007100 0.001804 0.002503 0.008817 -0.000208 0.030980
#
#
# Mechanical properties :
#
#
# Convention : Reuss Voigt Hill
#
# Bulk Modulus (GPa) = 55.78510 67.36293 61.57402
# Shear Modulus (GPa) = 27.58727 32.84505 30.21616
#
# Velocity S-wave (km/s) = 3.59584 3.92357 3.76327
# Velocity P-wave (km/s) = 6.58684 7.21794 6.90960
#
# Compressibility (1/GPa) = 0.01792593
#
# Stress axis : x y z
#
# Youngs Moduli (GPa) = 68.93360 75.66478 60.45560
#
# Poissons Ratio (x) = 0.44745 0.18644
# Poissons Ratio (y) = 0.40764 0.25220
# Poissons Ratio (z) = 0.21258 0.31564
#
# Static dielectric constant tensor:
#      x y z
#    x 1.943370 0.066020 0.107520 
#    y 0.066020 1.852770 0.092540 
#    z 0.107520 0.092540 1.872420 
# 
# From -- ./inp_files/46765.got.cif
#   From: 2010.05.17/outbox.cif.g08.bks.cpg/sg2_24_cif.got.tgz:46765.got - 2010.06.03 11:33:40.
