data_PCOD9059623
_publ_section_title
;
Structure prediction by ZEFSAII (Michael W. Deem and Ramdas Pophale) SiO2 
 PCOD9059623
Probable space group: P -1
;
_chemical_formula_sum "Si O2"
_cell_formula_units_Z 14
_cell_length_a 5.428584
_cell_length_b 5.893152
_cell_length_c 18.778538
_cell_angle_alpha 89.287435
_cell_angle_beta 98.663948
_cell_angle_gamma 80.208566
_cell_volume 584.799987
_symmetry_space_group_name_H-M "P -1"
_symmetry_group_IT_number 2
_symmetry_cell_setting 'triclinic'
loop_
_space_group_symop_operation_xyz
x,y,z
-x,-y,-z
loop_
_atom_site_type_symbol
_atom_site_label
_atom_site_fract_x
_atom_site_fract_y
_atom_site_fract_z
Si Si1 0.215365 0.243023 0.175346
Si Si2 0.939745 0.973067 0.080652
Si Si3 0.520281 0.611420 0.925740
Si Si4 0.187431 0.014739 0.374879
Si Si5 0.783584 0.634568 0.175024
Si Si6 0.775465 0.494003 0.546699
Si Si7 0.645291 0.012840 0.286841
O O1 0.130130 0.002498 0.154374
O O2 0.228532 0.313873 0.092072
O O3 0.000697 0.420044 0.202861
O O4 0.473205 0.204295 0.229808
O O5 0.694208 0.164557 0.084720
O O6 0.861594 0.736675 0.102557
O O7 0.000000 0.000000 0.000000
O O8 0.471758 0.443298 0.861134
O O9 0.500000 0.500000 0.000000
O O10 0.229051 0.258302 0.413151
O O11 0.177104 0.764035 0.413345
O O12 0.434739 0.960792 0.334465
O O13 0.903051 0.074814 0.329428
O O14 0.735560 0.803917 0.237691
O O15 0.500000 0.500000 0.500000
O O16 0.000000 0.500000 0.500000
#
# Coordination Sequence:
#
# PCOD9059623 Si02
#       7
#     2   2   2   2   2   2   2
#     4  11  26  44  66  97 140 193 254 323 404 465
#     4  11  23  42  63  94 130 182 257 329 408 478
#     4  11  24  39  65  96 126 182 259 331 406 481
#     4  12  29  50  84 128 165 220 261 318 377 468
#     4  11  26  44  67  95 141 196 246 331 399 466
#     4  12  26  54  89 127 172 210 261 316 377 444
#     4  12  28  49  73 113 161 208 268 314 393 484
#
# _framework density 23.939806999999998
#
# number of rings (size 3 to 8) (size 9 to 14) (size 15 to 20)
#    0.000    0.571    1.429    5.143   10.000    3.429 
#    0.000    0.000    0.000    0.000    0.000    0.000 
#    0.000    0.000    0.000    0.000    0.000    0.000 
#
# Total GULP energy -78047.322170 kJ/mol
# GULP energy per Si atom -5574.808726 kJ/mol
# Density = 2.388532 g / cm^3
# Si number density = 23.939807 Si / 1000 Ang^3
#
#
#
# Elastic Constant Matrix: (Units=GPa)
#
#
# Indices 1 2 3 4 5 6 
#
# 1 143.0875 58.0173 76.4688 10.2588 3.3842 -7.7147
# 2 58.0173 147.4815 77.3636 8.5110 6.3396 -5.5637
# 3 76.4688 77.3636 119.0226 5.1557 -12.9363 11.8026
# 4 10.2588 8.5110 5.1557 50.3924 3.0569 -5.7200
# 5 3.3842 6.3396 -12.9363 3.0569 63.6738 0.0057
# 6 -7.7147 -5.5637 11.8026 -5.7200 0.0057 44.4754
#
#
#
# Elastic Compliance Matrix: (Units=1/GPa)
#
#
# Indices 1 2 3 4 5 6 
#
# 1 0.011648 -0.000064 -0.008039 -0.000948 -0.002201 0.004024
# 2 -0.000064 0.011192 -0.007839 -0.000527 -0.002679 0.003402
# 3 -0.008039 -0.007839 0.020015 -0.000285 0.005288 -0.007724
# 4 -0.000948 -0.000527 -0.000285 0.020494 -0.000939 0.002481
# 5 -0.002201 -0.002679 0.005288 -0.000939 0.017208 -0.002243
# 6 0.004024 0.003402 -0.007724 0.002481 -0.002243 0.025977
#
#
# Mechanical properties :
#
#
# Convention : Reuss Voigt Hill
#
# Bulk Modulus (GPa) = 91.15459 92.58789 91.87124
# Shear Modulus (GPa) = 35.19281 44.89110 40.04195
#
# Velocity S-wave (km/s) = 3.83829 4.33502 4.09419
# Velocity P-wave (km/s) = 7.60280 7.98847 7.79802
#
# Compressibility (1/GPa) = 0.01097037
#
# Stress axis : x y z
#
# Youngs Moduli (GPa) = 85.85262 89.35281 49.96276
#
# Poissons Ratio (x) = 0.00572 0.40165
# Poissons Ratio (y) = 0.00550 0.39166
# Poissons Ratio (z) = 0.69017 0.70043
#
# Static dielectric constant tensor:
#      x y z
#    x 1.930760 0.043850 0.019840 
#    y 0.043850 1.958990 -0.050620 
#    z 0.019840 -0.050620 1.978700 
# 
# From -- ./inp_files/11051.got.cif
#   From: 2010.05.17/outbox.cif.g08.bks.cpg/sg2_6_cif.got.tgz:11051.got - 2010.06.03 11:33:40.
