data_PCOD9059013
_publ_section_title
;
Structure prediction by ZEFSAII (Michael W. Deem and Ramdas Pophale) SiO2 
 PCOD9059013
Probable space group: P -1
;
_chemical_formula_sum "Si O2"
_cell_formula_units_Z 14
_cell_length_a 17.541770
_cell_length_b 11.456448
_cell_length_c 5.401993
_cell_angle_alpha 129.546723
_cell_angle_beta 63.893665
_cell_angle_gamma 137.086472
_cell_volume 569.280349
_symmetry_space_group_name_H-M "P -1"
_symmetry_group_IT_number 2
_symmetry_cell_setting 'triclinic'
loop_
_space_group_symop_operation_xyz
x,y,z
-x,-y,-z
loop_
_atom_site_type_symbol
_atom_site_label
_atom_site_fract_x
_atom_site_fract_y
_atom_site_fract_z
Si Si1 0.202137 0.780462 0.405158
Si Si2 0.059368 0.125601 0.336142
Si Si3 0.158941 0.557939 0.653371
Si Si4 0.362386 0.587037 0.217261
Si Si5 0.550347 0.711977 0.817052
Si Si6 0.257570 0.173975 0.949488
Si Si7 0.560957 0.928547 0.699631
O O1 0.139245 0.635549 0.538510
O O2 0.191365 0.949784 0.650369
O O3 0.337810 0.907774 0.405204
O O4 0.169986 0.668532 0.037535
O O5 0.077120 0.325301 0.536796
O O6 0.179495 0.181664 0.250188
O O7 0.000000 0.000000 0.500000
O O8 0.000000 0.000000 0.000000
O O9 0.271652 0.599638 0.460650
O O10 0.460799 0.707000 0.442480
O O11 0.444953 0.697416 0.015858
O O12 0.301111 0.355286 0.949342
O O13 0.500000 0.500000 0.500000
O O14 0.620650 0.892866 0.769350
O O15 0.632732 0.760375 0.982844
O O16 0.500000 0.000000 0.000000
#
# Coordination Sequence:
#
# PCOD9059013 Si02
#       7
#     2   2   2   2   2   2   2
#     4  12  24  42  66 108 145 182 228 290 346 409
#     4  11  27  54  81 103 131 182 240 297 364 435
#     4  11  26  45  73 103 144 183 230 286 350 420
#     4  11  23  40  60  98 141 198 232 273 326 421
#     4  12  23  38  63  97 144 193 238 285 333 409
#     4  11  25  44  69 103 140 185 240 296 355 407
#     4  12  23  36  60  95 149 194 238 264 331 409
#
# _framework density 24.592454
#
# number of rings (size 3 to 8) (size 9 to 14) (size 15 to 20)
#    0.000    0.571    4.286    3.857    0.000    5.714 
#    0.000    4.286    0.000    0.000    0.000    0.000 
#    0.000    0.000    0.000    0.000    0.000    0.000 
#
# Total GULP energy -78175.064489 kJ/mol
# GULP energy per Si atom -5583.933178 kJ/mol
# Density = 2.453648 g / cm^3
# Si number density = 24.592454 Si / 1000 Ang^3
#
#
#
# Elastic Constant Matrix: (Units=GPa)
#
#
# Indices 1 2 3 4 5 6 
#
# 1 41.1954 27.0326 29.7566 -1.8526 -3.2380 -12.0049
# 2 27.0326 163.1697 57.4946 -3.6945 6.6188 -37.8684
# 3 29.7566 57.4946 149.5103 26.2290 6.7819 -33.0255
# 4 -1.8526 -3.6945 26.2290 45.0133 -4.6863 -1.6700
# 5 -3.2380 6.6188 6.7819 -4.6863 28.7832 -2.4345
# 6 -12.0049 -37.8684 -33.0255 -1.6700 -2.4345 43.6364
#
#
#
# Elastic Compliance Matrix: (Units=1/GPa)
#
#
# Indices 1 2 3 4 5 6 
#
# 1 0.031893 -0.002759 -0.005999 0.005370 0.006715 0.002420
# 2 -0.002759 0.008536 -0.001821 0.001727 -0.001117 0.005274
# 3 -0.005999 -0.001821 0.010996 -0.007007 -0.003597 0.004623
# 4 0.005370 0.001727 -0.007007 0.027274 0.006219 -0.000936
# 5 0.006715 -0.001117 -0.003597 0.006219 0.037657 0.000495
# 6 0.002420 0.005274 0.004623 -0.000936 0.000495 0.031650
#
#
# Mechanical properties :
#
#
# Convention : Reuss Voigt Hill
#
# Bulk Modulus (GPa) = 33.03887 64.71590 48.87739
# Shear Modulus (GPa) = 27.89384 39.45935 33.67659
#
# Velocity S-wave (km/s) = 3.37151 4.01000 3.70454
# Velocity P-wave (km/s) = 5.34975 6.91467 6.18193
#
# Compressibility (1/GPa) = 0.03026738
#
# Stress axis : x y z
#
# Youngs Moduli (GPa) = 31.35527 117.15535 90.94178
#
# Poissons Ratio (x) = 0.32326 0.54553
# Poissons Ratio (y) = 0.08652 0.16557
# Poissons Ratio (z) = 0.18809 0.21329
#
# Static dielectric constant tensor:
#      x y z
#    x 1.959400 0.019010 -0.005360 
#    y 0.019010 2.018850 0.003460 
#    z -0.005360 0.003460 1.920910 
# 
# From -- ./inp_files/36815.got.cif
#   From: 2010.05.17/outbox.cif.g08.bks.cpg/sg2_19_cif.got.tgz:36815.got - 2010.06.03 11:33:40.
