data_PCOD9059753
_publ_section_title
;
Structure prediction by ZEFSAII (Michael W. Deem and Ramdas Pophale) SiO2 
 PCOD9059753
Probable space group: P -1
;
_chemical_formula_sum "Si O2"
_cell_formula_units_Z 14
_cell_length_a 9.366210
_cell_length_b 21.322235
_cell_length_c 5.998884
_cell_angle_alpha 100.510089
_cell_angle_beta 80.428908
_cell_angle_gamma 37.996697
_cell_volume 622.816033
_symmetry_space_group_name_H-M "P -1"
_symmetry_group_IT_number 2
_symmetry_cell_setting 'triclinic'
loop_
_space_group_symop_operation_xyz
x,y,z
-x,-y,-z
loop_
_atom_site_type_symbol
_atom_site_label
_atom_site_fract_x
_atom_site_fract_y
_atom_site_fract_z
Si Si1 0.921414 0.500590 0.774550
Si Si2 0.165115 0.269392 0.558905
Si Si3 0.655030 0.271190 0.095876
Si Si4 0.594808 0.905352 0.262394
Si Si5 0.991613 0.903550 0.490048
Si Si6 0.281081 0.874906 0.733955
Si Si7 0.022636 0.769912 0.712545
O O1 0.597016 0.624054 0.928803
O O2 0.000000 0.500000 0.500000
O O3 0.037008 0.386314 0.682173
O O4 0.000000 0.500000 0.000000
O O5 0.192500 0.218490 0.744676
O O6 0.481470 0.161901 0.341493
O O7 0.993519 0.290708 0.447654
O O8 0.601363 0.232087 0.248507
O O9 0.734083 0.304975 0.232071
O O10 0.915610 0.150676 0.813522
O O11 0.500000 0.000000 0.500000
O O12 0.744148 0.876262 0.990170
O O13 0.325292 0.965287 0.323635
O O14 0.185632 0.886136 0.523307
O O15 0.030081 0.825630 0.575907
O O16 0.000000 0.000000 0.000000
#
# Coordination Sequence:
#
# PCOD9059753 Si02
#       7
#     2   2   2   2   2   2   2
#     4  12  29  53  78 108 149 197 250 312 370 436
#     4  12  26  44  72 107 141 194 246 297 371 444
#     4  11  24  46  71 100 142 188 241 306 367 429
#     4  12  23  41  68 106 147 189 232 300 370 440
#     4  11  23  42  68 101 146 187 236 302 367 437
#     4  11  24  39  67 105 139 183 239 300 366 443
#     4  11  24  42  70 106 144 187 243 294 378 439
#
# _framework density 22.478546999999999
#
# number of rings (size 3 to 8) (size 9 to 14) (size 15 to 20)
#    0.000    0.571    4.286    3.000    6.000    5.143 
#    0.000    2.857    0.000    0.000    0.000    0.000 
#    0.000    0.000    0.000    0.000    0.000    0.000 
#
# Total GULP energy -78221.844719 kJ/mol
# GULP energy per Si atom -5587.274623 kJ/mol
# Density = 2.242738 g / cm^3
# Si number density = 22.478547 Si / 1000 Ang^3
#
#
#
# Elastic Constant Matrix: (Units=GPa)
#
#
# Indices 1 2 3 4 5 6 
#
# 1 141.3320 42.8232 27.7318 -17.1440 19.7428 -14.0333
# 2 42.8232 117.6933 5.8115 -6.0675 17.4930 -6.6791
# 3 27.7318 5.8115 51.3735 -16.4380 8.7148 7.8904
# 4 -17.1440 -6.0675 -16.4380 29.6191 -0.2922 1.8524
# 5 19.7428 17.4930 8.7148 -0.2922 44.4202 -3.1125
# 6 -14.0333 -6.6791 7.8904 1.8524 -3.1125 48.0306
#
#
#
# Elastic Compliance Matrix: (Units=1/GPa)
#
#
# Indices 1 2 3 4 5 6 
#
# 1 0.009591 -0.002669 -0.004147 0.002502 -0.002181 0.002875
# 2 -0.002669 0.009911 0.001130 0.001072 -0.002919 0.000182
# 3 -0.004147 0.001130 0.027628 0.013522 -0.004382 -0.006399
# 4 0.002502 0.001072 0.013522 0.043098 -0.004133 -0.003271
# 5 -0.002181 -0.002919 -0.004382 -0.004133 0.025568 0.001493
# 6 0.002875 0.000182 -0.006399 -0.003271 0.001493 0.022959
#
#
# Mechanical properties :
#
#
# Convention : Reuss Voigt Hill
#
# Bulk Modulus (GPa) = 27.96434 51.45909 39.71171
# Shear Modulus (GPa) = 30.85508 40.01613 35.43561
#
# Velocity S-wave (km/s) = 3.70894 4.22381 3.97472
# Velocity P-wave (km/s) = 5.55060 6.83591 6.22651
#
# Compressibility (1/GPa) = 0.03575983
#
# Stress axis : x y z
#
# Youngs Moduli (GPa) = 104.26003 100.89375 36.19471
#
# Poissons Ratio (x) = 0.26927 0.15008
# Poissons Ratio (y) = 0.27826 -0.04089
# Poissons Ratio (z) = 0.43232 -0.11398
#
# Static dielectric constant tensor:
#      x y z
#    x 1.855600 -0.020940 0.005610 
#    y -0.020940 1.840990 -0.039660 
#    z 0.005610 -0.039660 1.862790 
# 
# From -- ./inp_files/23059.got.cif
#   From: 2010.05.17/outbox.cif.g08.bks.cpg/sg2_12_cif.got.tgz:23059.got - 2010.06.03 11:33:40.
