data_PCOD9059852
_publ_section_title
;
Structure prediction by ZEFSAII (Michael W. Deem and Ramdas Pophale) SiO2 
 PCOD9059852
Probable space group: P -1
;
_chemical_formula_sum "Si O2"
_cell_formula_units_Z 16
_cell_length_a 9.925397
_cell_length_b 15.157361
_cell_length_c 11.068140
_cell_angle_alpha 65.626521
_cell_angle_beta 114.259026
_cell_angle_gamma 59.433679
_cell_volume 798.263002
_symmetry_space_group_name_H-M "P -1"
_symmetry_group_IT_number 2
_symmetry_cell_setting 'triclinic'
loop_
_space_group_symop_operation_xyz
x,y,z
-x,-y,-z
loop_
_atom_site_type_symbol
_atom_site_label
_atom_site_fract_x
_atom_site_fract_y
_atom_site_fract_z
Si Si1 0.134052 0.171789 0.861179
Si Si2 0.145696 0.592964 0.142986
Si Si3 0.440798 0.357706 0.893301
Si Si4 0.101394 0.838454 0.652459
Si Si5 0.290433 0.643280 0.583726
Si Si6 0.214929 0.162361 0.353494
Si Si7 0.612513 0.788738 0.216854
Si Si8 0.921946 0.582749 0.682714
O O1 0.238505 0.213079 0.810455
O O2 0.981556 0.283245 0.861190
O O3 0.942110 0.220452 0.671696
O O4 0.378723 0.972849 0.086310
O O5 0.441103 0.462250 0.307785
O O6 0.127551 0.488876 0.223470
O O7 0.983441 0.707772 0.900410
O O8 0.321862 0.511837 0.691478
O O9 0.492074 0.241530 0.888221
O O10 0.224762 0.437470 0.861908
O O11 0.684807 0.266272 0.106159
O O12 0.223956 0.728535 0.638416
O O13 0.880658 0.883739 0.589578
O O14 0.000000 0.000000 0.500000
O O15 0.196004 0.261546 0.382673
O O16 0.500000 0.000000 0.500000
O O17 0.798475 0.645995 0.467941
#
# Coordination Sequence:
#
# PCOD9059852 Si02
#       8
#     2   2   2   2   2   2   2   2
#     4  11  23  43  67 100 137 174 217 277 335 390
#     4  12  26  43  67 103 137 173 220 277 336 389
#     4  12  22  43  71  96 131 174 228 271 319 397
#     4  12  27  45  70  99 132 180 223 271 335 397
#     4  12  24  46  69  96 135 176 225 277 324 393
#     4  12  27  46  67 100 139 173 218 279 335 396
#     4  11  23  42  70 100 131 176 226 270 329 400
#     4  12  24  44  71  99 132 179 226 271 328 394
#
# _framework density 20.043519
#
# number of rings (size 3 to 8) (size 9 to 14) (size 15 to 20)
#    0.000    0.250    5.000    4.500    3.500    2.000 
#    0.000    1.250    0.000    0.000    0.000    0.000 
#    0.000    0.000    0.000    0.000    0.000    0.000 
#
# Total GULP energy -89581.168611 kJ/mol
# GULP energy per Si atom -5598.823038 kJ/mol
# Density = 1.999790 g / cm^3
# Si number density = 20.043519 Si / 1000 Ang^3
#
#
#
# Elastic Constant Matrix: (Units=GPa)
#
#
# Indices 1 2 3 4 5 6 
#
# 1 141.6096 55.3215 9.7107 -20.0915 12.4968 1.5486
# 2 55.3215 131.2067 11.8022 -3.5734 12.9265 1.3692
# 3 9.7107 11.8022 49.0322 -6.2605 8.3095 -3.6945
# 4 -20.0915 -3.5734 -6.2605 32.5205 3.3132 -3.0442
# 5 12.4968 12.9265 8.3095 3.3132 36.7321 -6.3086
# 6 1.5486 1.3692 -3.6945 -3.0442 -6.3086 31.2632
#
#
#
# Elastic Compliance Matrix: (Units=1/GPa)
#
#
# Indices 1 2 3 4 5 6 
#
# 1 0.009505 -0.003609 0.000133 0.005738 -0.002555 -0.000254
# 2 -0.003609 0.009425 -0.001497 -0.001385 -0.001781 -0.000905
# 3 0.000133 -0.001497 0.022305 0.004892 -0.004621 0.002239
# 4 0.005738 -0.001385 0.004892 0.035887 -0.005332 0.002773
# 5 -0.002555 -0.001781 -0.004621 -0.005332 0.031179 0.005431
# 6 -0.000254 -0.000905 0.002239 0.002773 0.005431 0.033669
#
#
# Mechanical properties :
#
#
# Convention : Reuss Voigt Hill
#
# Bulk Modulus (GPa) = 31.96094 52.83527 42.39811
# Shear Modulus (GPa) = 30.79837 36.43741 33.61789
#
# Velocity S-wave (km/s) = 3.92417 4.26833 4.09986
# Velocity P-wave (km/s) = 6.04256 7.12102 6.60384
#
# Compressibility (1/GPa) = 0.03128819
#
# Stress axis : x y z
#
# Youngs Moduli (GPa) = 105.21110 106.10053 44.83254
#
# Poissons Ratio (x) = 0.38290 -0.00595
# Poissons Ratio (y) = 0.37969 0.06712
# Poissons Ratio (z) = -0.01396 0.15886
#
# Static dielectric constant tensor:
#      x y z
#    x 1.704970 -0.000320 -0.010280 
#    y -0.000320 1.687480 0.003840 
#    z -0.010280 0.003840 1.710740 
# 
# From -- ./inp_files/205270.got.cif
#   From: 2010.05.17/outbox.cif.g08.bks.cpg/sg2_103_cif.got.tgz:205270.got - 2010.06.03 11:33:40.
