data_PCOD9059141
_publ_section_title
;
Structure prediction by ZEFSAII (Michael W. Deem and Ramdas Pophale) SiO2 
 PCOD9059141
Probable space group: P -1
;
_chemical_formula_sum "Si O2"
_cell_formula_units_Z 16
_cell_length_a 8.914126
_cell_length_b 14.450814
_cell_length_c 11.491782
_cell_angle_alpha 62.717234
_cell_angle_beta 115.265637
_cell_angle_gamma 61.333178
_cell_volume 645.056407
_symmetry_space_group_name_H-M "P -1"
_symmetry_group_IT_number 2
_symmetry_cell_setting 'triclinic'
loop_
_space_group_symop_operation_xyz
x,y,z
-x,-y,-z
loop_
_atom_site_type_symbol
_atom_site_label
_atom_site_fract_x
_atom_site_fract_y
_atom_site_fract_z
Si Si1 0.780694 0.725237 0.969387
Si Si2 0.679775 0.012976 0.804329
Si Si3 0.390986 0.478112 0.684673
Si Si4 0.195086 0.088824 0.841572
Si Si5 0.810748 0.571215 0.513258
Si Si6 0.341785 0.465936 0.165516
Si Si7 0.534413 0.320954 0.072898
Si Si8 0.061372 0.978356 0.313456
O O1 0.984070 0.596376 0.227409
O O2 0.012100 0.597197 0.011735
O O3 0.631425 0.917710 0.810380
O O4 0.554177 0.748613 0.877546
O O5 0.858997 0.984087 0.784213
O O6 0.362889 0.240475 0.595407
O O7 0.861549 0.913050 0.043339
O O8 0.444134 0.371731 0.657804
O O9 0.625431 0.448529 0.794171
O O10 0.068275 0.701751 0.420507
O O11 0.384423 0.426744 0.837859
O O12 0.172730 0.991017 0.821221
O O13 0.500000 0.000000 0.000000
O O14 0.000000 0.500000 0.500000
O O15 0.403117 0.458149 0.055768
O O16 0.621689 0.243900 0.421400
O O17 0.894200 0.129170 0.274276
#
# Coordination Sequence:
#
# PCOD9059141 Si02
#       8
#     2   2   2   2   2   2   2   2
#     4  12  26  47  75 109 146 190 250 303 364 439
#     4  12  25  43  72 107 153 187 236 297 372 444
#     4  11  24  43  72 106 143 192 237 299 369 436
#     4  11  23  40  68 107 147 189 235 295 373 442
#     4  12  24  45  73 109 149 187 235 302 376 437
#     4  11  26  49  74 103 146 198 250 303 359 433
#     4  12  25  48  73 105 146 197 250 303 361 429
#     4  11  25  45  69 106 147 194 243 303 363 437
#
# _framework density 24.804030999999998
#
# number of rings (size 3 to 8) (size 9 to 14) (size 15 to 20)
#    0.000    0.500    3.750    4.500    0.000    2.500 
#    0.000    0.625    0.000    0.000    0.000    0.000 
#    0.000    0.000    0.000    0.000    0.000    0.000 
#
# Total GULP energy -89629.576833 kJ/mol
# GULP energy per Si atom -5601.848552 kJ/mol
# Density = 2.474758 g / cm^3
# Si number density = 24.804031 Si / 1000 Ang^3
#
#
#
# Elastic Constant Matrix: (Units=GPa)
#
#
# Indices 1 2 3 4 5 6 
#
# 1 122.6731 22.2468 26.6892 -13.1465 -14.1124 -15.8308
# 2 22.2468 81.1888 16.9568 -16.3471 -3.7705 -9.0721
# 3 26.6892 16.9568 92.1481 -20.2194 -24.7830 -0.1730
# 4 -13.1465 -16.3471 -20.2194 40.1291 -3.9142 4.3563
# 5 -14.1124 -3.7705 -24.7830 -3.9142 34.4076 -1.0071
# 6 -15.8308 -9.0721 -0.1730 4.3563 -1.0071 49.2061
#
#
#
# Elastic Compliance Matrix: (Units=1/GPa)
#
#
# Indices 1 2 3 4 5 6 
#
# 1 0.009619 -0.001543 -0.001212 0.001931 0.003202 0.002700
# 2 -0.001543 0.014099 -0.000884 0.004692 0.000859 0.001702
# 3 -0.001212 -0.000884 0.016665 0.008961 0.012398 -0.001034
# 4 0.001931 0.004692 0.008961 0.033230 0.011506 -0.001189
# 5 0.003202 0.000859 0.012398 0.011506 0.040740 0.001047
# 6 0.002700 0.001702 -0.001034 -0.001189 0.001047 0.021628
#
#
# Mechanical properties :
#
#
# Convention : Reuss Voigt Hill
#
# Bulk Modulus (GPa) = 30.20763 47.53284 38.87024
# Shear Modulus (GPa) = 32.40552 40.08971 36.24762
#
# Velocity S-wave (km/s) = 3.61842 4.02463 3.82692
# Velocity P-wave (km/s) = 5.44631 6.38763 5.93566
#
# Compressibility (1/GPa) = 0.03310422
#
# Stress axis : x y z
#
# Youngs Moduli (GPa) = 103.95960 70.92621 60.00751
#
# Poissons Ratio (x) = 0.10946 0.07274
# Poissons Ratio (y) = 0.16045 0.05304
# Poissons Ratio (z) = 0.12601 0.06269
#
# Static dielectric constant tensor:
#      x y z
#    x 2.002840 0.049080 0.028910 
#    y 0.049080 2.005410 0.000430 
#    z 0.028910 0.000430 1.937300 
# 
# From -- ./inp_files/398808.got.cif
#   From: 2010.05.17/outbox.cif.g08.bks.cpg/sg2_200_cif.got.tgz:398808.got - 2010.06.03 11:33:40.
