data_PCOD9059029
_publ_section_title
;
Structure prediction by ZEFSAII (Michael W. Deem and Ramdas Pophale) SiO2 
 PCOD9059029
Probable space group: P -1
;
_chemical_formula_sum "Si O2"
_cell_formula_units_Z 16
_cell_length_a 5.074559
_cell_length_b 24.401333
_cell_length_c 31.904202
_cell_angle_alpha 10.016273
_cell_angle_beta 102.767541
_cell_angle_gamma 103.014767
_cell_volume 669.456681
_symmetry_space_group_name_H-M "P -1"
_symmetry_group_IT_number 2
_symmetry_cell_setting 'triclinic'
loop_
_space_group_symop_operation_xyz
x,y,z
-x,-y,-z
loop_
_atom_site_type_symbol
_atom_site_label
_atom_site_fract_x
_atom_site_fract_y
_atom_site_fract_z
Si Si1 0.037720 0.053887 0.510595
Si Si2 0.049981 0.265550 0.966084
Si Si3 0.827752 0.410831 0.766872
Si Si4 0.134612 0.193967 0.820658
Si Si5 0.394691 0.185808 0.257446
Si Si6 0.693446 0.213677 0.524565
Si Si7 0.441787 0.840335 0.351822
Si Si8 0.271338 0.359039 0.567155
O O1 0.338904 0.969177 0.598133
O O2 0.002634 0.422997 0.243453
O O3 0.000000 0.000000 0.500000
O O4 0.825709 0.840990 0.692305
O O5 0.821076 0.988295 0.159949
O O6 0.065800 0.375132 0.836343
O O7 0.282470 0.073691 0.140502
O O8 0.566796 0.574526 0.651785
O O9 0.006568 0.624151 0.579828
O O10 0.724869 0.078084 0.994843
O O11 0.313303 0.489212 0.620508
O O12 0.940565 0.367222 0.650644
O O13 0.000000 0.000000 0.000000
O O14 0.268104 0.994007 0.358445
O O15 0.500000 0.500000 0.000000
O O16 0.581039 0.019810 0.707802
O O17 0.674187 0.731431 0.411277
O O18 0.500000 0.500000 0.500000
#
# Coordination Sequence:
#
# PCOD9059029 Si02
#       8
#     2   2   2   2   2   2   2   2
#     4  12  28  51  81 115 151 197 248 307 384 456
#     4  11  26  45  70 103 148 190 248 297 373 439
#     4  12  25  44  73  99 143 194 243 295 360 438
#     4  11  23  40  62  99 139 190 244 302 358 422
#     4  12  27  52  79 116 150 193 245 312 381 457
#     4  12  26  46  72 106 143 192 239 297 367 439
#     4  11  26  41  67 104 144 193 250 302 365 428
#     4  11  25  42  68 103 145 196 253 305 367 428
#
# _framework density 23.899978000000001
#
# number of rings (size 3 to 8) (size 9 to 14) (size 15 to 20)
#    0.000    0.500    3.750    3.000   10.500    4.000 
#    0.000    0.000    0.000    0.000    0.000    0.000 
#    0.000    0.000    0.000    0.000    0.000    0.000 
#
# Total GULP energy -89224.558532 kJ/mol
# GULP energy per Si atom -5576.534908 kJ/mol
# Density = 2.384558 g / cm^3
# Si number density = 23.899978 Si / 1000 Ang^3
#
#
#
# Elastic Constant Matrix: (Units=GPa)
#
#
# Indices 1 2 3 4 5 6 
#
# 1 65.3966 5.7984 4.2936 3.7929 -13.4660 -13.8660
# 2 5.7984 122.1762 15.8897 17.5622 -2.3757 -9.6692
# 3 4.2936 15.8897 100.8593 -1.2820 -12.2729 8.1597
# 4 3.7929 17.5622 -1.2820 35.5044 2.4339 -2.0987
# 5 -13.4660 -2.3757 -12.2729 2.4339 37.3728 9.9768
# 6 -13.8660 -9.6692 8.1597 -2.0987 9.9768 37.8972
#
#
#
# Elastic Compliance Matrix: (Units=1/GPa)
#
#
# Indices 1 2 3 4 5 6 
#
# 1 0.017539 0.000028 -0.000601 -0.001938 0.004872 0.005164
# 2 0.000028 0.009255 -0.001775 -0.004464 -0.000390 0.002609
# 3 -0.000601 -0.001775 0.011100 0.000796 0.004378 -0.004171
# 4 -0.001938 -0.004464 0.000796 0.030830 -0.002845 0.000437
# 5 0.004872 -0.000390 0.004378 -0.002845 0.032220 -0.007899
# 6 0.005164 0.002609 -0.004171 0.000437 -0.007899 0.031944
#
#
# Mechanical properties :
#
#
# Convention : Reuss Voigt Hill
#
# Bulk Modulus (GPa) = 30.12147 37.82172 33.97159
# Shear Modulus (GPa) = 33.63634 39.65157 36.64396
#
# Velocity S-wave (km/s) = 3.75558 4.07758 3.91989
# Velocity P-wave (km/s) = 5.60681 6.16670 5.89341
#
# Compressibility (1/GPa) = 0.03319892
#
# Stress axis : x y z
#
# Youngs Moduli (GPa) = 57.01684 108.05031 90.08873
#
# Poissons Ratio (x) = -0.00299 0.05410
# Poissons Ratio (y) = -0.00158 0.15987
# Poissons Ratio (z) = 0.03424 0.19174
#
# Static dielectric constant tensor:
#      x y z
#    x 1.750970 0.473400 0.195890 
#    y 0.473400 0.985450 -0.467910 
#    z 0.195890 -0.467910 1.699890 
# 
# From -- ./inp_files/47565.got.cif
#   From: 2010.05.17/outbox.cif.g08.bks.cpg/sg2_24_cif.got.tgz:47565.got - 2010.06.03 11:33:40.
