data_PCOD9059621
_publ_section_title
;
Structure prediction by ZEFSAII (Michael W. Deem and Ramdas Pophale) SiO2 
 PCOD9059621
Probable space group: P -1
;
_chemical_formula_sum "Si O2"
_cell_formula_units_Z 16
_cell_length_a 7.556493
_cell_length_b 7.934561
_cell_length_c 15.590616
_cell_angle_alpha 64.601228
_cell_angle_beta 110.741284
_cell_angle_gamma 125.207964
_cell_volume 682.678820
_symmetry_space_group_name_H-M "P -1"
_symmetry_group_IT_number 2
_symmetry_cell_setting 'triclinic'
loop_
_space_group_symop_operation_xyz
x,y,z
-x,-y,-z
loop_
_atom_site_type_symbol
_atom_site_label
_atom_site_fract_x
_atom_site_fract_y
_atom_site_fract_z
Si Si1 0.796504 0.349159 0.237370
Si Si2 0.129464 0.989604 0.906446
Si Si3 0.311576 0.123488 0.726790
Si Si4 0.850191 0.998084 0.607717
Si Si5 0.184216 0.649220 0.566069
Si Si6 0.562672 0.558886 0.596200
Si Si7 0.682887 0.880205 0.791623
Si Si8 0.910124 0.231008 0.888917
O O1 0.880101 0.422242 0.331933
O O2 0.974662 0.517803 0.166221
O O3 0.729349 0.101901 0.267346
O O4 0.555854 0.324028 0.193311
O O5 0.886519 0.844388 0.854961
O O6 0.100202 0.168547 0.915373
O O7 0.289526 0.097598 0.831063
O O8 0.173555 0.849465 0.012482
O O9 0.518129 0.344517 0.683958
O O10 0.102658 0.134018 0.650104
O O11 0.784762 0.117334 0.499905
O O12 0.719092 0.962864 0.682062
O O13 0.795441 0.767437 0.610206
O O14 0.397771 0.634896 0.586252
O O15 0.000000 0.500000 0.500000
O O16 0.500000 0.500000 0.500000
O O17 0.729202 0.072792 0.823851
#
# Coordination Sequence:
#
# PCOD9059621 Si02
#       8
#     2   2   2   2   2   2   2   2
#     4  12  24  37  64  90 125 160 206 249 306 359
#     4   8  19  43  66  85 126 154 203 252 304 362
#     4  11  25  42  57  94 126 158 202 256 298 357
#     4  11  23  42  63  83 125 167 205 242 304 360
#     4  12  24  42  63  89 122 167 204 252 299 362
#     4  12  26  40  61  89 122 158 206 254 297 354
#     4   9  20  38  62  93 113 159 204 246 294 370
#     4   9  19  41  67  89 119 161 199 252 305 364
#
# _framework density 23.437083000000001
#
# number of rings (size 3 to 8) (size 9 to 14) (size 15 to 20)
#    0.750    0.750    2.500    2.625    3.500    3.000 
#    0.000    0.625    0.000    0.000    0.000    0.000 
#    0.000    0.000    0.000    0.000    0.000    0.000 
#
# Total GULP energy -89420.521285 kJ/mol
# GULP energy per Si atom -5588.782580 kJ/mol
# Density = 2.338374 g / cm^3
# Si number density = 23.437083 Si / 1000 Ang^3
#
#
#
# Elastic Constant Matrix: (Units=GPa)
#
#
# Indices 1 2 3 4 5 6 
#
# 1 28.0943 0.2783 9.2501 -2.8277 4.8810 -3.7169
# 2 0.2783 118.0453 46.2962 -16.7857 5.9905 9.6854
# 3 9.2501 46.2962 139.2191 -12.7572 -7.9212 -0.2682
# 4 -2.8277 -16.7857 -12.7572 23.7269 -0.6032 0.4083
# 5 4.8810 5.9905 -7.9212 -0.6032 22.9251 3.3851
# 6 -3.7169 9.6854 -0.2682 0.4083 3.3851 27.1506
#
#
#
# Elastic Compliance Matrix: (Units=1/GPa)
#
#
# Indices 1 2 3 4 5 6 
#
# 1 0.039836 0.001897 -0.003544 0.003801 -0.010996 0.006056
# 2 0.001897 0.011202 -0.003508 0.006224 -0.003880 -0.003381
# 3 -0.003544 -0.003508 0.009050 0.002081 0.004820 0.000224
# 4 0.003801 0.006224 0.002081 0.048160 -0.000096 -0.002392
# 5 -0.010996 -0.003880 0.004820 -0.000096 0.049561 -0.006251
# 6 0.006056 -0.003381 0.000224 -0.002392 -0.006251 0.039684
#
#
# Mechanical properties :
#
#
# Convention : Reuss Voigt Hill
#
# Bulk Modulus (GPa) = 20.08822 44.11198 32.10010
# Shear Modulus (GPa) = 22.28198 30.06279 26.17238
#
# Velocity S-wave (km/s) = 3.08671 3.58537 3.34534
# Velocity P-wave (km/s) = 4.61448 6.00018 5.35236
#
# Compressibility (1/GPa) = 0.04978042
#
# Stress axis : x y z
#
# Youngs Moduli (GPa) = 25.10265 89.26876 110.49342
#
# Poissons Ratio (x) = -0.16938 0.39154
# Poissons Ratio (y) = -0.04763 0.38763
# Poissons Ratio (z) = 0.08895 0.31317
#
# Static dielectric constant tensor:
#      x y z
#    x 1.984500 -0.009140 0.034640 
#    y -0.009140 1.913850 -0.008190 
#    z 0.034640 -0.008190 1.860330 
# 
# From -- ./inp_files/494694.got.cif
#   From: 2010.05.17/outbox.cif.g08.bks.cpg/sg2_248_cif.got.tgz:494694.got - 2010.06.03 11:33:40.
