data_PCOD9059642
_publ_section_title
;
Structure prediction by ZEFSAII (Michael W. Deem and Ramdas Pophale) SiO2 
 PCOD9059642
Probable space group: P -1
;
_chemical_formula_sum "Si O2"
_cell_formula_units_Z 16
_cell_length_a 10.387537
_cell_length_b 20.673386
_cell_length_c 6.587880
_cell_angle_alpha 58.907545
_cell_angle_beta 110.686715
_cell_angle_gamma 145.145156
_cell_volume 685.130542
_symmetry_space_group_name_H-M "P -1"
_symmetry_group_IT_number 2
_symmetry_cell_setting 'triclinic'
loop_
_space_group_symop_operation_xyz
x,y,z
-x,-y,-z
loop_
_atom_site_type_symbol
_atom_site_label
_atom_site_fract_x
_atom_site_fract_y
_atom_site_fract_z
Si Si1 0.917827 0.286612 0.864616
Si Si2 0.445394 0.823818 0.488734
Si Si3 0.002302 0.118062 0.824771
Si Si4 0.522813 0.639504 0.259465
Si Si5 0.261070 0.918422 0.594817
Si Si6 0.442261 0.489577 0.756301
Si Si7 0.824287 0.926696 0.334062
Si Si8 0.812477 0.370773 0.981043
O O1 0.733141 0.215539 0.698110
O O2 0.168501 0.379199 0.766399
O O3 0.842011 0.186084 0.135974
O O4 0.911739 0.361659 0.872147
O O5 0.569901 0.808651 0.469835
O O6 0.318410 0.740986 0.753432
O O7 0.660322 0.970418 0.429627
O O8 0.226869 0.234319 0.889124
O O9 0.092729 0.098827 0.738499
O O10 0.898033 0.137839 0.597723
O O11 0.828770 0.003541 0.068526
O O12 0.547003 0.613756 0.536373
O O13 0.445135 0.531738 0.266000
O O14 0.365724 0.643330 0.166328
O O15 0.500000 0.000000 0.500000
O O16 0.500000 0.500000 0.000000
O O17 0.000000 0.000000 0.500000
O O18 0.000000 0.500000 0.000000
#
# Coordination Sequence:
#
# PCOD9059642 Si02
#       8
#     2   2   2   2   2   2   2   2
#     4  12  27  45  72 103 140 183 236 284 347 413
#     4  12  26  44  71 101 139 185 229 283 348 412
#     4  11  25  41  68  99 140 176 225 283 338 410
#     4  11  26  45  71 101 138 178 228 283 342 406
#     4  12  25  44  68 101 143 182 228 285 344 409
#     4  11  26  47  71 102 135 178 231 285 343 408
#     4  11  23  42  65 100 136 177 224 274 341 407
#     4  12  27  48  71 102 139 182 233 290 344 412
#
# _framework density 23.353214000000001
#
# number of rings (size 3 to 8) (size 9 to 14) (size 15 to 20)
#    0.000    0.500    2.500    4.875    5.250    9.000 
#    0.000    0.000    0.000    0.000    0.000    0.000 
#    0.000    0.000    0.000    0.000    0.000    0.000 
#
# Total GULP energy -89491.132017 kJ/mol
# GULP energy per Si atom -5593.195751 kJ/mol
# Density = 2.330006 g / cm^3
# Si number density = 23.353214 Si / 1000 Ang^3
#
#
#
# Elastic Constant Matrix: (Units=GPa)
#
#
# Indices 1 2 3 4 5 6 
#
# 1 110.0299 15.8165 26.1684 2.5401 -2.1582 4.5347
# 2 15.8165 62.0740 -5.1062 3.7186 11.3906 2.6069
# 3 26.1684 -5.1062 91.4291 7.7275 13.3663 -2.3571
# 4 2.5401 3.7186 7.7275 36.3460 10.1465 2.2413
# 5 -2.1582 11.3906 13.3663 10.1465 43.3564 1.0236
# 6 4.5347 2.6069 -2.3571 2.2413 1.0236 44.5283
#
#
#
# Elastic Compliance Matrix: (Units=1/GPa)
#
#
# Indices 1 2 3 4 5 6 
#
# 1 0.010535 -0.003396 -0.003592 -0.000287 0.002617 -0.001110
# 2 -0.003396 0.018314 0.002872 -0.000628 -0.005709 -0.000411
# 3 -0.003592 0.002872 0.012957 -0.001584 -0.004582 0.001069
# 4 -0.000287 -0.000628 -0.001584 0.029777 -0.006297 -0.001372
# 5 0.002617 -0.005709 -0.004582 -0.006297 0.027593 -0.000492
# 6 -0.001110 -0.000411 0.001069 -0.001372 -0.000492 0.022732
#
#
# Mechanical properties :
#
#
# Convention : Reuss Voigt Hill
#
# Bulk Modulus (GPa) = 29.78522 37.47671 33.63097
# Shear Modulus (GPa) = 35.37806 39.95644 37.66725
#
# Velocity S-wave (km/s) = 3.89641 4.14086 4.02049
# Velocity P-wave (km/s) = 5.74670 6.24059 5.99873
#
# Compressibility (1/GPa) = 0.03357370
#
# Stress axis : x y z
#
# Youngs Moduli (GPa) = 94.92555 54.60328 77.17708
#
# Poissons Ratio (x) = 0.18544 0.27720
# Poissons Ratio (y) = 0.32238 -0.22165
# Poissons Ratio (z) = 0.34095 -0.15682
#
# Static dielectric constant tensor:
#      x y z
#    x 2.020110 -0.094520 -0.030890 
#    y -0.094520 1.996780 -0.001470 
#    z -0.030890 -0.001470 1.865020 
# 
# From -- ./inp_files/84235.got.cif
#   From: 2010.05.17/outbox.cif.g08.bks.cpg/sg2_43_cif.got.tgz:84235.got - 2010.06.03 11:33:40.
