data_PCOD9059537
_publ_section_title
;
Structure prediction by ZEFSAII (Michael W. Deem and Ramdas Pophale) SiO2 
 PCOD9059537
Probable space group: P -1
;
_chemical_formula_sum "Si O2"
_cell_formula_units_Z 14
_cell_length_a 21.168808
_cell_length_b 12.291078
_cell_length_c 15.232345
_cell_angle_alpha 29.149420
_cell_angle_beta 160.013144
_cell_angle_gamma 153.523240
_cell_volume 590.362330
_symmetry_space_group_name_H-M "P -1"
_symmetry_group_IT_number 2
_symmetry_cell_setting 'triclinic'
loop_
_space_group_symop_operation_xyz
x,y,z
-x,-y,-z
loop_
_atom_site_type_symbol
_atom_site_label
_atom_site_fract_x
_atom_site_fract_y
_atom_site_fract_z
Si Si1 0.406917 0.089101 0.654467
Si Si2 0.892477 0.089277 0.176982
Si Si3 0.025217 0.680841 0.690025
Si Si4 0.271222 0.886466 0.238633
Si Si5 0.315198 0.616920 0.966420
Si Si6 0.659759 0.547308 0.553711
Si Si7 0.022860 0.132481 0.843087
O O1 0.586951 0.290053 0.690153
O O2 0.348996 0.254185 0.529316
O O3 0.437959 0.884876 0.894592
O O4 0.204384 0.943306 0.434852
O O5 0.873323 0.147475 0.213101
O O6 0.111080 0.323197 0.273260
O O7 0.923987 0.835999 0.396514
O O8 0.739567 0.079336 0.905096
O O9 0.857715 0.405637 0.696419
O O10 0.190512 0.641075 0.871716
O O11 0.500000 0.000000 0.500000
O O12 0.145552 0.028188 0.014678
O O13 0.150149 0.424828 0.820133
O O14 0.479320 0.512176 0.275366
O O15 0.000000 0.000000 0.000000
#
# Coordination Sequence:
#
# PCOD9059537 Si02
#       7
#     2   2   2   2   2   2   2
#     4  11  23  41  71 104 142 179 221 294 346 403
#     4  11  26  49  72 104 142 184 235 289 345 420
#     4  11  25  47  74 103 143 185 229 288 351 418
#     4  12  27  49  71  98 140 192 236 286 350 411
#     4  12  24  43  72 108 139 180 230 281 356 410
#     4  11  23  41  72 104 139 173 235 284 340 415
#     4  12  23  46  68 100 143 179 234 287 337 417
#
# _framework density 23.714251000000001
#
# number of rings (size 3 to 8) (size 9 to 14) (size 15 to 20)
#    0.000    0.571    5.714    1.286    4.000    0.571 
#    2.571    0.000    0.000    0.000    0.000    0.000 
#    0.000    0.000    0.000    0.000    0.000    0.000 
#
# Total GULP energy -78426.105655 kJ/mol
# GULP energy per Si atom -5601.864690 kJ/mol
# Density = 2.366028 g / cm^3
# Si number density = 23.714251 Si / 1000 Ang^3
#
#
#
# Elastic Constant Matrix: (Units=GPa)
#
#
# Indices 1 2 3 4 5 6 
#
# 1 1143.7319 296.1760 926.5376 75.2424 -214.4846 -208.2136
# 2 296.1760 197.5121 259.9077 8.3441 -64.1193 -43.2622
# 3 926.5376 259.9077 903.3660 75.5597 -205.9399 -160.9139
# 4 75.2424 8.3441 75.5597 48.1409 -22.7660 -29.7977
# 5 -214.4846 -64.1193 -205.9399 -22.7660 80.8898 31.7302
# 6 -208.2136 -43.2622 -160.9139 -29.7977 31.7302 78.9454
#
#
#
# Elastic Compliance Matrix: (Units=1/GPa)
#
#
# Indices 1 2 3 4 5 6 
#
# 1 0.007120 -0.001483 -0.005346 0.003073 0.002054 0.007403
# 2 -0.001483 0.008870 -0.001067 0.002636 0.001442 -0.000810
# 3 -0.005346 -0.001067 0.008129 -0.002378 0.005484 -0.001215
# 4 0.003073 0.002636 -0.002378 0.031165 0.007711 0.013366
# 5 0.002054 0.001442 0.005484 0.007711 0.032198 0.007354
# 6 0.007403 -0.000810 -0.001215 0.013366 0.007354 0.031361
#
#
# Mechanical properties :
#
#
# Convention : Reuss Voigt Hill
#
# Bulk Modulus (GPa) = 120.08281 578.87249 349.47765
# Shear Modulus (GPa) = 36.38724 92.39448 64.39086
#
# Velocity S-wave (km/s) = 3.92140 6.24869 5.21649
# Velocity P-wave (km/s) = 8.44100 17.22483 13.56365
#
# Compressibility (1/GPa) = 0.00832759
#
# Stress axis : x y z
#
# Youngs Moduli (GPa) = 140.45432 112.73552 123.01038
#
# Poissons Ratio (x) = 0.16722 0.65758
# Poissons Ratio (y) = 0.20834 0.13123
# Poissons Ratio (z) = 0.75083 0.12027
#
# Static dielectric constant tensor:
#      x y z
#    x 1.927480 -0.030820 0.020110 
#    y -0.030820 1.866810 -0.005310 
#    z 0.020110 -0.005310 1.982640 
# 
# From -- ./inp_files/183844.got.cif
#   From: 2010.05.17/outbox.cif.g08.bks.cpg/sg2_92_cif.got.tgz:183844.got - 2010.06.03 11:33:40.
