data_PCOD9059993
_publ_section_title
;
Structure prediction by ZEFSAII (Michael W. Deem and Ramdas Pophale) SiO2 
 PCOD9059993
Probable space group: P -1
;
_chemical_formula_sum "Si O2"
_cell_formula_units_Z 14
_cell_length_a 13.878158
_cell_length_b 9.211116
_cell_length_c 8.669558
_cell_angle_alpha 49.310784
_cell_angle_beta 126.328285
_cell_angle_gamma 123.576453
_cell_volume 651.278154
_symmetry_space_group_name_H-M "P -1"
_symmetry_group_IT_number 2
_symmetry_cell_setting 'triclinic'
loop_
_space_group_symop_operation_xyz
x,y,z
-x,-y,-z
loop_
_atom_site_type_symbol
_atom_site_label
_atom_site_fract_x
_atom_site_fract_y
_atom_site_fract_z
Si Si1 0.890378 0.960126 0.797993
Si Si2 0.397179 0.790983 0.424246
Si Si3 0.164593 0.731825 0.059860
Si Si4 0.927768 0.890431 0.358703
Si Si5 0.240656 0.470286 0.718999
Si Si6 0.083014 0.455314 0.886613
Si Si7 0.627889 0.809502 0.782895
O O1 0.758398 0.948137 0.748160
O O2 0.877111 0.737525 0.877229
O O3 0.952205 0.120111 0.620551
O O4 0.000000 0.000000 0.000000
O O5 0.302184 0.726873 0.238038
O O6 0.318292 0.674692 0.575647
O O7 0.527757 0.737660 0.601553
O O8 0.424877 0.031170 0.284925
O O9 0.065566 0.617183 0.175414
O O10 0.129836 0.631843 0.929776
O O11 0.143557 0.951178 0.881474
O O12 0.829143 0.680640 0.377893
O O13 0.000000 0.000000 0.500000
O O14 0.142663 0.484754 0.752064
O O15 0.335547 0.361735 0.967751
#
# Coordination Sequence:
#
# PCOD9059993 Si02
#       7
#     2   2   2   2   2   2   2
#     4  10  17  38  63  82 118 159 196 250 300 349
#     4  11  23  36  66  86 121 162 200 245 301 355
#     4  10  21  40  56  90 127 154 195 253 300 353
#     4  11  23  37  61  92 124 155 194 256 306 346
#     4  11  22  40  63  91 118 159 204 244 299 359
#     4   9  20  35  61  86 121 155 198 248 300 352
#     4  10  21  42  60  88 120 160 204 244 294 363
#
# _framework density 21.496191
#
# number of rings (size 3 to 8) (size 9 to 14) (size 15 to 20)
#    0.000    1.714    4.286    1.286    6.000    1.714 
#    0.000    2.857    3.143    2.571    0.000    0.000 
#    0.000    0.000    0.000    0.000    0.000    0.000 
#
# Total GULP energy -77961.410441 kJ/mol
# GULP energy per Si atom -5568.672174 kJ/mol
# Density = 2.144726 g / cm^3
# Si number density = 21.496191 Si / 1000 Ang^3
#
#
#
# Elastic Constant Matrix: (Units=GPa)
#
#
# Indices 1 2 3 4 5 6 
#
# 1 49.5965 25.0985 24.0883 15.8309 4.2688 6.1732
# 2 25.0985 95.8786 39.6687 0.0995 10.2250 0.8514
# 3 24.0883 39.6687 113.2872 2.0918 26.4408 6.2960
# 4 15.8309 0.0995 2.0918 45.6425 4.0577 10.6569
# 5 4.2688 10.2250 26.4408 4.0577 26.7733 2.3852
# 6 6.1732 0.8514 6.2960 10.6569 2.3852 30.0910
#
#
#
# Elastic Compliance Matrix: (Units=1/GPa)
#
#
# Indices 1 2 3 4 5 6 
#
# 1 0.028293 -0.005896 -0.004587 -0.009560 0.003863 -0.001598
# 2 -0.005896 0.013442 -0.003210 0.002085 -0.001418 0.000875
# 3 -0.004587 -0.003210 0.013739 0.002432 -0.011822 -0.001767
# 4 -0.009560 0.002085 0.002432 0.027411 -0.005124 -0.007908
# 5 0.003863 -0.001418 -0.011822 -0.005124 0.049765 -0.000409
# 6 -0.001598 0.000875 -0.001767 -0.007908 -0.000409 0.036738
#
#
# Mechanical properties :
#
#
# Convention : Reuss Voigt Hill
#
# Bulk Modulus (GPa) = 35.60242 48.49701 42.04971
# Shear Modulus (GPa) = 24.25568 31.82850 28.04209
#
# Velocity S-wave (km/s) = 3.36277 3.85211 3.61572
# Velocity P-wave (km/s) = 5.62812 6.51112 6.08566
#
# Compressibility (1/GPa) = 0.02808798
#
# Stress axis : x y z
#
# Youngs Moduli (GPa) = 35.34498 74.39107 72.78564
#
# Poissons Ratio (x) = 0.43861 0.33390
# Poissons Ratio (y) = 0.20840 0.23361
# Poissons Ratio (z) = 0.16214 0.23876
#
# Static dielectric constant tensor:
#      x y z
#    x 1.810680 -0.009130 -0.016980 
#    y -0.009130 1.824910 0.018580 
#    z -0.016980 0.018580 1.881010 
# 
# From -- ./inp_files/236831.got.cif
#   From: 2010.05.17/outbox.cif.g08.bks.cpg/sg2_119_cif.got.tgz:236831.got - 2010.06.03 11:33:40.
