data_PCOD9059748
_publ_section_title
;
Structure prediction by ZEFSAII (Michael W. Deem and Ramdas Pophale) SiO2 
 PCOD9059748
Probable space group: P -1
;
_chemical_formula_sum "Si O2"
_cell_formula_units_Z 16
_cell_length_a 6.618316
_cell_length_b 10.598525
_cell_length_c 22.363259
_cell_angle_alpha 42.291690
_cell_angle_beta 77.613668
_cell_angle_gamma 107.893860
_cell_volume 727.150707
_symmetry_space_group_name_H-M "P -1"
_symmetry_group_IT_number 2
_symmetry_cell_setting 'triclinic'
loop_
_space_group_symop_operation_xyz
x,y,z
-x,-y,-z
loop_
_atom_site_type_symbol
_atom_site_label
_atom_site_fract_x
_atom_site_fract_y
_atom_site_fract_z
Si Si1 0.867825 0.800917 0.522004
Si Si2 0.812661 0.364151 0.883717
Si Si3 0.165485 0.924303 0.679654
Si Si4 0.216309 0.780154 0.420675
Si Si5 0.830187 0.946900 0.774378
Si Si6 0.174326 0.023773 0.035000
Si Si7 0.725937 0.241943 0.070896
Si Si8 0.276075 0.195191 0.756424
O O1 0.553223 0.494415 0.656242
O O2 0.085224 0.779798 0.490393
O O3 0.838978 0.929594 0.424258
O O4 0.000000 0.000000 0.500000
O O5 0.822069 0.197964 0.895962
O O6 0.093631 0.672643 0.748810
O O7 0.797128 0.280410 0.982288
O O8 0.516744 0.293441 0.916831
O O9 0.915089 0.806668 0.786473
O O10 0.478546 0.122882 0.620759
O O11 0.000000 0.500000 0.500000
O O12 0.242144 0.965689 0.307150
O O13 0.550023 0.797739 0.886285
O O14 0.130671 0.181775 0.709373
O O15 0.995425 0.965556 0.124554
O O16 0.000000 0.000000 0.000000
O O17 0.652025 0.981562 0.188432
O O18 0.000000 0.500000 0.000000
#
# Coordination Sequence:
#
# PCOD9059748 Si02
#       8
#     2   2   2   2   2   2   2   2
#     4  11  28  46  70 106 139 188 238 287 347 412
#     4  11  25  44  65 104 135 179 230 278 349 417
#     4  11  26  45  71 100 142 181 229 288 344 417
#     4  11  23  46  70  97 139 184 233 287 347 411
#     4  11  23  42  68 101 135 178 226 286 345 409
#     4  11  25  44  70  95 139 185 223 284 354 411
#     4  12  25  41  69 107 139 179 230 283 348 416
#     4  12  25  45  72 101 141 181 234 291 345 414
#
# _framework density 22.003692000000001
#
# number of rings (size 3 to 8) (size 9 to 14) (size 15 to 20)
#    0.000    0.750    2.500    4.500    5.250    4.500 
#    2.250    0.000    0.000    0.000    0.000    0.000 
#    0.000    0.000    0.000    0.000    0.000    0.000 
#
# Total GULP energy -89431.334031 kJ/mol
# GULP energy per Si atom -5589.458377 kJ/mol
# Density = 2.195361 g / cm^3
# Si number density = 22.003692 Si / 1000 Ang^3
#
#
#
# Elastic Constant Matrix: (Units=GPa)
#
#
# Indices 1 2 3 4 5 6 
#
# 1 108.0016 44.6353 30.8565 -0.4809 -23.9332 9.1200
# 2 44.6353 108.0203 16.8021 -22.2274 -16.6421 4.4048
# 3 30.8565 16.8021 53.4227 -23.7942 -9.3860 4.8212
# 4 -0.4809 -22.2274 -23.7942 41.6727 2.8609 -1.5170
# 5 -23.9332 -16.6421 -9.3860 2.8609 29.2970 3.2171
# 6 9.1200 4.4048 4.8212 -1.5170 3.2171 40.5046
#
#
#
# Elastic Compliance Matrix: (Units=1/GPa)
#
#
# Indices 1 2 3 4 5 6 
#
# 1 0.016631 -0.005835 -0.010278 -0.009459 0.008220 -0.002894
# 2 -0.005835 0.013463 0.003778 0.009028 0.003267 -0.000521
# 3 -0.010278 0.003778 0.033246 0.020650 0.002547 -0.001483
# 4 -0.009459 0.009028 0.020650 0.040498 0.000040 0.000204
# 5 0.008220 0.003267 0.002547 0.000040 0.044177 -0.006016
# 6 -0.002894 -0.000521 -0.001483 0.000204 -0.006016 0.026059
#
#
# Mechanical properties :
#
#
# Convention : Reuss Voigt Hill
#
# Bulk Modulus (GPa) = 25.86060 50.44805 38.15433
# Shear Modulus (GPa) = 23.62556 34.10493 28.86525
#
# Velocity S-wave (km/s) = 3.28030 3.94123 3.62586
# Velocity P-wave (km/s) = 5.11132 6.60968 5.90819
#
# Compressibility (1/GPa) = 0.03866886
#
# Stress axis : x y z
#
# Youngs Moduli (GPa) = 60.12803 74.27590 30.07885
#
# Poissons Ratio (x) = 0.43343 0.30916
# Poissons Ratio (y) = 0.35087 -0.11364
# Poissons Ratio (z) = 0.61802 -0.28061
#
# Static dielectric constant tensor:
#      x y z
#    x 1.842730 -0.005700 0.038390 
#    y -0.005700 1.818300 0.044380 
#    z 0.038390 0.044380 1.889080 
# 
# From -- ./inp_files/369506.got.cif
#   From: 2010.05.17/outbox.cif.g08.bks.cpg/sg2_185_cif.got.tgz:369506.got - 2010.06.03 11:33:40.
