data_PCOD9059516
_publ_section_title
;
Structure prediction by ZEFSAII (Michael W. Deem and Ramdas Pophale) SiO2 
 PCOD9059516
Probable space group: P -1
;
_chemical_formula_sum "Si O2"
_cell_formula_units_Z 13
_cell_length_a 11.465425
_cell_length_b 10.480712
_cell_length_c 13.348805
_cell_angle_alpha 137.993909
_cell_angle_beta 31.005443
_cell_angle_gamma 123.151542
_cell_volume 533.761319
_symmetry_space_group_name_H-M "P -1"
_symmetry_group_IT_number 2
_symmetry_cell_setting 'triclinic'
loop_
_space_group_symop_operation_xyz
x,y,z
-x,-y,-z
loop_
_atom_site_type_symbol
_atom_site_label
_atom_site_fract_x
_atom_site_fract_y
_atom_site_fract_z
Si Si1 0.418770 0.024088 0.459947
Si Si2 0.771584 0.648167 0.909712
Si Si3 0.466171 0.279958 0.393152
Si Si4 0.907142 0.001807 0.790825
Si Si5 0.000000 0.000000 0.500000
Si Si6 0.767358 0.633154 0.583970
Si Si7 0.584914 0.364021 0.003422
O O1 0.396804 0.214129 0.514781
O O2 0.500000 0.000000 0.500000
O O3 0.166825 0.976009 0.624802
O O4 0.632967 0.869606 0.157171
O O5 0.644688 0.583973 0.869565
O O6 0.049807 0.577054 0.658903
O O7 0.719232 0.525958 0.972430
O O8 0.500000 0.500000 0.500000
O O9 0.265458 0.281757 0.455992
O O10 0.702805 0.132482 0.087248
O O11 0.847691 0.794972 0.686448
O O12 0.916851 0.089027 0.723876
O O13 0.757458 0.155233 0.723259
O O14 0.519412 0.624182 0.802908
#
# Coordination Sequence:
#
# PCOD9059516 Si02
#       7
#     2   2   2   2   1   2   2
#     4  12  30  51  77 106 159 209 255 316 388 467
#     4  11  24  43  68 111 152 193 254 308 393 441
#     4  12  31  52  76 115 156 208 259 312 389 466
#     4  12  25  47  82 112 150 199 259 317 385 450
#     4  12  20  42  74 110 148 194 254 318 378 444
#     4  12  25  45  81 113 150 195 258 325 373 454
#     4  11  23  41  70 112 151 189 248 321 380 442
#
# _framework density 24.355456
#
# number of rings (size 3 to 8) (size 9 to 14) (size 15 to 20)
#    0.000    0.308    4.615    3.692    4.308    2.462 
#    0.000    0.000    0.000    0.000    0.000    0.000 
#    0.000    0.000    0.000    0.000    0.000    0.000 
#
# Total GULP energy -72469.977851 kJ/mol
# GULP energy per Si atom -5574.613681 kJ/mol
# Density = 2.430002 g / cm^3
# Si number density = 24.355456 Si / 1000 Ang^3
#
#
#
# Elastic Constant Matrix: (Units=GPa)
#
#
# Indices 1 2 3 4 5 6 
#
# 1 114.1701 37.8540 29.6029 -7.3742 -9.9690 -10.2131
# 2 37.8540 95.4043 28.2935 -3.1525 1.3766 -18.7127
# 3 29.6029 28.2935 152.5280 -5.3261 -32.2078 -0.2708
# 4 -7.3742 -3.1525 -5.3261 33.6357 -5.4387 8.8149
# 5 -9.9690 1.3766 -32.2078 -5.4387 41.4614 -2.8611
# 6 -10.2131 -18.7127 -0.2708 8.8149 -2.8611 33.9305
#
#
#
# Elastic Compliance Matrix: (Units=1/GPa)
#
#
# Indices 1 2 3 4 5 6 
#
# 1 0.010632 -0.003804 -0.000779 0.002037 0.002398 0.000769
# 2 -0.003804 0.014101 -0.002630 -0.002269 -0.003245 0.006927
# 3 -0.000779 -0.002630 0.008738 0.002525 0.006902 -0.001689
# 4 0.002037 -0.002269 0.002525 0.033706 0.006338 -0.008840
# 5 0.002398 -0.003245 0.006902 0.006338 0.030993 -0.000046
# 6 0.000769 0.006927 -0.001689 -0.008840 -0.000046 0.035803
#
#
# Mechanical properties :
#
#
# Convention : Reuss Voigt Hill
#
# Bulk Modulus (GPa) = 52.50476 61.51146 57.00811
# Shear Modulus (GPa) = 32.31098 39.56232 35.93665
#
# Velocity S-wave (km/s) = 3.64626 4.03472 3.84540
# Velocity P-wave (km/s) = 6.27148 6.85681 6.57067
#
# Compressibility (1/GPa) = 0.01904589
#
# Stress axis : x y z
#
# Youngs Moduli (GPa) = 94.05757 70.91543 114.44483
#
# Poissons Ratio (x) = 0.26975 0.08916
# Poissons Ratio (y) = 0.35778 0.30095
# Poissons Ratio (z) = 0.07327 0.18648
#
# Static dielectric constant tensor:
#      x y z
#    x 2.015990 -0.004220 0.003010 
#    y -0.004220 1.947860 0.000840 
#    z 0.003010 0.000840 1.832110 
# 
# From -- ./inp_files/519190.got.cif
#   From: 2010.05.17/outbox.cif.g08.bks.cpg/sg2_260_cif.got.tgz:519190.got - 2010.06.03 11:33:40.
