data_PCOD9059810
_publ_section_title
;
Structure prediction by ZEFSAII (Michael W. Deem and Ramdas Pophale) SiO2 
 PCOD9059810
Probable space group: P -1
;
_chemical_formula_sum "Si O2"
_cell_formula_units_Z 16
_cell_length_a 14.808817
_cell_length_b 17.170978
_cell_length_c 12.531767
_cell_angle_alpha 154.002864
_cell_angle_beta 50.032645
_cell_angle_gamma 147.085451
_cell_volume 669.519297
_symmetry_space_group_name_H-M "P -1"
_symmetry_group_IT_number 2
_symmetry_cell_setting 'triclinic'
loop_
_space_group_symop_operation_xyz
x,y,z
-x,-y,-z
loop_
_atom_site_type_symbol
_atom_site_label
_atom_site_fract_x
_atom_site_fract_y
_atom_site_fract_z
Si Si1 0.288076 0.936580 0.757394
Si Si2 0.672579 0.135521 0.966992
Si Si3 0.841630 0.898774 0.069774
Si Si4 0.360528 0.886919 0.259501
Si Si5 0.949781 0.297917 0.134300
Si Si6 0.971675 0.294142 0.647597
Si Si7 0.390467 0.552461 0.134463
Si Si8 0.916105 0.881077 0.302112
O O1 0.293191 0.134431 0.939495
O O2 0.496608 0.111415 0.844286
O O3 0.173132 0.826111 0.818897
O O4 0.151771 0.634234 0.421836
O O5 0.828631 0.239159 0.055805
O O6 0.803117 0.434870 0.176912
O O7 0.500000 0.000000 0.000000
O O8 0.604307 0.967354 0.701540
O O9 0.932743 0.153800 0.392189
O O10 0.753622 0.640766 0.893694
O O11 0.000000 0.000000 0.000000
O O12 0.460833 0.120762 0.562685
O O13 0.141876 0.658347 0.180101
O O14 0.965667 0.112148 0.855193
O O15 0.897464 0.057934 0.492385
O O16 0.500000 0.500000 0.000000
O O17 0.287475 0.442146 0.963686
O O18 0.000000 0.000000 0.500000
#
# Coordination Sequence:
#
# PCOD9059810 Si02
#       8
#     2   2   2   2   2   2   2   2
#     4  11  23  42  69 107 137 179 235 294 340 413
#     4  12  26  47  69  99 140 187 231 287 359 414
#     4  11  24  42  71  98 140 181 231 287 349 412
#     4  12  24  45  71 101 144 179 236 288 349 425
#     4  11  23  42  69 103 139 181 235 287 352 409
#     4  11  25  47  67 103 141 187 231 285 359 422
#     4  11  23  45  66 103 137 183 228 276 355 418
#     4  11  23  44  71 103 145 185 229 288 350 417
#
# _framework density 23.897742999999998
#
# number of rings (size 3 to 8) (size 9 to 14) (size 15 to 20)
#    0.000    0.750    6.250    2.625    3.500    0.500 
#    4.500    0.625    0.000    0.000    0.000    0.000 
#    0.000    0.000    0.000    0.000    0.000    0.000 
#
# Total GULP energy -89204.525504 kJ/mol
# GULP energy per Si atom -5575.282844 kJ/mol
# Density = 2.384335 g / cm^3
# Si number density = 23.897743 Si / 1000 Ang^3
#
#
#
# Elastic Constant Matrix: (Units=GPa)
#
#
# Indices 1 2 3 4 5 6 
#
# 1 113.8848 36.0799 23.6009 -15.6740 26.4614 21.0139
# 2 36.0799 164.9319 34.5612 -16.6029 10.2017 26.2254
# 3 23.6009 34.5612 69.7216 -15.6911 21.9563 4.6870
# 4 -15.6740 -16.6029 -15.6911 41.8713 -1.5896 -0.1259
# 5 26.4614 10.2017 21.9563 -1.5896 41.9203 -1.4621
# 6 21.0139 26.2254 4.6870 -0.1259 -1.4621 38.9274
#
#
#
# Elastic Compliance Matrix: (Units=1/GPa)
#
#
# Indices 1 2 3 4 5 6 
#
# 1 0.012637 -0.000819 -0.000052 0.004069 -0.007824 -0.006544
# 2 -0.000819 0.007711 -0.002899 0.001654 0.000068 -0.004396
# 3 -0.000052 -0.002899 0.020259 0.006054 -0.009671 -0.000802
# 4 0.004069 0.001654 0.006054 0.028120 -0.005220 -0.004145
# 5 -0.007824 0.000068 -0.009671 -0.005220 0.033875 0.006597
# 6 -0.006544 -0.004396 -0.000802 -0.004145 0.006597 0.032514
#
#
# Mechanical properties :
#
#
# Convention : Reuss Voigt Hill
#
# Bulk Modulus (GPa) = 30.24163 59.66914 44.95538
# Shear Modulus (GPa) = 32.53575 41.49687 37.01631
#
# Velocity S-wave (km/s) = 3.69380 4.17158 3.93993
# Velocity P-wave (km/s) = 5.55646 6.94445 6.28887
#
# Compressibility (1/GPa) = 0.03306700
#
# Stress axis : x y z
#
# Youngs Moduli (GPa) = 79.13523 129.68485 49.36033
#
# Poissons Ratio (x) = 0.10626 0.00255
# Poissons Ratio (y) = 0.06484 0.14309
# Poissons Ratio (z) = 0.00409 0.37593
#
# Static dielectric constant tensor:
#      x y z
#    x 2.158250 -0.032400 0.245550 
#    y -0.032400 1.950020 -0.040690 
#    z 0.245550 -0.040690 2.114400 
# 
# From -- ./inp_files/308652.got.cif
#   From: 2010.05.17/outbox.cif.g08.bks.cpg/sg2_155_cif.got.tgz:308652.got - 2010.06.03 11:33:40.
