data_PCOD9059106
_publ_section_title
;
Structure prediction by ZEFSAII (Michael W. Deem and Ramdas Pophale) SiO2 
 PCOD9059106
Probable space group: P -1
;
_chemical_formula_sum "Si O2"
_cell_formula_units_Z 15
_cell_length_a 9.136465
_cell_length_b 12.666946
_cell_length_c 10.270682
_cell_angle_alpha 33.295855
_cell_angle_beta 77.249552
_cell_angle_gamma 91.166563
_cell_volume 588.012798
_symmetry_space_group_name_H-M "P -1"
_symmetry_group_IT_number 2
_symmetry_cell_setting 'triclinic'
loop_
_space_group_symop_operation_xyz
x,y,z
-x,-y,-z
loop_
_atom_site_type_symbol
_atom_site_label
_atom_site_fract_x
_atom_site_fract_y
_atom_site_fract_z
Si Si1 0.500000 0.500000 0.000000
Si Si2 0.200318 0.329017 0.158341
Si Si3 0.621601 0.824855 0.915972
Si Si4 0.875241 0.489993 0.274461
Si Si5 0.627469 0.229488 0.775995
Si Si6 0.864608 0.137300 0.007593
Si Si7 0.971690 0.095968 0.651071
Si Si8 0.534685 0.917322 0.443397
O O1 0.690957 0.503380 0.933713
O O2 0.529697 0.689152 0.690786
O O3 0.358233 0.287075 0.107950
O O4 0.080521 0.130601 0.462589
O O5 0.129378 0.416450 0.964472
O O6 0.798789 0.905045 0.863069
O O7 0.593849 0.035198 0.670914
O O8 0.471664 0.700616 0.166509
O O9 0.698035 0.392738 0.477741
O O10 0.941053 0.306664 0.440455
O O11 0.994079 0.663202 0.167529
O O12 0.784489 0.191080 0.840458
O O13 0.500000 0.000000 0.000000
O O14 0.710709 0.063605 0.208989
O O15 0.933877 0.954251 0.196000
O O16 0.500000 0.000000 0.500000
#
# Coordination Sequence:
#
# PCOD9059106 Si02
#       8
#     1   2   2   2   2   2   2   2
#     4  12  24  40  64 108 144 190 230 274 356 438
#     4  12  26  41  72 108 146 182 236 290 360 429
#     4  11  23  46  72 100 143 189 231 300 351 414
#     4  12  27  46  75 103 144 191 239 291 354 417
#     4  11  26  51  72 103 140 192 244 291 350 421
#     4  11  26  46  72 105 142 183 243 295 350 420
#     4  12  24  46  72 109 142 183 231 294 363 419
#     4  11  23  40  67 101 147 183 227 290 350 427
#
# _framework density 25.509649
#
# number of rings (size 3 to 8) (size 9 to 14) (size 15 to 20)
#    0.000    0.533    5.333    2.000    5.600    1.067 
#    0.000    0.000    0.000    0.000    0.000    0.000 
#    0.000    0.000    0.000    0.000    0.000    0.000 
#
# Total GULP energy -83705.630744 kJ/mol
# GULP energy per Si atom -5580.375383 kJ/mol
# Density = 2.545159 g / cm^3
# Si number density = 25.509649 Si / 1000 Ang^3
#
#
#
# Elastic Constant Matrix: (Units=GPa)
#
#
# Indices 1 2 3 4 5 6 
#
# 1 144.3148 18.5592 28.1262 2.0118 13.5185 11.3106
# 2 18.5592 48.8816 27.1501 4.8985 12.3925 -12.9070
# 3 28.1262 27.1501 105.0717 11.1594 -0.7970 -0.3732
# 4 2.0118 4.8985 11.1594 49.1441 -4.3075 -2.4349
# 5 13.5185 12.3925 -0.7970 -4.3075 50.9821 0.0077
# 6 11.3106 -12.9070 -0.3732 -2.4349 0.0077 36.7003
#
#
#
# Elastic Compliance Matrix: (Units=1/GPa)
#
#
# Indices 1 2 3 4 5 6 
#
# 1 0.007973 -0.002762 -0.001442 -0.000023 -0.001467 -0.003444
# 2 -0.002762 0.030217 -0.006936 -0.001363 -0.006838 0.011319
# 3 -0.001442 -0.006936 0.011903 -0.001868 0.002097 -0.001998
# 4 -0.000023 -0.001363 -0.001868 0.021138 0.002094 0.000911
# 5 -0.001467 -0.006838 0.002097 0.002094 0.021876 -0.001797
# 6 -0.003444 0.011319 -0.001998 0.000911 -0.001797 0.032330
#
#
# Mechanical properties :
#
#
# Convention : Reuss Voigt Hill
#
# Bulk Modulus (GPa) = 35.95219 49.54879 42.75049
# Shear Modulus (GPa) = 31.84988 42.32747 37.08867
#
# Velocity S-wave (km/s) = 3.53731 4.07784 3.81715
# Velocity P-wave (km/s) = 5.55045 6.45270 6.01851
#
# Compressibility (1/GPa) = 0.02781472
#
# Stress axis : x y z
#
# Youngs Moduli (GPa) = 125.42175 33.09373 84.01594
#
# Poissons Ratio (x) = 0.09140 0.12111
# Poissons Ratio (y) = 0.34639 0.58271
# Poissons Ratio (z) = 0.18080 0.22953
#
# Static dielectric constant tensor:
#      x y z
#    x 1.727330 -0.444710 0.188700 
#    y -0.444710 1.505730 0.296030 
#    z 0.188700 0.296030 1.909890 
# 
# From -- ./inp_files/398105.got.cif
#   From: 2010.05.17/outbox.cif.g08.bks.cpg/sg2_200_cif.got.tgz:398105.got - 2010.06.03 11:33:40.
