data_PCOD9059040
_publ_section_title
;
Structure prediction by ZEFSAII (Michael W. Deem and Ramdas Pophale) SiO2 
 PCOD9059040
Probable space group: P -1
;
_chemical_formula_sum "Si O2"
_cell_formula_units_Z 14
_cell_length_a 8.346976
_cell_length_b 11.772329
_cell_length_c 9.271472
_cell_angle_alpha 77.409170
_cell_angle_beta 52.818775
_cell_angle_gamma 65.855083
_cell_volume 661.818389
_symmetry_space_group_name_H-M "P -1"
_symmetry_group_IT_number 2
_symmetry_cell_setting 'triclinic'
loop_
_space_group_symop_operation_xyz
x,y,z
-x,-y,-z
loop_
_atom_site_type_symbol
_atom_site_label
_atom_site_fract_x
_atom_site_fract_y
_atom_site_fract_z
Si Si1 0.280172 0.008183 0.480477
Si Si2 0.930374 0.632528 0.180151
Si Si3 0.555947 0.784445 0.557825
Si Si4 0.237459 0.363383 0.056478
Si Si5 0.084379 0.962406 0.120600
Si Si6 0.274985 0.094088 0.157450
Si Si7 0.365570 0.699256 0.957878
O O1 0.420473 0.096597 0.402853
O O2 0.220825 0.026916 0.342338
O O3 0.083670 0.065246 0.678236
O O4 0.391347 0.864004 0.502460
O O5 0.767662 0.700294 0.378832
O O6 0.799938 0.653830 0.090867
O O7 0.035334 0.482989 0.179929
O O8 0.145010 0.671139 0.058789
O O9 0.472013 0.708626 0.741545
O O10 0.245666 0.235124 0.160289
O O11 0.454416 0.379382 0.000416
O O12 0.113161 0.086633 0.126062
O O13 0.287786 0.837708 0.030663
O O14 0.000000 0.000000 0.000000
O O15 0.500000 0.000000 0.000000
#
# Coordination Sequence:
#
# PCOD9059040 Si02
#       7
#     2   2   2   2   2   2   2
#     4  11  23  40  64 103 139 172 228 280 346 412
#     4  11  26  48  71  96 140 185 227 290 340 400
#     4  11  23  41  68 102 135 176 229 281 342 414
#     4  11  25  46  70 101 135 181 236 278 344 409
#     4  12  23  40  67 101 137 180 222 281 352 402
#     4  12  23  41  66  97 138 173 224 288 335 412
#     4  12  23  46  71 103 134 182 229 281 345 413
#
# _framework density 21.153841
#
# number of rings (size 3 to 8) (size 9 to 14) (size 15 to 20)
#    0.000    0.571    5.714    2.571    2.000    0.571 
#    0.000    4.286    0.000    0.000    0.000    0.000 
#    0.000    0.000    0.000    0.000    0.000    0.000 
#
# Total GULP energy -78022.066697 kJ/mol
# GULP energy per Si atom -5573.004764 kJ/mol
# Density = 2.110569 g / cm^3
# Si number density = 21.153841 Si / 1000 Ang^3
#
#
#
# Elastic Constant Matrix: (Units=GPa)
#
#
# Indices 1 2 3 4 5 6 
#
# 1 114.6061 24.7980 43.6734 -11.1039 9.0368 -7.5880
# 2 24.7980 84.3643 37.6959 9.1299 -5.0909 -11.9929
# 3 43.6734 37.6959 154.3133 -1.4598 -9.0730 -12.4204
# 4 -11.1039 9.1299 -1.4598 25.6235 -2.9364 -1.3962
# 5 9.0368 -5.0909 -9.0730 -2.9364 24.2267 -0.7390
# 6 -7.5880 -11.9929 -12.4204 -1.3962 -0.7390 41.5353
#
#
#
# Elastic Compliance Matrix: (Units=1/GPa)
#
#
# Indices 1 2 3 4 5 6 
#
# 1 0.011345 -0.002934 -0.002711 0.005237 -0.005214 0.000498
# 2 -0.002934 0.015104 -0.002530 -0.006336 0.002641 0.002902
# 3 -0.002711 -0.002530 0.008194 0.000686 0.003671 0.001313
# 4 0.005237 -0.006336 0.000686 0.043905 0.002319 0.000849
# 5 -0.005214 0.002641 0.003671 0.002319 0.045487 0.001795
# 6 0.000498 0.002902 0.001313 0.000849 0.001795 0.025458
#
#
# Mechanical properties :
#
#
# Convention : Reuss Voigt Hill
#
# Bulk Modulus (GPa) = 54.66827 62.84650 58.75739
# Shear Modulus (GPa) = 29.07975 34.75153 31.91564
#
# Velocity S-wave (km/s) = 3.71169 4.05754 3.88846
# Velocity P-wave (km/s) = 6.65343 7.19203 6.92797
#
# Compressibility (1/GPa) = 0.01829215
#
# Stress axis : x y z
#
# Youngs Moduli (GPa) = 88.14495 66.20720 122.04485
#
# Poissons Ratio (x) = 0.19425 0.33087
# Poissons Ratio (y) = 0.25861 0.30881
# Poissons Ratio (z) = 0.23896 0.16753
#
# Static dielectric constant tensor:
#      x y z
#    x 1.945940 0.011430 -0.035310 
#    y 0.011430 1.791900 -0.018710 
#    z -0.035310 -0.018710 1.750420 
# 
# From -- ./inp_files/186315.got.cif
#   From: 2010.05.17/outbox.cif.g08.bks.cpg/sg2_94_cif.got.tgz:186315.got - 2010.06.03 11:33:40.
