data_PCOD9059093
_publ_section_title
;
Structure prediction by ZEFSAII (Michael W. Deem and Ramdas Pophale) SiO2 
 PCOD9059093
Probable space group: P -1
;
_chemical_formula_sum "Si O2"
_cell_formula_units_Z 12
_cell_length_a 9.223811
_cell_length_b 16.567624
_cell_length_c 11.017131
_cell_angle_alpha 148.190541
_cell_angle_beta 39.899245
_cell_angle_gamma 148.780574
_cell_volume 454.900292
_symmetry_space_group_name_H-M "P -1"
_symmetry_group_IT_number 2
_symmetry_cell_setting 'triclinic'
loop_
_space_group_symop_operation_xyz
x,y,z
-x,-y,-z
loop_
_atom_site_type_symbol
_atom_site_label
_atom_site_fract_x
_atom_site_fract_y
_atom_site_fract_z
Si Si1 0.911651 0.299448 0.353663
Si Si2 0.576683 0.689244 0.627960
Si Si3 0.638418 0.322951 0.754964
Si Si4 0.276500 0.306866 0.737755
Si Si5 0.369089 0.919777 0.114235
Si Si6 0.109220 0.062692 0.874528
O O1 0.897450 0.329923 0.544799
O O2 0.000000 0.500000 0.500000
O O3 0.101694 0.245983 0.101763
O O4 0.603710 0.097000 0.271622
O O5 0.500000 0.500000 0.500000
O O6 0.579003 0.673096 0.459144
O O7 0.381205 0.740950 0.880753
O O8 0.889843 0.883079 0.703251
O O9 0.450007 0.302766 0.732910
O O10 0.726437 0.512134 0.007521
O O11 0.427057 0.145822 0.750593
O O12 0.060211 0.863475 0.258506
O O13 0.500000 0.000000 0.000000
O O14 0.000000 0.000000 0.000000
#
# Coordination Sequence:
#
# PCOD9059093 Si02
#       6
#     2   2   2   2   2   2
#     4  11  23  41  66  96 129 168 216 267 320 382
#     4  11  25  44  66  95 132 170 213 268 326 384
#     4  11  23  40  66  97 129 169 217 266 320 383
#     4  11  23  41  67  97 129 170 217 266 321 382
#     4  11  23  40  66  97 128 168 217 266 320 382
#     4  11  25  44  66  95 131 171 214 266 327 384
#
# _framework density 26.379407
#
# number of rings (size 3 to 8) (size 9 to 14) (size 15 to 20)
#    0.000    1.000    0.000    8.000    0.000    7.333 
#    0.000    0.833    0.000    0.000    0.000    0.000 
#    0.000    0.000    0.000    0.000    0.000    0.000 
#
# Total GULP energy -67186.777377 kJ/mol
# GULP energy per Si atom -5598.898115 kJ/mol
# Density = 2.631937 g / cm^3
# Si number density = 26.379407 Si / 1000 Ang^3
#
#
#
# Elastic Constant Matrix: (Units=GPa)
#
#
# Indices 1 2 3 4 5 6 
#
# 1 57.1423 30.9565 30.8581 10.7137 3.2264 3.5390
# 2 30.9565 144.2699 51.7967 -11.0347 -10.3749 1.2234
# 3 30.8581 51.7967 212.1235 14.8245 -8.1486 -5.3932
# 4 10.7137 -11.0347 14.8245 53.6208 -7.2090 -1.5294
# 5 3.2264 -10.3749 -8.1486 -7.2090 49.3881 -2.6380
# 6 3.5390 1.2234 -5.3932 -1.5294 -2.6380 48.6493
#
#
#
# Elastic Compliance Matrix: (Units=1/GPa)
#
#
# Indices 1 2 3 4 5 6 
#
# 1 0.022517 -0.004818 -0.001909 -0.005522 -0.003716 -0.002104
# 2 -0.004818 0.009011 -0.001652 0.003611 0.002472 0.000188
# 3 -0.001909 -0.001652 0.005533 -0.001395 0.000529 0.000779
# 4 -0.005522 0.003611 -0.001395 0.021460 0.004078 0.001052
# 5 -0.003716 0.002472 0.000529 0.004078 0.021777 0.001576
# 6 -0.002104 0.000188 0.000779 0.001052 0.001576 0.020908
#
#
# Mechanical properties :
#
#
# Convention : Reuss Voigt Hill
#
# Bulk Modulus (GPa) = 49.25623 71.19538 60.22580
# Shear Modulus (GPa) = 40.08612 50.32660 45.20636
#
# Velocity S-wave (km/s) = 3.90243 4.37257 4.14418
# Velocity P-wave (km/s) = 6.24644 7.24846 6.76603
#
# Compressibility (1/GPa) = 0.02030200
#
# Stress axis : x y z
#
# Youngs Moduli (GPa) = 44.41119 110.97836 180.73386
#
# Poissons Ratio (x) = 0.53467 0.34511
# Poissons Ratio (y) = 0.21396 0.29858
# Poissons Ratio (z) = 0.08480 0.18334
#
# Static dielectric constant tensor:
#      x y z
#    x 2.197420 0.004660 -0.045010 
#    y 0.004660 2.073050 0.031960 
#    z -0.045010 0.031960 2.164130 
# 
# From -- ./inp_files/146371.got.cif
#   From: 2010.05.17/outbox.cif.g08.bks.cpg/sg2_74_cif.got.tgz:146371.got - 2010.06.03 11:33:40.
