data_PCOD9059534
_publ_section_title
;
Structure prediction by ZEFSAII (Michael W. Deem and Ramdas Pophale) SiO2 
 PCOD9059534
Probable space group: P -1
;
_chemical_formula_sum "Si O2"
_cell_formula_units_Z 16
_cell_length_a 7.036080
_cell_length_b 11.071036
_cell_length_c 23.767208
_cell_angle_alpha 35.759836
_cell_angle_beta 32.905903
_cell_angle_gamma 50.504878
_cell_volume 581.763764
_symmetry_space_group_name_H-M "P -1"
_symmetry_group_IT_number 2
_symmetry_cell_setting 'triclinic'
loop_
_space_group_symop_operation_xyz
x,y,z
-x,-y,-z
loop_
_atom_site_type_symbol
_atom_site_label
_atom_site_fract_x
_atom_site_fract_y
_atom_site_fract_z
Si Si1 0.785141 0.753801 0.871634
Si Si2 0.789386 0.605739 0.080502
Si Si3 0.809225 0.936880 0.182698
Si Si4 0.051807 0.199648 0.681338
Si Si5 0.155558 0.654377 0.131812
Si Si6 0.723475 0.581560 0.633286
Si Si7 0.967806 0.997781 0.627380
Si Si8 0.158109 0.732389 0.581906
O O1 0.940370 0.811826 0.749561
O O2 0.024007 0.598435 0.899507
O O3 0.373965 0.660035 0.017232
O O4 0.820551 0.983523 0.803471
O O5 0.479762 0.634569 0.102559
O O6 0.618500 0.556244 0.203303
O O7 0.051558 0.820736 0.933514
O O8 0.389873 0.907919 0.304914
O O9 0.941249 0.805478 0.250827
O O10 0.976738 0.856008 0.115735
O O11 0.443481 0.191067 0.564504
O O12 0.919566 0.413530 0.615824
O O13 0.867321 0.463833 0.294965
O O14 0.946841 0.660316 0.604738
O O15 0.723974 0.804988 0.518581
O O16 0.980807 0.898039 0.600342
#
# Coordination Sequence:
#
# PCOD9059534 Si02
#       8
#     2   2   2   2   2   2   2   2
#     4  12  28  45  66 102 145 181 218 276 347 406
#     4  11  23  41  71 103 135 173 226 285 331 398
#     4  12  23  43  75 102 131 177 233 283 331 399
#     4  12  23  43  75 102 131 177 233 283 331 399
#     4  11  23  43  72 105 130 176 233 283 333 393
#     4  11  23  43  72 105 130 176 233 283 333 393
#     4  12  28  45  66 102 145 181 218 276 347 406
#     4  11  23  41  71 103 135 173 226 285 331 398
#
# _framework density 27.502571
#
# number of rings (size 3 to 8) (size 9 to 14) (size 15 to 20)
#    0.000    0.500    5.000    4.500    3.500    5.000 
#    0.000    2.500    0.000    0.000    0.000    0.000 
#    0.000    0.000    0.000    0.000    0.000    0.000 
#
# Total GULP energy -89741.560689 kJ/mol
# GULP energy per Si atom -5608.847543 kJ/mol
# Density = 2.743997 g / cm^3
# Si number density = 27.502571 Si / 1000 Ang^3
#
#
#
# Elastic Constant Matrix: (Units=GPa)
#
#
# Indices 1 2 3 4 5 6 
#
# 1 58.7544 19.0137 26.7023 0.3044 17.3556 1.1215
# 2 19.0137 182.6047 37.5657 0.2766 6.1057 2.1045
# 3 26.7023 37.5657 190.5868 1.2618 3.8800 0.4346
# 4 0.3044 0.2766 1.2618 53.0263 0.7207 -8.8142
# 5 17.3556 6.1057 3.8800 0.7207 50.2379 1.5090
# 6 1.1215 2.1045 0.4346 -8.8142 1.5090 21.0132
#
#
#
# Elastic Compliance Matrix: (Units=1/GPa)
#
#
# Indices 1 2 3 4 5 6 
#
# 1 0.020597 -0.001406 -0.002470 -0.000033 -0.006740 -0.000437
# 2 -0.001406 0.005828 -0.000947 -0.000084 -0.000133 -0.000515
# 3 -0.002470 -0.000947 0.005770 -0.000122 0.000524 0.000018
# 4 -0.000033 -0.000084 -0.000122 0.020292 -0.000517 0.008562
# 5 -0.006740 -0.000133 0.000524 -0.000517 0.022261 -0.001453
# 6 -0.000437 -0.000515 0.000018 0.008562 -0.001453 0.051359
#
#
# Mechanical properties :
#
#
# Convention : Reuss Voigt Hill
#
# Bulk Modulus (GPa) = 44.34973 66.50105 55.42539
# Shear Modulus (GPa) = 34.89899 48.09976 41.49938
#
# Velocity S-wave (km/s) = 3.56608 4.18654 3.88871
# Velocity P-wave (km/s) = 5.75470 6.89942 6.35289
#
# Compressibility (1/GPa) = 0.02254805
#
# Stress axis : x y z
#
# Youngs Moduli (GPa) = 48.55012 171.58263 173.31421
#
# Poissons Ratio (x) = 0.24125 0.42812
# Poissons Ratio (y) = 0.06826 0.16419
# Poissons Ratio (z) = 0.11993 0.16254
#
# Static dielectric constant tensor:
#      x y z
#    x 2.235420 0.001340 0.088350 
#    y 0.001340 2.061360 0.000310 
#    z 0.088350 0.000310 2.098650 
# 
# From -- ./inp_files/306771.got.cif
#   From: 2010.05.17/outbox.cif.g08.bks.cpg/sg2_154_cif.got.tgz:306771.got - 2010.06.03 11:33:40.
