data_PCOD9059660
_publ_section_title
;
Structure prediction by ZEFSAII (Michael W. Deem and Ramdas Pophale) SiO2 
 PCOD9059660
Probable space group: P -1
;
_chemical_formula_sum "Si O2"
_cell_formula_units_Z 16
_cell_length_a 14.701865
_cell_length_b 10.996093
_cell_length_c 13.918342
_cell_angle_alpha 124.357125
_cell_angle_beta 149.697518
_cell_angle_gamma 74.714495
_cell_volume 790.733029
_symmetry_space_group_name_H-M "P -1"
_symmetry_group_IT_number 2
_symmetry_cell_setting 'triclinic'
loop_
_space_group_symop_operation_xyz
x,y,z
-x,-y,-z
loop_
_atom_site_type_symbol
_atom_site_label
_atom_site_fract_x
_atom_site_fract_y
_atom_site_fract_z
Si Si1 0.209871 0.364819 0.488292
Si Si2 0.923276 0.484845 0.248022
Si Si3 0.532135 0.255775 0.675451
Si Si4 0.898966 0.043512 0.180138
Si Si5 0.218140 0.974575 0.521217
Si Si6 0.242348 0.896198 0.720597
Si Si7 0.492527 0.058956 0.361561
Si Si8 0.413771 0.619856 0.941260
O O1 0.336806 0.284514 0.523192
O O2 0.359101 0.558299 0.754251
O O3 0.033331 0.377305 0.274140
O O4 0.080103 0.240550 0.404208
O O5 0.790020 0.422000 0.198962
O O6 0.104046 0.686828 0.509783
O O7 0.742325 0.434302 0.981304
O O8 0.540630 0.196455 0.549991
O O9 0.518954 0.105888 0.667327
O O10 0.808546 0.038298 0.199946
O O11 0.026233 0.947347 0.267332
O O12 0.720227 0.985318 0.909462
O O13 0.162936 0.926511 0.560384
O O14 0.326977 0.882790 0.528788
O O15 0.405179 0.179954 0.789299
O O16 0.500000 0.000000 0.000000
O O17 0.500000 0.500000 0.000000
#
# Coordination Sequence:
#
# PCOD9059660 Si02
#       8
#     2   2   2   2   2   2   2   2
#     4  12  22  36  65 101 130 163 216 269 328 387
#     4  12  23  41  64  96 131 170 215 269 328 382
#     4  11  24  41  66  98 130 172 216 272 319 385
#     4  12  22  39  66  96 131 168 208 268 330 383
#     4  12  23  43  64 100 132 173 212 266 331 389
#     4  12  26  42  65  97 137 175 210 264 333 394
#     4  11  23  42  65  95 136 165 221 268 322 379
#     4  12  19  37  66  96 132 160 209 274 332 383
#
# _framework density 20.234390999999999
#
# number of rings (size 3 to 8) (size 9 to 14) (size 15 to 20)
#    0.000    0.250    8.750    1.500    0.000    1.500 
#    2.250    0.625    0.000    1.500    0.000    0.000 
#    0.000    0.000    0.000    0.000    0.000    0.000 
#
# Total GULP energy -89291.645849 kJ/mol
# GULP energy per Si atom -5580.727866 kJ/mol
# Density = 2.018834 g / cm^3
# Si number density = 20.234391 Si / 1000 Ang^3
#
#
#
# Elastic Constant Matrix: (Units=GPa)
#
#
# Indices 1 2 3 4 5 6 
#
# 1 87.1958 18.2619 18.0324 0.2401 -10.7634 -19.2103
# 2 18.2619 68.4569 15.8436 -20.4378 9.2366 -12.1924
# 3 18.0324 15.8436 31.4532 -14.7113 5.4885 -17.9407
# 4 0.2401 -20.4378 -14.7113 31.7449 -0.4921 0.2303
# 5 -10.7634 9.2366 5.4885 -0.4921 34.3862 -3.0372
# 6 -19.2103 -12.1924 -17.9407 0.2303 -3.0372 33.4290
#
#
#
# Elastic Compliance Matrix: (Units=1/GPa)
#
#
# Indices 1 2 3 4 5 6 
#
# 1 0.016326 -0.004960 -0.010527 -0.008087 0.008248 0.002728
# 2 -0.004960 0.021870 0.004428 0.016007 -0.007311 0.006728
# 3 -0.010527 0.004428 0.074741 0.037119 -0.012857 0.034254
# 4 -0.008087 0.016007 0.037119 0.058769 -0.010168 0.019783
# 5 0.008248 -0.007311 -0.012857 -0.010168 0.035398 -0.001541
# 6 0.002728 0.006728 0.034254 0.019783 -0.001541 0.052043
#
#
# Mechanical properties :
#
#
# Convention : Reuss Voigt Hill
#
# Bulk Modulus (GPa) = 11.01108 32.37575 21.69341
# Shear Modulus (GPa) = 16.04944 28.90987 22.47965
#
# Velocity S-wave (km/s) = 2.81939 3.78398 3.33673
# Velocity P-wave (km/s) = 4.00652 5.92676 5.05859
#
# Compressibility (1/GPa) = 0.09081762
#
# Stress axis : x y z
#
# Youngs Moduli (GPa) = 61.25292 45.72511 13.37952
#
# Poissons Ratio (x) = 0.22681 0.14084
# Poissons Ratio (y) = 0.30383 -0.05924
# Poissons Ratio (z) = 0.64480 -0.20245
#
# Static dielectric constant tensor:
#      x y z
#    x 1.716030 0.018380 0.005560 
#    y 0.018380 1.771020 -0.055040 
#    z 0.005560 -0.055040 1.772120 
# 
# From -- ./inp_files/521725.got.cif
#   From: 2010.05.17/outbox.cif.g08.bks.cpg/sg2_261_cif.got.tgz:521725.got - 2010.06.03 11:33:40.
