data_PCOD9059756
_publ_section_title
;
Structure prediction by ZEFSAII (Michael W. Deem and Ramdas Pophale) SiO2 
 PCOD9059756
Probable space group: P -1
;
_chemical_formula_sum "Si O2"
_cell_formula_units_Z 15
_cell_length_a 8.976470
_cell_length_b 22.235200
_cell_length_c 13.318796
_cell_angle_alpha 145.877002
_cell_angle_beta 151.188017
_cell_angle_gamma 45.877209
_cell_volume 714.499957
_symmetry_space_group_name_H-M "P -1"
_symmetry_group_IT_number 2
_symmetry_cell_setting 'triclinic'
loop_
_space_group_symop_operation_xyz
x,y,z
-x,-y,-z
loop_
_atom_site_type_symbol
_atom_site_label
_atom_site_fract_x
_atom_site_fract_y
_atom_site_fract_z
Si Si1 0.890591 0.684053 0.038658
Si Si2 0.842983 0.145853 0.413274
Si Si3 0.356968 0.436992 0.927362
Si Si4 0.000000 0.500000 0.000000
Si Si5 0.768333 0.278273 0.353555
Si Si6 0.670048 0.252563 0.784726
Si Si7 0.098095 0.097870 0.929857
Si Si8 0.973227 0.876860 0.847503
O O1 0.986241 0.793490 0.308891
O O2 0.861517 0.588631 0.969771
O O3 0.165520 0.679469 0.115371
O O4 0.573195 0.686997 0.794461
O O5 0.875103 0.224762 0.445239
O O6 0.960680 0.030035 0.302742
O O7 0.470664 0.126376 0.183359
O O8 0.569022 0.336863 0.923755
O O9 0.015031 0.379511 0.615659
O O10 0.500000 0.500000 0.000000
O O11 0.283065 0.489758 0.063532
O O12 0.776185 0.187510 0.148458
O O13 0.357853 0.183324 0.465960
O O14 0.909946 0.170336 0.847450
O O15 0.996445 0.123823 0.017165
O O16 0.000000 0.000000 0.000000
#
# Coordination Sequence:
#
# PCOD9059756 Si02
#       8
#     2   2   2   1   2   2   2   2
#     4  12  25  46  72 102 134 185 235 293 350 417
#     4  11  23  42  68 103 142 176 236 280 338 420
#     4  11  25  50  71 103 139 178 236 299 348 422
#     4  12  26  46  76 100 136 178 236 292 362 414
#     4  11  25  44  70 101 137 179 230 285 355 414
#     4  11  25  44  71 101 141 183 235 288 350 417
#     4  11  24  40  68 103 140 188 226 283 343 413
#     4  11  24  41  62 100 143 185 227 282 340 418
#
# _framework density 20.993703
#
# number of rings (size 3 to 8) (size 9 to 14) (size 15 to 20)
#    0.000    0.800    6.667    0.000    3.733    1.600 
#    2.400    0.667    0.000    0.000    0.000    0.000 
#    0.000    0.000    0.000    0.000    0.000    0.000 
#
# Total GULP energy -83503.491645 kJ/mol
# GULP energy per Si atom -5566.899443 kJ/mol
# Density = 2.094592 g / cm^3
# Si number density = 20.993703 Si / 1000 Ang^3
#
#
#
# Elastic Constant Matrix: (Units=GPa)
#
#
# Indices 1 2 3 4 5 6 
#
# 1 127.2692 20.4474 14.9546 7.5338 1.0798 11.2547
# 2 20.4474 83.3666 12.1743 -9.8128 9.7676 10.8355
# 3 14.9546 12.1743 33.4880 -0.5871 12.5157 -1.6510
# 4 7.5338 -9.8128 -0.5871 13.1883 3.8164 3.0726
# 5 1.0798 9.7676 12.5157 3.8164 34.1369 3.9811
# 6 11.2547 10.8355 -1.6510 3.0726 3.9811 41.3188
#
#
#
# Elastic Compliance Matrix: (Units=1/GPa)
#
#
# Indices 1 2 3 4 5 6 
#
# 1 0.009469 -0.002770 -0.004701 -0.008238 0.003342 -0.001750
# 2 -0.002770 0.016047 -0.002753 0.015773 -0.004759 -0.004278
# 3 -0.004701 -0.002753 0.038652 0.005463 -0.014373 0.004525
# 4 -0.008238 0.015773 0.005463 0.099008 -0.016455 -0.007451
# 5 0.003342 -0.004759 -0.014373 -0.016455 0.037971 -0.002671
# 6 -0.001750 -0.004278 0.004525 -0.007451 -0.002671 0.026793
#
#
# Mechanical properties :
#
#
# Convention : Reuss Voigt Hill
#
# Bulk Modulus (GPa) = 22.87232 37.69739 30.28485
# Shear Modulus (GPa) = 19.01434 30.83198 24.92316
#
# Velocity S-wave (km/s) = 3.01278 3.83643 3.44928
# Velocity P-wave (km/s) = 4.79801 6.13349 5.50639
#
# Compressibility (1/GPa) = 0.04372097
#
# Stress axis : x y z
#
# Youngs Moduli (GPa) = 105.60957 62.31808 25.87176
#
# Poissons Ratio (x) = 0.17260 0.12163
# Poissons Ratio (y) = 0.29250 0.07121
# Poissons Ratio (z) = 0.49649 0.17153
#
# Static dielectric constant tensor:
#      x y z
#    x 1.806730 -0.034380 -0.022890 
#    y -0.034380 1.831090 0.059060 
#    z -0.022890 0.059060 1.769830 
# 
# From -- ./inp_files/35481.got.cif
#   From: 2010.05.17/outbox.cif.g08.bks.cpg/sg2_18_cif.got.tgz:35481.got - 2010.06.03 11:33:40.
