data_PCOD9059490
_publ_section_title
;
Structure prediction by ZEFSAII (Michael W. Deem and Ramdas Pophale) SiO2 
 PCOD9059490
Probable space group: P -1
;
_chemical_formula_sum "Si O2"
_cell_formula_units_Z 16
_cell_length_a 6.758118
_cell_length_b 8.864858
_cell_length_c 16.881511
_cell_angle_alpha 135.356293
_cell_angle_beta 96.204224
_cell_angle_gamma 83.946829
_cell_volume 705.930586
_symmetry_space_group_name_H-M "P -1"
_symmetry_group_IT_number 2
_symmetry_cell_setting 'triclinic'
loop_
_space_group_symop_operation_xyz
x,y,z
-x,-y,-z
loop_
_atom_site_type_symbol
_atom_site_label
_atom_site_fract_x
_atom_site_fract_y
_atom_site_fract_z
Si Si1 0.583748 0.259096 0.404001
Si Si2 0.283108 0.566721 0.987266
Si Si3 0.820785 0.948038 0.663595
Si Si4 0.929147 0.395258 0.839154
Si Si5 0.165508 0.888998 0.782818
Si Si6 0.124192 0.348863 0.217401
Si Si7 0.552139 0.015461 0.915924
Si Si8 0.932570 0.206971 0.521055
O O1 0.500000 0.500000 0.500000
O O2 0.396581 0.106591 0.337850
O O3 0.710963 0.257991 0.328948
O O4 0.729362 0.181210 0.452713
O O5 0.165328 0.591175 0.073426
O O6 0.307736 0.790058 0.026003
O O7 0.500000 0.500000 0.000000
O O8 0.166598 0.401950 0.865663
O O9 0.974399 0.956881 0.746843
O O10 0.901632 0.783367 0.538263
O O11 0.841672 0.185084 0.717893
O O12 0.876004 0.591611 0.852605
O O13 0.068853 0.779806 0.813514
O O14 0.336366 0.046324 0.875558
O O15 0.100136 0.570494 0.349299
O O16 0.324041 0.202406 0.186069
O O17 0.500000 0.000000 0.000000
O O18 0.000000 0.000000 0.500000
#
# Coordination Sequence:
#
# PCOD9059490 Si02
#       8
#     2   2   2   2   2   2   2   2
#     4  11  23  42  70 102 139 189 239 287 350 423
#     4  11  24  44  68  96 133 176 231 284 346 415
#     4  11  23  44  70  99 138 188 232 287 348 422
#     4  11  24  42  66  97 133 179 225 282 349 407
#     4  11  23  41  69  98 137 180 233 284 348 414
#     4  12  25  44  68 100 142 179 232 289 350 416
#     4  12  26  45  70 107 137 182 236 292 353 418
#     4  11  24  45  68 105 143 184 232 290 357 416
#
# _framework density 22.665118
#
# number of rings (size 3 to 8) (size 9 to 14) (size 15 to 20)
#    0.000    0.750    1.250    6.750    0.000    7.500 
#    2.250    0.000    0.000    0.000    0.000    0.000 
#    0.000    0.000    0.000    0.000    0.000    0.000 
#
# Total GULP energy -89400.070442 kJ/mol
# GULP energy per Si atom -5587.504403 kJ/mol
# Density = 2.261353 g / cm^3
# Si number density = 22.665118 Si / 1000 Ang^3
#
#
#
# Elastic Constant Matrix: (Units=GPa)
#
#
# Indices 1 2 3 4 5 6 
#
# 1 143.4550 54.4727 30.3047 6.4456 10.9018 7.9780
# 2 54.4727 120.4806 18.7009 -3.6098 -0.9354 13.8294
# 3 30.3047 18.7009 59.1442 6.6526 -9.3711 10.1733
# 4 6.4456 -3.6098 6.6526 33.5931 3.7966 -3.1133
# 5 10.9018 -0.9354 -9.3711 3.7966 42.3914 -2.6645
# 6 7.9780 13.8294 10.1733 -3.1133 -2.6645 43.4298
#
#
#
# Elastic Compliance Matrix: (Units=1/GPa)
#
#
# Indices 1 2 3 4 5 6 
#
# 1 0.009568 -0.003753 -0.004156 -0.001024 -0.003362 0.000131
# 2 -0.003753 0.010482 -0.001107 0.001786 0.000652 -0.002221
# 3 -0.004156 -0.001107 0.021522 -0.004619 0.005971 -0.003890
# 4 -0.001024 0.001786 -0.004619 0.031710 -0.003384 0.002767
# 5 -0.003362 0.000652 0.005971 -0.003384 0.026115 0.000371
# 6 0.000131 -0.002221 -0.003890 0.002767 0.000371 0.024841
#
#
# Mechanical properties :
#
#
# Convention : Reuss Voigt Hill
#
# Bulk Modulus (GPa) = 42.47961 58.89296 50.68628
# Shear Modulus (GPa) = 33.30725 38.52296 35.91510
#
# Velocity S-wave (km/s) = 3.83761 4.12716 3.98502
# Velocity P-wave (km/s) = 6.19833 6.98224 6.60193
#
# Compressibility (1/GPa) = 0.02354071
#
# Stress axis : x y z
#
# Youngs Moduli (GPa) = 104.51524 95.40020 46.46352
#
# Poissons Ratio (x) = 0.35801 0.19311
# Poissons Ratio (y) = 0.39221 0.05144
# Poissons Ratio (z) = 0.43437 0.10562
#
# Static dielectric constant tensor:
#      x y z
#    x 1.860950 -0.036210 0.006340 
#    y -0.036210 1.910580 0.016590 
#    z 0.006340 0.016590 1.890550 
# 
# From -- ./inp_files/336704.got.cif
#   From: 2010.05.17/outbox.cif.g08.bks.cpg/sg2_169_cif.got.tgz:336704.got - 2010.06.03 11:33:40.
