data_PCOD9059443
_publ_section_title
;
Structure prediction by ZEFSAII (Michael W. Deem and Ramdas Pophale) SiO2 
 PCOD9059443
Probable space group: P -1
;
_chemical_formula_sum "Si O2"
_cell_formula_units_Z 16
_cell_length_a 14.587416
_cell_length_b 14.720102
_cell_length_c 12.338798
_cell_angle_alpha 117.566050
_cell_angle_beta 42.384774
_cell_angle_gamma 150.897454
_cell_volume 721.470620
_symmetry_space_group_name_H-M "P -1"
_symmetry_group_IT_number 2
_symmetry_cell_setting 'triclinic'
loop_
_space_group_symop_operation_xyz
x,y,z
-x,-y,-z
loop_
_atom_site_type_symbol
_atom_site_label
_atom_site_fract_x
_atom_site_fract_y
_atom_site_fract_z
Si Si1 0.590786 0.221621 0.503030
Si Si2 0.574332 0.457928 0.293318
Si Si3 0.016931 0.109719 0.727209
Si Si4 0.958475 0.290483 0.325994
Si Si5 0.444140 0.368158 0.120855
Si Si6 0.694028 0.335729 0.224030
Si Si7 0.191730 0.423365 0.422551
Si Si8 0.288003 0.950061 0.193055
O O1 0.848395 0.323053 0.387222
O O2 0.645571 0.271272 0.354158
O O3 0.594391 0.335783 0.616558
O O4 0.279699 0.953429 0.640651
O O5 0.232174 0.237844 0.506753
O O6 0.764298 0.688936 0.267250
O O7 0.577585 0.421045 0.148806
O O8 0.701278 0.462208 0.270068
O O9 0.775397 0.026704 0.846248
O O10 0.852145 0.896777 0.790560
O O11 0.962049 0.296292 0.456234
O O12 0.291775 0.478946 0.107775
O O13 0.352265 0.424347 0.252119
O O14 0.440236 0.121825 0.247779
O O15 0.000000 0.500000 0.000000
O O16 0.009200 0.288811 0.619243
O O17 0.500000 0.000000 0.000000
#
# Coordination Sequence:
#
# PCOD9059443 Si02
#       8
#     2   2   2   2   2   2   2   2
#     4  11  26  47  70  95 138 180 232 287 341 405
#     4  11  23  41  68  99 142 176 219 280 351 408
#     4  11  24  42  65 103 141 178 219 281 350 411
#     4  11  27  48  68  95 135 187 233 286 338 404
#     4  12  25  43  71 101 139 182 230 283 341 415
#     4  12  23  42  69 102 138 176 223 285 347 411
#     4  12  25  46  70 100 135 177 234 284 342 407
#     4  12  24  42  71 105 140 179 226 282 353 416
#
# _framework density 22.176926999999999
#
# number of rings (size 3 to 8) (size 9 to 14) (size 15 to 20)
#    0.000    0.500    3.750    4.875    3.500    1.500 
#    0.000    0.000    0.000    0.000    0.000    0.000 
#    0.000    0.000    0.000    0.000    0.000    0.000 
#
# Total GULP energy -89519.771978 kJ/mol
# GULP energy per Si atom -5594.985749 kJ/mol
# Density = 2.212645 g / cm^3
# Si number density = 22.176927 Si / 1000 Ang^3
#
#
#
# Elastic Constant Matrix: (Units=GPa)
#
#
# Indices 1 2 3 4 5 6 
#
# 1 90.3981 15.7771 16.0004 3.5909 -9.2003 -13.0913
# 2 15.7771 151.5759 27.1895 -4.1823 -8.5051 -21.5018
# 3 16.0004 27.1895 73.7921 -3.9964 -12.6904 -19.0938
# 4 3.5909 -4.1823 -3.9964 21.9688 -2.7568 -3.4430
# 5 -9.2003 -8.5051 -12.6904 -2.7568 28.1341 7.4755
# 6 -13.0913 -21.5018 -19.0938 -3.4430 7.4755 35.1382
#
#
#
# Elastic Compliance Matrix: (Units=1/GPa)
#
#
# Indices 1 2 3 4 5 6 
#
# 1 0.012101 -0.000530 -0.001407 -0.001615 0.002265 0.002779
# 2 -0.000530 0.007527 -0.001503 0.001897 0.000643 0.003641
# 3 -0.001407 -0.001503 0.017546 0.004989 0.005521 0.007405
# 4 -0.001615 0.001897 0.004989 0.048796 0.005234 0.006938
# 5 0.002265 0.000643 0.005521 0.005234 0.040510 -0.003868
# 6 0.002779 0.003641 0.007405 0.006938 -0.003868 0.037249
#
#
# Mechanical properties :
#
#
# Convention : Reuss Voigt Hill
#
# Bulk Modulus (GPa) = 33.01103 48.18887 40.59995
# Shear Modulus (GPa) = 27.66889 34.16816 30.91852
#
# Velocity S-wave (km/s) = 3.53603 3.92944 3.73792
# Velocity P-wave (km/s) = 5.62041 6.50875 6.08082
#
# Compressibility (1/GPa) = 0.03029290
#
# Stress axis : x y z
#
# Youngs Moduli (GPa) = 82.63781 132.85398 56.99224
#
# Poissons Ratio (x) = 0.07046 0.08020
# Poissons Ratio (y) = 0.04383 0.08566
# Poissons Ratio (z) = 0.11629 0.19969
#
# Static dielectric constant tensor:
#      x y z
#    x 2.187360 -0.066640 -0.530220 
#    y -0.066640 1.863720 0.058030 
#    z -0.530220 0.058030 2.491890 
# 
# From -- ./inp_files/455795.got.cif
#   From: 2010.05.17/outbox.cif.g08.bks.cpg/sg2_228_cif.got.tgz:455795.got - 2010.06.03 11:33:40.
