data_PCOD9059285
_publ_section_title
;
Structure prediction by ZEFSAII (Michael W. Deem and Ramdas Pophale) SiO2 
 PCOD9059285
Probable space group: P -1
;
_chemical_formula_sum "Si O2"
_cell_formula_units_Z 14
_cell_length_a 8.744174
_cell_length_b 6.679426
_cell_length_c 30.501178
_cell_angle_alpha 46.755034
_cell_angle_beta 150.548356
_cell_angle_gamma 124.090177
_cell_volume 634.801559
_symmetry_space_group_name_H-M "P -1"
_symmetry_group_IT_number 2
_symmetry_cell_setting 'triclinic'
loop_
_space_group_symop_operation_xyz
x,y,z
-x,-y,-z
loop_
_atom_site_type_symbol
_atom_site_label
_atom_site_fract_x
_atom_site_fract_y
_atom_site_fract_z
Si Si1 0.327005 0.006452 0.734074
Si Si2 0.373967 0.762374 0.475030
Si Si3 0.353782 0.959757 0.108060
Si Si4 0.326598 0.145114 0.557575
Si Si5 0.293117 0.357578 0.836817
Si Si6 0.352766 0.580589 0.998677
Si Si7 0.754225 0.987284 0.761850
O O1 0.289179 0.679732 0.777360
O O2 0.555576 0.139763 0.805863
O O3 0.471798 0.037536 0.717889
O O4 0.988036 0.151557 0.638254
O O5 0.356590 0.456543 0.537425
O O6 0.580965 0.787569 0.479222
O O7 0.500000 0.000000 0.500000
O O8 0.543128 0.803102 0.139836
O O9 0.399437 0.278016 0.075804
O O10 0.000000 0.000000 0.000000
O O11 0.596220 0.955053 0.679793
O O12 0.000000 0.000000 0.500000
O O13 0.957157 0.246610 0.772961
O O14 0.474839 0.276390 0.939914
O O15 0.500000 0.500000 0.000000
O O16 0.007477 0.735044 0.879718
#
# Coordination Sequence:
#
# PCOD9059285 Si02
#       7
#     2   2   2   2   2   2   2
#     4  11  26  42  67 102 132 178 228 276 340 406
#     4  11  25  49  72  99 141 179 229 292 352 409
#     4  11  23  41  64  92 137 179 219 276 336 396
#     4  11  27  47  73 105 137 179 236 290 345 418
#     4  11  24  44  64  97 138 178 227 275 334 410
#     4  11  24  40  65  99 133 177 228 274 333 404
#     4  12  24  44  70  98 136 180 227 280 341 407
#
# _framework density 22.054137000000001
#
# number of rings (size 3 to 8) (size 9 to 14) (size 15 to 20)
#    0.000    0.857    1.429    4.714    4.000   10.286 
#    0.000    0.000    0.000    0.000    0.000    0.000 
#    0.000    0.000    0.000    0.000    0.000    0.000 
#
# Total GULP energy -77963.056261 kJ/mol
# GULP energy per Si atom -5568.789733 kJ/mol
# Density = 2.200394 g / cm^3
# Si number density = 22.054137 Si / 1000 Ang^3
#
#
#
# Elastic Constant Matrix: (Units=GPa)
#
#
# Indices 1 2 3 4 5 6 
#
# 1 146.4993 395.0568 138.7611 186.2113 -5.4164 236.6569
# 2 395.0568 1902.4423 699.0077 911.6436 -45.3885 1032.7829
# 3 138.7611 699.0077 327.9215 344.5089 -17.3412 384.8369
# 4 186.2113 911.6436 344.5089 492.3145 -28.4966 515.8160
# 5 -5.4164 -45.3885 -17.3412 -28.4966 28.8967 -16.4364
# 6 236.6569 1032.7829 384.8369 515.8160 -16.4364 609.6468
#
#
#
# Elastic Compliance Matrix: (Units=1/GPa)
#
#
# Indices 1 2 3 4 5 6 
#
# 1 0.019969 -0.000979 0.001975 0.005538 0.002043 -0.011970
# 2 -0.000979 0.009104 -0.003981 -0.004433 0.002399 -0.008714
# 3 0.001975 -0.003981 0.014611 -0.001705 0.000181 -0.001798
# 4 0.005538 -0.004433 -0.001705 0.025385 0.009678 -0.014781
# 5 0.002043 0.002399 0.000181 0.009678 0.041562 -0.012039
# 6 -0.011970 -0.008714 -0.001798 -0.014781 -0.012039 0.034365
#
#
# Mechanical properties :
#
#
# Convention : Reuss Voigt Hill
#
# Bulk Modulus (GPa) = 26.51620 538.05717 282.28668
# Shear Modulus (GPa) = 30.57419 302.44075 166.50747
#
# Velocity S-wave (km/s) = 3.72738 11.72320 8.69847
# Velocity P-wave (km/s) = 5.52936 20.68200 15.13801
#
# Compressibility (1/GPa) = 0.03771279
#
# Stress axis : x y z
#
# Youngs Moduli (GPa) = 50.07848 109.84696 68.44110
#
# Poissons Ratio (x) = 0.10751 -0.13515
# Poissons Ratio (y) = 0.04901 0.27248
# Poissons Ratio (z) = -0.09889 0.43733
#
# Static dielectric constant tensor:
#      x y z
#    x 1.786310 -0.171740 -0.210800 
#    y -0.171740 1.853710 -0.007310 
#    z -0.210800 -0.007310 1.795950 
# 
# From -- ./inp_files/142726.got.cif
#   From: 2010.05.17/outbox.cif.g08.bks.cpg/sg2_72_cif.got.tgz:142726.got - 2010.06.03 11:33:40.
