data_PCOD9059727
_publ_section_title
;
Structure prediction by ZEFSAII (Michael W. Deem and Ramdas Pophale) SiO2 
 PCOD9059727
Probable space group: P -1
;
_chemical_formula_sum "Si O2"
_cell_formula_units_Z 14
_cell_length_a 6.383097
_cell_length_b 20.159186
_cell_length_c 15.170625
_cell_angle_alpha 153.602863
_cell_angle_beta 67.058791
_cell_angle_gamma 126.734785
_cell_volume 634.500720
_symmetry_space_group_name_H-M "P -1"
_symmetry_group_IT_number 2
_symmetry_cell_setting 'triclinic'
loop_
_space_group_symop_operation_xyz
x,y,z
-x,-y,-z
loop_
_atom_site_type_symbol
_atom_site_label
_atom_site_fract_x
_atom_site_fract_y
_atom_site_fract_z
Si Si1 0.951843 0.826285 0.682690
Si Si2 0.755499 0.399800 0.845124
Si Si3 0.456285 0.996005 0.398261
Si Si4 0.163504 0.273545 0.881030
Si Si5 0.771627 0.852135 0.098280
Si Si6 0.601037 0.424484 0.319327
Si Si7 0.438698 0.098855 0.054188
O O1 0.827285 0.610245 0.446927
O O2 0.755313 0.854693 0.809747
O O3 0.981458 0.933251 0.715610
O O4 0.259054 0.949725 0.828008
O O5 0.453019 0.322302 0.848915
O O6 0.688124 0.212758 0.591222
O O7 0.827971 0.550779 0.939683
O O8 0.000000 0.500000 0.000000
O O9 0.522748 0.864110 0.186499
O O10 0.131351 0.908217 0.326103
O O11 0.500000 0.000000 0.500000
O O12 0.158549 0.231227 0.933929
O O13 0.662294 0.721840 0.875495
O O14 0.500000 0.500000 0.500000
O O15 0.679434 0.299201 0.205905
O O16 0.500000 0.000000 0.000000
#
# Coordination Sequence:
#
# PCOD9059727 Si02
#       7
#     2   2   2   2   2   2   2
#     4   9  20  38  58  86 126 161 204 268 324 375
#     4  11  23  42  67  96 128 172 221 270 329 392
#     4  12  24  43  64  92 135 173 214 274 329 386
#     4  11  24  41  67  95 129 174 223 265 331 396
#     4  11  24  39  63  95 128 167 224 269 320 389
#     4   9  20  42  64  88 128 169 210 270 327 379
#     4   9  18  36  63  90 116 161 210 259 325 393
#
# _framework density 22.064595000000001
#
# number of rings (size 3 to 8) (size 9 to 14) (size 15 to 20)
#    0.000    1.714    2.857    1.286    0.000    6.286 
#    0.000    5.714    0.000    0.000    0.000    0.000 
#    0.000    0.000    0.000    0.000    0.000    0.000 
#
# Total GULP energy -78125.052554 kJ/mol
# GULP energy per Si atom -5580.360897 kJ/mol
# Density = 2.201438 g / cm^3
# Si number density = 22.064595 Si / 1000 Ang^3
#
#
#
# Elastic Constant Matrix: (Units=GPa)
#
#
# Indices 1 2 3 4 5 6 
#
# 1 85.4588 39.2043 57.1521 6.2046 -0.0475 -33.0815
# 2 39.2043 126.2586 44.2960 27.2549 -5.4764 -46.7337
# 3 57.1521 44.2960 127.0632 29.9100 -6.8422 -27.6340
# 4 6.2046 27.2549 29.9100 50.6472 -10.3165 -16.5827
# 5 -0.0475 -5.4764 -6.8422 -10.3165 31.3207 11.0148
# 6 -33.0815 -46.7337 -27.6340 -16.5827 11.0148 57.0939
#
#
#
# Elastic Compliance Matrix: (Units=1/GPa)
#
#
# Indices 1 2 3 4 5 6 
#
# 1 0.021281 -0.001558 -0.008523 0.005570 -0.003512 0.009226
# 2 -0.001558 0.012511 -0.001151 -0.003630 -0.002123 0.008136
# 3 -0.008523 -0.001151 0.013366 -0.006501 0.001096 -0.001511
# 4 0.005570 -0.003630 -0.006501 0.027282 0.005546 0.003963
# 5 -0.003512 -0.002123 0.001096 0.005546 0.036680 -0.008708
# 6 0.009226 0.008136 -0.001511 0.003963 -0.008708 0.031620
#
#
# Mechanical properties :
#
#
# Convention : Reuss Voigt Hill
#
# Bulk Modulus (GPa) = 40.49489 68.89839 54.69664
# Shear Modulus (GPa) = 28.82945 41.02092 34.92519
#
# Velocity S-wave (km/s) = 3.61860 4.31644 3.98283
# Velocity P-wave (km/s) = 5.98764 7.49238 6.78187
#
# Compressibility (1/GPa) = 0.02469448
#
# Stress axis : x y z
#
# Youngs Moduli (GPa) = 46.99077 79.93017 74.81930
#
# Poissons Ratio (x) = 0.12450 0.63766
# Poissons Ratio (y) = 0.07319 0.08613
# Poissons Ratio (z) = 0.40049 0.09201
#
# Static dielectric constant tensor:
#      x y z
#    x 1.824360 0.013890 -0.027950 
#    y 0.013890 1.889880 0.051790 
#    z -0.027950 0.051790 1.818360 
# 
# From -- ./inp_files/550761.got.cif
#   From: 2010.05.17/outbox.cif.g08.bks.cpg/sg2_276_cif.got.tgz:550761.got - 2010.06.03 11:33:40.
