data_PCOD9059309
_publ_section_title
;
Structure prediction by ZEFSAII (Michael W. Deem and Ramdas Pophale) SiO2 
 PCOD9059309
Probable space group: P -1
;
_chemical_formula_sum "Si O2"
_cell_formula_units_Z 16
_cell_length_a 22.181912
_cell_length_b 9.085809
_cell_length_c 8.098399
_cell_angle_alpha 32.467573
_cell_angle_beta 63.329949
_cell_angle_gamma 55.245966
_cell_volume 717.964461
_symmetry_space_group_name_H-M "P -1"
_symmetry_group_IT_number 2
_symmetry_cell_setting 'triclinic'
loop_
_space_group_symop_operation_xyz
x,y,z
-x,-y,-z
loop_
_atom_site_type_symbol
_atom_site_label
_atom_site_fract_x
_atom_site_fract_y
_atom_site_fract_z
Si Si1 0.050576 0.667679 0.212045
Si Si2 0.436903 0.384127 0.486360
Si Si3 0.360079 0.976987 0.862429
Si Si4 0.189550 0.739821 0.129095
Si Si5 0.948579 0.334416 0.178781
Si Si6 0.195918 0.279397 0.802284
Si Si7 0.335821 0.299686 0.229024
Si Si8 0.400385 0.696533 0.588245
O O1 0.125063 0.649512 0.225315
O O2 0.000000 0.500000 0.500000
O O3 0.063102 0.645816 0.021663
O O4 0.000000 0.000000 0.000000
O O5 0.408275 0.121900 0.762720
O O6 0.409471 0.567277 0.515732
O O7 0.524421 0.271638 0.483457
O O8 0.401565 0.620810 0.158577
O O9 0.278524 0.061234 0.958607
O O10 0.352453 0.119633 0.553515
O O11 0.211578 0.549163 0.448359
O O12 0.258545 0.586209 0.070117
O O13 0.172959 0.077227 0.888655
O O14 0.870932 0.538162 0.167109
O O15 0.000000 0.000000 0.500000
O O16 0.000000 0.500000 0.000000
O O17 0.338179 0.032377 0.358787
O O18 0.388190 0.453250 0.950490
#
# Coordination Sequence:
#
# PCOD9059309 Si02
#       8
#     2   2   2   2   2   2   2   2
#     4  12  25  42  66  96 128 165 208 254 309 370
#     4  11  24  41  62  91 129 169 209 260 319 376
#     4  11  23  41  65  93 124 165 213 262 313 372
#     4  11  23  43  66  91 128 167 207 259 316 371
#     4  12  25  42  66  96 128 165 208 254 309 370
#     4  11  23  43  66  91 128 167 207 259 316 371
#     4  11  23  41  65  93 124 165 213 262 313 372
#     4  11  24  41  62  91 129 169 209 260 319 376
#
# _framework density 22.285222999999998
#
# number of rings (size 3 to 8) (size 9 to 14) (size 15 to 20)
#    0.000    0.750    0.000    9.750    0.000    7.000 
#    0.000    0.000    0.000    0.000    0.000    0.000 
#    0.000    0.000    0.000    0.000    0.000    0.000 
#
# Total GULP energy -89268.030411 kJ/mol
# GULP energy per Si atom -5579.251901 kJ/mol
# Density = 2.223450 g / cm^3
# Si number density = 22.285223 Si / 1000 Ang^3
#
#
#
# Elastic Constant Matrix: (Units=GPa)
#
#
# Indices 1 2 3 4 5 6 
#
# 1 53.5739 3.3235 18.6079 8.8624 -17.1729 -12.4856
# 2 3.3235 126.5116 38.9552 -4.1179 -11.9847 -9.4693
# 3 18.6079 38.9552 128.7206 -13.3098 -24.6031 0.2019
# 4 8.8624 -4.1179 -13.3098 28.7456 1.5483 -9.2096
# 5 -17.1729 -11.9847 -24.6031 1.5483 34.6293 2.6501
# 6 -12.4856 -9.4693 0.2019 -9.2096 2.6501 18.3223
#
#
#
# Elastic Compliance Matrix: (Units=1/GPa)
#
#
# Indices 1 2 3 4 5 6 
#
# 1 0.027835 0.002332 -0.003110 -0.005194 0.011413 0.015947
# 2 0.002332 0.009420 -0.002676 0.001524 0.001914 0.006976
# 3 -0.003110 -0.002676 0.010431 0.004476 0.004901 -0.002076
# 4 -0.005194 0.001524 0.004476 0.045328 -0.002451 0.020337
# 5 0.011413 0.001914 0.004901 -0.002451 0.038647 0.001891
# 6 0.015947 0.006976 -0.002076 0.020337 0.001891 0.079022
#
#
# Mechanical properties :
#
#
# Convention : Reuss Voigt Hill
#
# Bulk Modulus (GPa) = 24.52236 47.84214 36.18225
# Shear Modulus (GPa) = 21.62787 32.86739 27.24763
#
# Velocity S-wave (km/s) = 3.11867 3.84455 3.50047
# Velocity P-wave (km/s) = 4.89856 6.42044 5.71043
#
# Compressibility (1/GPa) = 0.04077911
#
# Stress axis : x y z
#
# Youngs Moduli (GPa) = 35.92545 106.15648 95.86781
#
# Poissons Ratio (x) = -0.24758 0.29818
# Poissons Ratio (y) = -0.08379 0.25650
# Poissons Ratio (z) = 0.11174 0.28403
#
# Static dielectric constant tensor:
#      x y z
#    x 1.815340 -0.008440 0.067810 
#    y -0.008440 1.820000 -0.018140 
#    z 0.067810 -0.018140 1.813130 
# 
# From -- ./inp_files/351967.got.cif
#   From: 2010.05.17/outbox.cif.g08.bks.cpg/sg2_176_cif.got.tgz:351967.got - 2010.06.03 11:33:40.
