data_PCOD9059099
_publ_section_title
;
Structure prediction by ZEFSAII (Michael W. Deem and Ramdas Pophale) SiO2 
 PCOD9059099
Probable space group: P -1
;
_chemical_formula_sum "Si O2"
_cell_formula_units_Z 16
_cell_length_a 8.842334
_cell_length_b 9.393394
_cell_length_c 11.755827
_cell_angle_alpha 121.542092
_cell_angle_beta 62.353457
_cell_angle_gamma 109.999192
_cell_volume 730.759370
_symmetry_space_group_name_H-M "P -1"
_symmetry_group_IT_number 2
_symmetry_cell_setting 'triclinic'
loop_
_space_group_symop_operation_xyz
x,y,z
-x,-y,-z
loop_
_atom_site_type_symbol
_atom_site_label
_atom_site_fract_x
_atom_site_fract_y
_atom_site_fract_z
Si Si1 0.542666 0.600027 0.368217
Si Si2 0.836078 0.472704 0.633115
Si Si3 0.166588 0.828246 0.316352
Si Si4 0.200192 0.083291 0.608773
Si Si5 0.226291 0.961829 0.796170
Si Si6 0.680028 0.013744 0.875908
Si Si7 0.859538 0.818903 0.900406
Si Si8 0.509858 0.742399 0.681336
O O1 0.343012 0.591509 0.397190
O O2 0.669862 0.750798 0.332575
O O3 0.570063 0.654746 0.512616
O O4 0.580683 0.407039 0.269094
O O5 0.862693 0.338385 0.666467
O O6 0.808670 0.644296 0.780851
O O7 0.000000 0.500000 0.500000
O O8 0.984630 0.868962 0.345756
O O9 0.247482 0.971275 0.438231
O O10 0.282515 0.835842 0.164481
O O11 0.197852 0.971280 0.675704
O O12 0.389476 0.875787 0.738209
O O13 0.063247 0.840797 0.851055
O O14 0.227702 0.141877 0.933662
O O15 0.820599 0.978668 0.903656
O O16 0.667421 0.846266 0.733317
O O17 0.500000 0.000000 0.000000
#
# Coordination Sequence:
#
# PCOD9059099 Si02
#       8
#     2   2   2   2   2   2   2   2
#     4  11  25  39  67 104 137 173 231 287 339 407
#     4  12  27  45  70 102 142 183 228 289 352 405
#     4  11  26  44  69 104 139 181 232 285 349 410
#     4  11  24  44  69 101 140 176 231 291 341 411
#     4  11  24  44  69  95 136 185 225 281 344 411
#     4  12  23  46  71  98 139 188 229 280 349 412
#     4  11  24  45  66  98 136 181 235 274 343 424
#     4  11  23  40  66  99 134 176 229 276 342 404
#
# _framework density 21.895033999999999
#
# number of rings (size 3 to 8) (size 9 to 14) (size 15 to 20)
#    0.000    0.750    5.000    2.250    8.750    1.000 
#    2.250    1.875    0.000    0.000    0.000    0.000 
#    0.000    0.000    0.000    0.000    0.000    0.000 
#
# Total GULP energy -89250.613911 kJ/mol
# GULP energy per Si atom -5578.163369 kJ/mol
# Density = 2.184520 g / cm^3
# Si number density = 21.895034 Si / 1000 Ang^3
#
#
#
# Elastic Constant Matrix: (Units=GPa)
#
#
# Indices 1 2 3 4 5 6 
#
# 1 101.0956 26.4377 7.1373 -10.4644 15.5930 -5.2312
# 2 26.4377 109.7565 28.0702 -14.7606 1.6037 -12.7802
# 3 7.1373 28.0702 72.0970 -19.9749 14.9645 -7.4860
# 4 -10.4644 -14.7606 -19.9749 31.4235 4.5847 8.4985
# 5 15.5930 1.6037 14.9645 4.5847 35.0337 0.5150
# 6 -5.2312 -12.7802 -7.4860 8.4985 0.5150 38.6894
#
#
#
# Elastic Compliance Matrix: (Units=1/GPa)
#
#
# Indices 1 2 3 4 5 6 
#
# 1 0.012129 -0.002801 0.002980 0.005639 -0.007283 0.000149
# 2 -0.002801 0.011173 -0.004124 0.000720 0.002368 0.002325
# 3 0.002980 -0.004124 0.021846 0.014695 -0.012395 0.000205
# 4 0.005639 0.000720 0.014695 0.047272 -0.014913 -0.006341
# 5 -0.007283 0.002368 -0.012395 -0.014913 0.038921 0.000157
# 6 0.000149 0.002325 0.000205 -0.006341 0.000157 0.028065
#
#
# Mechanical properties :
#
#
# Convention : Reuss Voigt Hill
#
# Bulk Modulus (GPa) = 26.84034 45.13773 35.98903
# Shear Modulus (GPa) = 27.82170 35.78292 31.80231
#
# Velocity S-wave (km/s) = 3.56853 4.04703 3.81529
# Velocity P-wave (km/s) = 5.40967 6.51906 5.99010
#
# Compressibility (1/GPa) = 0.03725735
#
# Stress axis : x y z
#
# Youngs Moduli (GPa) = 82.44956 89.49846 45.77482
#
# Poissons Ratio (x) = 0.25071 -0.13639
# Poissons Ratio (y) = 0.23097 0.18876
# Poissons Ratio (z) = -0.24566 0.36906
#
# Static dielectric constant tensor:
#      x y z
#    x 1.790470 0.020850 -0.001100 
#    y 0.020850 1.923370 -0.022670 
#    z -0.001100 -0.022670 1.855860 
# 
# From -- ./inp_files/383138.got.cif
#   From: 2010.05.17/outbox.cif.g08.bks.cpg/sg2_192_cif.got.tgz:383138.got - 2010.06.03 11:33:40.
