data_PCOD9059360
_publ_section_title
;
Structure prediction by ZEFSAII (Michael W. Deem and Ramdas Pophale) SiO2 
 PCOD9059360
Probable space group: P -1
;
_chemical_formula_sum "Si O2"
_cell_formula_units_Z 14
_cell_length_a 14.874182
_cell_length_b 7.183653
_cell_length_c 18.007643
_cell_angle_alpha 95.006992
_cell_angle_beta 36.919149
_cell_angle_gamma 66.464657
_cell_volume 714.861912
_symmetry_space_group_name_H-M "P -1"
_symmetry_group_IT_number 2
_symmetry_cell_setting 'triclinic'
loop_
_space_group_symop_operation_xyz
x,y,z
-x,-y,-z
loop_
_atom_site_type_symbol
_atom_site_label
_atom_site_fract_x
_atom_site_fract_y
_atom_site_fract_z
Si Si1 0.108154 0.319356 0.256776
Si Si2 0.735443 0.336725 0.165279
Si Si3 0.122046 0.355701 0.722255
Si Si4 0.567703 0.842287 0.839549
Si Si5 0.623111 0.642090 0.638022
Si Si6 0.537713 0.672544 0.455822
Si Si7 0.652995 0.744045 0.125361
O O1 0.208187 0.331154 0.262264
O O2 0.986584 0.572332 0.284532
O O3 0.899827 0.379864 0.420763
O O4 0.341771 0.011470 0.047573
O O5 0.543413 0.357090 0.284160
O O6 0.652881 0.549877 0.294259
O O7 0.714618 0.486306 0.111245
O O8 0.000000 0.000000 0.000000
O O9 0.281466 0.386181 0.615083
O O10 0.289165 0.026627 0.628426
O O11 0.903705 0.596062 0.931961
O O12 0.610993 0.656217 0.737096
O O13 0.495438 0.100297 0.848866
O O14 0.497750 0.965903 0.713526
O O15 0.500000 0.500000 0.500000
#
# Coordination Sequence:
#
# PCOD9059360 Si02
#       7
#     2   2   2   2   2   2   2
#     4  10  17  37  67  87 114 159 200 236 305 350
#     4  12  24  37  59  87 121 159 197 243 299 352
#     4  10  21  38  60  83 119 157 196 248 292 351
#     4   8  20  37  64  88 117 156 193 250 294 352
#     4  10  21  38  61  88 120 157 191 248 295 350
#     4  11  23  37  56  87 117 156 201 244 295 353
#     4   9  21  39  56  84 121 150 197 241 296 347
#
# _framework density 19.584202000000001
#
# number of rings (size 3 to 8) (size 9 to 14) (size 15 to 20)
#    0.857    1.143    0.000    3.857    0.000    4.571 
#    2.571    0.714    3.143    2.571    0.000    0.000 
#    0.000    0.000    0.000    0.000    0.000    0.000 
#
# Total GULP energy -77984.895587 kJ/mol
# GULP energy per Si atom -5570.349685 kJ/mol
# Density = 1.953963 g / cm^3
# Si number density = 19.584202 Si / 1000 Ang^3
#
#
#
# Elastic Constant Matrix: (Units=GPa)
#
#
# Indices 1 2 3 4 5 6 
#
# 1 104.0327 22.1136 40.4862 0.4001 -19.2467 -4.4784
# 2 22.1136 78.1189 21.9408 -11.1655 -22.8823 -2.0152
# 3 40.4862 21.9408 87.2366 -8.1073 -20.5467 -3.8083
# 4 0.4001 -11.1655 -8.1073 15.3071 2.2883 2.3387
# 5 -19.2467 -22.8823 -20.5467 2.2883 35.7703 -1.1457
# 6 -4.4784 -2.0152 -3.8083 2.3387 -1.1457 17.2537
#
#
#
# Elastic Compliance Matrix: (Units=1/GPa)
#
#
# Indices 1 2 3 4 5 6 
#
# 1 0.012714 -0.001955 -0.005042 -0.005338 0.003128 0.002890
# 2 -0.001955 0.017863 -0.000255 0.011431 0.009517 0.000605
# 3 -0.005042 -0.000255 0.016005 0.007296 0.005902 0.001597
# 4 -0.005338 0.011431 0.007296 0.078529 0.003324 -0.008864
# 5 0.003128 0.009517 0.005902 0.003324 0.039076 0.005370
# 6 0.002890 0.000605 0.001597 -0.008864 0.005370 0.060690
#
#
# Mechanical properties :
#
#
# Convention : Reuss Voigt Hill
#
# Bulk Modulus (GPa) = 31.17440 48.71881 39.94660
# Shear Modulus (GPa) = 19.99411 25.98938 22.99175
#
# Velocity S-wave (km/s) = 3.19867 3.64683 3.43008
# Velocity P-wave (km/s) = 5.44010 6.53170 6.01073
#
# Compressibility (1/GPa) = 0.03207761
#
# Stress axis : x y z
#
# Youngs Moduli (GPa) = 78.65523 55.98146 62.48052
#
# Poissons Ratio (x) = 0.10944 0.31502
# Poissons Ratio (y) = 0.15377 0.01595
# Poissons Ratio (z) = 0.39657 0.01429
#
# Static dielectric constant tensor:
#      x y z
#    x 1.712810 -0.050520 0.019190 
#    y -0.050520 1.670610 -0.011150 
#    z 0.019190 -0.011150 1.725840 
# 
# From -- ./inp_files/596667.got.cif
#   From: 2010.05.17/outbox.cif.g08.bks.cpg/sg2_299_cif.got.tgz:596667.got - 2010.06.03 11:33:40.
