data_PCOD9059164
_publ_section_title
;
Structure prediction by ZEFSAII (Michael W. Deem and Ramdas Pophale) SiO2 
 PCOD9059164
Probable space group: P -1
;
_chemical_formula_sum "Si O2"
_cell_formula_units_Z 15
_cell_length_a 14.708719
_cell_length_b 9.217411
_cell_length_c 4.881563
_cell_angle_alpha 114.426695
_cell_angle_beta 92.863647
_cell_angle_gamma 111.026257
_cell_volume 546.932237
_symmetry_space_group_name_H-M "P -1"
_symmetry_group_IT_number 2
_symmetry_cell_setting 'triclinic'
loop_
_space_group_symop_operation_xyz
x,y,z
-x,-y,-z
loop_
_atom_site_type_symbol
_atom_site_label
_atom_site_fract_x
_atom_site_fract_y
_atom_site_fract_z
Si Si1 0.979159 0.239254 0.657600
Si Si2 0.807023 0.292050 0.346236
Si Si3 0.839017 0.618555 0.886235
Si Si4 0.383290 0.576922 0.075121
Si Si5 0.500000 0.500000 0.500000
Si Si6 0.876631 0.904743 0.732590
Si Si7 0.642361 0.755492 0.518406
Si Si8 0.328892 0.872447 0.295333
O O1 0.903352 0.273326 0.471740
O O2 0.044701 0.162125 0.433153
O O3 0.919912 0.100833 0.778204
O O4 0.069176 0.394606 0.948276
O O5 0.824858 0.494846 0.523582
O O6 0.716118 0.191058 0.462408
O O7 0.766239 0.204203 0.983914
O O8 0.733385 0.532388 0.954051
O O9 0.865062 0.820662 0.971020
O O10 0.448837 0.603887 0.375581
O O11 0.393001 0.766110 0.130089
O O12 0.407628 0.455858 0.756290
O O13 0.595280 0.697015 0.764933
O O14 0.760527 0.816870 0.560210
O O15 0.624741 0.919505 0.543196
#
# Coordination Sequence:
#
# PCOD9059164 Si02
#       8
#     2   2   2   2   1   2   2   2
#     4  11  24  40  67 110 146 209 259 299 373 453
#     4  11  26  46  71 114 152 209 258 304 374 457
#     4  11  23  43  74 100 160 202 250 321 373 444
#     4  11  26  51  77 115 147 202 251 321 388 459
#     4  12  28  48  88 114 142 198 264 308 406 460
#     4  11  23  40  69 104 153 196 258 312 371 450
#     4  12  25  51  78 111 151 203 250 326 380 462
#     4  11  28  49  80 111 161 200 252 319 385 452
#
# _framework density 27.425702000000001
#
# number of rings (size 3 to 8) (size 9 to 14) (size 15 to 20)
#    0.000    0.800    4.000    2.000    7.467    3.200 
#    0.000    1.333    0.000    0.000    0.000    0.000 
#    0.000    0.000    0.000    0.000    0.000    0.000 
#
# Total GULP energy -83751.482966 kJ/mol
# GULP energy per Si atom -5583.432198 kJ/mol
# Density = 2.736328 g / cm^3
# Si number density = 27.425702 Si / 1000 Ang^3
#
#
#
# Elastic Constant Matrix: (Units=GPa)
#
#
# Indices 1 2 3 4 5 6 
#
# 1 157.6433 80.7154 28.4571 17.2583 11.4412 -6.2816
# 2 80.7154 165.3984 33.6149 5.5080 0.2091 -7.7483
# 3 28.4571 33.6149 72.5696 5.5373 4.4510 -23.0338
# 4 17.2583 5.5080 5.5373 32.5232 -3.5227 4.6092
# 5 11.4412 0.2091 4.4510 -3.5227 39.3162 -4.2900
# 6 -6.2816 -7.7483 -23.0338 4.6092 -4.2900 53.0613
#
#
#
# Elastic Compliance Matrix: (Units=1/GPa)
#
#
# Indices 1 2 3 4 5 6 
#
# 1 0.009409 -0.004193 -0.001187 -0.004420 -0.002963 0.000131
# 2 -0.004193 0.008563 -0.002655 0.001453 0.001562 -0.000399
# 3 -0.001187 -0.002655 0.018189 -0.003214 -0.001164 0.007553
# 4 -0.004420 0.001453 -0.003214 0.034472 0.004256 -0.004357
# 5 -0.002963 0.001562 -0.001164 0.004256 0.026931 0.001180
# 6 0.000131 -0.000399 0.007553 -0.004357 0.001180 0.022556
#
#
# Mechanical properties :
#
#
# Convention : Reuss Voigt Hill
#
# Bulk Modulus (GPa) = 49.77511 75.68734 62.73123
# Shear Modulus (GPa) = 34.99275 41.83507 38.41391
#
# Velocity S-wave (km/s) = 3.57586 3.90987 3.74659
# Velocity P-wave (km/s) = 5.93612 6.93108 6.45281
#
# Compressibility (1/GPa) = 0.02009036
#
# Stress axis : x y z
#
# Youngs Moduli (GPa) = 106.28293 116.78141 54.97841
#
# Poissons Ratio (x) = 0.48970 0.06524
# Poissons Ratio (y) = 0.44568 0.14598
# Poissons Ratio (z) = 0.12612 0.31008
#
# Static dielectric constant tensor:
#      x y z
#    x 2.223120 0.050740 -0.082360 
#    y 0.050740 2.182060 -0.032640 
#    z -0.082360 -0.032640 2.317980 
# 
# From -- ./inp_files/91030.got.cif
#   From: 2010.05.17/outbox.cif.g08.bks.cpg/sg2_46_cif.got.tgz:91030.got - 2010.06.03 11:33:40.
