data_PCOD9059124
_publ_section_title
;
Structure prediction by ZEFSAII (Michael W. Deem and Ramdas Pophale) SiO2 
 PCOD9059124
Probable space group: P -1
;
_chemical_formula_sum "Si O2"
_cell_formula_units_Z 14
_cell_length_a 13.729150
_cell_length_b 9.379862
_cell_length_c 6.383637
_cell_angle_alpha 129.906804
_cell_angle_beta 98.720045
_cell_angle_gamma 71.249605
_cell_volume 595.442612
_symmetry_space_group_name_H-M "P -1"
_symmetry_group_IT_number 2
_symmetry_cell_setting 'triclinic'
loop_
_space_group_symop_operation_xyz
x,y,z
-x,-y,-z
loop_
_atom_site_type_symbol
_atom_site_label
_atom_site_fract_x
_atom_site_fract_y
_atom_site_fract_z
Si Si1 0.452828 0.655873 0.308824
Si Si2 0.916926 0.273782 0.866166
Si Si3 0.318767 0.997221 0.371552
Si Si4 0.588021 0.809972 0.770894
Si Si5 0.806404 0.190679 0.137255
Si Si6 0.734691 0.491943 0.755978
Si Si7 0.138461 0.079037 0.714560
O O1 0.530494 0.658257 0.523704
O O2 0.346841 0.618716 0.305542
O O3 0.419519 0.872823 0.409232
O O4 0.500000 0.500000 0.000000
O O5 0.826069 0.456699 0.922012
O O6 0.035831 0.261218 0.862742
O O7 0.896422 0.101437 0.558720
O O8 0.897229 0.213013 0.037872
O O9 0.348357 0.140131 0.354249
O O10 0.227586 0.089538 0.593260
O O11 0.281644 0.838890 0.073076
O O12 0.667316 0.708949 0.883297
O O13 0.500000 0.000000 0.000000
O O14 0.777916 0.382246 0.450855
O O15 0.827977 0.002318 0.118357
#
# Coordination Sequence:
#
# PCOD9059124 Si02
#       7
#     2   2   2   2   2   2   2
#     4  12  23  44  67  92 125 172 224 271 315 379
#     4   9  18  34  63  95 124 166 217 266 315 381
#     4  11  22  40  61  96 132 165 211 273 322 389
#     4  12  27  42  65  96 132 177 216 265 336 381
#     4  10  17  37  65  91 130 165 217 258 322 373
#     4  11  22  41  63  93 128 165 222 271 308 390
#     4   9  18  34  62  95 129 163 213 266 323 382
#
# _framework density 23.511922999999999
#
# number of rings (size 3 to 8) (size 9 to 14) (size 15 to 20)
#    0.000    1.429    4.286    3.857    0.000    1.143 
#    0.000    0.714    0.000    1.714    0.000    0.000 
#    0.000    0.000    0.000    0.000    0.000    0.000 
#
# Total GULP energy -78262.496604 kJ/mol
# GULP energy per Si atom -5590.178329 kJ/mol
# Density = 2.345841 g / cm^3
# Si number density = 23.511923 Si / 1000 Ang^3
#
#
#
# Elastic Constant Matrix: (Units=GPa)
#
#
# Indices 1 2 3 4 5 6 
#
# 1 110.3262 57.5173 32.2346 -8.2636 -22.9084 -0.7740
# 2 57.5173 150.0597 17.4683 -10.5104 -21.2509 -15.7223
# 3 32.2346 17.4683 77.0057 -12.4240 -1.5408 -7.5250
# 4 -8.2636 -10.5104 -12.4240 32.0430 6.5095 -4.6295
# 5 -22.9084 -21.2509 -1.5408 6.5095 23.3524 6.6837
# 6 -0.7740 -15.7223 -7.5250 -4.6295 6.6837 38.9112
#
#
#
# Elastic Compliance Matrix: (Units=1/GPa)
#
#
# Indices 1 2 3 4 5 6 
#
# 1 0.015607 -0.004102 -0.006387 -0.003329 0.013605 -0.005315
# 2 -0.004102 0.009078 0.000371 0.002007 0.002721 0.003430
# 3 -0.006387 0.000371 0.017211 0.007723 -0.008589 0.005745
# 4 -0.003329 0.002007 0.007723 0.038226 -0.014227 0.009230
# 5 0.013605 0.002721 -0.008589 -0.014227 0.065849 -0.013294
# 6 -0.005315 0.003430 0.005745 0.009230 -0.013294 0.031472
#
#
# Mechanical properties :
#
#
# Convention : Reuss Voigt Hill
#
# Bulk Modulus (GPa) = 46.16627 61.31467 53.74047
# Shear Modulus (GPa) = 24.40230 34.20609 29.30419
#
# Velocity S-wave (km/s) = 3.22509 3.81837 3.53420
# Velocity P-wave (km/s) = 5.79191 6.75090 6.28971
#
# Compressibility (1/GPa) = 0.02166084
#
# Stress axis : x y z
#
# Youngs Moduli (GPa) = 64.07390 110.15300 58.10248
#
# Poissons Ratio (x) = 0.45184 0.37109
# Poissons Ratio (y) = 0.26283 -0.02156
# Poissons Ratio (z) = 0.40923 -0.04087
#
# Static dielectric constant tensor:
#      x y z
#    x 2.001020 0.001230 -0.074860 
#    y 0.001230 1.974340 -0.012990 
#    z -0.074860 -0.012990 1.907890 
# 
# From -- ./inp_files/46429.got.cif
#   From: 2010.05.17/outbox.cif.g08.bks.cpg/sg2_24_cif.got.tgz:46429.got - 2010.06.03 11:33:40.
