data_PCOD9059829
_publ_section_title
;
Structure prediction by ZEFSAII (Michael W. Deem and Ramdas Pophale) SiO2 
 PCOD9059829
Probable space group: P -1
;
_chemical_formula_sum "Si O2"
_cell_formula_units_Z 16
_cell_length_a 10.251237
_cell_length_b 16.261740
_cell_length_c 5.398400
_cell_angle_alpha 100.071052
_cell_angle_beta 109.287918
_cell_angle_gamma 123.006201
_cell_volume 636.761161
_symmetry_space_group_name_H-M "P -1"
_symmetry_group_IT_number 2
_symmetry_cell_setting 'triclinic'
loop_
_space_group_symop_operation_xyz
x,y,z
-x,-y,-z
loop_
_atom_site_type_symbol
_atom_site_label
_atom_site_fract_x
_atom_site_fract_y
_atom_site_fract_z
Si Si1 0.820510 0.044720 0.362845
Si Si2 0.116132 0.489071 0.250250
Si Si3 0.328858 0.874259 0.372749
Si Si4 0.844533 0.727573 0.392562
Si Si5 0.141015 0.723097 0.743451
Si Si6 0.787931 0.936964 0.799446
Si Si7 0.578896 0.255898 0.384661
Si Si8 0.695258 0.610884 0.750004
O O1 0.745494 0.105290 0.426543
O O2 0.036650 0.143460 0.519496
O O3 0.774133 0.967054 0.526567
O O4 0.748307 0.988361 0.022380
O O5 0.298778 0.613743 0.478023
O O6 0.181960 0.424218 0.165921
O O7 0.968741 0.403029 0.314958
O O8 0.000000 0.500000 0.000000
O O9 0.372789 0.794588 0.403303
O O10 0.500000 0.000000 0.500000
O O11 0.181578 0.807609 0.027695
O O12 0.764335 0.690181 0.597553
O O13 0.986884 0.705977 0.468440
O O14 0.705682 0.661542 0.045759
O O15 0.338147 0.766456 0.802105
O O16 0.631803 0.810546 0.718304
O O17 0.000000 0.000000 0.000000
O O18 0.500000 0.500000 0.500000
#
# Coordination Sequence:
#
# PCOD9059829 Si02
#       8
#     2   2   2   2   2   2   2   2
#     4  12  24  46  74  99 141 184 239 311 366 439
#     4  11  23  44  70 106 149 197 244 311 383 450
#     4  12  23  40  70 110 142 180 246 305 384 436
#     4  11  23  42  74 103 140 187 241 308 375 438
#     4  11  23  42  69 111 150 187 247 310 383 456
#     4  12  29  49  69 103 146 199 253 300 368 456
#     4  12  25  41  71 103 149 192 240 307 379 448
#     4  11  25  46  70 106 146 192 257 307 367 451
#
# _framework density 25.127161000000001
#
# number of rings (size 3 to 8) (size 9 to 14) (size 15 to 20)
#    0.000    0.500    3.750    5.625    0.000    4.000 
#    0.000    1.250    0.000    0.000    0.000    0.000 
#    0.000    0.000    0.000    0.000    0.000    0.000 
#
# Total GULP energy -89284.748375 kJ/mol
# GULP energy per Si atom -5580.296773 kJ/mol
# Density = 2.506997 g / cm^3
# Si number density = 25.127161 Si / 1000 Ang^3
#
#
#
# Elastic Constant Matrix: (Units=GPa)
#
#
# Indices 1 2 3 4 5 6 
#
# 1 93.7039 38.0854 25.6595 -1.1662 2.0640 4.9748
# 2 38.0854 173.9577 53.9309 15.8140 -4.9813 33.2385
# 3 25.6595 53.9309 119.0341 5.8180 -20.6276 6.1579
# 4 -1.1662 15.8140 5.8180 44.6624 5.0488 2.9864
# 5 2.0640 -4.9813 -20.6276 5.0488 38.1124 14.6165
# 6 4.9748 33.2385 6.1579 2.9864 14.6165 35.6699
#
#
#
# Elastic Compliance Matrix: (Units=1/GPa)
#
#
# Indices 1 2 3 4 5 6 
#
# 1 0.012368 -0.002752 -0.002229 0.001810 -0.003426 0.002477
# 2 -0.002752 0.009184 -0.002251 -0.002872 0.004040 -0.009200
# 3 -0.002229 -0.002251 0.011302 -0.001372 0.007006 -0.002299
# 4 0.001810 -0.002872 -0.001372 0.024062 -0.005518 0.002907
# 5 -0.003426 0.004040 0.007006 -0.005518 0.039179 -0.020089
# 6 0.002477 -0.009200 -0.002299 0.002907 -0.020089 0.044648
#
#
# Mechanical properties :
#
#
# Convention : Reuss Voigt Hill
#
# Bulk Modulus (GPa) = 54.38583 69.11637 61.75110
# Shear Modulus (GPa) = 30.99117 41.62361 36.30739
#
# Velocity S-wave (km/s) = 3.51575 4.07445 3.80537
# Velocity P-wave (km/s) = 6.17834 7.04991 6.62847
#
# Compressibility (1/GPa) = 0.01838714
#
# Stress axis : x y z
#
# Youngs Moduli (GPa) = 80.85685 108.88878 88.48347
#
# Poissons Ratio (x) = 0.29972 0.19724
# Poissons Ratio (y) = 0.22256 0.19919
# Poissons Ratio (z) = 0.18024 0.24513
#
# Static dielectric constant tensor:
#      x y z
#    x 2.100410 0.089470 -0.008110 
#    y 0.089470 2.147420 -0.061290 
#    z -0.008110 -0.061290 2.035250 
# 
# From -- ./inp_files/81429.got.cif
#   From: 2010.05.17/outbox.cif.g08.bks.cpg/sg2_41_cif.got.tgz:81429.got - 2010.06.03 11:33:40.
