data_PCOD9059174
_publ_section_title
;
Structure prediction by ZEFSAII (Michael W. Deem and Ramdas Pophale) SiO2 
 PCOD9059174
Probable space group: P -1
;
_chemical_formula_sum "Si O2"
_cell_formula_units_Z 15
_cell_length_a 15.773467
_cell_length_b 9.442059
_cell_length_c 7.868107
_cell_angle_alpha 103.862020
_cell_angle_beta 74.902333
_cell_angle_gamma 140.189474
_cell_volume 722.886906
_symmetry_space_group_name_H-M "P -1"
_symmetry_group_IT_number 2
_symmetry_cell_setting 'triclinic'
loop_
_space_group_symop_operation_xyz
x,y,z
-x,-y,-z
loop_
_atom_site_type_symbol
_atom_site_label
_atom_site_fract_x
_atom_site_fract_y
_atom_site_fract_z
Si Si1 0.000000 0.000000 0.500000
Si Si2 0.035253 0.730388 0.232504
Si Si3 0.229439 0.883641 0.478497
Si Si4 0.527576 0.890632 0.066336
Si Si5 0.181546 0.793539 0.852311
Si Si6 0.633088 0.240663 0.574215
Si Si7 0.539628 0.665869 0.714135
Si Si8 0.694613 0.613372 0.487900
O O1 0.995998 0.845486 0.334512
O O2 0.846880 0.849722 0.479697
O O3 0.119998 0.774771 0.360875
O O4 0.912677 0.466149 0.190485
O O5 0.124490 0.823557 0.041861
O O6 0.188797 0.879331 0.688572
O O7 0.260220 0.750536 0.441801
O O8 0.366414 0.128738 0.410915
O O9 0.411984 0.742503 0.222447
O O10 0.670822 0.075086 0.136311
O O11 0.531754 0.754001 0.908251
O O12 0.500000 0.000000 0.000000
O O13 0.684713 0.430530 0.479866
O O14 0.500000 0.000000 0.500000
O O15 0.614669 0.606116 0.671004
O O16 0.393000 0.464558 0.654949
#
# Coordination Sequence:
#
# PCOD9059174 Si02
#       8
#     1   2   2   2   2   2   2   2
#     4  12  24  44  72  90 146 182 224 272 358 410
#     4  11  25  43  64 101 136 188 225 284 346 410
#     4  12  21  43  66 100 134 176 230 289 334 406
#     4  12  21  38  67 101 134 170 230 289 336 406
#     4  11  23  40  69  96 138 178 234 281 341 405
#     4  12  22  38  68 101 126 168 237 280 332 401
#     4  11  23  42  67  95 138 175 220 275 359 393
#     4  11  24  43  66  96 134 185 215 281 347 409
#
# _framework density 20.750133000000002
#
# number of rings (size 3 to 8) (size 9 to 14) (size 15 to 20)
#    0.000    0.533    6.667    1.200    1.867    0.533 
#    0.000    3.333    0.000    0.000    0.000    0.000 
#    0.000    0.000    0.000    0.000    0.000    0.000 
#
# Total GULP energy -83584.898340 kJ/mol
# GULP energy per Si atom -5572.326556 kJ/mol
# Density = 2.070290 g / cm^3
# Si number density = 20.750133 Si / 1000 Ang^3
#
#
#
# Elastic Constant Matrix: (Units=GPa)
#
#
# Indices 1 2 3 4 5 6 
#
# 1 108.8653 21.0838 46.5309 16.3384 -12.8506 11.7662
# 2 21.0838 48.2007 16.3952 18.7883 -0.2627 13.3598
# 3 46.5309 16.3952 142.2171 11.6799 -9.5249 1.7527
# 4 16.3384 18.7883 11.6799 35.4561 -3.6525 0.8701
# 5 -12.8506 -0.2627 -9.5249 -3.6525 32.1085 11.6032
# 6 11.7662 13.3598 1.7527 0.8701 11.6032 42.9832
#
#
#
# Elastic Compliance Matrix: (Units=1/GPa)
#
#
# Indices 1 2 3 4 5 6 
#
# 1 0.012423 -0.002078 -0.003193 -0.002950 0.005096 -0.003941
# 2 -0.002078 0.030084 -0.001484 -0.014239 0.000445 -0.008553
# 3 -0.003193 -0.001484 0.008329 -0.000417 0.000854 0.000773
# 4 -0.002950 -0.014239 -0.000417 0.037281 0.001325 0.004138
# 5 0.005096 0.000445 0.000854 0.001325 0.037862 -0.011816
# 6 -0.003941 -0.008553 0.000773 0.004138 -0.011816 0.030076
#
#
# Mechanical properties :
#
#
# Convention : Reuss Voigt Hill
#
# Bulk Modulus (GPa) = 26.79046 51.92255 39.35651
# Shear Modulus (GPa) = 27.47159 36.46108 31.96634
#
# Velocity S-wave (km/s) = 3.64252 4.19638 3.92922
# Velocity P-wave (km/s) = 5.53441 6.96826 6.29231
#
# Compressibility (1/GPa) = 0.03732671
#
# Stress axis : x y z
#
# Youngs Moduli (GPa) = 80.49583 33.24059 120.06089
#
# Poissons Ratio (x) = 0.06908 0.38334
# Poissons Ratio (y) = 0.16728 0.17811
# Poissons Ratio (z) = 0.25701 0.04931
#
# Static dielectric constant tensor:
#      x y z
#    x 1.728300 -0.011940 -0.014560 
#    y -0.011940 1.760140 0.001170 
#    z -0.014560 0.001170 1.765960 
# 
# From -- ./inp_files/299153.got.cif
#   From: 2010.05.17/outbox.cif.g08.bks.cpg/sg2_150_cif.got.tgz:299153.got - 2010.06.03 11:33:40.
