data_PCOD9059355
_publ_section_title
;
Structure prediction by ZEFSAII (Michael W. Deem and Ramdas Pophale) SiO2 
 PCOD9059355
Probable space group: P -1
;
_chemical_formula_sum "Si O2"
_cell_formula_units_Z 12
_cell_length_a 16.228850
_cell_length_b 7.780684
_cell_length_c 8.026164
_cell_angle_alpha 35.930790
_cell_angle_beta 116.192467
_cell_angle_gamma 116.100551
_cell_volume 527.050018
_symmetry_space_group_name_H-M "P -1"
_symmetry_group_IT_number 2
_symmetry_cell_setting 'triclinic'
loop_
_space_group_symop_operation_xyz
x,y,z
-x,-y,-z
loop_
_atom_site_type_symbol
_atom_site_label
_atom_site_fract_x
_atom_site_fract_y
_atom_site_fract_z
Si Si1 0.257427 0.804053 0.073334
Si Si2 0.423021 0.892084 0.656161
Si Si3 0.257427 0.453366 0.684100
Si Si4 0.065359 0.815691 0.800993
Si Si5 0.934641 0.750332 0.235633
Si Si6 0.423021 0.530932 0.266863
O O1 0.227485 0.613736 0.363747
O O2 0.342837 0.681106 0.162762
O O3 0.170480 0.769037 0.894294
O O4 0.285341 0.142665 0.892677
O O5 0.342837 0.661725 0.680077
O O6 0.500000 0.000000 0.500000
O O7 0.387213 0.193604 0.443609
O O8 0.456854 0.728424 0.978429
O O9 0.170481 0.401441 0.776188
O O10 0.086747 0.043373 0.793374
O O11 0.000000 0.000000 0.500000
O O12 0.000000 0.500000 0.000000
O O13 0.000000 0.500000 0.500000
O O14 0.000000 0.000000 0.000000
O O15 0.500000 0.500000 0.500000
#
# Coordination Sequence:
#
# PCOD9059355 Si02
#       6
#     2   2   2   2   2   2
#     4  11  24  46  70  99 139 185 232 289 351 414
#     4  12  27  47  73 106 141 186 236 293 355 424
#     4  11  24  46  70  99 139 185 232 289 351 414
#     4  11  23  41  66  97 134 177 224 280 342 406
#     4  11  23  41  66  97 134 177 224 280 342 406
#     4  12  27  47  73 106 141 186 236 293 355 424
#
# _framework density 22.768236000000002
#
# number of rings (size 3 to 8) (size 9 to 14) (size 15 to 20)
#    0.000    0.667    0.000    9.000    0.000    6.667 
#    0.000    0.000    0.000    0.000    0.000    0.000 
#    0.000    0.000    0.000    0.000    0.000    0.000 
#
# Total GULP energy -66993.339473 kJ/mol
# GULP energy per Si atom -5582.778289 kJ/mol
# Density = 2.271641 g / cm^3
# Si number density = 22.768236 Si / 1000 Ang^3
#
#
#
# Elastic Constant Matrix: (Units=GPa)
#
#
# Indices 1 2 3 4 5 6 
#
# 1 163.4957 87.9310 69.4875 -2.0419 25.3718 34.6877
# 2 87.9310 134.6748 57.8659 -35.0583 14.7974 23.9237
# 3 69.4875 57.8659 194.9762 -25.3940 8.4815 11.1770
# 4 -2.0419 -35.0583 -25.3940 58.3433 -9.1014 5.7504
# 5 25.3718 14.7974 8.4815 -9.1014 49.8256 -7.4340
# 6 34.6877 23.9237 11.1770 5.7504 -7.4340 39.0270
#
#
#
# Elastic Compliance Matrix: (Units=1/GPa)
#
#
# Indices 1 2 3 4 5 6 
#
# 1 0.013541 -0.006999 -0.002719 -0.005184 -0.006408 -0.007423
# 2 -0.006999 0.015433 -0.000641 0.009200 0.000116 -0.004389
# 3 -0.002719 -0.000641 0.006517 0.002440 0.001028 0.000780
# 4 -0.005184 0.009200 0.002440 0.024524 0.003267 -0.004722
# 5 -0.006408 0.000116 0.001028 0.003267 0.025159 0.009641
# 6 -0.007423 -0.004389 0.000780 -0.004722 0.009641 0.037220
#
#
# Mechanical properties :
#
#
# Convention : Reuss Voigt Hill
#
# Bulk Modulus (GPa) = 67.70121 102.63505 85.16813
# Shear Modulus (GPa) = 33.77555 47.96335 40.86945
#
# Velocity S-wave (km/s) = 3.85574 4.59474 4.24136
# Velocity P-wave (km/s) = 7.04427 8.56299 7.84049
#
# Compressibility (1/GPa) = 0.01477078
#
# Stress axis : x y z
#
# Youngs Moduli (GPa) = 73.84911 64.79794 153.45635
#
# Poissons Ratio (x) = 0.45355 0.41732
# Poissons Ratio (y) = 0.51690 0.09834
# Poissons Ratio (z) = 0.20083 0.04152
#
# Static dielectric constant tensor:
#      x y z
#    x 1.437370 -0.259460 -0.115870 
#    y -0.259460 1.670890 0.007820 
#    z -0.115870 0.007820 1.825280 
# 
# From -- ./inp_files/206116.got.cif
#   From: 2010.05.17/outbox.cif.g08.bks.cpg/sg2_104_cif.got.tgz:206116.got - 2010.06.03 11:33:40.
