data_PCOD9059283
_publ_section_title
;
Structure prediction by ZEFSAII (Michael W. Deem and Ramdas Pophale) SiO2 
 PCOD9059283
Probable space group: P -1
;
_chemical_formula_sum "Si O2"
_cell_formula_units_Z 16
_cell_length_a 17.196009
_cell_length_b 6.920390
_cell_length_c 8.219372
_cell_angle_alpha 59.673373
_cell_angle_beta 90.960176
_cell_angle_gamma 66.526717
_cell_volume 744.514539
_symmetry_space_group_name_H-M "P -1"
_symmetry_group_IT_number 2
_symmetry_cell_setting 'triclinic'
loop_
_space_group_symop_operation_xyz
x,y,z
-x,-y,-z
loop_
_atom_site_type_symbol
_atom_site_label
_atom_site_fract_x
_atom_site_fract_y
_atom_site_fract_z
Si Si1 0.767667 0.902861 0.007944
Si Si2 0.671604 0.580457 0.069324
Si Si3 0.516557 0.706053 0.813812
Si Si4 0.557009 0.756703 0.298795
Si Si5 0.042123 0.809705 0.928842
Si Si6 0.596449 0.358754 0.696985
Si Si7 0.180370 0.970088 0.710219
Si Si8 0.110663 0.220794 0.249074
O O1 0.738080 0.690569 0.060364
O O2 0.809962 0.875846 0.199426
O O3 0.825395 0.895041 0.856725
O O4 0.679152 0.171885 0.883342
O O5 0.591991 0.719518 0.134054
O O6 0.725747 0.278169 0.210476
O O7 0.616219 0.658219 0.868706
O O8 0.522282 0.613607 0.671527
O O9 0.447643 0.992468 0.729400
O O10 0.500000 0.500000 0.000000
O O11 0.622033 0.487658 0.497736
O O12 0.459126 0.785692 0.283816
O O13 0.113592 0.871466 0.818557
O O14 0.971408 0.825727 0.784094
O O15 0.082495 0.520507 0.117996
O O16 0.000000 0.000000 0.000000
O O17 0.148118 0.110770 0.475889
#
# Coordination Sequence:
#
# PCOD9059283 Si02
#       8
#     2   2   2   2   2   2   2   2
#     4  12  24  46  67 101 142 179 229 292 341 408
#     4  12  24  42  64  95 137 176 231 285 341 406
#     4  12  22  40  63  88 128 178 230 285 344 401
#     4  11  24  40  62  94 127 184 236 285 344 407
#     4  11  24  49  77 105 142 177 222 281 336 413
#     4  11  23  41  64  91 133 176 235 290 342 404
#     4  12  26  46  72 104 139 187 223 278 353 406
#     4  11  26  47  74 106 140 177 231 274 336 425
#
# _framework density 21.490514000000001
#
# number of rings (size 3 to 8) (size 9 to 14) (size 15 to 20)
#    0.000    0.500    6.250    2.625    0.000    1.500 
#    4.500    0.000    0.000    0.000    0.000    0.000 
#    0.000    0.000    0.000    0.000    0.000    0.000 
#
# Total GULP energy -89298.738259 kJ/mol
# GULP energy per Si atom -5581.171141 kJ/mol
# Density = 2.144160 g / cm^3
# Si number density = 21.490514 Si / 1000 Ang^3
#
#
#
# Elastic Constant Matrix: (Units=GPa)
#
#
# Indices 1 2 3 4 5 6 
#
# 1 64.2639 27.0511 25.6790 3.6836 6.2256 15.0918
# 2 27.0511 122.7051 34.5394 3.3679 -4.7204 -0.8516
# 3 25.6790 34.5394 124.3516 11.3366 12.3368 5.6664
# 4 3.6836 3.3679 11.3366 28.6346 1.1780 -0.3023
# 5 6.2256 -4.7204 12.3368 1.1780 23.9625 0.9149
# 6 15.0918 -0.8516 5.6664 -0.3023 0.9149 38.1525
#
#
#
# Elastic Compliance Matrix: (Units=1/GPa)
#
#
# Indices 1 2 3 4 5 6 
#
# 1 0.020504 -0.004111 -0.002167 -0.001186 -0.004666 -0.007778
# 2 -0.004111 0.009911 -0.002431 0.000176 0.004183 0.002110
# 3 -0.002167 -0.002431 0.009964 -0.003186 -0.004867 -0.000586
# 4 -0.001186 0.000176 -0.003186 0.036323 0.000151 0.001231
# 5 -0.004666 0.004183 -0.004867 0.000151 0.046207 0.001555
# 6 -0.007778 0.002110 -0.000586 0.001231 0.001555 0.029394
#
#
# Mechanical properties :
#
#
# Convention : Reuss Voigt Hill
#
# Bulk Modulus (GPa) = 43.55131 53.98438 48.76785
# Shear Modulus (GPa) = 28.18888 33.08665 30.63777
#
# Velocity S-wave (km/s) = 3.62565 3.92802 3.77986
# Velocity P-wave (km/s) = 6.15114 6.76366 6.46466
#
# Compressibility (1/GPa) = 0.02296142
#
# Stress axis : x y z
#
# Youngs Moduli (GPa) = 48.77127 100.89818 100.35749
#
# Poissons Ratio (x) = 0.41482 0.21744
# Poissons Ratio (y) = 0.20051 0.24397
# Poissons Ratio (z) = 0.10567 0.24528
#
# Static dielectric constant tensor:
#      x y z
#    x 1.835770 0.002460 -0.053490 
#    y 0.002460 1.779180 -0.014570 
#    z -0.053490 -0.014570 1.997410 
# 
# From -- ./inp_files/321640.got.cif
#   From: 2010.05.17/outbox.cif.g08.bks.cpg/sg2_161_cif.got.tgz:321640.got - 2010.06.03 11:33:40.
