data_PCOD9059628
_publ_section_title
;
Structure prediction by ZEFSAII (Michael W. Deem and Ramdas Pophale) SiO2 
 PCOD9059628
Probable space group: P -1
;
_chemical_formula_sum "Si O2"
_cell_formula_units_Z 16
_cell_length_a 19.407723
_cell_length_b 11.629080
_cell_length_c 8.152893
_cell_angle_alpha 39.179305
_cell_angle_beta 131.466368
_cell_angle_gamma 145.011628
_cell_volume 664.695425
_symmetry_space_group_name_H-M "P -1"
_symmetry_group_IT_number 2
_symmetry_cell_setting 'triclinic'
loop_
_space_group_symop_operation_xyz
x,y,z
-x,-y,-z
loop_
_atom_site_type_symbol
_atom_site_label
_atom_site_fract_x
_atom_site_fract_y
_atom_site_fract_z
Si Si1 0.112518 0.593250 0.965328
Si Si2 0.966431 0.895039 0.745649
Si Si3 0.427281 0.346530 0.895977
Si Si4 0.526142 0.283298 0.672754
Si Si5 0.745710 0.555589 0.973069
Si Si6 0.219242 0.161275 0.986320
Si Si7 0.858754 0.300522 0.452006
Si Si8 0.378186 0.929654 0.104990
O O1 0.141088 0.757692 0.674762
O O2 0.234786 0.720051 0.118482
O O3 0.069798 0.358736 0.064751
O O4 0.000000 0.500000 0.000000
O O5 0.850875 0.803865 0.770238
O O6 0.000000 0.000000 0.500000
O O7 0.086233 0.068690 0.848446
O O8 0.475671 0.521092 0.624630
O O9 0.423046 0.127489 0.093213
O O10 0.500000 0.500000 0.000000
O O11 0.291470 0.238526 0.844567
O O12 0.410491 0.070301 0.826925
O O13 0.635654 0.403425 0.841448
O O14 0.554672 0.176434 0.689792
O O15 0.791148 0.408398 0.248440
O O16 0.717617 0.627890 0.014923
O O17 0.203652 0.937572 0.278344
O O18 0.000000 0.500000 0.500000
#
# Coordination Sequence:
#
# PCOD9059628 Si02
#       8
#     2   2   2   2   2   2   2   2
#     4  11  24  42  68 105 136 183 232 288 349 415
#     4  11  23  42  64 101 140 182 238 283 344 419
#     4  12  29  47  68 107 140 181 241 291 359 427
#     4  11  25  48  75 104 134 189 241 288 361 421
#     4  11  24  44  69 102 139 183 240 286 350 428
#     4  12  26  42  69 101 143 190 225 296 360 406
#     4  11  24  43  64 102 140 181 233 280 351 417
#     4  11  25  47  77 100 139 186 238 295 351 419
#
# _framework density 24.071176000000001
#
# number of rings (size 3 to 8) (size 9 to 14) (size 15 to 20)
#    0.000    0.750    5.000    3.000    5.250    1.500 
#    0.000    0.000    0.000    0.000    0.000    0.000 
#    0.000    0.000    0.000    0.000    0.000    0.000 
#
# Total GULP energy -89536.741749 kJ/mol
# GULP energy per Si atom -5596.046359 kJ/mol
# Density = 2.401639 g / cm^3
# Si number density = 24.071176 Si / 1000 Ang^3
#
#
#
# Elastic Constant Matrix: (Units=GPa)
#
#
# Indices 1 2 3 4 5 6 
#
# 1 102.7898 24.3525 4.6511 -11.9604 7.1160 -4.9210
# 2 24.3525 104.8173 -7.6708 14.2023 18.2025 -5.6150
# 3 4.6511 -7.6708 75.2290 5.5390 -2.8027 -0.6255
# 4 -11.9604 14.2023 5.5390 23.9909 1.9182 -1.8087
# 5 7.1160 18.2025 -2.8027 1.9182 35.0736 -12.9159
# 6 -4.9210 -5.6150 -0.6255 -1.8087 -12.9159 51.4034
#
#
#
# Elastic Compliance Matrix: (Units=1/GPa)
#
#
# Indices 1 2 3 4 5 6 
#
# 1 0.011839 -0.003901 -0.001793 0.008743 -0.000697 0.000818
# 2 -0.003901 0.012803 0.002048 -0.009614 -0.005401 -0.000645
# 3 -0.001793 0.002048 0.014042 -0.005395 0.000805 0.000235
# 4 0.008743 -0.009614 -0.005395 0.053066 0.000515 0.001718
# 5 -0.000697 -0.005401 0.000805 0.000515 0.034448 0.008027
# 6 0.000818 -0.000645 0.000235 0.001718 0.008027 0.021542
#
#
# Mechanical properties :
#
#
# Convention : Reuss Voigt Hill
#
# Bulk Modulus (GPa) = 31.85666 36.16682 34.01174
# Shear Modulus (GPa) = 30.21239 39.52714 34.86976
#
# Velocity S-wave (km/s) = 3.54662 4.05667 3.81019
# Velocity P-wave (km/s) = 5.48037 6.08274 5.78939
#
# Compressibility (1/GPa) = 0.03139061
#
# Stress axis : x y z
#
# Youngs Moduli (GPa) = 84.46825 78.10853 71.21729
#
# Poissons Ratio (x) = 0.30474 0.12767
# Poissons Ratio (y) = 0.32955 -0.14585
# Poissons Ratio (z) = 0.15142 -0.15996
#
# Static dielectric constant tensor:
#      x y z
#    x 1.907330 0.021860 -0.175300 
#    y 0.021860 1.875490 -0.019830 
#    z -0.175300 -0.019830 1.931190 
# 
# From -- ./inp_files/345899.got.cif
#   From: 2010.05.17/outbox.cif.g08.bks.cpg/sg2_173_cif.got.tgz:345899.got - 2010.06.03 11:33:40.
