data_PCOD9059761
_publ_section_title
;
Structure prediction by ZEFSAII (Michael W. Deem and Ramdas Pophale) SiO2 
 PCOD9059761
Probable space group: P -1
;
_chemical_formula_sum "Si O2"
_cell_formula_units_Z 16
_cell_length_a 11.797754
_cell_length_b 12.004613
_cell_length_c 12.575419
_cell_angle_alpha 118.061705
_cell_angle_beta 66.101350
_cell_angle_gamma 152.030128
_cell_volume 736.884548
_symmetry_space_group_name_H-M "P -1"
_symmetry_group_IT_number 2
_symmetry_cell_setting 'triclinic'
loop_
_space_group_symop_operation_xyz
x,y,z
-x,-y,-z
loop_
_atom_site_type_symbol
_atom_site_label
_atom_site_fract_x
_atom_site_fract_y
_atom_site_fract_z
Si Si1 0.935441 0.069850 0.239622
Si Si2 0.392558 0.510941 0.123427
Si Si3 0.175095 0.762073 0.584518
Si Si4 0.302439 0.730983 0.911651
Si Si5 0.632968 0.043441 0.633430
Si Si6 0.852721 0.800384 0.557993
Si Si7 0.140583 0.535105 0.123283
Si Si8 0.454106 0.656553 0.652010
O O1 0.951446 0.234971 0.308216
O O2 0.174201 0.250798 0.156934
O O3 0.992625 0.074264 0.338365
O O4 0.650961 0.787477 0.199111
O O5 0.259568 0.512997 0.116420
O O6 0.500000 0.500000 0.000000
O O7 0.277300 0.898793 0.494606
O O8 0.000000 0.500000 0.500000
O O9 0.372772 0.876278 0.636774
O O10 0.373290 0.669805 0.788784
O O11 0.143378 0.681982 0.873013
O O12 0.195391 0.587226 0.999290
O O13 0.500000 0.000000 0.000000
O O14 0.765585 0.262249 0.754123
O O15 0.614062 0.893838 0.630490
O O16 0.617345 0.677596 0.624035
O O17 0.762148 0.587659 0.448382
O O18 0.000000 0.000000 0.500000
#
# Coordination Sequence:
#
# PCOD9059761 Si02
#       8
#     2   2   2   2   2   2   2   2
#     4  12  28  49  76 113 149 198 261 303 380 461
#     4  12  30  52  79 109 155 204 252 316 377 458
#     4  11  24  39  70 107 146 190 234 307 374 457
#     4  11  26  44  73 106 142 193 253 312 374 453
#     4  11  23  42  68 105 146 185 242 304 381 439
#     4  11  28  47  74 106 153 200 252 313 384 457
#     4  11  26  46  71 106 147 192 249 310 377 446
#     4  11  26  44  73 105 146 194 246 316 377 453
#
# _framework density 21.713035999999999
#
# number of rings (size 3 to 8) (size 9 to 14) (size 15 to 20)
#    0.000    0.750    2.500    2.625   17.500    1.000 
#    0.000    0.000    0.000    0.000    0.000    0.000 
#    0.000    0.000    0.000    0.000    0.000    0.000 
#
# Total GULP energy -89250.509652 kJ/mol
# GULP energy per Si atom -5578.156853 kJ/mol
# Density = 2.166362 g / cm^3
# Si number density = 21.713036 Si / 1000 Ang^3
#
#
#
# Elastic Constant Matrix: (Units=GPa)
#
#
# Indices 1 2 3 4 5 6 
#
# 1 111.1864 30.4950 67.0595 11.6427 13.9986 16.4039
# 2 30.4950 69.4715 37.2900 4.7178 16.0643 13.3771
# 3 67.0595 37.2900 124.4265 16.2507 -3.0498 22.3052
# 4 11.6427 4.7178 16.2507 46.4103 10.1250 -1.7342
# 5 13.9986 16.0643 -3.0498 10.1250 46.7257 6.1951
# 6 16.4039 13.3771 22.3052 -1.7342 6.1951 31.9024
#
#
#
# Elastic Compliance Matrix: (Units=1/GPa)
#
#
# Indices 1 2 3 4 5 6 
#
# 1 0.014438 -0.001229 -0.007342 -0.000035 -0.004249 -0.000952
# 2 -0.001229 0.019626 -0.005097 0.001454 -0.006675 -0.002659
# 3 -0.007342 -0.005097 0.015483 -0.004803 0.006866 -0.006508
# 4 -0.000035 0.001454 -0.004803 0.024799 -0.006900 0.005454
# 5 -0.004249 -0.006675 0.006866 -0.006900 0.027650 -0.005561
# 6 -0.000952 -0.002659 -0.006508 0.005454 -0.005561 0.038877
#
#
# Mechanical properties :
#
#
# Convention : Reuss Voigt Hill
#
# Bulk Modulus (GPa) = 45.01835 63.86370 54.44102
# Shear Modulus (GPa) = 28.47200 36.35701 32.41451
#
# Velocity S-wave (km/s) = 3.62510 4.09642 3.86795
# Velocity P-wave (km/s) = 6.18871 7.20074 6.71382
#
# Compressibility (1/GPa) = 0.02221317
#
# Stress axis : x y z
#
# Youngs Moduli (GPa) = 69.26110 50.95278 64.58529
#
# Poissons Ratio (x) = 0.06260 0.47419
# Poissons Ratio (y) = 0.08509 0.32916
# Poissons Ratio (z) = 0.50852 0.25968
#
# Static dielectric constant tensor:
#      x y z
#    x 1.756540 0.105700 0.017620 
#    y 0.105700 1.876440 -0.028900 
#    z 0.017620 -0.028900 1.696840 
# 
# From -- ./inp_files/364946.got.cif
#   From: 2010.05.17/outbox.cif.g08.bks.cpg/sg2_183_cif.got.tgz:364946.got - 2010.06.03 11:33:40.
