data_PCOD9059596
_publ_section_title
;
Structure prediction by ZEFSAII (Michael W. Deem and Ramdas Pophale) SiO2 
 PCOD9059596
Probable space group: P -1
;
_chemical_formula_sum "Si O2"
_cell_formula_units_Z 12
_cell_length_a 7.890158
_cell_length_b 10.892456
_cell_length_c 9.350919
_cell_angle_alpha 93.794988
_cell_angle_beta 128.723868
_cell_angle_gamma 57.815833
_cell_volume 485.315304
_symmetry_space_group_name_H-M "P -1"
_symmetry_group_IT_number 2
_symmetry_cell_setting 'triclinic'
loop_
_space_group_symop_operation_xyz
x,y,z
-x,-y,-z
loop_
_atom_site_type_symbol
_atom_site_label
_atom_site_fract_x
_atom_site_fract_y
_atom_site_fract_z
Si Si1 0.238059 0.973972 0.719987
Si Si2 0.435281 0.346229 0.600467
Si Si3 0.847797 0.681614 0.959367
Si Si4 0.807575 0.127010 0.032272
Si Si5 0.878970 0.302285 0.618940
Si Si6 0.200131 0.177704 0.348488
O O1 0.516020 0.805361 0.806494
O O2 0.263412 0.958380 0.904629
O O3 0.000000 0.000000 0.500000
O O4 0.137327 0.150843 0.657127
O O5 0.661437 0.284387 0.582693
O O6 0.282915 0.532854 0.537437
O O7 0.249104 0.292545 0.458331
O O8 0.567847 0.274059 0.820950
O O9 0.891075 0.755009 0.855383
O O10 0.000000 0.500000 0.000000
O O11 0.983180 0.681633 0.173201
O O12 0.957736 0.161443 0.233607
O O13 0.000000 0.000000 0.000000
O O14 0.500000 0.000000 0.500000
#
# Coordination Sequence:
#
# PCOD9059596 Si02
#       6
#     2   2   2   2   2   2
#     4  12  27  47  73 112 147 197 251 301 371 447
#     4  11  23  41  74 105 144 196 240 297 374 432
#     4  12  25  46  75 108 145 197 251 302 370 442
#     4  12  23  45  72 108 148 195 245 307 372 437
#     4  11  23  45  72 105 150 191 249 302 364 446
#     4  12  22  40  73 105 140 192 246 295 366 440
#
# _framework density 24.726192999999999
#
# number of rings (size 3 to 8) (size 9 to 14) (size 15 to 20)
#    0.000    0.333    6.667    2.500    2.333    0.000 
#    3.000    5.833    0.000    0.000    0.000    0.000 
#    0.000    0.000    0.000    0.000    0.000    0.000 
#
# Total GULP energy -66958.270382 kJ/mol
# GULP energy per Si atom -5579.855865 kJ/mol
# Density = 2.466991 g / cm^3
# Si number density = 24.726193 Si / 1000 Ang^3
#
#
#
# Elastic Constant Matrix: (Units=GPa)
#
#
# Indices 1 2 3 4 5 6 
#
# 1 41.1514 20.9786 21.0411 -10.1711 -3.0538 4.8030
# 2 20.9786 156.4195 45.4233 -22.1238 5.0682 8.0852
# 3 21.0411 45.4233 154.8174 -12.7330 -7.2912 19.3632
# 4 -10.1711 -22.1238 -12.7330 60.4343 18.6810 0.6507
# 5 -3.0538 5.0682 -7.2912 18.6810 42.3803 -7.0130
# 6 4.8030 8.0852 19.3632 0.6507 -7.0130 30.8255
#
#
#
# Elastic Compliance Matrix: (Units=1/GPa)
#
#
# Indices 1 2 3 4 5 6 
#
# 1 0.027905 -0.002433 -0.002535 0.003276 0.000062 -0.002173
# 2 -0.002433 0.007799 -0.001680 0.003018 -0.002950 -0.001346
# 3 -0.002535 -0.001680 0.007862 0.000508 0.000484 -0.004004
# 4 0.003276 0.003018 0.000508 0.021528 -0.010257 -0.004409
# 5 0.000062 -0.002950 0.000484 -0.010257 0.029791 0.007454
# 6 -0.002173 -0.001346 -0.004004 -0.004409 0.007454 0.037436
#
#
# Mechanical properties :
#
#
# Convention : Reuss Voigt Hill
#
# Bulk Modulus (GPa) = 33.03495 58.58603 45.81049
# Shear Modulus (GPa) = 32.11177 44.39103 38.25140
#
# Velocity S-wave (km/s) = 3.60765 4.24170 3.93746
# Velocity P-wave (km/s) = 5.54462 6.90903 6.26409
#
# Compressibility (1/GPa) = 0.03027097
#
# Stress axis : x y z
#
# Youngs Moduli (GPa) = 35.83637 128.21711 127.19493
#
# Poissons Ratio (x) = 0.31193 0.32239
# Poissons Ratio (y) = 0.08718 0.21369
# Poissons Ratio (z) = 0.09083 0.21540
#
# Static dielectric constant tensor:
#      x y z
#    x 2.167670 0.063780 0.077800 
#    y 0.063780 1.939550 0.005600 
#    z 0.077800 0.005600 1.890520 
# 
# From -- ./inp_files/151790.got.cif
#   From: 2010.05.17/outbox.cif.g08.bks.cpg/sg2_76_cif.got.tgz:151790.got - 2010.06.03 11:33:40.
