data_PCOD9059032
_publ_section_title
;
Structure prediction by ZEFSAII (Michael W. Deem and Ramdas Pophale) SiO2 
 PCOD9059032
Probable space group: P -1
;
_chemical_formula_sum "Si O2"
_cell_formula_units_Z 16
_cell_length_a 8.430111
_cell_length_b 14.889021
_cell_length_c 18.637204
_cell_angle_alpha 20.782637
_cell_angle_beta 123.240978
_cell_angle_gamma 113.375788
_cell_volume 639.245079
_symmetry_space_group_name_H-M "P -1"
_symmetry_group_IT_number 2
_symmetry_cell_setting 'triclinic'
loop_
_space_group_symop_operation_xyz
x,y,z
-x,-y,-z
loop_
_atom_site_type_symbol
_atom_site_label
_atom_site_fract_x
_atom_site_fract_y
_atom_site_fract_z
Si Si1 0.196192 0.181006 0.858796
Si Si2 0.967148 0.332903 0.183736
Si Si3 0.617188 0.129203 0.008809
Si Si4 0.608555 0.152960 0.365144
Si Si5 0.642276 0.729329 0.439269
Si Si6 0.210159 0.823988 0.270455
Si Si7 0.455943 0.737735 0.889936
Si Si8 0.952345 0.331641 0.920240
O O1 0.197503 0.012881 0.056540
O O2 0.302289 0.977152 0.971386
O O3 0.370208 0.305786 0.820630
O O4 0.954510 0.315977 0.677563
O O5 0.967241 0.496402 0.134562
O O6 0.162367 0.048229 0.444972
O O7 0.000000 0.500000 0.000000
O O8 0.766934 0.275204 0.160617
O O9 0.663421 0.859376 0.271445
O O10 0.764979 0.284780 0.950122
O O11 0.598144 0.441998 0.177455
O O12 0.500000 0.000000 0.500000
O O13 0.489835 0.225380 0.205840
O O14 0.846056 0.510479 0.689510
O O15 0.451765 0.632492 0.471797
O O16 0.561261 0.002502 0.263699
O O17 0.121016 0.039648 0.153101
#
# Coordination Sequence:
#
# PCOD9059032 Si02
#       8
#     2   2   2   2   2   2   2   2
#     4   8  16  40  63  90 128 158 202 250 317 381
#     4  12  24  42  64  91 130 174 218 264 318 375
#     4   9  19  39  65  90 126 165 197 260 313 376
#     4  11  24  42  63  90 121 170 220 261 314 373
#     4  11  23  40  63  93 127 161 213 256 316 363
#     4   9  20  38  66  91 123 166 199 261 312 373
#     4  11  25  41  64  90 128 176 214 262 314 375
#     4  11  24  40  61  92 128 160 213 262 312 366
#
# _framework density 25.029525
#
# number of rings (size 3 to 8) (size 9 to 14) (size 15 to 20)
#    0.000    1.750    2.500    1.125    3.500    0.000 
#    0.000   28.750    0.000    0.000    0.000    0.000 
#    0.000    0.000    0.000    0.000    0.000    0.000 
#
# Total GULP energy -89508.112018 kJ/mol
# GULP energy per Si atom -5594.257001 kJ/mol
# Density = 2.497256 g / cm^3
# Si number density = 25.029525 Si / 1000 Ang^3
#
#
#
# Elastic Constant Matrix: (Units=GPa)
#
#
# Indices 1 2 3 4 5 6 
#
# 1 135.5090 39.2436 25.0027 3.2887 -9.5723 27.2837
# 2 39.2436 65.9659 17.4553 8.9507 7.5696 13.7656
# 3 25.0027 17.4553 95.7551 -6.2448 2.2237 0.6655
# 4 3.2887 8.9507 -6.2448 27.2461 4.5882 6.1224
# 5 -9.5723 7.5696 2.2237 4.5882 53.5456 4.8611
# 6 27.2837 13.7656 0.6655 6.1224 4.8611 46.4015
#
#
#
# Elastic Compliance Matrix: (Units=1/GPa)
#
#
# Indices 1 2 3 4 5 6 
#
# 1 0.010387 -0.005106 -0.001777 0.000619 0.003051 -0.004968
# 2 -0.005106 0.020443 -0.002686 -0.005769 -0.003020 -0.001946
# 3 -0.001777 -0.002686 0.011644 0.003620 -0.000848 0.001286
# 4 0.000619 -0.005769 0.003620 0.040607 -0.002357 -0.003815
# 5 0.003051 -0.003020 -0.000848 -0.002357 0.020129 -0.002683
# 6 -0.004968 -0.001946 0.001286 -0.003815 -0.002683 0.025816
#
#
# Mechanical properties :
#
#
# Convention : Reuss Voigt Hill
#
# Bulk Modulus (GPa) = 42.85364 51.18148 47.01756
# Shear Modulus (GPa) = 32.06289 39.80719 35.93504
#
# Velocity S-wave (km/s) = 3.58299 3.99232 3.79318
# Velocity P-wave (km/s) = 5.85453 6.46099 6.16522
#
# Compressibility (1/GPa) = 0.02333524
#
# Stress axis : x y z
#
# Youngs Moduli (GPa) = 96.27279 48.91551 85.88250
#
# Poissons Ratio (x) = 0.24978 0.15264
# Poissons Ratio (y) = 0.49160 0.23067
# Poissons Ratio (z) = 0.17111 0.13138
#
# Static dielectric constant tensor:
#      x y z
#    x 1.977430 0.039930 0.012290 
#    y 0.039930 2.012020 0.030300 
#    z 0.012290 0.030300 2.052440 
# 
# From -- ./inp_files/590911.got.cif
#   From: 2010.05.17/outbox.cif.g08.bks.cpg/sg2_296_cif.got.tgz:590911.got - 2010.06.03 11:33:40.
