data_PCOD9059639
_publ_section_title
;
Structure prediction by ZEFSAII (Michael W. Deem and Ramdas Pophale) SiO2 
 PCOD9059639
Probable space group: P -1
;
_chemical_formula_sum "Si O2"
_cell_formula_units_Z 16
_cell_length_a 19.620024
_cell_length_b 9.193547
_cell_length_c 9.446044
_cell_angle_alpha 116.526246
_cell_angle_beta 111.336401
_cell_angle_gamma 25.533902
_cell_volume 653.730294
_symmetry_space_group_name_H-M "P -1"
_symmetry_group_IT_number 2
_symmetry_cell_setting 'triclinic'
loop_
_space_group_symop_operation_xyz
x,y,z
-x,-y,-z
loop_
_atom_site_type_symbol
_atom_site_label
_atom_site_fract_x
_atom_site_fract_y
_atom_site_fract_z
Si Si1 0.001709 0.287386 0.363033
Si Si2 0.717744 0.107419 0.786859
Si Si3 0.073154 0.815299 0.322420
Si Si4 0.149297 0.166205 0.681692
Si Si5 0.450296 0.105534 0.346317
Si Si6 0.159525 0.324634 0.038396
Si Si7 0.516880 0.140162 0.994773
Si Si8 0.509777 0.626415 0.455072
O O1 0.036760 0.274415 0.545756
O O2 0.848311 0.676898 0.349456
O O3 0.143888 0.084528 0.287640
O O4 0.008957 0.079818 0.281758
O O5 0.629730 0.128961 0.654928
O O6 0.769081 0.933596 0.900206
O O7 0.592976 0.499123 0.878399
O O8 0.262345 0.462721 0.334391
O O9 0.051457 0.678279 0.182085
O O10 0.000000 0.000000 0.500000
O O11 0.095984 0.340741 0.868354
O O12 0.314410 0.744514 0.639983
O O13 0.498883 0.192289 0.384374
O O14 0.500000 0.000000 0.500000
O O15 0.528308 0.816207 0.182299
O O16 0.304914 0.140526 0.997140
O O17 0.500000 0.000000 0.000000
O O18 0.500000 0.500000 0.500000
#
# Coordination Sequence:
#
# PCOD9059639 Si02
#       8
#     2   2   2   2   2   2   2   2
#     4  11  26  48  69  99 135 185 225 277 345 409
#     4  12  24  43  74 101 136 177 227 282 340 403
#     4  11  25  48  69  95 142 180 222 280 339 405
#     4  11  25  43  72  96 140 171 235 281 333 407
#     4  11  25  42  65 101 133 171 222 272 337 397
#     4  11  26  43  69 106 132 177 231 283 341 398
#     4  11  23  42  64  98 141 174 214 280 335 396
#     4  12  21  40  71 101 128 179 224 272 331 405
#
# _framework density 24.474924999999999
#
# number of rings (size 3 to 8) (size 9 to 14) (size 15 to 20)
#    0.000    0.750    3.750    4.125    5.250    2.000 
#    2.250    0.000    0.000    0.000    0.000    0.000 
#    0.000    0.000    0.000    0.000    0.000    0.000 
#
# Total GULP energy -89542.281900 kJ/mol
# GULP energy per Si atom -5596.392619 kJ/mol
# Density = 2.441922 g / cm^3
# Si number density = 24.474925 Si / 1000 Ang^3
#
#
#
# Elastic Constant Matrix: (Units=GPa)
#
#
# Indices 1 2 3 4 5 6 
#
# 1 115.6215 20.4386 24.3603 0.7098 18.8581 10.9949
# 2 20.4386 56.2903 10.3396 -7.5088 0.5547 6.0126
# 3 24.3603 10.3396 141.6969 -7.3759 11.9971 -1.9360
# 4 0.7098 -7.5088 -7.3759 54.4088 6.7879 -4.1652
# 5 18.8581 0.5547 11.9971 6.7879 40.6984 0.5646
# 6 10.9949 6.0126 -1.9360 -4.1652 0.5646 41.0341
#
#
#
# Elastic Compliance Matrix: (Units=1/GPa)
#
#
# Indices 1 2 3 4 5 6 
#
# 1 0.010427 -0.003319 -0.001237 -0.000402 -0.004322 -0.002347
# 2 -0.003319 0.019623 -0.000861 0.002352 0.001157 -0.001804
# 3 -0.001237 -0.000861 0.007568 0.001230 -0.001864 0.000965
# 4 -0.000402 0.002352 0.001230 0.019451 -0.003478 0.001843
# 5 -0.004322 0.001157 -0.001864 -0.003478 0.027685 0.000167
# 6 -0.002347 -0.001804 0.000965 0.001843 0.000167 0.025494
#
#
# Mechanical properties :
#
#
# Convention : Reuss Voigt Hill
#
# Bulk Modulus (GPa) = 37.33801 47.09839 42.21820
# Shear Modulus (GPa) = 38.45820 44.45961 41.45891
#
# Velocity S-wave (km/s) = 3.96830 4.26671 4.12021
# Velocity P-wave (km/s) = 6.02373 6.59988 6.31837
#
# Compressibility (1/GPa) = 0.02678236
#
# Stress axis : x y z
#
# Youngs Moduli (GPa) = 95.90568 50.95950 132.13589
#
# Poissons Ratio (x) = 0.16913 0.16352
# Poissons Ratio (y) = 0.31831 0.11383
# Poissons Ratio (z) = 0.11868 0.04390
#
# Static dielectric constant tensor:
#      x y z
#    x 1.686070 0.067120 -0.363510 
#    y 0.067120 1.997780 0.095430 
#    z -0.363510 0.095430 1.656900 
# 
# From -- ./inp_files/461547.got.cif
#   From: 2010.05.17/outbox.cif.g08.bks.cpg/sg2_231_cif.got.tgz:461547.got - 2010.06.03 11:33:40.
