data_PCOD9059612
_publ_section_title
;
Structure prediction by ZEFSAII (Michael W. Deem and Ramdas Pophale) SiO2 
 PCOD9059612
Probable space group: P -1
;
_chemical_formula_sum "Si O2"
_cell_formula_units_Z 14
_cell_length_a 9.960340
_cell_length_b 6.020488
_cell_length_c 11.888709
_cell_angle_alpha 97.055307
_cell_angle_beta 72.866470
_cell_angle_gamma 126.174418
_cell_volume 548.740155
_symmetry_space_group_name_H-M "P -1"
_symmetry_group_IT_number 2
_symmetry_cell_setting 'triclinic'
loop_
_space_group_symop_operation_xyz
x,y,z
-x,-y,-z
loop_
_atom_site_type_symbol
_atom_site_label
_atom_site_fract_x
_atom_site_fract_y
_atom_site_fract_z
Si Si1 0.314098 0.056218 0.660783
Si Si2 0.768685 0.760063 0.104521
Si Si3 0.809742 0.762475 0.488714
Si Si4 0.428850 0.691733 0.039088
Si Si5 0.660920 0.318519 0.678765
Si Si6 0.086915 0.783633 0.060819
Si Si7 0.996655 0.441884 0.693847
O O1 0.334033 0.273348 0.760969
O O2 0.292688 0.144927 0.549312
O O3 0.483329 0.064239 0.648515
O O4 0.126151 0.767303 0.710197
O O5 0.960965 0.881689 0.105967
O O6 0.716417 0.493370 0.031545
O O7 0.763918 0.976365 0.039702
O O8 0.703964 0.574608 0.608851
O O9 0.863038 0.609073 0.383611
O O10 0.000000 0.000000 0.500000
O O11 0.372242 0.661698 0.180758
O O12 0.500000 0.500000 0.000000
O O13 0.500000 0.000000 0.000000
O O14 0.844049 0.353220 0.636613
O O15 0.107537 0.733821 0.181026
O O16 0.000000 0.500000 0.000000
#
# Coordination Sequence:
#
# PCOD9059612 Si02
#       7
#     2   2   2   2   2   2   2
#     4  12  26  52  78 110 160 208 270 332 411 489
#     4  11  25  45  73 116 153 212 269 328 409 498
#     4  12  28  53  78 111 159 210 274 338 401 490
#     4  12  30  51  78 122 171 211 271 351 414 499
#     4  12  29  50  81 118 154 215 268 331 415 487
#     4  11  23  41  77 107 155 205 264 329 412 479
#     4  12  27  49  77 116 157 209 268 344 403 487
#
# _framework density 25.512986999999999
#
# number of rings (size 3 to 8) (size 9 to 14) (size 15 to 20)
#    0.000    0.286    5.714    1.714   10.000    0.571 
#    2.571    0.000    0.000    0.000    0.000    0.000 
#    0.000    0.000    0.000    0.000    0.000    0.000 
#
# Total GULP energy -78140.948377 kJ/mol
# GULP energy per Si atom -5581.496313 kJ/mol
# Density = 2.545492 g / cm^3
# Si number density = 25.512987 Si / 1000 Ang^3
#
#
#
# Elastic Constant Matrix: (Units=GPa)
#
#
# Indices 1 2 3 4 5 6 
#
# 1 187.2952 32.6208 30.4221 -3.6621 18.2243 -2.6749
# 2 32.6208 122.9959 56.4371 -6.6769 18.0229 4.2445
# 3 30.4221 56.4371 147.1718 -21.1817 17.7586 -9.1890
# 4 -3.6621 -6.6769 -21.1817 41.1794 -7.3142 1.0600
# 5 18.2243 18.0229 17.7586 -7.3142 47.6745 0.4411
# 6 -2.6749 4.2445 -9.1890 1.0600 0.4411 34.9622
#
#
#
# Elastic Compliance Matrix: (Units=1/GPa)
#
#
# Indices 1 2 3 4 5 6 
#
# 1 0.005780 -0.001044 -0.000609 -0.000270 -0.001633 0.000438
# 2 -0.001044 0.010517 -0.003787 -0.000676 -0.002249 -0.002303
# 3 -0.000609 -0.003787 0.009238 0.003796 -0.001220 0.002741
# 4 -0.000270 -0.000676 0.003796 0.026636 0.003029 0.000213
# 5 -0.001633 -0.002249 -0.001220 0.003029 0.023374 -0.000559
# 6 0.000438 -0.002303 0.002741 0.000213 -0.000559 0.029637
#
#
# Mechanical properties :
#
#
# Convention : Reuss Voigt Hill
#
# Bulk Modulus (GPa) = 68.23639 77.38034 72.80836
# Shear Modulus (GPa) = 41.34094 47.29542 44.31818
#
# Velocity S-wave (km/s) = 4.02977 4.31022 4.17235
# Velocity P-wave (km/s) = 6.96103 7.42740 7.19799
#
# Compressibility (1/GPa) = 0.01465494
#
# Stress axis : x y z
#
# Youngs Moduli (GPa) = 173.01671 95.08221 108.25370
#
# Poissons Ratio (x) = 0.09926 0.06591
# Poissons Ratio (y) = 0.18062 0.40996
# Poissons Ratio (z) = 0.10534 0.36008
#
# Static dielectric constant tensor:
#      x y z
#    x 2.402540 0.141890 0.081130 
#    y 0.141890 2.089050 0.011120 
#    z 0.081130 0.011120 2.065360 
# 
# From -- ./inp_files/410767.got.cif
#   From: 2010.05.17/outbox.cif.g08.bks.cpg/sg2_206_cif.got.tgz:410767.got - 2010.06.03 11:33:40.
