data_PCOD9059436
_publ_section_title
;
Structure prediction by ZEFSAII (Michael W. Deem and Ramdas Pophale) SiO2 
 PCOD9059436
Probable space group: P -1
;
_chemical_formula_sum "Si O2"
_cell_formula_units_Z 16
_cell_length_a 12.998242
_cell_length_b 12.988432
_cell_length_c 12.292663
_cell_angle_alpha 96.932613
_cell_angle_beta 112.333304
_cell_angle_gamma 143.105714
_cell_volume 742.731379
_symmetry_space_group_name_H-M "P -1"
_symmetry_group_IT_number 2
_symmetry_cell_setting 'triclinic'
loop_
_space_group_symop_operation_xyz
x,y,z
-x,-y,-z
loop_
_atom_site_type_symbol
_atom_site_label
_atom_site_fract_x
_atom_site_fract_y
_atom_site_fract_z
Si Si1 0.829016 0.053252 0.790611
Si Si2 0.076419 0.743462 0.776300
Si Si3 0.579853 0.833976 0.882440
Si Si4 0.454214 0.572996 0.441124
Si Si5 0.062400 0.733061 0.519748
Si Si6 0.235116 0.111849 0.610089
Si Si7 0.641609 0.189666 0.489445
Si Si8 0.549222 0.419512 0.995002
O O1 0.816145 0.011944 0.907781
O O2 0.669636 0.829848 0.627933
O O3 0.622102 0.974807 0.689760
O O4 0.132548 0.329282 0.890464
O O5 0.861548 0.655791 0.694874
O O6 0.166279 0.821994 0.697073
O O7 0.875352 0.469579 0.669495
O O8 0.325795 0.979727 0.993004
O O9 0.277290 0.576493 0.665342
O O10 0.530017 0.707180 0.941798
O O11 0.500000 0.500000 0.500000
O O12 0.536009 0.657521 0.358901
O O13 0.206733 0.760568 0.522620
O O14 0.128673 0.903279 0.517165
O O15 0.352080 0.211998 0.791464
O O16 0.000000 0.000000 0.500000
O O17 0.500000 0.000000 0.500000
O O18 0.500000 0.500000 0.000000
#
# Coordination Sequence:
#
# PCOD9059436 Si02
#       8
#     2   2   2   2   2   2   2   2
#     4  11  26  47  69 106 145 186 241 303 363 424
#     4  11  24  44  67 107 136 186 240 287 365 425
#     4  12  25  46  75 104 152 186 243 303 361 435
#     4  11  23  41  68  97 140 185 233 292 361 427
#     4  12  23  47  73 101 145 188 239 296 362 430
#     4  12  25  45  71 103 145 189 239 301 367 434
#     4  11  24  47  75 101 145 190 239 303 361 432
#     4  12  27  45  71 111 145 191 248 298 361 443
#
# _framework density 21.542109
#
# number of rings (size 3 to 8) (size 9 to 14) (size 15 to 20)
#    0.000    0.500    3.750    6.375    3.500    1.000 
#    0.000    1.250    0.000    0.000    0.000    0.000 
#    0.000    0.000    0.000    0.000    0.000    0.000 
#
# Total GULP energy -89484.858171 kJ/mol
# GULP energy per Si atom -5592.803636 kJ/mol
# Density = 2.149308 g / cm^3
# Si number density = 21.542109 Si / 1000 Ang^3
#
#
#
# Elastic Constant Matrix: (Units=GPa)
#
#
# Indices 1 2 3 4 5 6 
#
# 1 108.5669 34.5758 2.5859 8.6948 3.2947 -10.5542
# 2 34.5758 141.9060 5.5953 -9.7285 4.6103 3.1364
# 3 2.5859 5.5953 72.6385 2.6640 -12.1545 -4.8254
# 4 8.6948 -9.7285 2.6640 34.7957 7.4676 -9.9141
# 5 3.2947 4.6103 -12.1545 7.4676 25.9040 -3.9428
# 6 -10.5542 3.1364 -4.8254 -9.9141 -3.9428 34.5616
#
#
#
# Elastic Compliance Matrix: (Units=1/GPa)
#
#
# Indices 1 2 3 4 5 6 
#
# 1 0.010594 -0.002857 0.000210 -0.002773 0.000483 0.002783
# 2 -0.002857 0.008135 -0.001189 0.003354 -0.002781 -0.001132
# 3 0.000210 -0.001189 0.015569 -0.002707 0.008659 0.002557
# 4 -0.002773 0.003354 -0.002707 0.034899 -0.010466 0.007288
# 5 0.000483 -0.002781 0.008659 -0.010466 0.046717 0.003936
# 6 0.002783 -0.001132 0.002557 0.007288 0.003936 0.032783
#
#
# Mechanical properties :
#
#
# Convention : Reuss Voigt Hill
#
# Bulk Modulus (GPa) = 37.55476 45.40283 41.47879
# Shear Modulus (GPa) = 30.25840 37.74256 34.00048
#
# Velocity S-wave (km/s) = 3.75189 4.19027 3.97713
# Velocity P-wave (km/s) = 6.01996 6.67333 6.35504
#
# Compressibility (1/GPa) = 0.02662778
#
# Stress axis : x y z
#
# Youngs Moduli (GPa) = 94.39589 122.92371 64.23032
#
# Poissons Ratio (x) = 0.35116 -0.01350
# Poissons Ratio (y) = 0.26966 0.07634
# Poissons Ratio (z) = -0.01985 0.14610
#
# Static dielectric constant tensor:
#      x y z
#    x 1.724260 -0.004550 0.003750 
#    y -0.004550 1.805470 -0.003110 
#    z 0.003750 -0.003110 1.820540 
# 
# From -- ./inp_files/428405.got.cif
#   From: 2010.05.17/outbox.cif.g08.bks.cpg/sg2_215_cif.got.tgz:428405.got - 2010.06.03 11:33:40.
