data_PCOD9059225
_publ_section_title
;
Structure prediction by ZEFSAII (Michael W. Deem and Ramdas Pophale) SiO2 
 PCOD9059225
Probable space group: P -1
;
_chemical_formula_sum "Si O2"
_cell_formula_units_Z 16
_cell_length_a 14.482281
_cell_length_b 11.703436
_cell_length_c 6.033430
_cell_angle_alpha 84.248591
_cell_angle_beta 77.782322
_cell_angle_gamma 129.081722
_cell_volume 738.125597
_symmetry_space_group_name_H-M "P -1"
_symmetry_group_IT_number 2
_symmetry_cell_setting 'triclinic'
loop_
_space_group_symop_operation_xyz
x,y,z
-x,-y,-z
loop_
_atom_site_type_symbol
_atom_site_label
_atom_site_fract_x
_atom_site_fract_y
_atom_site_fract_z
Si Si1 0.179416 0.402250 0.834067
Si Si2 0.029004 0.848926 0.346977
Si Si3 0.595469 0.611246 0.731996
Si Si4 0.554336 0.347565 0.521002
Si Si5 0.542548 0.081475 0.709743
Si Si6 0.179077 0.760440 0.360328
Si Si7 0.142334 0.173735 0.193929
Si Si8 0.065434 0.493266 0.170882
O O1 0.309109 0.568890 0.671666
O O2 0.075170 0.307106 0.711223
O O3 0.198308 0.289727 0.937052
O O4 0.128245 0.430297 0.062977
O O5 0.154655 0.873263 0.299458
O O6 0.962405 0.840207 0.607701
O O7 0.075277 0.003593 0.180102
O O8 0.591418 0.489169 0.620503
O O9 0.542752 0.676412 0.604145
O O10 0.737453 0.750384 0.721109
O O11 0.500000 0.500000 0.000000
O O12 0.515014 0.197297 0.691250
O O13 0.690759 0.167212 0.608884
O O14 0.500000 0.000000 0.500000
O O15 0.500000 0.000000 0.000000
O O16 0.167237 0.664694 0.179533
O O17 0.050859 0.629351 0.586255
O O18 0.000000 0.500000 0.000000
#
# Coordination Sequence:
#
# PCOD9059225 Si02
#       8
#     2   2   2   2   2   2   2   2
#     4  12  22  42  72 105 143 192 246 311 378 444
#     4  11  24  43  64 104 146 188 235 305 380 446
#     4  11  24  45  75 105 139 200 255 314 369 441
#     4  11  27  46  74 106 145 193 262 315 374 457
#     4  12  33  54  78 112 157 208 254 320 393 464
#     4  11  26  45  70 106 141 194 250 304 385 453
#     4  11  24  41  68 101 150 184 240 304 374 444
#     4  11  23  40  72 105 137 184 247 311 366 446
#
# _framework density 21.67653
#
# number of rings (size 3 to 8) (size 9 to 14) (size 15 to 20)
#    0.000    0.750    5.000    1.125   10.500    0.000 
#    0.000    0.000    0.000    0.000    0.000    0.000 
#    0.000    0.000    0.000    0.000    0.000    0.000 
#
# Total GULP energy -89222.607230 kJ/mol
# GULP energy per Si atom -5576.412952 kJ/mol
# Density = 2.162719 g / cm^3
# Si number density = 21.676530 Si / 1000 Ang^3
#
#
#
# Elastic Constant Matrix: (Units=GPa)
#
#
# Indices 1 2 3 4 5 6 
#
# 1 126.0229 45.0950 20.7104 2.6142 17.0627 -1.2002
# 2 45.0950 72.3945 18.2670 5.4566 10.8385 -4.7718
# 3 20.7104 18.2670 69.1952 -10.4870 14.3820 -14.7976
# 4 2.6142 5.4566 -10.4870 30.8423 -6.0352 13.3090
# 5 17.0627 10.8385 14.3820 -6.0352 39.3187 -2.9348
# 6 -1.2002 -4.7718 -14.7976 13.3090 -2.9348 40.9578
#
#
#
# Elastic Compliance Matrix: (Units=1/GPa)
#
#
# Indices 1 2 3 4 5 6 
#
# 1 0.010628 -0.005918 -0.001332 -0.000429 -0.002627 -0.000908
# 2 -0.005918 0.019205 -0.003119 -0.005501 -0.002238 0.002565
# 3 -0.001332 -0.003119 0.018137 0.004047 -0.004237 0.004532
# 4 -0.000429 -0.005501 0.004047 0.041159 0.005632 -0.012162
# 5 -0.002627 -0.002238 -0.004237 0.005632 0.029486 -0.001586
# 6 -0.000908 0.002565 0.004532 -0.012162 -0.001586 0.030163
#
#
# Mechanical properties :
#
#
# Convention : Reuss Voigt Hill
#
# Bulk Modulus (GPa) = 36.72102 48.41749 42.56925
# Shear Modulus (GPa) = 27.99660 34.45976 31.22818
#
# Velocity S-wave (km/s) = 3.59773 3.99146 3.79970
# Velocity P-wave (km/s) = 5.85111 6.60509 6.23950
#
# Compressibility (1/GPa) = 0.02723236
#
# Stress axis : x y z
#
# Youngs Moduli (GPa) = 94.09505 52.06866 55.13617
#
# Poissons Ratio (x) = 0.30815 0.07342
# Poissons Ratio (y) = 0.55687 0.17196
# Poissons Ratio (z) = 0.12531 0.16240
#
# Static dielectric constant tensor:
#      x y z
#    x 5.963020 -2.968380 -0.461560 
#    y -2.968380 3.840090 0.335120 
#    z -0.461560 0.335120 1.919610 
# 
# From -- ./inp_files/71914.got.cif
#   From: 2010.05.17/outbox.cif.g08.bks.cpg/sg2_36_cif.got.tgz:71914.got - 2010.06.03 11:33:40.
