data_PCOD9059842
_publ_section_title
;
Structure prediction by ZEFSAII (Michael W. Deem and Ramdas Pophale) SiO2 
 PCOD9059842
Probable space group: P -1
;
_chemical_formula_sum "Si O2"
_cell_formula_units_Z 16
_cell_length_a 15.341789
_cell_length_b 9.610900
_cell_length_c 18.387323
_cell_angle_alpha 30.217264
_cell_angle_beta 142.326518
_cell_angle_gamma 141.295198
_cell_volume 791.888014
_symmetry_space_group_name_H-M "P -1"
_symmetry_group_IT_number 2
_symmetry_cell_setting 'triclinic'
loop_
_space_group_symop_operation_xyz
x,y,z
-x,-y,-z
loop_
_atom_site_type_symbol
_atom_site_label
_atom_site_fract_x
_atom_site_fract_y
_atom_site_fract_z
Si Si1 0.650108 0.949572 0.884799
Si Si2 0.650504 0.272602 0.980927
Si Si3 0.123148 0.026628 0.507238
Si Si4 0.399520 0.589055 0.453020
Si Si5 0.398739 0.187763 0.380052
Si Si6 0.927250 0.151240 0.612120
Si Si7 0.678220 0.337367 0.138852
Si Si8 0.874324 0.194805 0.045675
O O1 0.493020 0.848774 0.870223
O O2 0.622490 0.108438 0.722340
O O3 0.694642 0.664614 0.024901
O O4 0.776716 0.161507 0.923362
O O5 0.633768 0.576933 0.802318
O O6 0.701514 0.316550 0.078024
O O7 0.764893 0.177738 0.048504
O O8 0.500000 0.000000 0.000000
O O9 0.074215 0.978791 0.412016
O O10 0.210165 0.793338 0.685466
O O11 0.241865 0.341554 0.457747
O O12 0.000000 0.000000 0.500000
O O13 0.500000 0.500000 0.500000
O O14 0.493023 0.620011 0.573843
O O15 0.500000 0.000000 0.500000
O O16 0.241942 0.981470 0.405787
O O17 0.000000 0.500000 0.500000
O O18 0.039935 0.041522 0.785501
O O19 0.000000 0.500000 0.000000
#
# Coordination Sequence:
#
# PCOD9059842 Si02
#       8
#     2   2   2   2   2   2   2   2
#     4  11  23  42  69  98 129 176 219 271 334 389
#     4  12  24  42  69 101 133 174 225 275 328 394
#     4  12  26  45  69 101 134 174 227 278 336 396
#     4  12  22  45  73  94 131 176 228 280 324 394
#     4  12  27  45  69 104 136 177 229 276 338 406
#     4  12  27  46  69  99 141 182 218 280 345 399
#     4  11  23  43  67  99 133 169 222 274 327 396
#     4  12  24  44  67  96 137 174 221 273 331 398
#
# _framework density 20.204878000000001
#
# number of rings (size 3 to 8) (size 9 to 14) (size 15 to 20)
#    0.000    0.250    5.000    4.500    3.500    2.000 
#    0.000    1.250    0.000    0.000    0.000    0.000 
#    0.000    0.000    0.000    0.000    0.000    0.000 
#
# Total GULP energy -89473.092906 kJ/mol
# GULP energy per Si atom -5592.068307 kJ/mol
# Density = 2.015889 g / cm^3
# Si number density = 20.204878 Si / 1000 Ang^3
#
#
#
# Elastic Constant Matrix: (Units=GPa)
#
#
# Indices 1 2 3 4 5 6 
#
# 1 87.4211 15.5300 -20.0725 -1.8858 5.7818 20.3975
# 2 15.5300 74.9259 -14.5951 -8.4656 -2.7439 27.2573
# 3 -20.0725 -14.5951 84.8219 -9.1158 1.7939 10.6926
# 4 -1.8858 -8.4656 -9.1158 40.1092 -2.1953 -11.7675
# 5 5.7818 -2.7439 1.7939 -2.1953 34.1084 -2.0972
# 6 20.3975 27.2573 10.6926 -11.7675 -2.0972 31.7834
#
#
#
# Elastic Compliance Matrix: (Units=1/GPa)
#
#
# Indices 1 2 3 4 5 6 
#
# 1 0.016456 0.003619 0.006502 -0.002169 -0.004020 -0.016920
# 2 0.003619 0.023220 0.007982 -0.000540 -0.000748 -0.025170
# 3 0.006502 0.007982 0.016929 0.000856 -0.002313 -0.016549
# 4 -0.002169 -0.000540 0.000856 0.028702 0.002888 0.012385
# 5 -0.004020 -0.000748 -0.002313 0.002888 0.030683 0.007093
# 6 -0.016920 -0.025170 -0.016549 0.012385 0.007093 0.074528
#
#
# Mechanical properties :
#
#
# Convention : Reuss Voigt Hill
#
# Bulk Modulus (GPa) = 10.77485 23.21039 16.99262
# Shear Modulus (GPa) = 26.99077 38.95396 32.97237
#
# Velocity S-wave (km/s) = 3.65890 4.39560 4.04406
# Velocity P-wave (km/s) = 4.81606 6.10526 5.49858
#
# Compressibility (1/GPa) = 0.09280869
#
# Stress axis : x y z
#
# Youngs Moduli (GPa) = 60.76911 43.06703 59.07194
#
# Poissons Ratio (x) = -0.15584 -0.38406
# Poissons Ratio (y) = -0.21990 -0.47153
# Poissons Ratio (z) = -0.39509 -0.34377
#
# Static dielectric constant tensor:
#      x y z
#    x 1.744070 -0.001660 -0.020450 
#    y -0.001660 1.698910 -0.038220 
#    z -0.020450 -0.038220 1.723230 
# 
# From -- ./inp_files/189167.got.cif
#   From: 2010.05.17/outbox.cif.g08.bks.cpg/sg2_95_cif.got.tgz:189167.got - 2010.06.03 11:33:40.
