data_PCOD9059604
_publ_section_title
;
Structure prediction by ZEFSAII (Michael W. Deem and Ramdas Pophale) SiO2 
 PCOD9059604
Probable space group: P -1
;
_chemical_formula_sum "Si O2"
_cell_formula_units_Z 14
_cell_length_a 12.738079
_cell_length_b 12.630870
_cell_length_c 8.807977
_cell_angle_alpha 54.077377
_cell_angle_beta 142.654804
_cell_angle_gamma 137.225618
_cell_volume 583.789884
_symmetry_space_group_name_H-M "P -1"
_symmetry_group_IT_number 2
_symmetry_cell_setting 'triclinic'
loop_
_space_group_symop_operation_xyz
x,y,z
-x,-y,-z
loop_
_atom_site_type_symbol
_atom_site_label
_atom_site_fract_x
_atom_site_fract_y
_atom_site_fract_z
Si Si1 0.880152 0.740580 0.063173
Si Si2 0.337305 0.224025 0.968043
Si Si3 0.339472 0.825628 0.020871
Si Si4 0.683123 0.492054 0.787440
Si Si5 0.688034 0.075080 0.772897
Si Si6 0.193050 0.519498 0.618674
Si Si7 0.880916 0.652426 0.586729
O O1 0.773551 0.821972 0.949363
O O2 0.738744 0.589459 0.924091
O O3 0.866130 0.655522 0.275016
O O4 0.100592 0.829502 0.162232
O O5 0.579090 0.350789 0.175604
O O6 0.309697 0.063642 0.023498
O O7 0.262528 0.286319 0.689042
O O8 0.120952 0.780991 0.737541
O O9 0.358996 0.680660 0.113518
O O10 0.340249 0.835011 0.197809
O O11 0.500000 0.000000 0.000000
O O12 0.500000 0.500000 0.500000
O O13 0.861924 0.604683 0.780748
O O14 0.500000 0.000000 0.500000
O O15 0.179698 0.508621 0.432428
O O16 0.000000 0.500000 0.500000
#
# Coordination Sequence:
#
# PCOD9059604 Si02
#       7
#     2   2   2   2   2   2   2
#     4  11  24  46  70 107 141 199 248 301 368 444
#     4  11  26  47  75 114 150 198 249 307 381 444
#     4  12  31  49  72 112 152 199 250 313 390 437
#     4  12  26  47  79 106 148 194 253 314 371 450
#     4  12  29  47  74 106 157 197 250 311 382 452
#     4  11  23  41  75 104 145 189 250 302 364 441
#     4  11  25  47  75 106 149 193 254 310 364 455
#
# _framework density 23.98123
#
# number of rings (size 3 to 8) (size 9 to 14) (size 15 to 20)
#    0.000    0.571    1.429    6.000   16.000    1.714 
#    0.000    0.000    0.000    0.000    0.000    0.000 
#    0.000    0.000    0.000    0.000    0.000    0.000 
#
# Total GULP energy -78014.411621 kJ/mol
# GULP energy per Si atom -5572.457973 kJ/mol
# Density = 2.392665 g / cm^3
# Si number density = 23.981230 Si / 1000 Ang^3
#
#
#
# Elastic Constant Matrix: (Units=GPa)
#
#
# Indices 1 2 3 4 5 6 
#
# 1 73.9006 21.1265 17.7724 0.0023 -6.3474 -7.2980
# 2 21.1265 120.0558 40.5881 0.0833 5.3812 11.5749
# 3 17.7724 40.5881 100.4618 23.0973 3.7620 3.3708
# 4 0.0023 0.0833 23.0973 43.2134 9.4035 1.9812
# 5 -6.3474 5.3812 3.7620 9.4035 28.3376 12.9999
# 6 -7.2980 11.5749 3.3708 1.9812 12.9999 54.7870
#
#
#
# Elastic Compliance Matrix: (Units=1/GPa)
#
#
# Indices 1 2 3 4 5 6 
#
# 1 0.015125 -0.002309 -0.001992 0.000301 0.003133 0.001871
# 2 -0.002309 0.010469 -0.004331 0.002817 -0.002003 -0.001880
# 3 -0.001992 -0.004331 0.013765 -0.007592 0.001159 -0.000198
# 4 0.000301 0.002817 -0.007592 0.029250 -0.009696 0.001155
# 5 0.003133 -0.002003 0.001159 -0.009696 0.043675 -0.009243
# 6 0.001871 -0.001880 -0.000198 0.001155 -0.009243 0.021063
#
#
# Mechanical properties :
#
#
# Convention : Reuss Voigt Hill
#
# Bulk Modulus (GPa) = 45.25930 50.37692 47.81811
# Shear Modulus (GPa) = 31.65073 39.59635 35.62354
#
# Velocity S-wave (km/s) = 3.63686 4.06783 3.85837
# Velocity P-wave (km/s) = 6.04562 6.56623 6.31129
#
# Compressibility (1/GPa) = 0.02209491
#
# Stress axis : x y z
#
# Youngs Moduli (GPa) = 66.11707 95.52105 72.64934
#
# Poissons Ratio (x) = 0.22056 0.14472
# Poissons Ratio (y) = 0.15267 0.31462
# Poissons Ratio (z) = 0.13171 0.41366
#
# Static dielectric constant tensor:
#      x y z
#    x 13.243820 -1.283390 -0.040930 
#    y -1.283390 1.971630 0.067600 
#    z -0.040930 0.067600 1.803550 
# 
# From -- ./inp_files/262237.got.cif
#   From: 2010.05.17/outbox.cif.g08.bks.cpg/sg2_132_cif.got.tgz:262237.got - 2010.06.03 11:33:40.
