data_PCOD9059750
_publ_section_title
;
Structure prediction by ZEFSAII (Michael W. Deem and Ramdas Pophale) SiO2 
 PCOD9059750
Probable space group: P -1
;
_chemical_formula_sum "Si O2"
_cell_formula_units_Z 16
_cell_length_a 21.792088
_cell_length_b 6.404728
_cell_length_c 13.147737
_cell_angle_alpha 90.314554
_cell_angle_beta 22.111218
_cell_angle_gamma 86.770864
_cell_volume 681.460520
_symmetry_space_group_name_H-M "P -1"
_symmetry_group_IT_number 2
_symmetry_cell_setting 'triclinic'
loop_
_space_group_symop_operation_xyz
x,y,z
-x,-y,-z
loop_
_atom_site_type_symbol
_atom_site_label
_atom_site_fract_x
_atom_site_fract_y
_atom_site_fract_z
Si Si1 0.642026 0.951993 0.197879
Si Si2 0.649809 0.927481 0.647478
Si Si3 0.101363 0.490526 0.005282
Si Si4 0.297082 0.456625 0.029030
Si Si5 0.113141 0.782505 0.791060
Si Si6 0.588512 0.704759 0.556007
Si Si7 0.074444 0.784714 0.242468
Si Si8 0.280599 0.148301 0.232944
O O1 0.500000 0.000000 0.500000
O O2 0.541559 0.084266 0.261380
O O3 0.702255 0.724443 0.057321
O O4 0.796507 0.065247 0.987976
O O5 0.691018 0.751878 0.496944
O O6 0.725608 0.830548 0.635698
O O7 0.724964 0.136220 0.501747
O O8 0.451815 0.987357 0.958945
O O9 0.130617 0.645592 0.867066
O O10 0.282595 0.346576 0.733524
O O11 0.061794 0.620700 0.169203
O O12 0.972613 0.344107 0.163186
O O13 0.153336 0.647862 0.217559
O O14 0.285328 0.356254 0.157892
O O15 0.474525 0.529631 0.746148
O O16 0.000000 0.000000 0.000000
O O17 0.891974 0.915305 0.539094
#
# Coordination Sequence:
#
# PCOD9059750 Si02
#       8
#     2   2   2   2   2   2   2   2
#     4  11  24  43  72 100 137 177 220 288 347 398
#     4  11  24  45  71 100 134 186 226 278 341 400
#     4  11  24  40  70 105 138 173 221 281 351 404
#     4  11  24  46  68  98 135 183 229 279 335 400
#     4  11  23  42  68 101 142 176 220 283 343 403
#     4  11  23  42  69 103 134 172 230 281 344 403
#     4  11  26  44  67 105 135 177 232 275 337 412
#     4  11  25  47  67  96 138 186 231 274 335 402
#
# _framework density 23.478984000000001
#
# number of rings (size 3 to 8) (size 9 to 14) (size 15 to 20)
#    0.000    1.000    2.500    3.375    3.500    6.000 
#    6.750    0.000    0.000    0.000    0.000    0.000 
#    0.000    0.000    0.000    0.000    0.000    0.000 
#
# Total GULP energy -89466.206433 kJ/mol
# GULP energy per Si atom -5591.637902 kJ/mol
# Density = 2.342554 g / cm^3
# Si number density = 23.478984 Si / 1000 Ang^3
#
#
#
# Elastic Constant Matrix: (Units=GPa)
#
#
# Indices 1 2 3 4 5 6 
#
# 1 93.1926 39.7214 12.0261 -8.3206 -1.4015 -8.5914
# 2 39.7214 82.1275 28.6036 -1.4863 -11.5453 3.5497
# 3 12.0261 28.6036 109.3700 3.5203 -25.0852 -15.6920
# 4 -8.3206 -1.4863 3.5203 21.4887 -7.3587 -9.5348
# 5 -1.4015 -11.5453 -25.0852 -7.3587 31.7961 2.9964
# 6 -8.5914 3.5497 -15.6920 -9.5348 2.9964 31.9045
#
#
#
# Elastic Compliance Matrix: (Units=1/GPa)
#
#
# Indices 1 2 3 4 5 6 
#
# 1 0.015667 -0.008252 0.001386 0.009080 0.000086 0.008524
# 2 -0.008252 0.018299 -0.004216 -0.003687 0.002827 -0.007699
# 3 0.001386 -0.004216 0.013207 0.004770 0.009311 0.007889
# 4 0.009080 -0.003687 0.004770 0.064579 0.015600 0.023036
# 5 0.000086 0.002827 0.009311 0.015600 0.042973 0.004914
# 6 0.008524 -0.007699 0.007889 0.023036 0.004914 0.044799
#
#
# Mechanical properties :
#
#
# Convention : Reuss Voigt Hill
#
# Bulk Modulus (GPa) = 39.98570 49.48803 44.73686
# Shear Modulus (GPa) = 21.73676 30.66046 26.19861
#
# Velocity S-wave (km/s) = 3.04599 3.61760 3.34403
# Velocity P-wave (km/s) = 5.42569 6.21069 5.83142
#
# Compressibility (1/GPa) = 0.02500894
#
# Stress axis : x y z
#
# Youngs Moduli (GPa) = 63.82953 54.64736 75.71516
#
# Poissons Ratio (x) = 0.45095 -0.10493
# Poissons Ratio (y) = 0.52672 0.31922
# Poissons Ratio (z) = -0.08846 0.23039
#
# Static dielectric constant tensor:
#      x y z
#    x 1.915750 -0.050810 -0.000270 
#    y -0.050810 1.925450 0.018440 
#    z -0.000270 0.018440 1.907450 
# 
# From -- ./inp_files/123782.got.cif
#   From: 2010.05.17/outbox.cif.g08.bks.cpg/sg2_62_cif.got.tgz:123782.got - 2010.06.03 11:33:40.
