data_PCOD9059517
_publ_section_title
;
Structure prediction by ZEFSAII (Michael W. Deem and Ramdas Pophale) SiO2 
 PCOD9059517
Probable space group: P -1
;
_chemical_formula_sum "Si O2"
_cell_formula_units_Z 16
_cell_length_a 7.926196
_cell_length_b 14.959736
_cell_length_c 13.463072
_cell_angle_alpha 38.891416
_cell_angle_beta 58.304416
_cell_angle_gamma 87.780199
_cell_volume 614.795706
_symmetry_space_group_name_H-M "P -1"
_symmetry_group_IT_number 2
_symmetry_cell_setting 'triclinic'
loop_
_space_group_symop_operation_xyz
x,y,z
-x,-y,-z
loop_
_atom_site_type_symbol
_atom_site_label
_atom_site_fract_x
_atom_site_fract_y
_atom_site_fract_z
Si Si1 0.378581 0.943589 0.937345
Si Si2 0.912749 0.025621 0.697864
Si Si3 0.995510 0.542425 0.160520
Si Si4 0.599076 0.134209 0.512115
Si Si5 0.510683 0.326836 0.212180
Si Si6 0.901482 0.731996 0.861325
Si Si7 0.720338 0.815788 0.125183
Si Si8 0.161398 0.425455 0.605571
O O1 0.674782 0.021018 0.794048
O O2 0.372278 0.957349 0.807590
O O3 0.352957 0.082898 0.875777
O O4 0.118414 0.719033 0.245850
O O5 0.813916 0.846373 0.815498
O O6 0.954481 0.980002 0.834339
O O7 0.196758 0.219489 0.394774
O O8 0.785265 0.330837 0.353152
O O9 0.905267 0.524459 0.315538
O O10 0.298157 0.626000 0.979075
O O11 0.966257 0.672582 0.992305
O O12 0.502479 0.181911 0.409546
O O13 0.812354 0.125442 0.411110
O O14 0.679389 0.530139 0.044387
O O15 0.454313 0.631449 0.303292
O O16 0.789001 0.716529 0.259345
#
# Coordination Sequence:
#
# PCOD9059517 Si02
#       8
#     2   2   2   2   2   2   2   2
#     4  12  26  40  60  93 127 162 200 249 302 361
#     4  12  25  40  61  91 127 167 198 237 309 377
#     4   9  17  40  66  94 121 153 206 253 307 345
#     4   9  19  39  64  91 124 153 203 259 292 349
#     4   9  21  38  67  92 122 160 195 257 302 354
#     4   9  20  38  62  93 122 158 202 248 298 360
#     4  11  25  45  63  87 121 157 214 255 294 356
#     4  11  23  41  70  90 113 162 206 261 298 346
#
# _framework density 26.024903999999999
#
# number of rings (size 3 to 8) (size 9 to 14) (size 15 to 20)
#    0.000    1.750    2.500    3.000    1.750    4.000 
#    0.000    1.250    0.000    0.000    0.000    0.000 
#    0.000    0.000    0.000    0.000    0.000    0.000 
#
# Total GULP energy -89657.359025 kJ/mol
# GULP energy per Si atom -5603.584939 kJ/mol
# Density = 2.596567 g / cm^3
# Si number density = 26.024904 Si / 1000 Ang^3
#
#
#
# Elastic Constant Matrix: (Units=GPa)
#
#
# Indices 1 2 3 4 5 6 
#
# 1 78.1446 6.2853 9.1756 4.6252 -14.6687 -9.5043
# 2 6.2853 127.2041 17.5027 10.8238 -13.0300 -19.7721
# 3 9.1756 17.5027 107.9480 8.3192 -25.0751 -2.2021
# 4 4.6252 10.8238 8.3192 30.2142 2.2838 -13.5438
# 5 -14.6687 -13.0300 -25.0751 2.2838 46.1080 7.7934
# 6 -9.5043 -19.7721 -2.2021 -13.5438 7.7934 20.5036
#
#
#
# Elastic Compliance Matrix: (Units=1/GPa)
#
#
# Indices 1 2 3 4 5 6 
#
# 1 0.014150 0.000610 -0.000380 0.000071 0.003478 0.005832
# 2 0.000610 0.009511 -0.001417 0.001387 0.000337 0.010091
# 3 -0.000380 -0.001417 0.011581 -0.006483 0.007344 -0.007372
# 4 0.000071 0.001387 -0.006483 0.053700 -0.012696 0.040973
# 5 0.003478 0.000337 0.007344 -0.012696 0.030424 -0.017225
# 6 0.005832 0.010091 -0.007372 0.040973 -0.017225 0.094026
#
#
# Mechanical properties :
#
#
# Convention : Reuss Voigt Hill
#
# Bulk Modulus (GPa) = 30.42487 42.13601 36.28044
# Shear Modulus (GPa) = 22.05334 38.05402 30.05368
#
# Velocity S-wave (km/s) = 2.91416 3.82804 3.40193
# Velocity P-wave (km/s) = 4.79991 5.98033 5.42234
#
# Compressibility (1/GPa) = 0.03286785
#
# Stress axis : x y z
#
# Youngs Moduli (GPa) = 70.66986 105.14014 86.34925
#
# Poissons Ratio (x) = -0.06411 0.03284
# Poissons Ratio (y) = -0.04309 0.12233
# Poissons Ratio (z) = 0.02687 0.14896
#
# Static dielectric constant tensor:
#      x y z
#    x 2.148230 0.031700 0.000920 
#    y 0.031700 1.967620 -0.016360 
#    z 0.000920 -0.016360 2.017380 
# 
# From -- ./inp_files/218657.got.cif
#   From: 2010.05.17/outbox.cif.g08.bks.cpg/sg2_110_cif.got.tgz:218657.got - 2010.06.03 11:33:40.
