data_PCOD9059540
_publ_section_title
;
Structure prediction by ZEFSAII (Michael W. Deem and Ramdas Pophale) SiO2 
 PCOD9059540
Probable space group: P -1
;
_chemical_formula_sum "Si O2"
_cell_formula_units_Z 14
_cell_length_a 11.537924
_cell_length_b 13.986921
_cell_length_c 8.516159
_cell_angle_alpha 116.080480
_cell_angle_beta 71.066800
_cell_angle_gamma 150.598671
_cell_volume 600.631118
_symmetry_space_group_name_H-M "P -1"
_symmetry_group_IT_number 2
_symmetry_cell_setting 'triclinic'
loop_
_space_group_symop_operation_xyz
x,y,z
-x,-y,-z
loop_
_atom_site_type_symbol
_atom_site_label
_atom_site_fract_x
_atom_site_fract_y
_atom_site_fract_z
Si Si1 0.171083 0.774559 0.828291
Si Si2 0.268026 0.471516 0.961816
Si Si3 0.400766 0.852141 0.296569
Si Si4 0.063264 0.292963 0.388073
Si Si5 0.537311 0.567300 0.354203
Si Si6 0.145748 0.518368 0.773216
Si Si7 0.392966 0.194302 0.703596
O O1 0.031069 0.681738 0.659115
O O2 0.210473 0.683568 0.801992
O O3 0.422285 0.010192 0.831040
O O4 0.992484 0.708771 0.971905
O O5 0.295458 0.387564 0.782563
O O6 0.269842 0.574781 0.919149
O O7 0.506818 0.651594 0.094876
O O8 0.141104 0.691366 0.237875
O O9 0.403145 0.742172 0.309064
O O10 0.500000 0.000000 0.500000
O O11 0.264470 0.372827 0.273643
O O12 0.181652 0.446025 0.588038
O O13 0.847030 0.052433 0.347503
O O14 0.500000 0.500000 0.500000
O O15 0.624945 0.752427 0.409798
#
# Coordination Sequence:
#
# PCOD9059540 Si02
#       7
#     2   2   2   2   2   2   2
#     4  11  24  41  70 103 138 178 216 280 343 394
#     4  12  26  45  67 100 141 177 225 281 338 398
#     4  11  23  41  71 106 135 177 227 271 338 406
#     4  11  24  45  73 100 131 182 229 270 339 398
#     4  12  26  49  71  97 132 183 233 278 332 401
#     4  12  23  44  68 105 141 174 224 278 334 409
#     4  11  25  45  68 102 136 173 228 280 335 400
#
# _framework density 23.308817999999999
#
# number of rings (size 3 to 8) (size 9 to 14) (size 15 to 20)
#    0.000    0.571    7.143    1.286    2.000    1.714 
#    5.143    0.000    0.000    0.000    0.000    0.000 
#    0.000    0.000    0.000    0.000    0.000    0.000 
#
# Total GULP energy -78051.259779 kJ/mol
# GULP energy per Si atom -5575.089984 kJ/mol
# Density = 2.325577 g / cm^3
# Si number density = 23.308818 Si / 1000 Ang^3
#
#
#
# Elastic Constant Matrix: (Units=GPa)
#
#
# Indices 1 2 3 4 5 6 
#
# 1 137.6242 42.7693 32.1432 -18.7919 3.2616 -20.4127
# 2 42.7693 131.2171 33.3520 -26.8552 -13.9302 -23.2041
# 3 32.1432 33.3520 85.0720 -15.6799 -8.4842 -14.3312
# 4 -18.7919 -26.8552 -15.6799 27.8880 8.5526 4.4369
# 5 3.2616 -13.9302 -8.4842 8.5526 39.3595 -15.9455
# 6 -20.4127 -23.2041 -14.3312 4.4369 -15.9455 33.8663
#
#
#
# Elastic Compliance Matrix: (Units=1/GPa)
#
#
# Indices 1 2 3 4 5 6 
#
# 1 0.009067 -0.001420 -0.001906 0.003717 -0.001454 0.002515
# 2 -0.001420 0.011949 -0.000721 0.006702 0.006458 0.009189
# 3 -0.001906 -0.000721 0.015082 0.003939 0.004954 0.006556
# 4 0.003717 0.006702 0.003939 0.050115 -0.008889 -0.002251
# 5 -0.001454 0.006458 0.004954 -0.008889 0.041483 0.026341
# 6 0.002515 0.009189 0.006556 -0.002251 0.026341 0.052811
#
#
# Mechanical properties :
#
#
# Convention : Reuss Voigt Hill
#
# Bulk Modulus (GPa) = 35.70731 63.38250 49.54490
# Shear Modulus (GPa) = 25.26069 36.59935 30.93002
#
# Velocity S-wave (km/s) = 3.29559 3.96687 3.64671
# Velocity P-wave (km/s) = 5.46202 6.94499 6.24766
#
# Compressibility (1/GPa) = 0.02800547
#
# Stress axis : x y z
#
# Youngs Moduli (GPa) = 110.28420 83.68798 66.30477
#
# Poissons Ratio (x) = 0.11884 0.12635
# Poissons Ratio (y) = 0.15661 0.04779
# Poissons Ratio (z) = 0.21016 0.06033
#
# Static dielectric constant tensor:
#      x y z
#    x 1.908500 -0.013420 -0.007660 
#    y -0.013420 1.923080 0.001190 
#    z -0.007660 0.001190 2.040410 
# 
# From -- ./inp_files/273665.got.cif
#   From: 2010.05.17/outbox.cif.g08.bks.cpg/sg2_137_cif.got.tgz:273665.got - 2010.06.03 11:33:40.
