data_PCOD9059827
_publ_section_title
;
Structure prediction by ZEFSAII (Michael W. Deem and Ramdas Pophale) SiO2 
 PCOD9059827
Probable space group: P -1
;
_chemical_formula_sum "Si O2"
_cell_formula_units_Z 14
_cell_length_a 23.297654
_cell_length_b 11.335514
_cell_length_c 14.418487
_cell_angle_alpha 149.876701
_cell_angle_beta 24.075778
_cell_angle_gamma 151.222131
_cell_volume 706.062709
_symmetry_space_group_name_H-M "P -1"
_symmetry_group_IT_number 2
_symmetry_cell_setting 'triclinic'
loop_
_space_group_symop_operation_xyz
x,y,z
-x,-y,-z
loop_
_atom_site_type_symbol
_atom_site_label
_atom_site_fract_x
_atom_site_fract_y
_atom_site_fract_z
Si Si1 0.711739 0.733457 0.470743
Si Si2 0.626158 0.442900 0.096270
Si Si3 0.043028 0.773405 0.038927
Si Si4 0.856151 0.016300 0.170112
Si Si5 0.644765 0.212994 0.103720
Si Si6 0.296889 0.829711 0.354434
Si Si7 0.918784 0.170581 0.779089
O O1 0.560069 0.666772 0.712620
O O2 0.662892 0.481723 0.306065
O O3 0.739453 0.979046 0.531928
O O4 0.871310 0.763534 0.301926
O O5 0.707974 0.740294 0.207975
O O6 0.651882 0.270631 0.022895
O O7 0.709811 0.409651 0.858410
O O8 0.025025 0.480596 0.847303
O O9 0.104677 0.917410 0.949365
O O10 0.136582 0.901235 0.081080
O O11 0.812073 0.219807 0.429933
O O12 0.000000 0.000000 0.000000
O O13 0.477129 0.991443 0.224082
O O14 0.781117 0.151272 0.900840
O O15 0.000000 0.000000 0.500000
#
# Coordination Sequence:
#
# PCOD9059827 Si02
#       7
#     2   2   2   2   2   2   2
#     4  10  17  38  61  85 123 151 194 242 288 352
#     4  11  22  34  63  94 118 151 189 243 304 348
#     4  10  23  40  61  88 117 153 198 241 294 343
#     4  12  22  40  58  89 129 151 181 244 307 359
#     4  10  18  37  61  88 117 156 199 239 287 344
#     4  11  21  34  59  93 121 153 191 238 299 352
#     4  10  23  39  63  85 112 158 205 244 277 338
#
# _framework density 19.828265999999999
#
# number of rings (size 3 to 8) (size 9 to 14) (size 15 to 20)
#    0.000    1.429    4.286    3.429    4.000    1.714 
#    0.000    0.714    0.000    1.714    0.000    0.000 
#    0.000    0.000    0.000    0.000    0.000    0.000 
#
# Total GULP energy -78151.248241 kJ/mol
# GULP energy per Si atom -5582.232017 kJ/mol
# Density = 1.978314 g / cm^3
# Si number density = 19.828266 Si / 1000 Ang^3
#
#
#
# Elastic Constant Matrix: (Units=GPa)
#
#
# Indices 1 2 3 4 5 6 
#
# 1 75.6480 10.1435 52.2895 -6.3900 8.9056 -15.6825
# 2 10.1435 22.9262 14.3085 0.7390 -1.3602 -5.7749
# 3 52.2895 14.3085 131.5621 9.1136 10.3805 -4.0581
# 4 -6.3900 0.7390 9.1136 28.8974 -2.0121 7.5041
# 5 8.9056 -1.3602 10.3805 -2.0121 33.9661 -0.9545
# 6 -15.6825 -5.7749 -4.0581 7.5041 -0.9545 22.7197
#
#
#
# Elastic Compliance Matrix: (Units=1/GPa)
#
#
# Indices 1 2 3 4 5 6 
#
# 1 0.022497 -0.001984 -0.008440 0.004389 -0.002803 0.011950
# 2 -0.001984 0.050616 -0.004452 -0.003139 0.004056 0.011908
# 3 -0.008440 -0.004452 0.011819 -0.004743 -0.001953 -0.003362
# 4 0.004389 -0.003139 -0.004743 0.040387 0.002232 -0.011861
# 5 -0.002803 0.004056 -0.001953 0.002232 0.031048 -0.000685
# 6 0.011950 0.011908 -0.003362 -0.011861 -0.000685 0.058578
#
#
# Mechanical properties :
#
#
# Convention : Reuss Voigt Hill
#
# Bulk Modulus (GPa) = 18.12247 42.62434 30.37341
# Shear Modulus (GPa) = 19.00495 27.34295 23.17395
#
# Velocity S-wave (km/s) = 3.09929 3.71750 3.42238
# Velocity P-wave (km/s) = 4.68690 6.32217 5.56493
#
# Compressibility (1/GPa) = 0.05518013
#
# Stress axis : x y z
#
# Youngs Moduli (GPa) = 44.45041 19.75673 84.61295
#
# Poissons Ratio (x) = 0.03919 0.71413
# Poissons Ratio (y) = 0.08818 0.37667
# Poissons Ratio (z) = 0.37516 0.08795
#
# Static dielectric constant tensor:
#      x y z
#    x 1.722890 -0.003050 0.015220 
#    y -0.003050 1.690470 0.003320 
#    z 0.015220 0.003320 1.718100 
# 
# From -- ./inp_files/253317.got.cif
#   From: 2010.05.17/outbox.cif.g08.bks.cpg/sg2_127_cif.got.tgz:253317.got - 2010.06.03 11:33:40.
