data_PCOD9059335
_publ_section_title
;
Structure prediction by ZEFSAII (Michael W. Deem and Ramdas Pophale) SiO2 
 PCOD9059335
Probable space group: P -1
;
_chemical_formula_sum "Si O2"
_cell_formula_units_Z 14
_cell_length_a 6.859394
_cell_length_b 11.608644
_cell_length_c 19.970682
_cell_angle_alpha 28.934810
_cell_angle_beta 114.231352
_cell_angle_gamma 124.466381
_cell_volume 619.799022
_symmetry_space_group_name_H-M "P -1"
_symmetry_group_IT_number 2
_symmetry_cell_setting 'triclinic'
loop_
_space_group_symop_operation_xyz
x,y,z
-x,-y,-z
loop_
_atom_site_type_symbol
_atom_site_label
_atom_site_fract_x
_atom_site_fract_y
_atom_site_fract_z
Si Si1 0.158993 0.120345 0.150040
Si Si2 0.304535 0.679175 0.355127
Si Si3 0.426421 0.719607 0.200223
Si Si4 0.723027 0.826867 0.071558
Si Si5 0.368416 0.592264 0.836795
Si Si6 0.997863 0.799007 0.659126
Si Si7 0.150546 0.103365 0.658623
O O1 0.385602 0.250104 0.167792
O O2 0.187073 0.877286 0.242658
O O3 0.192990 0.349671 0.985325
O O4 0.930792 0.028938 0.212972
O O5 0.363020 0.623096 0.316295
O O6 0.144881 0.387317 0.513151
O O7 0.570864 0.823168 0.352197
O O8 0.672843 0.769277 0.172907
O O9 0.218007 0.494179 0.239679
O O10 0.407436 0.994570 0.056016
O O11 0.610155 0.555931 0.150811
O O12 0.000000 0.000000 0.000000
O O13 0.241158 0.769452 0.708366
O O14 0.000000 0.000000 0.500000
O O15 0.990097 0.914866 0.672125
#
# Coordination Sequence:
#
# PCOD9059335 Si02
#       7
#     2   2   2   2   2   2   2
#     4  11  24  44  71 101 134 177 230 282 336 396
#     4  11  23  44  66 103 133 175 229 276 335 407
#     4  11  24  40  70  96 137 178 218 279 340 399
#     4  11  23  41  65  99 132 172 224 275 337 399
#     4  11  24  44  67 100 140 175 229 285 329 407
#     4  12  24  46  67  99 140 183 225 276 339 407
#     4  11  25  43  71  97 138 180 222 280 338 401
#
# _framework density 22.587966000000002
#
# number of rings (size 3 to 8) (size 9 to 14) (size 15 to 20)
#    0.000    0.857    5.714    1.286    2.000    0.571 
#    0.000    5.714    0.000    0.000    0.000    0.000 
#    0.000    0.000    0.000    0.000    0.000    0.000 
#
# Total GULP energy -78318.234824 kJ/mol
# GULP energy per Si atom -5594.159630 kJ/mol
# Density = 2.253655 g / cm^3
# Si number density = 22.587966 Si / 1000 Ang^3
#
#
#
# Elastic Constant Matrix: (Units=GPa)
#
#
# Indices 1 2 3 4 5 6 
#
# 1 77.1880 30.6937 20.3053 -1.1791 5.7907 -20.6677
# 2 30.6937 117.1096 10.3222 -2.3268 4.0268 -21.5707
# 3 20.3053 10.3222 66.1697 8.9900 19.7118 -10.5926
# 4 -1.1791 -2.3268 8.9900 37.4365 -1.5537 -4.0305
# 5 5.7907 4.0268 19.7118 -1.5537 33.0912 9.0363
# 6 -20.6677 -21.5707 -10.5926 -4.0305 9.0363 36.0932
#
#
#
# Elastic Compliance Matrix: (Units=1/GPa)
#
#
# Indices 1 2 3 4 5 6 
#
# 1 0.017280 -0.002551 -0.002797 0.001844 -0.003304 0.008582
# 2 -0.002551 0.010308 0.000817 0.000865 -0.002822 0.005742
# 3 -0.002797 0.000817 0.022682 -0.005180 -0.015801 0.008921
# 4 0.001844 0.000865 -0.005180 0.028464 0.003340 0.002395
# 5 -0.003304 -0.002822 -0.015801 0.003340 0.045996 -0.019359
# 6 0.008582 0.005742 0.008921 0.002395 -0.019359 0.043785
#
#
# Mechanical properties :
#
#
# Convention : Reuss Voigt Hill
#
# Bulk Modulus (GPa) = 24.26720 42.56774 33.41747
# Shear Modulus (GPa) = 26.13528 34.60059 30.36793
#
# Velocity S-wave (km/s) = 3.40523 3.91809 3.67062
# Velocity P-wave (km/s) = 5.12128 6.27334 5.72635
#
# Compressibility (1/GPa) = 0.04120788
#
# Stress axis : x y z
#
# Youngs Moduli (GPa) = 57.87130 97.01603 44.08729
#
# Poissons Ratio (x) = 0.24752 0.12331
# Poissons Ratio (y) = 0.14765 -0.03604
# Poissons Ratio (z) = 0.16186 -0.07930
#
# Static dielectric constant tensor:
#      x y z
#    x 1.878220 0.032690 -0.058440 
#    y 0.032690 1.867060 -0.011380 
#    z -0.058440 -0.011380 1.837130 
# 
# From -- ./inp_files/72409.got.cif
#   From: 2010.05.17/outbox.cif.g08.bks.cpg/sg2_37_cif.got.tgz:72409.got - 2010.06.03 11:33:40.
