data_PCOD9059897
_publ_section_title
;
Structure prediction by ZEFSAII (Michael W. Deem and Ramdas Pophale) SiO2 
 PCOD9059897
Probable space group: P -1
;
_chemical_formula_sum "Si O2"
_cell_formula_units_Z 14
_cell_length_a 7.321349
_cell_length_b 14.348481
_cell_length_c 14.320890
_cell_angle_alpha 149.778104
_cell_angle_beta 125.206876
_cell_angle_gamma 71.926437
_cell_volume 550.353786
_symmetry_space_group_name_H-M "P -1"
_symmetry_group_IT_number 2
_symmetry_cell_setting 'triclinic'
loop_
_space_group_symop_operation_xyz
x,y,z
-x,-y,-z
loop_
_atom_site_type_symbol
_atom_site_label
_atom_site_fract_x
_atom_site_fract_y
_atom_site_fract_z
Si Si1 0.749816 0.036304 0.662872
Si Si2 0.146822 0.940036 0.589227
Si Si3 0.901185 0.489080 0.357987
Si Si4 0.057110 0.912301 0.041975
Si Si5 0.861479 0.481057 0.061654
Si Si6 0.539368 0.603841 0.964673
Si Si7 0.275064 0.958772 0.832207
O O1 0.723110 0.981613 0.719265
O O2 0.905098 0.933309 0.567888
O O3 0.500000 0.000000 0.500000
O O4 0.918254 0.287166 0.917787
O O5 0.351455 0.993123 0.777554
O O6 0.265509 0.153268 0.751260
O O7 0.078079 0.716923 0.333696
O O8 0.613790 0.442843 0.216899
O O9 0.000000 0.500000 0.500000
O O10 0.071080 0.718446 0.567814
O O11 0.942301 0.304097 0.165119
O O12 0.835277 0.897742 0.031367
O O13 0.000000 0.000000 0.000000
O O14 0.678170 0.452010 0.070655
O O15 0.689432 0.473396 0.916135
O O16 0.500000 0.000000 0.000000
#
# Coordination Sequence:
#
# PCOD9059897 Si02
#       7
#     2   2   2   2   2   2   2
#     4  11  24  42  70 101 141 182 231 289 346 416
#     4  11  24  43  65 102 138 176 234 284 343 413
#     4  12  23  43  70  98 136 182 230 286 350 409
#     4  11  24  42  68 102 134 183 235 279 351 417
#     4  11  23  44  69  96 137 182 227 282 346 404
#     4  11  23  42  70  98 134 184 227 281 346 410
#     4  11  24  43  66  98 140 180 230 290 341 413
#
# _framework density 25.438181
#
# number of rings (size 3 to 8) (size 9 to 14) (size 15 to 20)
#    0.000    0.857    4.286    3.000    2.000    1.143 
#    0.000    4.286    0.000    0.000    0.000    0.000 
#    0.000    0.000    0.000    0.000    0.000    0.000 
#
# Total GULP energy -78226.309637 kJ/mol
# GULP energy per Si atom -5587.593546 kJ/mol
# Density = 2.538028 g / cm^3
# Si number density = 25.438181 Si / 1000 Ang^3
#
#
#
# Elastic Constant Matrix: (Units=GPa)
#
#
# Indices 1 2 3 4 5 6 
#
# 1 58.0698 23.8251 39.1041 -0.1334 -16.3093 -1.1657
# 2 23.8251 185.5544 67.0038 -21.1671 -10.2808 -12.3435
# 3 39.1041 67.0038 139.2900 -0.4262 -6.3392 -9.4716
# 4 -0.1334 -21.1671 -0.4262 73.9883 3.2361 -4.9899
# 5 -16.3093 -10.2808 -6.3392 3.2361 39.9680 6.2974
# 6 -1.1657 -12.3435 -9.4716 -4.9899 6.2974 47.1180
#
#
#
# Elastic Compliance Matrix: (Units=1/GPa)
#
#
# Indices 1 2 3 4 5 6 
#
# 1 0.024174 -0.000562 -0.006246 -0.000693 0.009116 -0.002096
# 2 -0.000562 0.006916 -0.003042 0.002018 0.000698 0.001307
# 3 -0.006246 -0.003042 0.010400 -0.000653 -0.001836 0.001315
# 4 -0.000693 0.002018 -0.000653 0.014287 -0.001351 0.002074
# 5 0.009116 0.000698 -0.001836 -0.001351 0.029372 -0.004029
# 6 -0.002096 0.001307 0.001315 0.002074 -0.004029 0.022536
#
#
# Mechanical properties :
#
#
# Convention : Reuss Voigt Hill
#
# Bulk Modulus (GPa) = 45.89424 71.42002 58.65713
# Shear Modulus (GPa) = 37.13381 49.08026 43.10703
#
# Velocity S-wave (km/s) = 3.82483 4.39725 4.12099
# Velocity P-wave (km/s) = 6.13078 7.34288 6.76404
#
# Compressibility (1/GPa) = 0.02178923
#
# Stress axis : x y z
#
# Youngs Moduli (GPa) = 41.36719 144.59910 96.15347
#
# Poissons Ratio (x) = 0.08126 0.60058
# Poissons Ratio (y) = 0.02325 0.29251
# Poissons Ratio (z) = 0.25838 0.43989
#
# Static dielectric constant tensor:
#      x y z
#    x 2.048720 0.071240 0.089180 
#    y 0.071240 2.194730 -0.049890 
#    z 0.089180 -0.049890 2.077700 
# 
# From -- ./inp_files/505970.got.cif
#   From: 2010.05.17/outbox.cif.g08.bks.cpg/sg2_253_cif.got.tgz:505970.got - 2010.06.03 11:33:40.
