data_PCOD9059343
_publ_section_title
;
Structure prediction by ZEFSAII (Michael W. Deem and Ramdas Pophale) SiO2 
 PCOD9059343
Probable space group: P -1
;
_chemical_formula_sum "Si O2"
_cell_formula_units_Z 15
_cell_length_a 9.163661
_cell_length_b 17.540707
_cell_length_c 17.471383
_cell_angle_alpha 153.326521
_cell_angle_beta 116.196887
_cell_angle_gamma 45.354211
_cell_volume 728.150387
_symmetry_space_group_name_H-M "P -1"
_symmetry_group_IT_number 2
_symmetry_cell_setting 'triclinic'
loop_
_space_group_symop_operation_xyz
x,y,z
-x,-y,-z
loop_
_atom_site_type_symbol
_atom_site_label
_atom_site_fract_x
_atom_site_fract_y
_atom_site_fract_z
Si Si1 0.473162 0.048693 0.946087
Si Si2 0.534042 0.147791 0.596040
Si Si3 0.966424 0.270685 0.032352
Si Si4 0.000000 0.500000 0.500000
Si Si5 0.982094 0.316102 0.810520
Si Si6 0.663167 0.486097 0.742463
Si Si7 0.861607 0.270958 0.174872
Si Si8 0.875726 0.119790 0.738021
O O1 0.724438 0.784577 0.725726
O O2 0.500000 0.000000 0.000000
O O3 0.414608 0.289674 0.125072
O O4 0.225401 0.142073 0.946016
O O5 0.262609 0.412668 0.737905
O O6 0.630096 0.215597 0.737854
O O7 0.500000 0.000000 0.500000
O O8 0.754090 0.953048 0.409115
O O9 0.003011 0.193025 0.058443
O O10 0.876568 0.187274 0.884488
O O11 0.128766 0.573042 0.629405
O O12 0.764820 0.463928 0.829015
O O13 0.924791 0.239790 0.800344
O O14 0.000000 0.500000 0.000000
O O15 0.423376 0.555597 0.755557
O O16 0.895433 0.196273 0.500857
O O17 0.000000 0.000000 0.000000
#
# Coordination Sequence:
#
# PCOD9059343 Si02
#       8
#     2   2   2   1   2   2   2   2
#     4  12  25  48  72 106 143 186 248 303 355 436
#     4  11  23  41  66 104 143 180 236 295 354 434
#     4  12  24  43  71 101 142 185 236 298 365 430
#     4  12  26  50  74  98 144 188 238 316 362 408
#     4  11  23  43  70 103 146 189 238 295 359 448
#     4  11  23  44  71 101 145 194 239 292 373 431
#     4  12  25  47  70 105 139 186 247 300 361 433
#     4  11  23  43  67 103 142 188 235 294 360 438
#
# _framework density 20.60014
#
# number of rings (size 3 to 8) (size 9 to 14) (size 15 to 20)
#    0.000    0.533    2.667    7.600    0.000    3.200 
#    2.400    2.667    0.000    0.000    0.000    0.000 
#    0.000    0.000    0.000    0.000    0.000    0.000 
#
# Total GULP energy -83672.333485 kJ/mol
# GULP energy per Si atom -5578.155566 kJ/mol
# Density = 2.055325 g / cm^3
# Si number density = 20.600140 Si / 1000 Ang^3
#
#
#
# Elastic Constant Matrix: (Units=GPa)
#
#
# Indices 1 2 3 4 5 6 
#
# 1 105.7646 37.5600 38.6714 16.6724 10.7375 -17.7947
# 2 37.5600 94.6892 64.6818 10.5808 14.4217 -4.8153
# 3 38.6714 64.6818 125.6304 4.9119 20.1172 -0.6141
# 4 16.6724 10.5808 4.9119 29.3923 -18.5274 2.5551
# 5 10.7375 14.4217 20.1172 -18.5274 40.5337 10.1742
# 6 -17.7947 -4.8153 -0.6141 2.5551 10.1742 51.9831
#
#
#
# Elastic Compliance Matrix: (Units=1/GPa)
#
#
# Indices 1 2 3 4 5 6 
#
# 1 0.016015 -0.000699 -0.001647 -0.017913 -0.013609 0.008942
# 2 -0.000699 0.018728 -0.007627 -0.010747 -0.008509 0.003599
# 3 -0.001647 -0.007627 0.012975 -0.000652 -0.003487 -0.000402
# 4 -0.017913 -0.010747 -0.000652 0.082905 0.052163 -0.021420
# 5 -0.013609 -0.008509 -0.003487 0.052163 0.061941 -0.020175
# 6 0.008942 0.003599 -0.000402 -0.021420 -0.020175 0.027628
#
#
# Mechanical properties :
#
#
# Convention : Reuss Voigt Hill
#
# Bulk Modulus (GPa) = 36.00504 67.54563 51.77533
# Shear Modulus (GPa) = 20.04860 36.72655 28.38757
#
# Velocity S-wave (km/s) = 3.12304 4.22694 3.71621
# Velocity P-wave (km/s) = 5.52454 7.52880 6.60315
#
# Compressibility (1/GPa) = 0.02777389
#
# Stress axis : x y z
#
# Youngs Moduli (GPa) = 62.44096 53.39697 77.06943
#
# Poissons Ratio (x) = 0.03730 0.12692
# Poissons Ratio (y) = 0.04362 0.58779
# Poissons Ratio (z) = 0.10283 0.40725
#
# Static dielectric constant tensor:
#      x y z
#    x 1.754210 -0.033290 -0.031090 
#    y -0.033290 1.724330 -0.022740 
#    z -0.031090 -0.022740 1.689110 
# 
# From -- ./inp_files/195541.got.cif
#   From: 2010.05.17/outbox.cif.g08.bks.cpg/sg2_98_cif.got.tgz:195541.got - 2010.06.03 11:33:40.
