data_PCOD9059675
_publ_section_title
;
Structure prediction by ZEFSAII (Michael W. Deem and Ramdas Pophale) SiO2 
 PCOD9059675
Probable space group: P -1
;
_chemical_formula_sum "Si O2"
_cell_formula_units_Z 16
_cell_length_a 9.604977
_cell_length_b 24.002573
_cell_length_c 18.031759
_cell_angle_alpha 164.433802
_cell_angle_beta 147.170318
_cell_angle_gamma 30.721804
_cell_volume 567.664650
_symmetry_space_group_name_H-M "P -1"
_symmetry_group_IT_number 2
_symmetry_cell_setting 'triclinic'
loop_
_space_group_symop_operation_xyz
x,y,z
-x,-y,-z
loop_
_atom_site_type_symbol
_atom_site_label
_atom_site_fract_x
_atom_site_fract_y
_atom_site_fract_z
Si Si1 0.945332 0.295452 0.250529
Si Si2 0.340366 0.829822 0.809464
Si Si3 0.900312 0.479027 0.042617
Si Si4 0.106873 0.224621 0.044687
Si Si5 0.481429 0.152195 0.916595
Si Si6 0.386187 0.837388 0.285116
Si Si7 0.889140 0.202221 0.557099
Si Si8 0.883078 0.679239 0.468257
O O1 0.000000 0.500000 0.500000
O O2 0.158450 0.079818 0.030017
O O3 0.036200 0.293074 0.373942
O O4 0.648845 0.272235 0.095354
O O5 0.614932 0.724720 0.749801
O O6 0.439172 0.827919 0.936452
O O7 0.116012 0.710732 0.559059
O O8 0.947366 0.416845 0.159458
O O9 0.161335 0.282378 0.934980
O O10 0.756662 0.361895 0.769328
O O11 0.023203 0.643966 0.264308
O O12 0.813256 0.224175 0.942700
O O13 0.248797 0.963124 0.750529
O O14 0.609704 0.895046 0.619922
O O15 0.641621 0.639130 0.176980
O O16 0.500000 0.000000 0.500000
O O17 0.165661 0.006431 0.456609
#
# Coordination Sequence:
#
# PCOD9059675 Si02
#       8
#     2   2   2   2   2   2   2   2
#     4   9  19  35  58  88 111 141 200 245 279 354
#     4   9  19  37  59  80 118 150 192 236 289 347
#     4  10  17  38  59  78 122 150 188 242 295 333
#     4  10  19  36  59  82 113 159 196 228 298 345
#     4   9  20  36  57  84 111 160 188 233 301 342
#     4   8  18  35  53  85 117 142 194 244 284 334
#     4   8  20  34  57  88 110 147 199 241 281 339
#     4   9  19  39  57  82 121 150 186 241 289 346
#
# _framework density 28.185656000000002
#
# number of rings (size 3 to 8) (size 9 to 14) (size 15 to 20)
#    0.750    2.250    0.000    1.875    1.750    2.000 
#    6.750    4.375    2.750    0.000    0.000    0.000 
#    0.000    0.000    0.000    0.000    0.000    0.000 
#
# Total GULP energy -89247.387877 kJ/mol
# GULP energy per Si atom -5577.961742 kJ/mol
# Density = 2.812150 g / cm^3
# Si number density = 28.185656 Si / 1000 Ang^3
#
#
#
# Elastic Constant Matrix: (Units=GPa)
#
#
# Indices 1 2 3 4 5 6 
#
# 1 111.7933 32.3268 22.2369 -7.7190 -7.4780 -24.6693
# 2 32.3268 153.7232 19.9705 8.0562 -5.7466 -39.9112
# 3 22.2369 19.9705 92.9494 31.5637 -7.4720 -5.1484
# 4 -7.7190 8.0562 31.5637 29.6984 -12.6106 -3.3046
# 5 -7.4780 -5.7466 -7.4720 -12.6106 55.5236 -3.5357
# 6 -24.6693 -39.9112 -5.1484 -3.3046 -3.5357 40.8073
#
#
#
# Elastic Compliance Matrix: (Units=1/GPa)
#
#
# Indices 1 2 3 4 5 6 
#
# 1 0.013632 -0.000268 -0.007157 0.014137 0.004605 0.008620
# 2 -0.000268 0.009018 -0.001495 0.000624 0.001388 0.008641
# 3 -0.007157 -0.001495 0.021097 -0.026486 -0.004656 -0.005676
# 4 0.014137 0.000624 -0.026486 0.073562 0.015949 0.013154
# 5 0.004605 0.001388 -0.004656 0.015949 0.022201 0.006769
# 6 0.008620 0.008641 -0.005676 0.013154 0.006769 0.039103
#
#
# Mechanical properties :
#
#
# Convention : Reuss Voigt Hill
#
# Bulk Modulus (GPa) = 38.59747 56.39271 47.49509
# Shear Modulus (GPa) = 24.37954 44.13464 34.25709
#
# Velocity S-wave (km/s) = 2.94422 3.96138 3.49005
# Velocity P-wave (km/s) = 5.02808 6.40113 5.75569
#
# Compressibility (1/GPa) = 0.02590843
#
# Stress axis : x y z
#
# Youngs Moduli (GPa) = 73.35483 110.88568 47.39951
#
# Poissons Ratio (x) = 0.02968 0.33922
# Poissons Ratio (y) = 0.01964 0.07088
# Poissons Ratio (z) = 0.52498 0.16581
#
# Static dielectric constant tensor:
#      x y z
#    x 2.331600 0.172020 -0.050160 
#    y 0.172020 2.292910 -0.135340 
#    z -0.050160 -0.135340 2.270120 
# 
# From -- ./inp_files/422843.got.cif
#   From: 2010.05.17/outbox.cif.g08.bks.cpg/sg2_212_cif.got.tgz:422843.got - 2010.06.03 11:33:40.
