data_PCOD9059890
_publ_section_title
;
Structure prediction by ZEFSAII (Michael W. Deem and Ramdas Pophale) SiO2 
 PCOD9059890
Probable space group: P -1
;
_chemical_formula_sum "Si O2"
_cell_formula_units_Z 14
_cell_length_a 15.923807
_cell_length_b 17.489248
_cell_length_c 7.500049
_cell_angle_alpha 65.599777
_cell_angle_beta 127.774667
_cell_angle_gamma 157.937887
_cell_volume 529.423553
_symmetry_space_group_name_H-M "P -1"
_symmetry_group_IT_number 2
_symmetry_cell_setting 'triclinic'
loop_
_space_group_symop_operation_xyz
x,y,z
-x,-y,-z
loop_
_atom_site_type_symbol
_atom_site_label
_atom_site_fract_x
_atom_site_fract_y
_atom_site_fract_z
Si Si1 0.924113 0.352127 0.635858
Si Si2 0.503856 0.765040 0.202601
Si Si3 0.619146 0.236265 0.603480
Si Si4 0.926426 0.749593 0.662406
Si Si5 0.854475 0.247978 0.261644
Si Si6 0.934673 0.891154 0.254325
Si Si7 0.929836 0.072910 0.987476
O O1 0.000000 0.500000 0.500000
O O2 0.681884 0.195989 0.623459
O O3 0.875995 0.256498 0.496108
O O4 0.195697 0.517012 0.947902
O O5 0.485039 0.822595 0.274558
O O6 0.716096 0.962321 0.139678
O O7 0.705051 0.841933 0.482402
O O8 0.368129 0.098179 0.294167
O O9 0.945305 0.523033 0.747694
O O10 0.805233 0.729901 0.385346
O O11 0.956903 0.683533 0.667138
O O12 0.849077 0.711667 0.801610
O O13 0.500000 0.000000 0.000000
O O14 0.910712 0.835908 0.078888
O O15 0.836419 0.914152 0.106154
#
# Coordination Sequence:
#
# PCOD9059890 Si02
#       7
#     2   2   2   2   2   2   2
#     4  10  19  34  55  76 105 151 186 222 273 332
#     4   9  19  36  56  81 108 142 197 223 266 342
#     4  10  20  35  58  81 109 150 189 226 271 339
#     4  10  19  35  57  85 111 143 183 234 276 320
#     4  11  22  36  52  81 116 146 184 231 287 326
#     4   8  20  33  63  87 107 141 197 226 265 338
#     4  10  17  38  62  83 110 149 187 226 277 325
#
# _framework density 26.443854999999999
#
# number of rings (size 3 to 8) (size 9 to 14) (size 15 to 20)
#    0.857    1.429    0.000    5.143    0.000    0.000 
#    2.571    2.143    0.000    2.571    0.000    0.000 
#    0.000    0.000    0.000    0.000    0.000    0.000 
#
# Total GULP energy -78192.301472 kJ/mol
# GULP energy per Si atom -5585.164391 kJ/mol
# Density = 2.638367 g / cm^3
# Si number density = 26.443855 Si / 1000 Ang^3
#
#
#
# Elastic Constant Matrix: (Units=GPa)
#
#
# Indices 1 2 3 4 5 6 
#
# 1 117.9389 11.4200 58.4861 12.7052 -39.3980 -12.0160
# 2 11.4200 38.8648 17.8347 -1.6433 1.1124 -5.7953
# 3 58.4861 17.8347 145.3537 -6.6959 -20.8664 -13.6694
# 4 12.7052 -1.6433 -6.6959 25.8350 4.1360 -1.8251
# 5 -39.3980 1.1124 -20.8664 4.1360 57.8034 0.8367
# 6 -12.0160 -5.7953 -13.6694 -1.8251 0.8367 35.2630
#
#
#
# Elastic Compliance Matrix: (Units=1/GPa)
#
#
# Indices 1 2 3 4 5 6 
#
# 1 0.015829 -0.002799 -0.004897 -0.010642 0.009804 0.002252
# 2 -0.002799 0.028366 -0.002435 0.003342 -0.003615 0.003023
# 3 -0.004897 -0.002435 0.009518 0.004890 -0.000232 0.001879
# 4 -0.010642 0.003342 0.004890 0.046954 -0.008934 0.001461
# 5 0.009804 -0.003615 -0.000232 -0.008934 0.024584 0.001611
# 6 0.002252 0.003023 0.001879 0.001461 0.001611 0.030388
#
#
# Mechanical properties :
#
#
# Convention : Reuss Voigt Hill
#
# Bulk Modulus (GPa) = 29.89450 53.07100 41.48275
# Shear Modulus (GPa) = 26.73066 38.07472 32.40269
#
# Velocity S-wave (km/s) = 3.18283 3.79863 3.50428
# Velocity P-wave (km/s) = 4.98364 6.27314 5.66520
#
# Compressibility (1/GPa) = 0.03345097
#
# Stress axis : x y z
#
# Youngs Moduli (GPa) = 63.17377 35.25393 105.06896
#
# Poissons Ratio (x) = 0.09867 0.51451
# Poissons Ratio (y) = 0.17682 0.25585
# Poissons Ratio (z) = 0.30935 0.08584
#
# Static dielectric constant tensor:
#      x y z
#    x 2.158440 0.012450 -0.083190 
#    y 0.012450 2.245040 -0.040940 
#    z -0.083190 -0.040940 2.065670 
# 
# From -- ./inp_files/317167.got.cif
#   From: 2010.05.17/outbox.cif.g08.bks.cpg/sg2_159_cif.got.tgz:317167.got - 2010.06.03 11:33:40.
