data_PCOD9059817
_publ_section_title
;
Structure prediction by ZEFSAII (Michael W. Deem and Ramdas Pophale) SiO2 
 PCOD9059817
Probable space group: P -1
;
_chemical_formula_sum "Si O2"
_cell_formula_units_Z 14
_cell_length_a 8.632065
_cell_length_b 14.119025
_cell_length_c 14.553054
_cell_angle_alpha 138.553895
_cell_angle_beta 32.603080
_cell_angle_gamma 138.145246
_cell_volume 599.767734
_symmetry_space_group_name_H-M "P -1"
_symmetry_group_IT_number 2
_symmetry_cell_setting 'triclinic'
loop_
_space_group_symop_operation_xyz
x,y,z
-x,-y,-z
loop_
_atom_site_type_symbol
_atom_site_label
_atom_site_fract_x
_atom_site_fract_y
_atom_site_fract_z
Si Si1 0.652722 0.622206 0.814714
Si Si2 0.756624 0.081784 0.710150
Si Si3 0.718131 0.346982 0.808234
Si Si4 0.305755 0.825108 0.658124
Si Si5 0.542310 0.703998 0.293974
Si Si6 0.760344 0.254211 0.011895
Si Si7 0.310665 0.616917 0.674518
O O1 0.674981 0.455722 0.674368
O O2 0.960584 0.759456 0.748844
O O3 0.537536 0.630356 0.981407
O O4 0.391786 0.639391 0.890560
O O5 0.857865 0.240379 0.720748
O O6 0.714291 0.114021 0.862305
O O7 0.429583 0.985113 0.762558
O O8 0.000000 0.000000 0.500000
O O9 0.571005 0.273179 0.733274
O O10 0.971300 0.503852 0.774501
O O11 0.517492 0.829035 0.467951
O O12 0.345943 0.705518 0.626149
O O13 0.877649 0.691553 0.117627
O O14 0.627639 0.260059 0.184361
O O15 0.500000 0.500000 0.500000
#
# Coordination Sequence:
#
# PCOD9059817 Si02
#       7
#     2   2   2   2   2   2   2
#     4  11  23  42  69 105 135 178 229 293 340 404
#     4  11  25  49  67 101 139 191 223 281 338 422
#     4  11  25  42  71  96 140 179 234 274 355 404
#     4  12  26  43  70  98 148 174 233 281 341 404
#     4  12  22  43  70 106 130 185 228 288 338 412
#     4  11  25  42  74  98 142 182 230 274 355 400
#     4  12  25  43  70 108 133 179 231 297 332 408
#
# _framework density 23.342366999999999
#
# number of rings (size 3 to 8) (size 9 to 14) (size 15 to 20)
#    0.000    0.571    4.286    3.857    6.000    3.429 
#    0.000    0.000    0.000    0.000    0.000    0.000 
#    0.000    0.000    0.000    0.000    0.000    0.000 
#
# Total GULP energy -78271.506119 kJ/mol
# GULP energy per Si atom -5590.821866 kJ/mol
# Density = 2.328924 g / cm^3
# Si number density = 23.342367 Si / 1000 Ang^3
#
#
#
# Elastic Constant Matrix: (Units=GPa)
#
#
# Indices 1 2 3 4 5 6 
#
# 1 115.7790 0.2191 45.2010 5.0280 28.0387 5.6264
# 2 0.2191 38.5560 -8.7694 7.5693 3.6659 9.5144
# 3 45.2010 -8.7694 102.0956 9.0196 19.1911 9.1738
# 4 5.0280 7.5693 9.0196 30.1745 10.2042 2.5035
# 5 28.0387 3.6659 19.1911 10.2042 49.0423 8.1734
# 6 5.6264 9.5144 9.1738 2.5035 8.1734 34.2099
#
#
#
# Elastic Compliance Matrix: (Units=1/GPa)
#
#
# Indices 1 2 3 4 5 6 
#
# 1 0.011518 -0.001009 -0.004393 0.001343 -0.005188 0.000705
# 2 -0.001009 0.030854 0.004692 -0.008099 -0.000382 -0.008989
# 3 -0.004393 0.004692 0.013072 -0.003509 -0.001652 -0.003436
# 4 0.001343 -0.008099 -0.003509 0.038228 -0.007053 0.001860
# 5 -0.005188 -0.000382 -0.001652 -0.007053 0.026223 -0.004347
# 6 0.000705 -0.008989 -0.003436 0.001860 -0.004347 0.033439
#
#
# Mechanical properties :
#
#
# Convention : Reuss Voigt Hill
#
# Bulk Modulus (GPa) = 18.51049 36.63692 27.57370
# Shear Modulus (GPa) = 28.94158 37.33734 33.13946
#
# Velocity S-wave (km/s) = 3.52500 4.00378 3.77200
# Velocity P-wave (km/s) = 4.95124 6.09124 5.55058
#
# Compressibility (1/GPa) = 0.05402342
#
# Stress axis : x y z
#
# Youngs Moduli (GPa) = 86.82254 32.41096 76.50041
#
# Poissons Ratio (x) = 0.03270 0.33606
# Poissons Ratio (y) = 0.08761 -0.35894
# Poissons Ratio (z) = 0.38140 -0.15207
#
# Static dielectric constant tensor:
#      x y z
#    x 1.877830 0.049350 -0.001300 
#    y 0.049350 1.889380 0.008510 
#    z -0.001300 0.008510 1.902520 
# 
# From -- ./inp_files/180619.got.cif
#   From: 2010.05.17/outbox.cif.g08.bks.cpg/sg2_91_cif.got.tgz:180619.got - 2010.06.03 11:33:40.
