data_PCOD9059236
_publ_section_title
;
Structure prediction by ZEFSAII (Michael W. Deem and Ramdas Pophale) SiO2 
 PCOD9059236
Probable space group: P -1
;
_chemical_formula_sum "Si O2"
_cell_formula_units_Z 14
_cell_length_a 24.051237
_cell_length_b 9.549251
_cell_length_c 9.030196
_cell_angle_alpha 132.707705
_cell_angle_beta 40.348776
_cell_angle_gamma 154.839744
_cell_volume 570.379184
_symmetry_space_group_name_H-M "P -1"
_symmetry_group_IT_number 2
_symmetry_cell_setting 'triclinic'
loop_
_space_group_symop_operation_xyz
x,y,z
-x,-y,-z
loop_
_atom_site_type_symbol
_atom_site_label
_atom_site_fract_x
_atom_site_fract_y
_atom_site_fract_z
Si Si1 0.385673 0.527067 0.338794
Si Si2 0.098503 0.491764 0.265764
Si Si3 0.083330 0.297892 0.439108
Si Si4 0.205792 0.860427 0.744396
Si Si5 0.282594 0.758244 0.805417
Si Si6 0.386272 0.183709 0.320395
Si Si7 0.291207 0.360708 0.088449
O O1 0.319901 0.607483 0.585335
O O2 0.379919 0.364949 0.365903
O O3 0.298478 0.313814 0.212941
O O4 0.559623 0.871516 0.190205
O O5 0.032551 0.213184 0.310842
O O6 0.000000 0.500000 0.500000
O O7 0.258718 0.823037 0.249650
O O8 0.143183 0.525070 0.032033
O O9 0.083646 0.512087 0.657720
O O10 0.246663 0.499106 0.262790
O O11 0.000000 0.000000 0.500000
O O12 0.251873 0.816753 0.759311
O O13 0.335809 0.119033 0.545077
O O14 0.180512 0.024870 0.978704
O O15 0.546244 0.381958 0.120032
#
# Coordination Sequence:
#
# PCOD9059236 Si02
#       7
#     2   2   2   2   2   2   2
#     4  11  23  40  73 110 146 187 233 300 355 426
#     4  11  27  48  72 103 144 193 240 295 355 435
#     4  11  29  50  70 104 141 190 242 295 362 423
#     4  11  25  44  71 105 140 188 236 299 350 431
#     4  11  23  43  70 108 147 186 242 289 361 425
#     4  11  24  43  70 110 141 187 243 289 365 415
#     4  12  23  44  77 101 149 186 233 301 357 422
#
# _framework density 24.545074
#
# number of rings (size 3 to 8) (size 9 to 14) (size 15 to 20)
#    0.000    0.857    4.286    1.714    6.000    4.000 
#    2.571    1.429    0.000    0.000    0.000    0.000 
#    0.000    0.000    0.000    0.000    0.000    0.000 
#
# Total GULP energy -78344.688080 kJ/mol
# GULP energy per Si atom -5596.049149 kJ/mol
# Density = 2.448921 g / cm^3
# Si number density = 24.545074 Si / 1000 Ang^3
#
#
#
# Elastic Constant Matrix: (Units=GPa)
#
#
# Indices 1 2 3 4 5 6 
#
# 1 112.2253 19.8407 57.7554 -19.5443 20.4829 -27.3498
# 2 19.8407 82.4035 35.7540 -3.2324 14.7483 -20.9806
# 3 57.7554 35.7540 138.2003 -22.3660 22.3220 -21.7221
# 4 -19.5443 -3.2324 -22.3660 43.5260 -6.9293 15.6798
# 5 20.4829 14.7483 22.3220 -6.9293 44.6423 -4.3358
# 6 -27.3498 -20.9806 -21.7221 15.6798 -4.3358 33.1500
#
#
#
# Elastic Compliance Matrix: (Units=1/GPa)
#
#
# Indices 1 2 3 4 5 6 
#
# 1 0.013633 0.001395 -0.003993 0.000386 -0.003801 0.008834
# 2 0.001395 0.016574 -0.003173 -0.004437 -0.004138 0.011119
# 3 -0.003993 -0.003173 0.010517 0.003121 -0.001907 -0.000137
# 4 0.000386 -0.004437 0.003121 0.030038 0.003006 -0.014260
# 5 -0.003801 -0.004138 -0.001907 0.003006 0.026449 -0.004967
# 6 0.008834 0.011119 -0.000137 -0.014260 -0.004967 0.050497
#
#
# Mechanical properties :
#
#
# Convention : Reuss Voigt Hill
#
# Bulk Modulus (GPa) = 34.26847 62.16995 48.21921
# Shear Modulus (GPa) = 29.58973 38.89559 34.24266
#
# Velocity S-wave (km/s) = 3.47584 3.98510 3.73915
# Velocity P-wave (km/s) = 5.48638 6.82338 6.19108
#
# Compressibility (1/GPa) = 0.02918135
#
# Stress axis : x y z
#
# Youngs Moduli (GPa) = 73.35108 60.33655 95.08175
#
# Poissons Ratio (x) = -0.08417 0.37969
# Poissons Ratio (y) = -0.10232 0.30169
# Poissons Ratio (z) = 0.29292 0.19144
#
# Static dielectric constant tensor:
#      x y z
#    x 1.933550 0.025240 0.051520 
#    y 0.025240 2.040120 -0.046580 
#    z 0.051520 -0.046580 1.986620 
# 
# From -- ./inp_files/306816.got.cif
#   From: 2010.05.17/outbox.cif.g08.bks.cpg/sg2_154_cif.got.tgz:306816.got - 2010.06.03 11:33:40.
