data_PCOD9059597
_publ_section_title
;
Structure prediction by ZEFSAII (Michael W. Deem and Ramdas Pophale) SiO2 
 PCOD9059597
Probable space group: P -1
;
_chemical_formula_sum "Si O2"
_cell_formula_units_Z 14
_cell_length_a 11.847923
_cell_length_b 8.986450
_cell_length_c 14.433966
_cell_angle_alpha 104.408921
_cell_angle_beta 128.129405
_cell_angle_gamma 118.805866
_cell_volume 645.835837
_symmetry_space_group_name_H-M "P -1"
_symmetry_group_IT_number 2
_symmetry_cell_setting 'triclinic'
loop_
_space_group_symop_operation_xyz
x,y,z
-x,-y,-z
loop_
_atom_site_type_symbol
_atom_site_label
_atom_site_fract_x
_atom_site_fract_y
_atom_site_fract_z
Si Si1 0.795008 0.297954 0.109436
Si Si2 0.404152 0.196273 0.810107
Si Si3 0.911572 0.274274 0.978371
Si Si4 0.246858 0.296590 0.071460
Si Si5 0.885371 0.069660 0.197378
Si Si6 0.579254 0.362645 0.346116
Si Si7 0.944659 0.591085 0.415035
O O1 0.717739 0.072824 0.088859
O O2 0.919260 0.510957 0.285822
O O3 0.590569 0.223028 0.941441
O O4 0.967948 0.376926 0.128125
O O5 0.561943 0.454049 0.867420
O O6 0.260915 0.133541 0.819331
O O7 0.175873 0.917535 0.591170
O O8 0.608108 0.947458 0.770793
O O9 0.000000 0.500000 0.000000
O O10 0.067773 0.268438 0.018493
O O11 0.400760 0.352246 0.241334
O O12 0.103131 0.035629 0.898865
O O13 0.169975 0.382284 0.423417
O O14 0.691855 0.437865 0.311046
O O15 0.000000 0.500000 0.500000
#
# Coordination Sequence:
#
# PCOD9059597 Si02
#       7
#     2   2   2   2   2   2   2
#     4  12  23  42  74 100 135 180 230 279 341 398
#     4  11  24  43  71 107 139 172 231 283 344 405
#     4  12  27  48  70  97 136 188 236 278 330 409
#     4  12  26  46  67  98 146 182 221 283 339 411
#     4  11  25  41  73 105 130 182 222 281 357 397
#     4  11  25  46  71 100 143 173 228 285 343 404
#     4  11  23  41  74 109 132 175 226 287 344 401
#
# _framework density 21.677334999999999
#
# number of rings (size 3 to 8) (size 9 to 14) (size 15 to 20)
#    0.000    0.571    5.714    3.000    0.000    4.000 
#    0.000    1.429    0.000    0.000    0.000    0.000 
#    0.000    0.000    0.000    0.000    0.000    0.000 
#
# Total GULP energy -78234.986399 kJ/mol
# GULP energy per Si atom -5588.213314 kJ/mol
# Density = 2.162800 g / cm^3
# Si number density = 21.677335 Si / 1000 Ang^3
#
#
#
# Elastic Constant Matrix: (Units=GPa)
#
#
# Indices 1 2 3 4 5 6 
#
# 1 115.3988 14.1908 37.7435 7.7026 -5.4873 -10.5699
# 2 14.1908 119.6475 39.9499 18.9735 6.2985 4.3265
# 3 37.7435 39.9499 118.6419 15.9530 -11.0788 -8.5040
# 4 7.7026 18.9735 15.9530 21.3741 -5.0895 2.5382
# 5 -5.4873 6.2985 -11.0788 -5.0895 24.2525 -4.7524
# 6 -10.5699 4.3265 -8.5040 2.5382 -4.7524 34.1325
#
#
#
# Elastic Compliance Matrix: (Units=1/GPa)
#
#
# Indices 1 2 3 4 5 6 
#
# 1 0.009951 -0.000276 -0.002549 -0.001435 0.001403 0.002783
# 2 -0.000276 0.011386 -0.003404 -0.008802 -0.006949 -0.002690
# 3 -0.002549 -0.003404 0.011685 -0.003892 0.005537 0.003614
# 4 -0.001435 -0.008802 -0.003892 0.061356 0.012447 -0.003128
# 5 0.001403 -0.006949 0.005537 0.012447 0.050213 0.008760
# 6 0.002783 -0.002690 0.003614 -0.003128 0.008760 0.032853
#
#
# Mechanical properties :
#
#
# Convention : Reuss Voigt Hill
#
# Bulk Modulus (GPa) = 48.63067 59.71742 54.17405
# Shear Modulus (GPa) = 25.41188 33.40542 29.40865
#
# Velocity S-wave (km/s) = 3.42757 3.92985 3.68727
# Velocity P-wave (km/s) = 6.17632 6.94261 6.57064
#
# Compressibility (1/GPa) = 0.02056315
#
# Stress axis : x y z
#
# Youngs Moduli (GPa) = 100.49500 87.82515 85.57680
#
# Poissons Ratio (x) = 0.02424 0.21816
# Poissons Ratio (y) = 0.02774 0.29133
# Poissons Ratio (z) = 0.25619 0.29899
#
# Static dielectric constant tensor:
#      x y z
#    x 1.844110 0.017890 0.045560 
#    y 0.017890 1.812720 -0.004250 
#    z 0.045560 -0.004250 1.811690 
# 
# From -- ./inp_files/514464.got.cif
#   From: 2010.05.17/outbox.cif.g08.bks.cpg/sg2_258_cif.got.tgz:514464.got - 2010.06.03 11:33:40.
