data_PCOD9059227
_publ_section_title
;
Structure prediction by ZEFSAII (Michael W. Deem and Ramdas Pophale) SiO2 
 PCOD9059227
Probable space group: P -1
;
_chemical_formula_sum "Si O2"
_cell_formula_units_Z 16
_cell_length_a 8.365759
_cell_length_b 13.560776
_cell_length_c 11.278059
_cell_angle_alpha 59.956972
_cell_angle_beta 74.212315
_cell_angle_gamma 123.768671
_cell_volume 593.174691
_symmetry_space_group_name_H-M "P -1"
_symmetry_group_IT_number 2
_symmetry_cell_setting 'triclinic'
loop_
_space_group_symop_operation_xyz
x,y,z
-x,-y,-z
loop_
_atom_site_type_symbol
_atom_site_label
_atom_site_fract_x
_atom_site_fract_y
_atom_site_fract_z
Si Si1 0.725133 0.411949 0.383602
Si Si2 0.465913 0.317112 0.995881
Si Si3 0.955148 0.841516 0.635131
Si Si4 0.223483 0.814932 0.927228
Si Si5 0.245462 0.952387 0.189898
Si Si6 0.126762 0.706639 0.741495
Si Si7 0.635841 0.572378 0.626581
Si Si8 0.737165 0.938056 0.127272
O O1 0.696996 0.291342 0.367432
O O2 0.574282 0.444857 0.356622
O O3 0.548369 0.277223 0.618556
O O4 0.070119 0.646564 0.159850
O O5 0.515667 0.384181 0.809749
O O6 0.780295 0.489684 0.899423
O O7 0.252514 0.278684 0.134929
O O8 0.285622 0.097172 0.158193
O O9 0.780022 0.697020 0.644494
O O10 0.196282 0.878354 0.587322
O O11 0.000000 0.000000 0.500000
O O12 0.567030 0.016859 0.776406
O O13 0.155378 0.722155 0.868908
O O14 0.124971 0.889638 0.913499
O O15 0.347269 0.036095 0.986558
O O16 0.905730 0.717650 0.393037
O O17 0.000000 0.000000 0.000000
#
# Coordination Sequence:
#
# PCOD9059227 Si02
#       8
#     2   2   2   2   2   2   2   2
#     4  12  27  49  81 116 152 204 250 329 392 451
#     4  11  24  47  75 113 159 199 251 318 383 475
#     4  11  23  40  72 111 157 200 242 305 391 462
#     4  12  29  50  83 111 160 197 254 329 388 458
#     4  12  27  51  76 110 152 204 261 316 376 454
#     4  11  26  49  76 123 154 191 254 319 399 464
#     4  11  25  43  75 108 153 203 254 303 394 449
#     4  12  31  53  75 113 155 207 273 311 372 463
#
# _framework density 26.973503999999998
#
# number of rings (size 3 to 8) (size 9 to 14) (size 15 to 20)
#    0.000    0.500    3.750    3.750   10.500    2.500 
#    0.000    0.000    0.000    0.000    0.000    0.000 
#    0.000    0.000    0.000    0.000    0.000    0.000 
#
# Total GULP energy -89532.448075 kJ/mol
# GULP energy per Si atom -5595.778005 kJ/mol
# Density = 2.691211 g / cm^3
# Si number density = 26.973504 Si / 1000 Ang^3
#
#
#
# Elastic Constant Matrix: (Units=GPa)
#
#
# Indices 1 2 3 4 5 6 
#
# 1 132.6041 25.1261 47.7879 5.1680 9.3005 -2.8318
# 2 25.1261 93.9933 30.5782 18.2319 -7.8217 -2.4649
# 3 47.7879 30.5782 156.7561 21.6118 9.7438 -8.5780
# 4 5.1680 18.2319 21.6118 49.5849 -4.7833 6.8847
# 5 9.3005 -7.8217 9.7438 -4.7833 41.0603 0.8478
# 6 -2.8318 -2.4649 -8.5780 6.8847 0.8478 52.6063
#
#
#
# Elastic Compliance Matrix: (Units=1/GPa)
#
#
# Indices 1 2 3 4 5 6 
#
# 1 0.008823 -0.001874 -0.002303 0.000611 -0.001737 -0.000040
# 2 -0.001874 0.012578 -0.001521 -0.003594 0.002749 0.000666
# 3 -0.002303 -0.001521 0.008020 -0.003111 -0.002066 0.001553
# 4 0.000611 -0.003594 -0.003111 0.023569 0.002739 -0.003772
# 5 -0.001737 0.002749 -0.002066 0.002739 0.026103 -0.001081
# 6 -0.000040 0.000666 0.001553 -0.003772 -0.001081 0.019802
#
#
# Mechanical properties :
#
#
# Convention : Reuss Voigt Hill
#
# Bulk Modulus (GPa) = 55.47410 65.59308 60.53359
# Shear Modulus (GPa) = 42.99186 47.30771 45.14978
#
# Velocity S-wave (km/s) = 3.99664 4.19245 4.09572
# Velocity P-wave (km/s) = 6.47366 6.91418 6.69755
#
# Compressibility (1/GPa) = 0.01802643
#
# Stress axis : x y z
#
# Youngs Moduli (GPa) = 113.33629 79.50284 124.68062
#
# Poissons Ratio (x) = 0.14895 0.28712
# Poissons Ratio (y) = 0.21234 0.18968
# Poissons Ratio (z) = 0.26099 0.12095
#
# Static dielectric constant tensor:
#      x y z
#    x 2.191480 -0.067920 -0.002870 
#    y -0.067920 2.085130 -0.028650 
#    z -0.002870 -0.028650 2.254940 
# 
# From -- ./inp_files/398776.got.cif
#   From: 2010.05.17/outbox.cif.g08.bks.cpg/sg2_200_cif.got.tgz:398776.got - 2010.06.03 11:33:40.
