data_PCOD9059893
_publ_section_title
;
Structure prediction by ZEFSAII (Michael W. Deem and Ramdas Pophale) SiO2 
 PCOD9059893
Probable space group: P -1
;
_chemical_formula_sum "Si O2"
_cell_formula_units_Z 16
_cell_length_a 9.781328
_cell_length_b 12.368316
_cell_length_c 18.978200
_cell_angle_alpha 141.907933
_cell_angle_beta 48.302869
_cell_angle_gamma 101.641931
_cell_volume 756.911277
_symmetry_space_group_name_H-M "P -1"
_symmetry_group_IT_number 2
_symmetry_cell_setting 'triclinic'
loop_
_space_group_symop_operation_xyz
x,y,z
-x,-y,-z
loop_
_atom_site_type_symbol
_atom_site_label
_atom_site_fract_x
_atom_site_fract_y
_atom_site_fract_z
Si Si1 0.278652 0.521160 0.111819
Si Si2 0.251055 0.156959 0.901704
Si Si3 0.243817 0.560731 0.303845
Si Si4 0.504514 0.176734 0.132667
Si Si5 0.992808 0.193280 0.139105
Si Si6 0.769388 0.010073 0.473174
Si Si7 0.787538 0.791420 0.211392
Si Si8 0.743956 0.652433 0.544660
O O1 0.327031 0.448508 0.139718
O O2 0.500000 0.500000 0.000000
O O3 0.299109 0.329519 0.963387
O O4 0.997488 0.788799 0.331817
O O5 0.177074 0.139330 0.841015
O O6 0.500145 0.898813 0.715624
O O7 0.043541 0.282256 0.099339
O O8 0.441935 0.370624 0.198433
O O9 0.220826 0.785943 0.425313
O O10 0.985457 0.621097 0.436793
O O11 0.313883 0.319795 0.338068
O O12 0.500000 0.000000 0.000000
O O13 0.777681 0.986017 0.977255
O O14 0.788111 0.434506 0.380328
O O15 0.000000 0.000000 0.000000
O O16 0.495016 0.109073 0.638311
O O17 0.815362 0.907011 0.325685
O O18 0.000000 0.500000 0.000000
#
# Coordination Sequence:
#
# PCOD9059893 Si02
#       8
#     2   2   2   2   2   2   2   2
#     4  12  23  44  68 101 144 177 234 290 347 428
#     4  11  23  42  70  95 132 188 222 282 359 414
#     4  12  23  41  70 100 132 181 226 290 357 414
#     4  11  24  45  68 104 138 179 233 291 357 421
#     4  11  26  45  68 101 138 182 235 289 350 431
#     4  11  26  42  67 101 135 183 235 282 357 428
#     4  11  24  45  65  94 142 182 231 289 341 425
#     4  11  23  45  71  98 143 176 232 295 354 424
#
# _framework density 21.138542000000001
#
# number of rings (size 3 to 8) (size 9 to 14) (size 15 to 20)
#    0.000    0.750    3.750    3.750    0.000    5.000 
#    0.000    0.000    0.000    0.000    0.000    0.000 
#    0.000    0.000    0.000    0.000    0.000    0.000 
#
# Total GULP energy -89372.200716 kJ/mol
# GULP energy per Si atom -5585.762545 kJ/mol
# Density = 2.109043 g / cm^3
# Si number density = 21.138542 Si / 1000 Ang^3
#
#
#
# Elastic Constant Matrix: (Units=GPa)
#
#
# Indices 1 2 3 4 5 6 
#
# 1 89.5451 15.5219 16.1707 1.4037 21.8006 -13.2611
# 2 15.5219 70.0016 11.0489 -1.8312 5.5893 -29.1274
# 3 16.1707 11.0489 79.5925 -2.2565 16.6488 -8.1348
# 4 1.4037 -1.8312 -2.2565 24.1168 -2.7083 12.2343
# 5 21.8006 5.5893 16.6488 -2.7083 46.7989 6.5909
# 6 -13.2611 -29.1274 -8.1348 12.2343 6.5909 53.8015
#
#
#
# Elastic Compliance Matrix: (Units=1/GPa)
#
#
# Indices 1 2 3 4 5 6 
#
# 1 0.013906 -0.000473 -0.000915 -0.004176 -0.007020 0.004843
# 2 -0.000473 0.019707 -0.000742 -0.005105 -0.003866 0.012075
# 3 -0.000915 -0.000742 0.014072 -0.000325 -0.004815 0.002165
# 4 -0.004176 -0.005105 -0.000325 0.050432 0.007882 -0.016276
# 5 -0.007020 -0.003866 -0.004815 0.007882 0.028657 -0.009854
# 6 0.004843 0.012075 0.002165 -0.016276 -0.009854 0.031553
#
#
# Mechanical properties :
#
#
# Convention : Reuss Voigt Hill
#
# Bulk Modulus (GPa) = 23.02725 36.06911 29.54818
# Shear Modulus (GPa) = 28.23898 38.03663 33.13781
#
# Velocity S-wave (km/s) = 3.65896 4.24653 3.96365
# Velocity P-wave (km/s) = 5.36356 6.41438 5.91236
#
# Compressibility (1/GPa) = 0.04342681
#
# Stress axis : x y z
#
# Youngs Moduli (GPa) = 71.90890 50.74454 71.06313
#
# Poissons Ratio (x) = 0.02399 0.06500
# Poissons Ratio (y) = 0.03399 0.05270
# Poissons Ratio (z) = 0.06578 0.03763
#
# Static dielectric constant tensor:
#      x y z
#    x 1.543330 -0.081870 -0.108470 
#    y -0.081870 1.714080 -0.082080 
#    z -0.108470 -0.082080 1.723770 
# 
# From -- ./inp_files/78357.got.cif
#   From: 2010.05.17/outbox.cif.g08.bks.cpg/sg2_40_cif.got.tgz:78357.got - 2010.06.03 11:33:40.
