data_PCOD9059163
_publ_section_title
;
Structure prediction by ZEFSAII (Michael W. Deem and Ramdas Pophale) SiO2 
 PCOD9059163
Probable space group: P -1
;
_chemical_formula_sum "Si O2"
_cell_formula_units_Z 14
_cell_length_a 6.152163
_cell_length_b 17.924390
_cell_length_c 8.608090
_cell_angle_alpha 61.137801
_cell_angle_beta 61.707138
_cell_angle_gamma 47.551078
_cell_volume 597.078602
_symmetry_space_group_name_H-M "P -1"
_symmetry_group_IT_number 2
_symmetry_cell_setting 'triclinic'
loop_
_space_group_symop_operation_xyz
x,y,z
-x,-y,-z
loop_
_atom_site_type_symbol
_atom_site_label
_atom_site_fract_x
_atom_site_fract_y
_atom_site_fract_z
Si Si1 0.268246 0.321360 0.908081
Si Si2 0.839313 0.483888 0.418831
Si Si3 0.143679 0.163069 0.047408
Si Si4 0.805667 0.197818 0.624766
Si Si5 0.235366 0.026653 0.857936
Si Si6 0.157402 0.279921 0.330603
Si Si7 0.745171 0.120556 0.427816
O O1 0.172429 0.434618 0.778318
O O2 0.606290 0.247347 0.796570
O O3 0.100070 0.272844 0.937297
O O4 0.224397 0.311883 0.113481
O O5 0.500000 0.500000 0.500000
O O6 0.000000 0.500000 0.500000
O O7 0.079416 0.366086 0.398522
O O8 0.887741 0.166897 0.228000
O O9 0.440968 0.081577 0.130597
O O10 0.205122 0.104508 0.922630
O O11 0.644099 0.171430 0.580908
O O12 0.114613 0.089676 0.676978
O O13 0.873669 0.272647 0.441435
O O14 0.000000 0.000000 0.000000
O O15 0.442283 0.164366 0.393292
O O16 0.000000 0.000000 0.500000
#
# Coordination Sequence:
#
# PCOD9059163 Si02
#       7
#     2   2   2   2   2   2   2
#     4  12  26  50  77 114 154 206 263 333 402 486
#     4  12  29  55  90 121 158 212 269 340 416 486
#     4  11  25  42  68 109 149 201 266 312 398 467
#     4  12  25  44  73 104 156 198 260 313 398 460
#     4  11  23  40  69 104 151 205 255 319 384 472
#     4  12  28  51  75 114 157 204 265 329 403 485
#     4  12  27  44  72 113 157 208 267 324 394 482
#
# _framework density 23.447500999999999
#
# number of rings (size 3 to 8) (size 9 to 14) (size 15 to 20)
#    0.000    0.286    4.286    3.857    8.000    2.286 
#    0.000    2.143    0.000    0.000    0.000    0.000 
#    0.000    0.000    0.000    0.000    0.000    0.000 
#
# Total GULP energy -78136.349135 kJ/mol
# GULP energy per Si atom -5581.167795 kJ/mol
# Density = 2.339413 g / cm^3
# Si number density = 23.447501 Si / 1000 Ang^3
#
#
#
# Elastic Constant Matrix: (Units=GPa)
#
#
# Indices 1 2 3 4 5 6 
#
# 1 96.0491 19.0377 51.4846 3.3744 -5.8747 10.5159
# 2 19.0377 78.8585 22.7357 -6.2339 -1.2292 13.9699
# 3 51.4846 22.7357 147.1265 -11.8400 -19.3107 4.3476
# 4 3.3744 -6.2339 -11.8400 44.6021 5.4680 -0.2395
# 5 -5.8747 -1.2292 -19.3107 5.4680 52.9327 2.3279
# 6 10.5159 13.9699 4.3476 -0.2395 2.3279 37.0997
#
#
#
# Elastic Compliance Matrix: (Units=1/GPa)
#
#
# Indices 1 2 3 4 5 6 
#
# 1 0.013607 -0.001674 -0.004603 -0.002521 0.000172 -0.002714
# 2 -0.001674 0.014474 -0.001410 0.001791 -0.000339 -0.004778
# 3 -0.004603 -0.001410 0.009121 0.002266 0.002522 0.000623
# 4 -0.002521 0.001791 0.002266 0.023691 -0.001861 0.000044
# 5 0.000172 -0.000339 0.002522 -0.001861 0.020081 -0.001489
# 6 -0.002714 -0.004778 0.000623 0.000044 -0.001489 0.029543
#
#
# Mechanical properties :
#
#
# Convention : Reuss Voigt Hill
#
# Bulk Modulus (GPa) = 45.81287 56.50557 51.15922
# Shear Modulus (GPa) = 37.54695 42.17864 39.86280
#
# Velocity S-wave (km/s) = 4.00599 4.24589 4.12768
# Velocity P-wave (km/s) = 6.40142 6.94175 6.67705
#
# Compressibility (1/GPa) = 0.02182793
#
# Stress axis : x y z
#
# Youngs Moduli (GPa) = 73.49394 69.08822 109.64281
#
# Poissons Ratio (x) = 0.11562 0.50467
# Poissons Ratio (y) = 0.12300 0.15463
# Poissons Ratio (z) = 0.33828 0.09743
#
# Static dielectric constant tensor:
#      x y z
#    x 2.067930 0.005680 -0.037630 
#    y 0.005680 1.908400 0.009630 
#    z -0.037630 0.009630 1.876710 
# 
# From -- ./inp_files/99505.got.cif
#   From: 2010.05.17/outbox.cif.g08.bks.cpg/sg2_50_cif.got.tgz:99505.got - 2010.06.03 11:33:40.
