data_PCOD9059061
_publ_section_title
;
Structure prediction by ZEFSAII (Michael W. Deem and Ramdas Pophale) SiO2 
 PCOD9059061
Probable space group: P -1
;
_chemical_formula_sum "Si O2"
_cell_formula_units_Z 12
_cell_length_a 5.416212
_cell_length_b 18.485010
_cell_length_c 8.611258
_cell_angle_alpha 140.329487
_cell_angle_beta 89.041134
_cell_angle_gamma 111.144132
_cell_volume 461.402970
_symmetry_space_group_name_H-M "P -1"
_symmetry_group_IT_number 2
_symmetry_cell_setting 'triclinic'
loop_
_space_group_symop_operation_xyz
x,y,z
-x,-y,-z
loop_
_atom_site_type_symbol
_atom_site_label
_atom_site_fract_x
_atom_site_fract_y
_atom_site_fract_z
Si Si1 0.645187 0.075925 0.358302
Si Si2 0.732111 0.733013 0.372442
Si Si3 0.483881 0.202476 0.793890
Si Si4 0.523107 0.829065 0.778752
Si Si5 0.446615 0.409355 0.571767
Si Si6 0.104878 0.297393 0.087532
O O1 0.423681 0.070583 0.480902
O O2 0.641676 0.137785 0.293710
O O3 0.969856 0.190462 0.600509
O O4 0.599550 0.933523 0.087161
O O5 0.480342 0.707034 0.211144
O O6 0.778979 0.843900 0.686144
O O7 0.666417 0.612819 0.287155
O O8 0.232894 0.203082 0.895406
O O9 0.779047 0.255284 0.975117
O O10 0.395842 0.675443 0.575514
O O11 0.177789 0.334849 0.330705
O O12 0.668603 0.561442 0.769993
#
# Coordination Sequence:
#
# PCOD9059061 Si02
#       6
#     2   2   2   2   2   2
#     4  10  17  37  64  95 123 152 201 262 303 351
#     4   9  19  38  63  92 115 158 207 245 302 350
#     4  11  23  39  65  89 126 159 196 259 310 344
#     4   8  19  35  61  95 117 160 204 251 295 365
#     4   9  23  41  62  88 119 170 205 243 299 367
#     4  11  24  44  60  88 130 161 202 248 302 365
#
# _framework density 26.007635000000001
#
# number of rings (size 3 to 8) (size 9 to 14) (size 15 to 20)
#    1.000    1.333    1.667    0.500    0.000    6.667 
#    0.000    1.667    0.000    0.000    0.000    0.000 
#    0.000    0.000    0.000    0.000    0.000    0.000 
#
# Total GULP energy -66872.927287 kJ/mol
# GULP energy per Si atom -5572.743941 kJ/mol
# Density = 2.594844 g / cm^3
# Si number density = 26.007635 Si / 1000 Ang^3
#
#
#
# Elastic Constant Matrix: (Units=GPa)
#
#
# Indices 1 2 3 4 5 6 
#
# 1 143.3357 48.8190 57.3709 -2.4243 7.3811 -6.5749
# 2 48.8190 98.3505 41.4589 -0.3827 7.9585 -21.0647
# 3 57.3709 41.4589 116.0143 -3.1901 -5.4989 -3.3905
# 4 -2.4243 -0.3827 -3.1901 4.3321 -16.4887 -11.4987
# 5 7.3811 7.9585 -5.4989 -16.4887 42.0578 -10.3772
# 6 -6.5749 -21.0647 -3.3905 -11.4987 -10.3772 36.6215
#
#
#
# Elastic Compliance Matrix: (Units=1/GPa)
#
#
# Indices 1 2 3 4 5 6 
#
# 1 0.009527 -0.003111 -0.003508 0.003113 -0.000194 0.000518
# 2 -0.003111 0.014629 -0.003895 -0.005741 -0.003847 0.004602
# 3 -0.003508 -0.003895 0.011440 -0.006128 -0.000512 -0.003880
# 4 0.003113 -0.005741 -0.006128 -0.100016 -0.051649 -0.049350
# 5 -0.000194 -0.003847 -0.000512 -0.051649 -0.000370 -0.018617
# 6 0.000518 0.004602 -0.003880 -0.049350 -0.018617 0.008917
#
#
# Mechanical properties :
#
#
# Convention : Reuss Voigt Hill
#
# Bulk Modulus (GPa) = 68.64529 72.55533 70.60031
# Shear Modulus (GPa) = -166.71866 30.60573 -68.05646
#
# Velocity S-wave (km/s) = -8.01517 3.43417 -5.12100
# Velocity P-wave (km/s) = 7.69452 6.60931 2.78592
#
# Compressibility (1/GPa) = 0.01456764
#
# Stress axis : x y z
#
# Youngs Moduli (GPa) = 104.96816 68.35909 87.41343
#
# Poissons Ratio (x) = 0.21269 0.30661
# Poissons Ratio (y) = 0.32660 0.34045
# Poissons Ratio (z) = 0.36819 0.26624
#
# Static dielectric constant tensor:
#      x y z
#    x 2.054380 -0.006430 -0.031480 
#    y -0.006430 2.077710 -0.033890 
#    z -0.031480 -0.033890 2.121270 
# 
# From -- ./inp_files/133605.got.cif
#   From: 2010.05.17/outbox.cif.g08.bks.cpg/sg2_67_cif.got.tgz:133605.got - 2010.06.03 11:33:40.
