data_PCOD9059018
_publ_section_title
;
Structure prediction by ZEFSAII (Michael W. Deem and Ramdas Pophale) SiO2 
 PCOD9059018
Probable space group: P -1
;
_chemical_formula_sum "Si O2"
_cell_formula_units_Z 16
_cell_length_a 9.227479
_cell_length_b 15.069685
_cell_length_c 9.572719
_cell_angle_alpha 124.625970
_cell_angle_beta 135.952957
_cell_angle_gamma 81.790028
_cell_volume 674.497623
_symmetry_space_group_name_H-M "P -1"
_symmetry_group_IT_number 2
_symmetry_cell_setting 'triclinic'
loop_
_space_group_symop_operation_xyz
x,y,z
-x,-y,-z
loop_
_atom_site_type_symbol
_atom_site_label
_atom_site_fract_x
_atom_site_fract_y
_atom_site_fract_z
Si Si1 0.664452 0.115764 0.121238
Si Si2 0.417576 0.666564 0.100249
Si Si3 0.513191 0.216705 0.475271
Si Si4 0.380180 0.993476 0.560378
Si Si5 0.884532 0.365373 0.670669
Si Si6 0.941671 0.984709 0.110347
Si Si7 0.596107 0.547947 0.915570
Si Si8 0.081579 0.449117 0.375156
O O1 0.763438 0.242725 0.382863
O O2 0.877573 0.089839 0.202322
O O3 0.500000 0.000000 0.000000
O O4 0.524395 0.101121 0.866082
O O5 0.561387 0.763766 0.404546
O O6 0.365172 0.536418 0.017256
O O7 0.549993 0.656659 0.045946
O O8 0.169055 0.671723 0.924241
O O9 0.628990 0.126688 0.485511
O O10 0.709839 0.340480 0.657157
O O11 0.288364 0.146872 0.160203
O O12 0.134175 0.985115 0.346055
O O13 0.500000 0.000000 0.500000
O O14 0.886662 0.469388 0.665618
O O15 0.146423 0.391764 0.922773
O O16 0.000000 0.000000 0.000000
O O17 0.338882 0.460065 0.590913
O O18 0.000000 0.500000 0.500000
#
# Coordination Sequence:
#
# PCOD9059018 Si02
#       8
#     2   2   2   2   2   2   2   2
#     4  11  23  44  63  95 135 168 212 271 319 375
#     4   9  20  39  63  87 121 160 202 266 310 376
#     4  11  24  41  60  93 129 163 215 261 324 375
#     4  11  23  41  64  90 126 170 219 260 313 382
#     4  11  23  40  61  92 129 164 204 267 316 374
#     4  11  23  43  64  92 132 171 215 267 318 378
#     4   9  20  38  63  90 119 157 211 254 320 378
#     4   9  20  40  60  91 123 155 211 258 309 383
#
# _framework density 23.721357000000001
#
# number of rings (size 3 to 8) (size 9 to 14) (size 15 to 20)
#    0.000    1.750    5.000    0.750    1.750    7.500 
#    0.000    1.250    0.000    0.000    0.000    0.000 
#    0.000    0.000    0.000    0.000    0.000    0.000 
#
# Total GULP energy -89299.000589 kJ/mol
# GULP energy per Si atom -5581.187537 kJ/mol
# Density = 2.366737 g / cm^3
# Si number density = 23.721357 Si / 1000 Ang^3
#
#
#
# Elastic Constant Matrix: (Units=GPa)
#
#
# Indices 1 2 3 4 5 6 
#
# 1 77.8822 11.2729 36.6739 -8.6187 14.0869 3.6730
# 2 11.2729 45.5027 21.3202 -11.0505 12.7589 7.3702
# 3 36.6739 21.3202 158.9152 -24.3600 18.4323 -19.9981
# 4 -8.6187 -11.0505 -24.3600 39.5745 -18.3148 5.5480
# 5 14.0869 12.7589 18.4323 -18.3148 54.7666 1.2757
# 6 3.6730 7.3702 -19.9981 5.5480 1.2757 33.0165
#
#
#
# Elastic Compliance Matrix: (Units=1/GPa)
#
#
# Indices 1 2 3 4 5 6 
#
# 1 0.015259 -0.000787 -0.003549 0.000342 -0.002348 -0.003638
# 2 -0.000787 0.027338 -0.003454 0.005155 -0.003074 -0.008854
# 3 -0.003549 -0.003454 0.008797 0.002584 -0.000521 0.006080
# 4 0.000342 0.005155 0.002584 0.033385 0.009136 -0.005586
# 5 -0.002348 -0.003074 -0.000521 0.009136 0.022851 -0.001786
# 6 -0.003638 -0.008854 0.006080 -0.005586 -0.001786 0.037359
#
#
# Mechanical properties :
#
#
# Convention : Reuss Voigt Hill
#
# Bulk Modulus (GPa) = 27.92108 46.75935 37.34022
# Shear Modulus (GPa) = 28.98458 39.67374 34.32916
#
# Velocity S-wave (km/s) = 3.49933 4.09405 3.80831
# Velocity P-wave (km/s) = 5.30312 6.48868 5.92562
#
# Compressibility (1/GPa) = 0.03581523
#
# Stress axis : x y z
#
# Youngs Moduli (GPa) = 65.53471 36.57931 113.68012
#
# Poissons Ratio (x) = 0.02877 0.40344
# Poissons Ratio (y) = 0.05155 0.39261
# Poissons Ratio (z) = 0.23258 0.12633
#
# Static dielectric constant tensor:
#      x y z
#    x 1.956810 0.024630 0.011480 
#    y 0.024630 1.910210 -0.001320 
#    z 0.011480 -0.001320 1.982980 
# 
# From -- ./inp_files/202273.got.cif
#   From: 2010.05.17/outbox.cif.g08.bks.cpg/sg2_102_cif.got.tgz:202273.got - 2010.06.03 11:33:40.
