data_PCOD9059631
_publ_section_title
;
Structure prediction by ZEFSAII (Michael W. Deem and Ramdas Pophale) SiO2 
 PCOD9059631
Probable space group: P -1
;
_chemical_formula_sum "Si O2"
_cell_formula_units_Z 16
_cell_length_a 5.506831
_cell_length_b 14.586333
_cell_length_c 8.174633
_cell_angle_alpha 87.328692
_cell_angle_beta 83.409670
_cell_angle_gamma 71.386819
_cell_volume 618.131786
_symmetry_space_group_name_H-M "P -1"
_symmetry_group_IT_number 2
_symmetry_cell_setting 'triclinic'
loop_
_space_group_symop_operation_xyz
x,y,z
-x,-y,-z
loop_
_atom_site_type_symbol
_atom_site_label
_atom_site_fract_x
_atom_site_fract_y
_atom_site_fract_z
Si Si1 0.886819 0.000519 0.833072
Si Si2 0.653026 0.059265 0.388891
Si Si3 0.533979 0.200770 0.882089
Si Si4 0.825805 0.803033 0.722487
Si Si5 0.928378 0.285281 0.984881
Si Si6 0.355201 0.422351 0.479639
Si Si7 0.046721 0.530082 0.186936
Si Si8 0.235516 0.770326 0.463797
O O1 0.620456 0.085421 0.856174
O O2 0.892437 0.894971 0.786640
O O3 0.106770 0.018842 0.703520
O O4 0.000000 0.000000 0.000000
O O5 0.475304 0.140637 0.274570
O O6 0.742892 0.126859 0.497220
O O7 0.500000 0.000000 0.500000
O O8 0.224743 0.234051 0.900910
O O9 0.666024 0.242622 0.724191
O O10 0.702721 0.234813 0.004942
O O11 0.949264 0.774627 0.536684
O O12 0.975688 0.714179 0.833759
O O13 0.838419 0.384765 0.882030
O O14 0.500000 0.500000 0.500000
O O15 0.183574 0.426631 0.660474
O O16 0.560492 0.317315 0.452499
O O17 0.224110 0.450873 0.306955
O O18 0.000000 0.500000 0.000000
#
# Coordination Sequence:
#
# PCOD9059631 Si02
#       8
#     2   2   2   2   2   2   2   2
#     4  11  23  42  64 103 142 195 244 306 365 441
#     4  11  25  42  69 103 145 195 252 305 372 449
#     4  12  26  46  76 106 150 199 251 306 377 453
#     4  11  26  42  70 103 149 194 252 306 377 447
#     4  12  28  48  74 113 148 196 251 313 384 458
#     4  11  26  51  77 109 154 198 259 323 395 467
#     4  11  28  49  78 114 149 199 256 323 394 471
#     4  11  26  45  71 106 146 198 249 312 380 459
#
# _framework density 25.884444999999999
#
# number of rings (size 3 to 8) (size 9 to 14) (size 15 to 20)
#    0.000    0.750    2.500    3.000   10.500    4.500 
#    0.000    0.000    0.000    0.000    0.000    0.000 
#    0.000    0.000    0.000    0.000    0.000    0.000 
#
# Total GULP energy -89136.108760 kJ/mol
# GULP energy per Si atom -5571.006798 kJ/mol
# Density = 2.582553 g / cm^3
# Si number density = 25.884445 Si / 1000 Ang^3
#
#
#
# Elastic Constant Matrix: (Units=GPa)
#
#
# Indices 1 2 3 4 5 6 
#
# 1 44.7979 21.7402 34.9108 7.1249 4.7480 4.7970
# 2 21.7402 83.8852 36.3358 -10.0088 -5.6397 -3.1617
# 3 34.9108 36.3358 142.9163 -13.3435 1.5355 3.2642
# 4 7.1249 -10.0088 -13.3435 39.7035 -0.6949 2.0377
# 5 4.7480 -5.6397 1.5355 -0.6949 41.5396 -8.5437
# 6 4.7970 -3.1617 3.2642 2.0377 -8.5437 39.8315
#
#
#
# Elastic Compliance Matrix: (Units=1/GPa)
#
#
# Indices 1 2 3 4 5 6 
#
# 1 0.034498 -0.007605 -0.007290 -0.010410 -0.005886 -0.004891
# 2 -0.007605 0.015568 -0.001775 0.004611 0.003713 0.002858
# 3 -0.007290 -0.001775 0.009615 0.004107 0.000264 -0.000204
# 4 -0.010410 0.004611 0.004107 0.029624 0.002209 0.000242
# 5 -0.005886 0.003713 0.000264 0.002209 0.026631 0.006581
# 6 -0.004891 0.002858 -0.000204 0.000242 0.006581 0.027338
#
#
# Mechanical properties :
#
#
# Convention : Reuss Voigt Hill
#
# Bulk Modulus (GPa) = 37.96532 50.84146 44.40339
# Shear Modulus (GPa) = 26.96957 36.12244 31.54600
#
# Velocity S-wave (km/s) = 3.23138 3.73973 3.49481
# Velocity P-wave (km/s) = 5.34991 6.19127 5.78590
#
# Compressibility (1/GPa) = 0.02633983
#
# Stress axis : x y z
#
# Youngs Moduli (GPa) = 28.98749 64.23237 104.00858
#
# Poissons Ratio (x) = 0.48848 0.75826
# Poissons Ratio (y) = 0.22045 0.18463
# Poissons Ratio (z) = 0.21133 0.11402
#
# Static dielectric constant tensor:
#      x y z
#    x 1.804180 -0.305220 0.539210 
#    y -0.305220 1.790440 0.254620 
#    z 0.539210 0.254620 1.913870 
# 
# From -- ./inp_files/117207.got.cif
#   From: 2010.05.17/outbox.cif.g08.bks.cpg/sg2_59_cif.got.tgz:117207.got - 2010.06.03 11:33:40.
