data_PCOD9059824
_publ_section_title
;
Structure prediction by ZEFSAII (Michael W. Deem and Ramdas Pophale) SiO2 
 PCOD9059824
Probable space group: P -1
;
_chemical_formula_sum "Si O2"
_cell_formula_units_Z 16
_cell_length_a 16.480019
_cell_length_b 16.823035
_cell_length_c 15.646654
_cell_angle_alpha 18.169190
_cell_angle_beta 33.450120
_cell_angle_gamma 34.627482
_cell_volume 734.086907
_symmetry_space_group_name_H-M "P -1"
_symmetry_group_IT_number 2
_symmetry_cell_setting 'triclinic'
loop_
_space_group_symop_operation_xyz
x,y,z
-x,-y,-z
loop_
_atom_site_type_symbol
_atom_site_label
_atom_site_fract_x
_atom_site_fract_y
_atom_site_fract_z
Si Si1 0.856364 0.581854 0.185152
Si Si2 0.419385 0.277857 0.256311
Si Si3 0.505556 0.286655 0.975723
Si Si4 0.355318 0.849801 0.478282
Si Si5 0.929108 0.213727 0.107633
Si Si6 0.168208 0.903757 0.415881
Si Si7 0.838771 0.238363 0.701078
Si Si8 0.925363 0.571343 0.583380
O O1 0.837488 0.358151 0.363776
O O2 0.796610 0.493671 0.418065
O O3 0.027054 0.596612 0.050166
O O4 0.792162 0.858456 0.918084
O O5 0.433621 0.291808 0.127443
O O6 0.245993 0.302798 0.407933
O O7 0.500000 0.000000 0.500000
O O8 0.500000 0.500000 0.000000
O O9 0.441579 0.084923 0.178149
O O10 0.459001 0.575072 0.685561
O O11 0.683640 0.193991 0.921162
O O12 0.219697 0.878791 0.636852
O O13 0.280665 0.855680 0.445256
O O14 0.915258 0.346487 0.891737
O O15 0.071337 0.984793 0.209720
O O16 0.000000 0.000000 0.500000
O O17 0.962119 0.269798 0.630818
O O18 0.000000 0.500000 0.500000
#
# Coordination Sequence:
#
# PCOD9059824 Si02
#       8
#     2   2   2   2   2   2   2   2
#     4  11  23  42  69 106 138 182 240 298 345 419
#     4  12  27  47  73 108 145 183 233 299 355 415
#     4  12  28  48  70 101 149 188 239 287 368 422
#     4  12  26  45  71 107 139 191 232 302 358 417
#     4  11  24  44  75 100 143 188 242 291 358 419
#     4  12  23  39  73 106 144 178 246 295 356 421
#     4  11  26  47  74  99 145 198 235 290 359 427
#     4  11  26  45  75 109 145 185 245 289 354 432
#
# _framework density 21.795784000000001
#
# number of rings (size 3 to 8) (size 9 to 14) (size 15 to 20)
#    0.000    0.500    3.750    3.375   10.500    0.500 
#    0.000    3.750    0.000    0.000    0.000    0.000 
#    0.000    0.000    0.000    0.000    0.000    0.000 
#
# Total GULP energy -89481.247660 kJ/mol
# GULP energy per Si atom -5592.577979 kJ/mol
# Density = 2.174618 g / cm^3
# Si number density = 21.795784 Si / 1000 Ang^3
#
#
#
# Elastic Constant Matrix: (Units=GPa)
#
#
# Indices 1 2 3 4 5 6 
#
# 1 143.9238 67.3520 36.6736 -14.5963 -7.1082 9.7174
# 2 67.3520 119.5376 58.4163 2.8316 -26.4034 -33.3645
# 3 36.6736 58.4163 75.3621 -25.8629 -1.3013 8.2785
# 4 -14.5963 2.8316 -25.8629 34.8331 -5.9695 -6.9466
# 5 -7.1082 -26.4034 -1.3013 -5.9695 43.8489 -11.8981
# 6 9.7174 -33.3645 8.2785 -6.9466 -11.8981 31.3915
#
#
#
# Elastic Compliance Matrix: (Units=1/GPa)
#
#
# Indices 1 2 3 4 5 6 
#
# 1 0.004947 0.009005 -0.011812 -0.003055 0.009253 0.013986
# 2 0.009005 -0.026207 0.024078 0.010973 -0.023954 -0.043642
# 3 -0.011812 0.024078 -0.002488 0.003201 0.023688 0.039591
# 4 -0.003055 0.010973 0.003201 0.037529 0.018683 0.027150
# 5 0.009253 -0.023954 0.023688 0.018683 0.005427 -0.028380
# 6 0.013986 -0.043642 0.039591 0.027150 -0.028380 -0.034048
#
#
# Mechanical properties :
#
#
# Convention : Reuss Voigt Hill
#
# Bulk Modulus (GPa) = 53.21023 73.74524 63.47773
# Shear Modulus (GPa) = -97.81545 33.77347 -32.02099
#
# Velocity S-wave (km/s) = -6.70638 3.94069 -3.83709
# Velocity P-wave (km/s) = 5.95830 7.39009 3.09129
#
# Compressibility (1/GPa) = 0.01879338
#
# Stress axis : x y z
#
# Youngs Moduli (GPa) = 202.14764 -38.15806 -401.95038
#
# Poissons Ratio (x) = 0.34361 -4.74797
# Poissons Ratio (y) = -1.82034 9.67813
# Poissons Ratio (z) = 2.38784 0.91877
#
# Static dielectric constant tensor:
#      x y z
#    x 1.804140 0.028230 -0.015220 
#    y 0.028230 1.773290 0.008930 
#    z -0.015220 0.008930 1.847590 
# 
# From -- ./inp_files/534003.got.cif
#   From: 2010.05.17/outbox.cif.g08.bks.cpg/sg2_268_cif.got.tgz:534003.got - 2010.06.03 11:33:40.
