data_PCOD9059685
_publ_section_title
;
Structure prediction by ZEFSAII (Michael W. Deem and Ramdas Pophale) SiO2 
 PCOD9059685
Probable space group: P -1
;
_chemical_formula_sum "Si O2"
_cell_formula_units_Z 16
_cell_length_a 21.178416
_cell_length_b 11.764694
_cell_length_c 8.723640
_cell_angle_alpha 145.909147
_cell_angle_beta 47.362034
_cell_angle_gamma 146.032749
_cell_volume 680.373738
_symmetry_space_group_name_H-M "P -1"
_symmetry_group_IT_number 2
_symmetry_cell_setting 'triclinic'
loop_
_space_group_symop_operation_xyz
x,y,z
-x,-y,-z
loop_
_atom_site_type_symbol
_atom_site_label
_atom_site_fract_x
_atom_site_fract_y
_atom_site_fract_z
Si Si1 0.087953 0.625288 0.742188
Si Si2 0.743449 0.389997 0.353517
Si Si3 0.228377 0.205601 0.012746
Si Si4 0.556233 0.849582 0.910599
Si Si5 0.882228 0.647534 0.853407
Si Si6 0.538325 0.609342 0.230479
Si Si7 0.634131 0.129286 0.782313
Si Si8 0.933625 0.736708 0.208547
O O1 0.165419 0.610733 0.710124
O O2 0.053573 0.419261 0.431597
O O3 0.989107 0.597182 0.958793
O O4 0.166552 0.922310 0.875176
O O5 0.731814 0.574155 0.677332
O O6 0.805854 0.539308 0.258960
O O7 0.628671 0.093962 0.184443
O O8 0.146764 0.202189 0.031059
O O9 0.338750 0.301446 0.851231
O O10 0.538738 0.606984 0.750900
O O11 0.626403 0.984670 0.789146
O O12 0.436277 0.770436 0.978293
O O13 0.760183 0.359123 0.773320
O O14 0.935205 0.792504 0.089313
O O15 0.560590 0.880893 0.509874
O O16 0.500000 0.500000 0.000000
O O17 0.000000 0.000000 0.500000
#
# Coordination Sequence:
#
# PCOD9059685 Si02
#       8
#     2   2   2   2   2   2   2   2
#     4  11  24  46  70  97 135 178 228 276 337 402
#     4  11  24  44  69  99 136 175 224 278 337 399
#     4  11  23  42  67 100 134 176 226 274 330 404
#     4  11  24  42  67  96 138 177 218 272 334 396
#     4  11  24  46  72  97 136 180 224 280 335 404
#     4  12  24  39  65 101 136 178 225 265 327 399
#     4  11  23  43  66  95 137 178 220 270 333 402
#     4  12  25  49  71 101 133 175 228 288 344 393
#
# _framework density 23.516489
#
# number of rings (size 3 to 8) (size 9 to 14) (size 15 to 20)
#    0.000    0.750    5.000    2.625    1.750    1.500 
#    6.750    0.000    0.000    0.000    0.000    0.000 
#    0.000    0.000    0.000    0.000    0.000    0.000 
#
# Total GULP energy -89537.775468 kJ/mol
# GULP energy per Si atom -5596.110967 kJ/mol
# Density = 2.346296 g / cm^3
# Si number density = 23.516489 Si / 1000 Ang^3
#
#
#
# Elastic Constant Matrix: (Units=GPa)
#
#
# Indices 1 2 3 4 5 6 
#
# 1 54.4294 -4.1955 12.6653 -6.9958 10.5733 -9.7235
# 2 -4.1955 94.1563 10.8616 8.5890 -4.2576 -10.6141
# 3 12.6653 10.8616 113.2746 -4.8933 12.9464 3.7814
# 4 -6.9958 8.5890 -4.8933 36.1044 6.7854 -2.4335
# 5 10.5733 -4.2576 12.9464 6.7854 40.9615 -4.2811
# 6 -9.7235 -10.6141 3.7814 -2.4335 -4.2811 35.1805
#
#
#
# Elastic Compliance Matrix: (Units=1/GPa)
#
#
# Indices 1 2 3 4 5 6 
#
# 1 0.021667 0.001218 -0.001960 0.005011 -0.005018 0.006303
# 2 0.001218 0.011731 -0.001803 -0.002970 0.002401 0.004156
# 3 -0.001960 -0.001803 0.009759 0.001834 -0.003322 -0.002412
# 4 0.005011 -0.002970 0.001834 0.031076 -0.007165 0.001569
# 5 -0.005018 0.002401 -0.003322 -0.007165 0.028473 0.002664
# 6 0.006303 0.004156 -0.002412 0.001569 0.002664 0.032113
#
#
# Mechanical properties :
#
#
# Convention : Reuss Voigt Hill
#
# Bulk Modulus (GPa) = 26.26815 33.39147 29.82981
# Shear Modulus (GPa) = 32.76586 38.61786 35.69186
#
# Velocity S-wave (km/s) = 3.73676 4.05676 3.90004
# Velocity P-wave (km/s) = 5.46006 6.01440 5.74392
#
# Compressibility (1/GPa) = 0.03806891
#
# Stress axis : x y z
#
# Youngs Moduli (GPa) = 46.15277 85.24506 102.46469
#
# Poissons Ratio (x) = -0.10383 0.20081
# Poissons Ratio (y) = -0.05621 0.18469
# Poissons Ratio (z) = 0.09045 0.15365
#
# Static dielectric constant tensor:
#      x y z
#    x 1.902090 0.013520 0.025290 
#    y 0.013520 1.891500 -0.007880 
#    z 0.025290 -0.007880 1.912100 
# 
# From -- ./inp_files/39284.got.cif
#   From: 2010.05.17/outbox.cif.g08.bks.cpg/sg2_20_cif.got.tgz:39284.got - 2010.06.03 11:33:40.
