data_PCOD9059636
_publ_section_title
;
Structure prediction by ZEFSAII (Michael W. Deem and Ramdas Pophale) SiO2 
 PCOD9059636
Probable space group: P -1
;
_chemical_formula_sum "Si O2"
_cell_formula_units_Z 14
_cell_length_a 6.894275
_cell_length_b 14.480574
_cell_length_c 14.069890
_cell_angle_alpha 29.558548
_cell_angle_beta 107.322658
_cell_angle_gamma 97.476326
_cell_volume 636.243221
_symmetry_space_group_name_H-M "P -1"
_symmetry_group_IT_number 2
_symmetry_cell_setting 'triclinic'
loop_
_space_group_symop_operation_xyz
x,y,z
-x,-y,-z
loop_
_atom_site_type_symbol
_atom_site_label
_atom_site_fract_x
_atom_site_fract_y
_atom_site_fract_z
Si Si1 0.863272 0.438324 0.119302
Si Si2 0.550685 0.444262 0.791136
Si Si3 0.129423 0.629884 0.453227
Si Si4 0.465572 0.768268 0.834148
Si Si5 0.301846 0.199242 0.471750
Si Si6 0.290335 0.163012 0.720523
Si Si7 0.344123 0.755539 0.197139
O O1 0.704331 0.315971 0.171068
O O2 0.049976 0.295046 0.336964
O O3 0.703207 0.636843 0.961035
O O4 0.000000 0.500000 0.000000
O O5 0.322799 0.512009 0.649520
O O6 0.598171 0.623172 0.693434
O O7 0.693304 0.375280 0.779582
O O8 0.567515 0.276417 0.019785
O O9 0.199749 0.751717 0.270184
O O10 0.000000 0.500000 0.500000
O O11 0.959646 0.756783 0.385867
O O12 0.402081 0.002036 0.604639
O O13 0.362119 0.149947 0.634586
O O14 0.420115 0.292631 0.679552
O O15 0.325411 0.961512 0.961483
#
# Coordination Sequence:
#
# PCOD9059636 Si02
#       7
#     2   2   2   2   2   2   2
#     4  11  25  51  77 104 137 177 227 292 358 425
#     4  12  23  45  67 100 141 182 235 282 341 417
#     4  12  23  39  64  94 137 192 234 281 339 397
#     4  11  26  49  74 105 140 176 230 289 353 427
#     4  12  24  47  74 103 143 184 229 291 353 410
#     4  11  23  42  65  96 138 185 235 283 342 409
#     4  11  23  42  64  95 141 185 234 285 335 405
#
# _framework density 22.004162999999998
#
# number of rings (size 3 to 8) (size 9 to 14) (size 15 to 20)
#    0.000    0.571    5.714    3.000    0.000    0.571 
#   10.286    0.000    0.000    0.000    0.000    0.000 
#    0.000    0.000    0.000    0.000    0.000    0.000 
#
# Total GULP energy -78141.342934 kJ/mol
# GULP energy per Si atom -5581.524495 kJ/mol
# Density = 2.195408 g / cm^3
# Si number density = 22.004163 Si / 1000 Ang^3
#
#
#
# Elastic Constant Matrix: (Units=GPa)
#
#
# Indices 1 2 3 4 5 6 
#
# 1 70.4149 21.1632 9.2543 -6.4554 5.4049 2.2188
# 2 21.1632 87.0646 31.3078 -12.1850 13.3206 9.7505
# 3 9.2543 31.3078 76.5737 -8.1836 2.6233 13.8992
# 4 -6.4554 -12.1850 -8.1836 42.6696 -0.6272 3.4427
# 5 5.4049 13.3206 2.6233 -0.6272 38.2621 7.1920
# 6 2.2188 9.7505 13.8992 3.4427 7.1920 28.0155
#
#
#
# Elastic Compliance Matrix: (Units=1/GPa)
#
#
# Indices 1 2 3 4 5 6 
#
# 1 0.015434 -0.003302 -0.000383 0.001286 -0.001025 0.000222
# 2 -0.003302 0.015381 -0.005086 0.003008 -0.004138 -0.001876
# 3 -0.000383 -0.005086 0.016685 0.002309 0.002090 -0.007298
# 4 0.001286 0.003008 0.002309 0.025371 0.000048 -0.005424
# 5 -0.001025 -0.004138 0.002090 0.000048 0.028882 -0.006936
# 6 0.000222 -0.001876 -0.007298 -0.005424 -0.006936 0.042398
#
#
# Mechanical properties :
#
#
# Convention : Reuss Voigt Hill
#
# Bulk Modulus (GPa) = 33.37998 39.72265 36.55131
# Shear Modulus (GPa) = 29.12420 33.27796 31.20108
#
# Velocity S-wave (km/s) = 3.64205 3.89311 3.76967
# Velocity P-wave (km/s) = 5.73487 6.18869 5.96610
#
# Compressibility (1/GPa) = 0.02995808
#
# Stress axis : x y z
#
# Youngs Moduli (GPa) = 64.79271 65.01361 59.93455
#
# Poissons Ratio (x) = 0.21467 0.02296
# Poissons Ratio (y) = 0.21394 0.30483
# Poissons Ratio (z) = 0.02482 0.33066
#
# Static dielectric constant tensor:
#      x y z
#    x 1.849320 -0.044990 0.049390 
#    y -0.044990 1.830350 -0.055260 
#    z 0.049390 -0.055260 1.851240 
# 
# From -- ./inp_files/335345.got.cif
#   From: 2010.05.17/outbox.cif.g08.bks.cpg/sg2_168_cif.got.tgz:335345.got - 2010.06.03 11:33:40.
