data_PCOD9059144
_publ_section_title
;
Structure prediction by ZEFSAII (Michael W. Deem and Ramdas Pophale) SiO2 
 PCOD9059144
Probable space group: P -1
;
_chemical_formula_sum "Si O2"
_cell_formula_units_Z 16
_cell_length_a 26.078830
_cell_length_b 15.697769
_cell_length_c 19.816816
_cell_angle_alpha 25.671943
_cell_angle_beta 163.106358
_cell_angle_gamma 160.747298
_cell_volume 777.170045
_symmetry_space_group_name_H-M "P -1"
_symmetry_group_IT_number 2
_symmetry_cell_setting 'triclinic'
loop_
_space_group_symop_operation_xyz
x,y,z
-x,-y,-z
loop_
_atom_site_type_symbol
_atom_site_label
_atom_site_fract_x
_atom_site_fract_y
_atom_site_fract_z
Si Si1 0.683462 0.762381 0.502374
Si Si2 0.944478 0.197667 0.982181
Si Si3 0.962546 0.364822 0.121753
Si Si4 0.369759 0.352974 0.633802
Si Si5 0.847986 0.877398 0.828897
Si Si6 0.878488 0.213644 0.512734
Si Si7 0.633166 0.618473 0.014085
Si Si8 0.509288 0.782918 0.984547
O O1 0.500000 0.500000 0.500000
O O2 0.648510 0.756817 0.384045
O O3 0.920964 0.822300 0.775004
O O4 0.698821 0.979313 0.402955
O O5 0.069294 0.231969 0.043137
O O6 0.705562 0.898398 0.890566
O O7 0.973309 0.439079 0.875193
O O8 0.139732 0.310847 0.388531
O O9 0.702390 0.085991 0.992665
O O10 0.000000 0.500000 0.000000
O O11 0.587274 0.655302 0.682794
O O12 0.432410 0.245177 0.847211
O O13 0.861063 0.084619 0.653351
O O14 0.000000 0.000000 0.000000
O O15 0.129344 0.337798 0.711726
O O16 0.757958 0.336649 0.275369
O O17 0.500000 0.500000 0.000000
O O18 0.484473 0.406250 0.919873
#
# Coordination Sequence:
#
# PCOD9059144 Si02
#       8
#     2   2   2   2   2   2   2   2
#     4  10  17  37  65  96 123 169 216 268 324 393
#     4  10  21  41  66  94 126 167 226 260 323 403
#     4  12  24  42  68  96 128 177 223 268 329 396
#     4  12  23  39  65  95 140 164 217 284 330 373
#     4  10  21  41  68  93 126 176 219 268 324 395
#     4  10  22  40  67  91 131 173 225 251 328 412
#     4  10  22  42  66  93 130 172 213 270 326 386
#     4  12  26  42  62 101 136 169 218 273 336 385
#
# _framework density 20.587516000000001
#
# number of rings (size 3 to 8) (size 9 to 14) (size 15 to 20)
#    0.000    1.500    3.750    4.500    1.750    0.500 
#    0.000    3.750    0.000    0.000    0.000    0.000 
#    0.000    0.000    0.000    0.000    0.000    0.000 
#
# Total GULP energy -89171.588591 kJ/mol
# GULP energy per Si atom -5573.224287 kJ/mol
# Density = 2.054066 g / cm^3
# Si number density = 20.587516 Si / 1000 Ang^3
#
#
#
# Elastic Constant Matrix: (Units=GPa)
#
#
# Indices 1 2 3 4 5 6 
#
# 1 120.6710 42.4862 36.7686 0.2657 -30.1880 -7.5748
# 2 42.4862 103.1589 7.5931 13.0390 9.3948 -7.9651
# 3 36.7686 7.5931 76.8938 0.2912 -12.1309 18.1405
# 4 0.2657 13.0390 0.2912 27.4286 3.4650 -0.0456
# 5 -30.1880 9.3948 -12.1309 3.4650 35.5265 7.3873
# 6 -7.5748 -7.9651 18.1405 -0.0456 7.3873 44.2677
#
#
#
# Elastic Compliance Matrix: (Units=1/GPa)
#
#
# Indices 1 2 3 4 5 6 
#
# 1 0.015874 -0.007514 -0.005037 0.001790 0.013331 0.001205
# 2 -0.007514 0.014716 -0.000250 -0.005591 -0.010484 0.003208
# 3 -0.005037 -0.000250 0.018185 -0.000536 0.003923 -0.009014
# 4 0.001790 -0.005591 -0.000536 0.039224 -0.000951 -0.000281
# 5 0.013331 -0.010484 0.003923 -0.000951 0.045512 -0.008809
# 6 0.001205 0.003208 -0.009014 -0.000281 -0.008809 0.028537
#
#
# Mechanical properties :
#
#
# Convention : Reuss Voigt Hill
#
# Bulk Modulus (GPa) = 43.15103 52.71327 47.93215
# Shear Modulus (GPa) = 25.59203 35.70294 30.64749
#
# Velocity S-wave (km/s) = 3.52957 4.16889 3.86248
# Velocity P-wave (km/s) = 6.13317 6.98806 6.57452
#
# Compressibility (1/GPa) = 0.02317442
#
# Stress axis : x y z
#
# Youngs Moduli (GPa) = 62.99672 67.95335 54.98923
#
# Poissons Ratio (x) = 0.51061 0.27695
# Poissons Ratio (y) = 0.47337 0.01373
# Poissons Ratio (z) = 0.31728 0.01697
#
# Static dielectric constant tensor:
#      x y z
#    x 1.773260 -0.089480 0.053530 
#    y -0.089480 1.852620 0.019570 
#    z 0.053530 0.019570 1.741380 
# 
# From -- ./inp_files/579312.got.cif
#   From: 2010.05.17/outbox.cif.g08.bks.cpg/sg2_290_cif.got.tgz:579312.got - 2010.06.03 11:33:40.
