data_PCOD9059411
_publ_section_title
;
Structure prediction by ZEFSAII (Michael W. Deem and Ramdas Pophale) SiO2 
 PCOD9059411
Probable space group: P -1
;
_chemical_formula_sum "Si O2"
_cell_formula_units_Z 12
_cell_length_a 5.111438
_cell_length_b 10.242995
_cell_length_c 12.226232
_cell_angle_alpha 104.949203
_cell_angle_beta 62.957261
_cell_angle_gamma 77.412024
_cell_volume 507.324619
_symmetry_space_group_name_H-M "P -1"
_symmetry_group_IT_number 2
_symmetry_cell_setting 'triclinic'
loop_
_space_group_symop_operation_xyz
x,y,z
-x,-y,-z
loop_
_atom_site_type_symbol
_atom_site_label
_atom_site_fract_x
_atom_site_fract_y
_atom_site_fract_z
Si Si1 0.786005 0.326063 0.349410
Si Si2 0.874462 0.962822 0.903920
Si Si3 0.775593 0.497292 0.654027
Si Si4 0.624077 0.565677 0.092283
Si Si5 0.052086 0.177771 0.479830
Si Si6 0.256912 0.901193 0.268423
O O1 0.919868 0.204342 0.203105
O O2 0.054519 0.394340 0.323907
O O3 0.453411 0.443224 0.394282
O O4 0.792673 0.237311 0.442084
O O5 0.896318 0.052271 0.811290
O O6 0.500000 0.000000 0.000000
O O7 0.000000 0.000000 0.000000
O O8 0.535937 0.481456 0.785637
O O9 0.047196 0.334520 0.550110
O O10 0.522420 0.740892 0.162561
O O11 0.500000 0.500000 0.000000
O O12 0.000000 0.500000 0.000000
O O13 0.962095 0.120558 0.597758
O O14 0.321874 0.040556 0.336624
#
# Coordination Sequence:
#
# PCOD9059411 Si02
#       6
#     2   2   2   2   2   2
#     4  11  23  41  68 102 135 174 224 280 336 398
#     4  11  25  42  67  96 137 182 221 272 333 401
#     4  11  23  41  68 102 135 174 224 280 336 398
#     4  11  25  42  67  96 137 182 221 272 333 401
#     4   9  20  44  70  98 134 176 229 277 340 393
#     4   9  22  44  70  98 134 181 228 280 332 405
#
# _framework density 23.653494999999999
#
# number of rings (size 3 to 8) (size 9 to 14) (size 15 to 20)
#    0.000    1.667    0.000    3.000    7.000    0.000 
#    0.000   10.000    0.000   24.000    0.000    0.000 
#    0.000    0.000    0.000    0.000    0.000    0.000 
#
# Total GULP energy -66981.292867 kJ/mol
# GULP energy per Si atom -5581.774406 kJ/mol
# Density = 2.359966 g / cm^3
# Si number density = 23.653495 Si / 1000 Ang^3
#
#
#
# Elastic Constant Matrix: (Units=GPa)
#
#
# Indices 1 2 3 4 5 6 
#
# 1 138.6338 61.4212 63.3556 -3.8558 10.2286 2.4716
# 2 61.4212 150.0914 88.6489 -5.1772 3.1494 -7.2070
# 3 63.3556 88.6489 184.5721 5.3327 18.9115 -0.1788
# 4 -3.8558 -5.1772 5.3327 46.9668 -9.0838 -1.9578
# 5 10.2286 3.1494 18.9115 -9.0838 36.6135 2.9138
# 6 2.4716 -7.2070 -0.1788 -1.9578 2.9138 13.6537
#
#
#
# Elastic Compliance Matrix: (Units=1/GPa)
#
#
# Indices 1 2 3 4 5 6 
#
# 1 0.009460 -0.002972 -0.001709 0.000287 -0.001194 -0.003007
# 2 -0.002972 0.010836 -0.004472 0.002147 0.002261 0.006024
# 3 -0.001709 -0.004472 0.008643 -0.002467 -0.004101 -0.001417
# 4 0.000287 0.002147 -0.002467 0.023220 0.006533 0.002984
# 5 -0.001194 0.002261 -0.004101 0.006533 0.031544 -0.004439
# 6 -0.003007 0.006024 -0.001417 0.002984 -0.004439 0.078321
#
#
# Mechanical properties :
#
#
# Convention : Reuss Voigt Hill
#
# Bulk Modulus (GPa) = 94.04306 100.01652 97.02979
# Shear Modulus (GPa) = 27.19249 36.77157 31.98203
#
# Velocity S-wave (km/s) = 3.39428 3.94711 3.68109
# Velocity P-wave (km/s) = 7.43011 7.94662 7.69270
#
# Compressibility (1/GPa) = 0.01063343
#
# Stress axis : x y z
#
# Youngs Moduli (GPa) = 105.70275 92.28462 115.70388
#
# Poissons Ratio (x) = 0.27423 0.19774
# Poissons Ratio (y) = 0.31410 0.51747
# Poissons Ratio (z) = 0.18065 0.41273
#
# Static dielectric constant tensor:
#      x y z
#    x 1.875400 0.022470 -0.016460 
#    y 0.022470 1.957170 0.036000 
#    z -0.016460 0.036000 1.965670 
# 
# From -- ./inp_files/365182.got.cif
#   From: 2010.05.17/outbox.cif.g08.bks.cpg/sg2_183_cif.got.tgz:365182.got - 2010.06.03 11:33:40.
