data_PCOD9059934
_publ_section_title
;
Structure prediction by ZEFSAII (Michael W. Deem and Ramdas Pophale) SiO2 
 PCOD9059934
Probable space group: P -1
;
_chemical_formula_sum "Si O2"
_cell_formula_units_Z 16
_cell_length_a 21.750427
_cell_length_b 19.859389
_cell_length_c 5.333089
_cell_angle_alpha 116.759133
_cell_angle_beta 64.168879
_cell_angle_gamma 160.633868
_cell_volume 681.617190
_symmetry_space_group_name_H-M "P -1"
_symmetry_group_IT_number 2
_symmetry_cell_setting 'triclinic'
loop_
_space_group_symop_operation_xyz
x,y,z
-x,-y,-z
loop_
_atom_site_type_symbol
_atom_site_label
_atom_site_fract_x
_atom_site_fract_y
_atom_site_fract_z
Si Si1 0.815623 0.539814 0.024965
Si Si2 0.682268 0.641448 0.489300
Si Si3 0.906908 0.546090 0.364364
Si Si4 0.168235 0.972520 0.054885
Si Si5 0.315082 0.998069 0.526993
Si Si6 0.565550 0.109277 0.316862
Si Si7 0.494269 0.308458 0.383664
Si Si8 0.011036 0.946554 0.094143
O O1 0.854321 0.549139 0.692282
O O2 0.830381 0.493041 0.139856
O O3 0.623407 0.385284 0.122957
O O4 0.976611 0.764169 0.191289
O O5 0.500000 0.500000 0.500000
O O6 0.615196 0.506157 0.570237
O O7 0.835431 0.857950 0.670436
O O8 0.802372 0.723848 0.196508
O O9 0.787603 0.349891 0.318087
O O10 0.130883 0.775011 0.346110
O O11 0.233719 0.955401 0.844663
O O12 0.329529 0.169635 0.269673
O O13 0.105450 0.961397 0.916439
O O14 0.463941 0.086318 0.456291
O O15 0.407698 0.164586 0.502496
O O16 0.500000 0.000000 0.500000
O O17 0.500000 0.000000 0.000000
O O18 0.000000 0.000000 0.000000
#
# Coordination Sequence:
#
# PCOD9059934 Si02
#       8
#     2   2   2   2   2   2   2   2
#     4  11  23  42  71 105 143 185 240 305 357 421
#     4  11  25  43  64  98 141 189 245 303 367 440
#     4  11  24  46  73 107 145 182 235 295 358 433
#     4  11  24  43  67 104 139 189 247 306 362 431
#     4  11  27  43  75 105 139 187 244 298 360 442
#     4  12  28  48  76 109 151 190 234 295 366 439
#     4  12  23  42  71  97 139 185 248 300 365 427
#     4  11  26  44  65  97 147 191 245 305 373 436
#
# _framework density 23.473587999999999
#
# number of rings (size 3 to 8) (size 9 to 14) (size 15 to 20)
#    0.000    0.750    5.000    1.500    3.500    4.500 
#    0.000    0.000    0.000    0.000    0.000    0.000 
#    0.000    0.000    0.000    0.000    0.000    0.000 
#
# Total GULP energy -89290.327091 kJ/mol
# GULP energy per Si atom -5580.645443 kJ/mol
# Density = 2.342016 g / cm^3
# Si number density = 23.473588 Si / 1000 Ang^3
#
#
#
# Elastic Constant Matrix: (Units=GPa)
#
#
# Indices 1 2 3 4 5 6 
#
# 1 113.4891 32.6414 19.0519 -15.7535 7.2821 1.0654
# 2 32.6414 153.9725 5.1618 -5.2247 4.2794 -1.8069
# 3 19.0519 5.1618 44.9016 -2.1256 2.3688 2.3027
# 4 -15.7535 -5.2247 -2.1256 29.4093 -4.8159 1.2177
# 5 7.2821 4.2794 2.3688 -4.8159 26.3394 -3.9109
# 6 1.0654 -1.8069 2.3027 1.2177 -3.9109 43.3687
#
#
#
# Elastic Compliance Matrix: (Units=1/GPa)
#
#
# Indices 1 2 3 4 5 6 
#
# 1 0.010837 -0.001958 -0.004041 0.004941 -0.001471 -0.000405
# 2 -0.001958 0.006929 0.000052 0.000087 -0.000531 0.000284
# 3 -0.004041 0.000052 0.024089 -0.000583 -0.001355 -0.001283
# 4 0.004941 0.000087 -0.000583 0.037541 0.005440 -0.000650
# 5 -0.001471 -0.000531 -0.001355 0.005440 0.040102 0.003550
# 6 -0.000405 0.000284 -0.001283 -0.000650 0.003550 0.023486
#
#
# Mechanical properties :
#
#
# Convention : Reuss Voigt Hill
#
# Bulk Modulus (GPa) = 33.37659 47.34151 40.35905
# Shear Modulus (GPa) = 30.32768 36.85735 33.59251
#
# Velocity S-wave (km/s) = 3.59833 3.96683 3.78706
# Velocity P-wave (km/s) = 5.61370 6.41816 6.02936
#
# Compressibility (1/GPa) = 0.02996112
#
# Stress axis : x y z
#
# Youngs Moduli (GPa) = 92.27634 144.31925 41.51244
#
# Poissons Ratio (x) = 0.28260 0.16774
# Poissons Ratio (y) = 0.18069 -0.00215
# Poissons Ratio (z) = 0.37287 -0.00749
#
# Static dielectric constant tensor:
#      x y z
#    x 1.880810 -0.039300 -0.000040 
#    y -0.039300 1.957320 0.016000 
#    z -0.000040 0.016000 1.912310 
# 
# From -- ./inp_files/120110.got.cif
#   From: 2010.05.17/outbox.cif.g08.bks.cpg/sg2_61_cif.got.tgz:120110.got - 2010.06.03 11:33:40.
