data_PCOD9059079
_publ_section_title
;
Structure prediction by ZEFSAII (Michael W. Deem and Ramdas Pophale) SiO2 
 PCOD9059079
Probable space group: P -1
;
_chemical_formula_sum "Si O2"
_cell_formula_units_Z 16
_cell_length_a 23.418837
_cell_length_b 23.454452
_cell_length_c 10.858873
_cell_angle_alpha 145.151189
_cell_angle_beta 33.198005
_cell_angle_gamma 167.758625
_cell_volume 692.227686
_symmetry_space_group_name_H-M "P -1"
_symmetry_group_IT_number 2
_symmetry_cell_setting 'triclinic'
loop_
_space_group_symop_operation_xyz
x,y,z
-x,-y,-z
loop_
_atom_site_type_symbol
_atom_site_label
_atom_site_fract_x
_atom_site_fract_y
_atom_site_fract_z
Si Si1 0.740844 0.908284 0.534544
Si Si2 0.655380 0.070170 0.950705
Si Si3 0.075870 0.591050 0.216122
Si Si4 0.057725 0.809403 0.662547
Si Si5 0.518740 0.296247 0.872703
Si Si6 0.691517 0.766956 0.636837
Si Si7 0.702493 0.608428 0.744076
Si Si8 0.715754 0.267862 0.532268
O O1 0.669840 0.818555 0.646055
O O2 0.508992 0.649737 0.407857
O O3 0.724924 0.013759 0.721582
O O4 0.051618 0.139464 0.349061
O O5 0.947878 0.390142 0.004596
O O6 0.500000 0.000000 0.000000
O O7 0.395751 0.844348 0.117777
O O8 0.093918 0.727237 0.405800
O O9 0.826847 0.363564 0.362574
O O10 0.828773 0.605878 0.823795
O O11 0.905290 0.735131 0.700711
O O12 0.339511 0.107466 0.739634
O O13 0.567835 0.241368 0.765938
O O14 0.373007 0.240775 0.129511
O O15 0.500000 0.500000 0.500000
O O16 0.000000 0.000000 0.500000
O O17 0.500000 0.500000 0.000000
O O18 0.000000 0.500000 0.500000
O O19 0.500000 0.000000 0.500000
#
# Coordination Sequence:
#
# PCOD9059079 Si02
#       8
#     2   2   2   2   2   2   2   2
#     4  12  28  49  72 115 141 193 249 295 378 447
#     4  12  24  44  73 103 150 184 229 291 366 439
#     4  11  23  40  67 103 138 190 221 285 350 430
#     4  11  23  45  73 106 144 183 252 289 369 432
#     4  11  25  44  72 105 138 198 236 302 361 429
#     4  12  29  49  75 100 152 196 249 302 361 443
#     4  12  27  47  78 102 143 182 245 322 363 427
#     4  11  23  40  66 100 141 176 235 282 345 419
#
# _framework density 23.113783000000002
#
# number of rings (size 3 to 8) (size 9 to 14) (size 15 to 20)
#    0.000    0.500    0.000    9.000    8.750    0.000 
#    0.000    0.000    0.000    0.000    0.000    0.000 
#    0.000    0.000    0.000    0.000    0.000    0.000 
#
# Total GULP energy -89290.342792 kJ/mol
# GULP energy per Si atom -5580.646425 kJ/mol
# Density = 2.306117 g / cm^3
# Si number density = 23.113783 Si / 1000 Ang^3
#
#
#
# Elastic Constant Matrix: (Units=GPa)
#
#
# Indices 1 2 3 4 5 6 
#
# 1 82.3028 3.3963 27.7194 14.2907 -19.2923 3.2440
# 2 3.3963 140.5084 35.4253 5.8832 -11.8710 11.6305
# 3 27.7194 35.4253 117.2525 -12.3843 -4.9716 11.0349
# 4 14.2907 5.8832 -12.3843 48.9843 8.7861 6.4184
# 5 -19.2923 -11.8710 -4.9716 8.7861 17.3882 -2.5054
# 6 3.2440 11.6305 11.0349 6.4184 -2.5054 46.8738
#
#
#
# Elastic Compliance Matrix: (Units=1/GPa)
#
#
# Indices 1 2 3 4 5 6 
#
# 1 0.028238 0.005720 -0.008976 -0.019391 0.042999 0.003693
# 2 0.005720 0.009614 -0.004312 -0.006596 0.015001 -0.000061
# 3 -0.008976 -0.004312 0.012643 0.009373 -0.014506 -0.003344
# 4 -0.019391 -0.006596 0.009373 0.037914 -0.043466 -0.006743
# 5 0.042999 0.015001 -0.014506 -0.043466 0.134696 0.009868
# 6 0.003693 -0.000061 -0.003344 -0.006743 0.009868 0.023331
#
#
# Mechanical properties :
#
#
# Convention : Reuss Voigt Hill
#
# Bulk Modulus (GPa) = 28.28175 52.57175 40.42675
# Shear Modulus (GPa) = 18.29091 40.88411 29.58751
#
# Velocity S-wave (km/s) = 2.81613 4.21030 3.58170
# Velocity P-wave (km/s) = 4.77876 6.81393 5.88499
#
# Compressibility (1/GPa) = 0.03535849
#
# Stress axis : x y z
#
# Youngs Moduli (GPa) = 35.41339 104.00959 79.09514
#
# Poissons Ratio (x) = -0.59489 0.70997
# Poissons Ratio (y) = -0.20255 0.34104
# Poissons Ratio (z) = 0.31788 0.44847
#
# Static dielectric constant tensor:
#      x y z
#    x 1.831210 -0.055450 0.053880 
#    y -0.055450 1.860140 -0.005530 
#    z 0.053880 -0.005530 1.964070 
# 
# From -- ./inp_files/477231.got.cif
#   From: 2010.05.17/outbox.cif.g08.bks.cpg/sg2_239_cif.got.tgz:477231.got - 2010.06.03 11:33:40.
