data_PCOD9059049
_publ_section_title
;
Structure prediction by ZEFSAII (Michael W. Deem and Ramdas Pophale) SiO2 
 PCOD9059049
Probable space group: P -1
;
_chemical_formula_sum "Si O2"
_cell_formula_units_Z 16
_cell_length_a 9.614025
_cell_length_b 11.510836
_cell_length_c 14.335144
_cell_angle_alpha 128.099162
_cell_angle_beta 135.523109
_cell_angle_gamma 38.349371
_cell_volume 683.569819
_symmetry_space_group_name_H-M "P -1"
_symmetry_group_IT_number 2
_symmetry_cell_setting 'triclinic'
loop_
_space_group_symop_operation_xyz
x,y,z
-x,-y,-z
loop_
_atom_site_type_symbol
_atom_site_label
_atom_site_fract_x
_atom_site_fract_y
_atom_site_fract_z
Si Si1 0.308298 0.943506 0.320232
Si Si2 0.507477 0.930687 0.669646
Si Si3 0.068350 0.340777 0.136332
Si Si4 0.070019 0.292236 0.753373
Si Si5 0.407524 0.616834 0.108184
Si Si6 0.424888 0.667920 0.412466
Si Si7 0.386000 0.215163 0.047809
Si Si8 0.751139 0.321398 0.275369
O O1 0.488533 0.990123 0.389735
O O2 0.043308 0.145516 0.317559
O O3 0.323761 0.824669 0.179189
O O4 0.358132 0.801427 0.356213
O O5 0.774479 0.831308 0.801560
O O6 0.487609 0.763619 0.565228
O O7 0.276357 0.097875 0.702969
O O8 0.263003 0.303739 0.132340
O O9 0.968470 0.535629 0.233906
O O10 0.850995 0.354220 0.983302
O O11 0.817151 0.316273 0.664786
O O12 0.187385 0.295829 0.908821
O O13 0.642252 0.476839 0.219502
O O14 0.500000 0.500000 0.000000
O O15 0.653831 0.451306 0.386116
O O16 0.596968 0.241119 0.147167
O O17 0.500000 0.000000 0.000000
#
# Coordination Sequence:
#
# PCOD9059049 Si02
#       8
#     2   2   2   2   2   2   2   2
#     4  11  26  44  71  99 134 185 226 280 339 396
#     4  12  28  45  66 102 137 181 232 278 333 400
#     4  12  24  40  67 101 138 176 217 281 348 398
#     4  12  24  44  71 100 138 173 225 288 339 398
#     4  11  23  40  65 101 140 171 218 279 346 405
#     4  11  26  48  70  95 134 186 235 276 328 399
#     4  12  21  40  68  99 133 168 216 275 342 400
#     4  11  23  43  69  97 133 176 224 273 335 410
#
# _framework density 23.406531999999999
#
# number of rings (size 3 to 8) (size 9 to 14) (size 15 to 20)
#    0.000    0.500    3.750    5.625    0.000    4.000 
#    0.000    0.000    0.000    0.000    0.000    0.000 
#    0.000    0.000    0.000    0.000    0.000    0.000 
#
# Total GULP energy -89425.822119 kJ/mol
# GULP energy per Si atom -5589.113882 kJ/mol
# Density = 2.335326 g / cm^3
# Si number density = 23.406532 Si / 1000 Ang^3
#
#
#
# Elastic Constant Matrix: (Units=GPa)
#
#
# Indices 1 2 3 4 5 6 
#
# 1 62.7675 20.3439 2.2136 6.1908 9.4391 -0.2454
# 2 20.3439 161.0832 34.0886 35.5085 -3.2503 -9.2720
# 3 2.2136 34.0886 53.7509 26.9273 12.1585 -7.3755
# 4 6.1908 35.5085 26.9273 45.6402 7.4031 -6.0802
# 5 9.4391 -3.2503 12.1585 7.4031 41.3640 7.6012
# 6 -0.2454 -9.2720 -7.3755 -6.0802 7.6012 33.1445
#
#
#
# Elastic Compliance Matrix: (Units=1/GPa)
#
#
# Indices 1 2 3 4 5 6 
#
# 1 0.017537 -0.002610 0.002697 -0.001000 -0.004998 0.000962
# 2 -0.002610 0.008367 -0.003653 -0.004515 0.003143 -0.000041
# 3 0.002697 -0.003653 0.030007 -0.013192 -0.008310 0.005161
# 4 -0.001000 -0.004515 -0.013192 0.034169 -0.002864 0.002719
# 5 -0.004998 0.003143 -0.008310 -0.002864 0.030067 -0.008428
# 6 0.000962 -0.000041 0.005161 0.002719 -0.008428 0.033747
#
#
# Mechanical properties :
#
#
# Convention : Reuss Voigt Hill
#
# Bulk Modulus (GPa) = 20.50160 43.43263 31.96712
# Shear Modulus (GPa) = 28.20298 38.76010 33.48154
#
# Velocity S-wave (km/s) = 3.47496 4.07375 3.78621
# Velocity P-wave (km/s) = 4.98783 6.38149 5.72721
#
# Compressibility (1/GPa) = 0.04877667
#
# Stress axis : x y z
#
# Youngs Moduli (GPa) = 57.02312 119.51406 33.32590
#
# Poissons Ratio (x) = 0.31199 -0.08987
# Poissons Ratio (y) = 0.14886 0.12175
# Poissons Ratio (z) = -0.15378 0.43662
#
# Static dielectric constant tensor:
#      x y z
#    x 1.930990 0.038290 -0.012270 
#    y 0.038290 1.988350 -0.028210 
#    z -0.012270 -0.028210 1.970780 
# 
# From -- ./inp_files/500891.got.cif
#   From: 2010.05.17/outbox.cif.g08.bks.cpg/sg2_251_cif.got.tgz:500891.got - 2010.06.03 11:33:40.
