data_PCOD9059895
_publ_section_title
;
Structure prediction by ZEFSAII (Michael W. Deem and Ramdas Pophale) SiO2 
 PCOD9059895
Probable space group: P -1
;
_chemical_formula_sum "Si O2"
_cell_formula_units_Z 16
_cell_length_a 20.989197
_cell_length_b 6.747566
_cell_length_c 8.993470
_cell_angle_alpha 55.148896
_cell_angle_beta 44.029255
_cell_angle_gamma 73.245458
_cell_volume 709.501711
_symmetry_space_group_name_H-M "P -1"
_symmetry_group_IT_number 2
_symmetry_cell_setting 'triclinic'
loop_
_space_group_symop_operation_xyz
x,y,z
-x,-y,-z
loop_
_atom_site_type_symbol
_atom_site_label
_atom_site_fract_x
_atom_site_fract_y
_atom_site_fract_z
Si Si1 0.961572 0.704817 0.376624
Si Si2 0.226800 0.693557 0.755423
Si Si3 0.625620 0.590951 0.060095
Si Si4 0.726280 0.806893 0.096064
Si Si5 0.783665 0.315191 0.883331
Si Si6 0.418721 0.039697 0.231619
Si Si7 0.543804 0.782523 0.585866
Si Si8 0.951011 0.238901 0.123952
O O1 0.853054 0.565943 0.611183
O O2 0.000000 0.500000 0.500000
O O3 0.968512 0.993485 0.284755
O O4 0.006392 0.735780 0.125125
O O5 0.212884 0.397304 0.896324
O O6 0.160236 0.782268 0.709270
O O7 0.339120 0.797997 0.507608
O O8 0.198677 0.750581 0.946535
O O9 0.663118 0.726190 0.090865
O O10 0.516314 0.464367 0.282508
O O11 0.681511 0.377600 0.028268
O O12 0.642385 0.790092 0.817774
O O13 0.651916 0.804116 0.354479
O O14 0.786608 0.084131 0.873357
O O15 0.464299 0.183632 0.239076
O O16 0.500000 0.000000 0.000000
O O17 0.500000 0.000000 0.500000
O O18 0.000000 0.500000 0.000000
#
# Coordination Sequence:
#
# PCOD9059895 Si02
#       8
#     2   2   2   2   2   2   2   2
#     4  11  25  47  78 103 147 186 238 295 363 441
#     4  11  24  45  68 100 144 180 242 290 355 440
#     4  11  24  40  64  98 137 173 238 291 354 425
#     4  11  23  42  70  97 131 192 233 289 357 426
#     4  11  23  45  71 100 134 191 234 289 358 427
#     4  12  25  42  66 100 139 184 233 298 355 416
#     4  12  21  43  66  93 136 185 236 290 353 422
#     4  11  27  48  74 115 144 187 238 305 365 430
#
# _framework density 22.551037999999998
#
# number of rings (size 3 to 8) (size 9 to 14) (size 15 to 20)
#    0.000    0.750    3.750    3.750    1.750    3.500 
#    2.250    0.000    0.000    0.000    0.000    0.000 
#    0.000    0.000    0.000    0.000    0.000    0.000 
#
# Total GULP energy -89362.948287 kJ/mol
# GULP energy per Si atom -5585.184268 kJ/mol
# Density = 2.249971 g / cm^3
# Si number density = 22.551038 Si / 1000 Ang^3
#
#
#
# Elastic Constant Matrix: (Units=GPa)
#
#
# Indices 1 2 3 4 5 6 
#
# 1 90.0528 49.0972 24.2582 -5.3134 13.3318 -10.5792
# 2 49.0972 131.4179 25.0957 -33.7405 12.0546 13.1879
# 3 24.2582 25.0957 80.3906 -22.4638 -9.1424 6.3375
# 4 -5.3134 -33.7405 -22.4638 45.2126 0.3349 3.1993
# 5 13.3318 12.0546 -9.1424 0.3349 41.4710 -6.2275
# 6 -10.5792 13.1879 6.3375 3.1993 -6.2275 15.6970
#
#
#
# Elastic Compliance Matrix: (Units=1/GPa)
#
#
# Indices 1 2 3 4 5 6 
#
# 1 0.026373 -0.016053 -0.010796 -0.017003 -0.000197 0.039008
# 2 -0.016053 0.022038 0.005978 0.020275 -0.005826 -0.038192
# 3 -0.010796 0.005978 0.019997 0.014687 0.002673 -0.022305
# 4 -0.017003 0.020275 0.014687 0.045799 -0.004392 -0.045500
# 5 -0.000197 -0.005826 0.002673 -0.004392 0.028904 0.016045
# 6 0.039008 -0.038192 -0.022305 -0.045500 0.016045 0.146727
#
#
# Mechanical properties :
#
#
# Convention : Reuss Voigt Hill
#
# Bulk Modulus (GPa) = 37.49968 55.41814 46.45891
# Shear Modulus (GPa) = 14.68563 34.03682 24.36122
#
# Velocity S-wave (km/s) = 2.55466 3.88922 3.29031
# Velocity P-wave (km/s) = 5.03653 6.69297 5.92294
#
# Compressibility (1/GPa) = 0.02666690
#
# Stress axis : x y z
#
# Youngs Moduli (GPa) = 37.91689 45.37708 50.00773
#
# Poissons Ratio (x) = 0.72845 0.53987
# Poissons Ratio (y) = 0.60869 -0.29897
# Poissons Ratio (z) = 0.40934 -0.27128
#
# Static dielectric constant tensor:
#      x y z
#    x 1.917890 -0.003860 -0.087770 
#    y -0.003860 1.841680 -0.054770 
#    z -0.087770 -0.054770 1.954000 
# 
# From -- ./inp_files/340114.got.cif
#   From: 2010.05.17/outbox.cif.g08.bks.cpg/sg2_171_cif.got.tgz:340114.got - 2010.06.03 11:33:40.
