data_PCOD9059089
_publ_section_title
;
Structure prediction by ZEFSAII (Michael W. Deem and Ramdas Pophale) SiO2 
 PCOD9059089
Probable space group: P -1
;
_chemical_formula_sum "Si O2"
_cell_formula_units_Z 12
_cell_length_a 9.030689
_cell_length_b 10.109988
_cell_length_c 14.673871
_cell_angle_alpha 32.257129
_cell_angle_beta 117.080426
_cell_angle_gamma 129.896357
_cell_volume 536.007870
_symmetry_space_group_name_H-M "P -1"
_symmetry_group_IT_number 2
_symmetry_cell_setting 'triclinic'
loop_
_space_group_symop_operation_xyz
x,y,z
-x,-y,-z
loop_
_atom_site_type_symbol
_atom_site_label
_atom_site_fract_x
_atom_site_fract_y
_atom_site_fract_z
Si Si1 0.601787 0.865294 0.049473
Si Si2 0.830100 0.407876 0.309681
Si Si3 0.096104 0.217349 0.719758
Si Si4 0.123625 0.246111 0.502075
Si Si5 0.299234 0.212172 0.398395
Si Si6 0.691850 0.764554 0.947681
O O1 0.798453 0.934565 0.116103
O O2 0.456203 0.509879 0.221094
O O3 0.637967 0.922795 0.918166
O O4 0.500000 0.000000 0.000000
O O5 0.841647 0.503173 0.361868
O O6 0.038733 0.439963 0.328911
O O7 0.677592 0.062383 0.449705
O O8 0.788873 0.614324 0.118436
O O9 0.167197 0.298837 0.589361
O O10 0.860201 0.997605 0.791125
O O11 0.288565 0.272908 0.466548
O O12 0.923830 0.918258 0.625653
O O13 0.500000 0.500000 0.000000
#
# Coordination Sequence:
#
# PCOD9059089 Si02
#       6
#     2   2   2   2   2   2
#     4  11  25  42  62  95 129 166 204 261 311 373
#     4   9  20  41  63  89 125 166 202 261 298 368
#     4  11  23  40  66  94 125 163 212 255 312 366
#     4   9  20  39  64  95 120 167 203 258 310 365
#     4   9  21  39  63  90 130 159 211 248 318 361
#     4  11  25  43  64  94 124 169 210 254 313 370
#
# _framework density 22.387729
#
# number of rings (size 3 to 8) (size 9 to 14) (size 15 to 20)
#    1.000    1.000    0.000    3.500    4.667    4.667 
#    3.000    2.500    0.000    0.000    0.000    0.000 
#    0.000    0.000    0.000    0.000    0.000    0.000 
#
# Total GULP energy -66999.547047 kJ/mol
# GULP energy per Si atom -5583.295587 kJ/mol
# Density = 2.233677 g / cm^3
# Si number density = 22.387729 Si / 1000 Ang^3
#
#
#
# Elastic Constant Matrix: (Units=GPa)
#
#
# Indices 1 2 3 4 5 6 
#
# 1 101.3350 41.1018 14.1286 -6.4098 -2.7221 -23.5712
# 2 41.1018 101.2031 20.7122 7.0345 3.9665 -23.9632
# 3 14.1286 20.7122 56.9830 -12.6786 -6.2208 -7.7765
# 4 -6.4098 7.0345 -12.6786 34.4116 -1.8435 -2.5592
# 5 -2.7221 3.9665 -6.2208 -1.8435 31.3893 -7.8611
# 6 -23.5712 -23.9632 -7.7765 -2.5592 -7.8611 43.8061
#
#
#
# Elastic Compliance Matrix: (Units=1/GPa)
#
#
# Indices 1 2 3 4 5 6 
#
# 1 0.013338 -0.004609 0.000446 0.004194 0.003477 0.005604
# 2 -0.004609 0.014099 -0.004994 -0.005455 -0.002600 0.003561
# 3 0.000446 -0.004994 0.022658 0.010049 0.006576 0.003298
# 4 0.004194 -0.005455 0.010049 0.035304 0.006177 0.004227
# 5 0.003477 -0.002600 0.006576 0.006177 0.036280 0.008488
# 6 0.005604 0.003561 0.003298 0.004227 0.008488 0.030146
#
#
# Mechanical properties :
#
#
# Convention : Reuss Voigt Hill
#
# Bulk Modulus (GPa) = 31.46566 45.71181 38.58874
# Shear Modulus (GPa) = 27.66529 34.15997 30.91263
#
# Velocity S-wave (km/s) = 3.51912 3.91043 3.71992
# Velocity P-wave (km/s) = 5.53151 6.39149 5.97699
#
# Compressibility (1/GPa) = 0.03178068
#
# Stress axis : x y z
#
# Youngs Moduli (GPa) = 74.97574 70.92595 44.13545
#
# Poissons Ratio (x) = 0.32690 -0.01967
# Poissons Ratio (y) = 0.34557 0.22039
# Poissons Ratio (z) = -0.03342 0.35417
#
# Static dielectric constant tensor:
#      x y z
#    x 1.875380 0.006010 0.004890 
#    y 0.006010 1.840190 -0.011330 
#    z 0.004890 -0.011330 1.826170 
# 
# From -- ./inp_files/275994.got.cif
#   From: 2010.05.17/outbox.cif.g08.bks.cpg/sg2_138_cif.got.tgz:275994.got - 2010.06.03 11:33:40.
