data_PCOD9059955
_publ_section_title
;
Structure prediction by ZEFSAII (Michael W. Deem and Ramdas Pophale) SiO2 
 PCOD9059955
Probable space group: P -1
;
_chemical_formula_sum "Si O2"
_cell_formula_units_Z 16
_cell_length_a 17.696681
_cell_length_b 11.940267
_cell_length_c 15.761590
_cell_angle_alpha 127.964503
_cell_angle_beta 32.041292
_cell_angle_gamma 151.088481
_cell_volume 742.455482
_symmetry_space_group_name_H-M "P -1"
_symmetry_group_IT_number 2
_symmetry_cell_setting 'triclinic'
loop_
_space_group_symop_operation_xyz
x,y,z
-x,-y,-z
loop_
_atom_site_type_symbol
_atom_site_label
_atom_site_fract_x
_atom_site_fract_y
_atom_site_fract_z
Si Si1 0.725844 0.767804 0.751247
Si Si2 0.231058 0.519540 0.171726
Si Si3 0.938796 0.562594 0.015366
Si Si4 0.617070 0.449994 0.388182
Si Si5 0.813564 0.276916 0.316432
Si Si6 0.573573 0.019353 0.842661
Si Si7 0.094374 0.874784 0.548493
Si Si8 0.868815 0.659097 0.430244
O O1 0.710464 0.624986 0.631920
O O2 0.934753 0.881295 0.674443
O O3 0.441679 0.576623 0.969280
O O4 0.862235 0.021688 0.696298
O O5 0.002447 0.354942 0.240827
O O6 0.094188 0.368870 0.321141
O O7 0.396144 0.805594 0.152775
O O8 0.861978 0.632919 0.175938
O O9 0.676938 0.286111 0.087985
O O10 0.000000 0.500000 0.000000
O O11 0.145666 0.746661 0.828785
O O12 0.500000 0.500000 0.500000
O O13 0.709870 0.521741 0.428903
O O14 0.373523 0.137617 0.453847
O O15 0.895537 0.512939 0.353443
O O16 0.500000 0.000000 0.500000
O O17 0.820565 0.135271 0.623401
O O18 0.500000 0.000000 0.000000
#
# Coordination Sequence:
#
# PCOD9059955 Si02
#       8
#     2   2   2   2   2   2   2   2
#     4  11  26  42  75 101 143 180 236 285 351 421
#     4  12  26  44  71 104 141 183 231 287 354 416
#     4  11  24  42  70 101 133 180 238 277 339 412
#     4  11  23  42  71  97 138 178 228 278 342 413
#     4  12  26  47  70 102 145 181 233 292 353 411
#     4  11  24  42  75 100 136 182 236 285 336 416
#     4  11  25  47  67 104 143 180 229 292 350 410
#     4  11  24  45  70 106 139 186 230 292 345 410
#
# _framework density 21.550113
#
# number of rings (size 3 to 8) (size 9 to 14) (size 15 to 20)
#    0.000    0.750    3.750    3.000    7.000    0.000 
#    2.250    1.250    0.000    0.000    0.000    0.000 
#    0.000    0.000    0.000    0.000    0.000    0.000 
#
# Total GULP energy -89366.049369 kJ/mol
# GULP energy per Si atom -5585.378086 kJ/mol
# Density = 2.150106 g / cm^3
# Si number density = 21.550113 Si / 1000 Ang^3
#
#
#
# Elastic Constant Matrix: (Units=GPa)
#
#
# Indices 1 2 3 4 5 6 
#
# 1 98.5831 7.1133 59.7874 2.3757 2.5508 -2.5963
# 2 7.1133 39.4036 28.1319 7.6508 6.0334 -5.1747
# 3 59.7874 28.1319 188.6875 -5.0291 -7.3098 -15.1904
# 4 2.3757 7.6508 -5.0291 30.8353 -12.7484 3.1845
# 5 2.5508 6.0334 -7.3098 -12.7484 33.0333 -4.4937
# 6 -2.5963 -5.1747 -15.1904 3.1845 -4.4937 40.9463
#
#
#
# Elastic Compliance Matrix: (Units=1/GPa)
#
#
# Indices 1 2 3 4 5 6 
#
# 1 0.013092 0.002419 -0.004845 -0.004051 -0.004198 -0.000807
# 2 0.002419 0.035381 -0.006876 -0.016120 -0.014150 0.001774
# 3 -0.004845 -0.006876 0.008418 0.005705 0.005988 0.002160
# 4 -0.004051 -0.016120 0.005705 0.047125 0.022520 -0.001371
# 5 -0.004198 -0.014150 0.005988 0.022520 0.043633 0.003204
# 6 -0.000807 0.001774 0.002160 -0.001371 0.003204 0.025855
#
#
# Mechanical properties :
#
#
# Convention : Reuss Voigt Hill
#
# Bulk Modulus (GPa) = 26.11890 57.41549 41.76720
# Shear Modulus (GPa) = 24.40567 36.40574 30.40571
#
# Velocity S-wave (km/s) = 3.36893 4.11463 3.76031
# Velocity P-wave (km/s) = 5.22296 7.01956 6.18682
#
# Compressibility (1/GPa) = 0.03828645
#
# Stress axis : x y z
#
# Youngs Moduli (GPa) = 76.38075 28.26400 118.79287
#
# Poissons Ratio (x) = -0.06836 0.57551
# Poissons Ratio (y) = -0.18474 0.81686
# Poissons Ratio (z) = 0.37004 0.19435
#
# Static dielectric constant tensor:
#      x y z
#    x 1.820990 0.057560 -0.055520 
#    y 0.057560 1.825840 -0.022810 
#    z -0.055520 -0.022810 1.823330 
# 
# From -- ./inp_files/538458.got.cif
#   From: 2010.05.17/outbox.cif.g08.bks.cpg/sg2_270_cif.got.tgz:538458.got - 2010.06.03 11:33:40.
