data_PCOD9059437
_publ_section_title
;
Structure prediction by ZEFSAII (Michael W. Deem and Ramdas Pophale) SiO2 
 PCOD9059437
Probable space group: P -1
;
_chemical_formula_sum "Si O2"
_cell_formula_units_Z 14
_cell_length_a 21.406392
_cell_length_b 4.985057
_cell_length_c 26.860264
_cell_angle_alpha 95.064854
_cell_angle_beta 168.918687
_cell_angle_gamma 85.207075
_cell_volume 548.688949
_symmetry_space_group_name_H-M "P -1"
_symmetry_group_IT_number 2
_symmetry_cell_setting 'triclinic'
loop_
_space_group_symop_operation_xyz
x,y,z
-x,-y,-z
loop_
_atom_site_type_symbol
_atom_site_label
_atom_site_fract_x
_atom_site_fract_y
_atom_site_fract_z
Si Si1 0.285869 0.108311 0.909842
Si Si2 0.750970 0.366272 0.841317
Si Si3 0.400071 0.893107 0.591609
Si Si4 0.294569 0.999153 0.058479
Si Si5 0.540479 0.481261 0.194638
Si Si6 0.736439 0.749916 0.674688
Si Si7 0.761806 0.709243 0.231478
O O1 0.973553 0.025189 0.696720
O O2 0.146479 0.135337 0.745411
O O3 0.582663 0.908753 0.132015
O O4 0.423325 0.380520 0.047289
O O5 0.596405 0.071170 0.707566
O O6 0.463903 0.579229 0.627304
O O7 0.000000 0.500000 0.000000
O O8 0.970814 0.320922 0.060484
O O9 0.550956 0.953584 0.765167
O O10 0.491534 0.788436 0.175949
O O11 0.327656 0.289168 0.062616
O O12 0.946220 0.850467 0.792374
O O13 0.916802 0.413882 0.496543
O O14 0.500000 0.500000 0.500000
O O15 0.500000 0.000000 0.500000
O O16 0.500000 0.500000 0.000000
#
# Coordination Sequence:
#
# PCOD9059437 Si02
#       7
#     2   2   2   2   2   2   2
#     4  11  27  44  71 110 134 195 237 296 357 427
#     4  11  25  43  71 106 142 192 240 301 358 433
#     4  11  23  45  72  98 148 190 242 291 371 429
#     4  11  24  45  68 100 139 191 234 293 355 428
#     4  12  26  45  73 104 143 185 246 287 354 430
#     4  11  23  41  68  97 142 185 234 292 363 419
#     4  11  26  47  74  99 151 185 237 299 364 420
#
# _framework density 25.515366
#
# number of rings (size 3 to 8) (size 9 to 14) (size 15 to 20)
#    0.000    0.857    1.429    6.000    6.000    4.000 
#    0.000    0.000    0.000    0.000    0.000    0.000 
#    0.000    0.000    0.000    0.000    0.000    0.000 
#
# Total GULP energy -78300.068344 kJ/mol
# GULP energy per Si atom -5592.862025 kJ/mol
# Density = 2.545729 g / cm^3
# Si number density = 25.515366 Si / 1000 Ang^3
#
#
#
# Elastic Constant Matrix: (Units=GPa)
#
#
# Indices 1 2 3 4 5 6 
#
# 1 86.0923 5.8229 13.9323 -3.4587 3.8252 9.5791
# 2 5.8229 121.4724 2.2761 -7.3919 9.1552 4.7465
# 3 13.9323 2.2761 80.9347 -8.3990 18.9855 10.3116
# 4 -3.4587 -7.3919 -8.3990 45.3839 -3.3611 14.4436
# 5 3.8252 9.1552 18.9855 -3.3611 44.0926 7.2789
# 6 9.5791 4.7465 10.3116 14.4436 7.2789 43.1807
#
#
#
# Elastic Compliance Matrix: (Units=1/GPa)
#
#
# Indices 1 2 3 4 5 6 
#
# 1 0.012271 -0.000379 -0.001658 0.001492 0.000310 -0.002836
# 2 -0.000379 0.008520 0.000555 0.001754 -0.001627 -0.001297
# 3 -0.001658 0.000555 0.014693 0.003360 -0.005480 -0.003402
# 4 0.001492 0.001754 0.003360 0.026534 0.001817 -0.010508
# 5 0.000310 -0.001627 -0.005480 0.001817 0.026081 -0.003585
# 6 -0.002836 -0.001297 -0.003402 -0.010508 -0.003585 0.028862
#
#
# Mechanical properties :
#
#
# Convention : Reuss Voigt Hill
#
# Bulk Modulus (GPa) = 30.75107 36.95132 33.85119
# Shear Modulus (GPa) = 38.23630 44.29598 41.26614
#
# Velocity S-wave (km/s) = 3.87532 4.17112 4.02594
# Velocity P-wave (km/s) = 5.66589 6.14093 5.90819
#
# Compressibility (1/GPa) = 0.03251919
#
# Stress axis : x y z
#
# Youngs Moduli (GPa) = 81.49205 117.36883 68.05897
#
# Poissons Ratio (x) = 0.04447 0.11286
# Poissons Ratio (y) = 0.03088 -0.03775
# Poissons Ratio (z) = 0.13514 -0.06509
#
# Static dielectric constant tensor:
#      x y z
#    x 2.204540 0.184940 -0.016280 
#    y 0.184940 2.110580 0.001070 
#    z -0.016280 0.001070 2.004850 
# 
# From -- ./inp_files/624112.got.cif
#   From: 2010.05.17/outbox.cif.g08.bks.cpg/sg2_313_cif.got.tgz:624112.got - 2010.06.03 11:33:40.
