data_PCOD9059409
_publ_section_title
;
Structure prediction by ZEFSAII (Michael W. Deem and Ramdas Pophale) SiO2 
 PCOD9059409
Probable space group: P -1
;
_chemical_formula_sum "Si O2"
_cell_formula_units_Z 16
_cell_length_a 8.851687
_cell_length_b 10.532609
_cell_length_c 8.810267
_cell_angle_alpha 97.300038
_cell_angle_beta 129.218316
_cell_angle_gamma 79.197310
_cell_volume 625.051146
_symmetry_space_group_name_H-M "P -1"
_symmetry_group_IT_number 2
_symmetry_cell_setting 'triclinic'
loop_
_space_group_symop_operation_xyz
x,y,z
-x,-y,-z
loop_
_atom_site_type_symbol
_atom_site_label
_atom_site_fract_x
_atom_site_fract_y
_atom_site_fract_z
Si Si1 0.030086 0.859919 0.420945
Si Si2 0.680162 0.210792 0.687800
Si Si3 0.588176 0.322052 0.940936
Si Si4 0.217850 0.459127 0.568360
Si Si5 0.384636 0.140941 0.980553
Si Si6 0.983804 0.262026 0.296003
Si Si7 0.201312 0.509804 0.224598
Si Si8 0.293823 0.207580 0.268713
O O1 0.154943 0.842173 0.341201
O O2 0.099498 0.778909 0.603624
O O3 0.815467 0.830785 0.236884
O O4 0.000000 0.000000 0.500000
O O5 0.647097 0.197772 0.845611
O O6 0.699916 0.365847 0.741654
O O7 0.487112 0.168823 0.484170
O O8 0.416849 0.433263 0.788022
O O9 0.502726 0.256418 0.023155
O O10 0.802884 0.358921 0.126051
O O11 0.207818 0.534204 0.414675
O O12 0.000000 0.500000 0.500000
O O13 0.185515 0.315803 0.474070
O O14 0.324424 0.141780 0.116610
O O15 0.500000 0.000000 0.000000
O O16 0.087092 0.178490 0.208159
O O17 0.298239 0.360837 0.255072
O O18 0.000000 0.500000 0.000000
#
# Coordination Sequence:
#
# PCOD9059409 Si02
#       8
#     2   2   2   2   2   2   2   2
#     4  12  25  45  72 104 139 181 237 300 354 420
#     4  12  23  45  69 103 143 186 229 292 350 424
#     4  12  25  45  70 102 142 188 234 289 355 420
#     4  11  24  43  66 100 143 184 235 289 347 417
#     4  12  26  48  71 103 139 187 241 293 357 423
#     4  11  23  47  66 102 140 182 236 289 353 419
#     4  11  23  41  68 101 140 186 230 280 354 412
#     4  11  24  44  70 100 140 184 236 290 346 422
#
# _framework density 25.597905000000001
#
# number of rings (size 3 to 8) (size 9 to 14) (size 15 to 20)
#    0.000    0.500    3.750    6.375    1.750    1.500 
#    0.000    5.000    0.000    0.000    0.000    0.000 
#    0.000    0.000    0.000    0.000    0.000    0.000 
#
# Total GULP energy -89095.283346 kJ/mol
# GULP energy per Si atom -5568.455209 kJ/mol
# Density = 2.553964 g / cm^3
# Si number density = 25.597905 Si / 1000 Ang^3
#
#
#
# Elastic Constant Matrix: (Units=GPa)
#
#
# Indices 1 2 3 4 5 6 
#
# 1 143.0637 17.5918 43.6497 -10.9072 -4.3568 -39.2661
# 2 17.5918 40.8835 6.4577 1.4327 -6.8414 -13.9755
# 3 43.6497 6.4577 156.8346 -14.1432 24.0629 -7.9816
# 4 -10.9072 1.4327 -14.1432 27.5130 -7.0421 -3.6442
# 5 -4.3568 -6.8414 24.0629 -7.0421 50.6977 10.1394
# 6 -39.2661 -13.9755 -7.9816 -3.6442 10.1394 35.9433
#
#
#
# Elastic Compliance Matrix: (Units=1/GPa)
#
#
# Indices 1 2 3 4 5 6 
#
# 1 0.011489 -0.000543 -0.002104 0.005178 0.000162 0.012351
# 2 -0.000543 0.028516 -0.000909 -0.000313 0.002265 0.009622
# 3 -0.002104 -0.000909 0.007804 0.002312 -0.003762 0.000376
# 4 0.005178 -0.000313 0.002312 0.041669 0.003220 0.009365
# 5 0.000162 0.002265 -0.003762 0.003220 0.023493 -0.006079
# 6 0.012351 0.009622 0.000376 0.009365 -0.006079 0.047804
#
#
# Mechanical properties :
#
#
# Convention : Reuss Voigt Hill
#
# Bulk Modulus (GPa) = 24.57283 52.90891 38.74087
# Shear Modulus (GPa) = 27.55546 41.03630 34.29588
#
# Velocity S-wave (km/s) = 3.28452 4.00823 3.66429
# Velocity P-wave (km/s) = 4.89944 6.49117 5.75065
#
# Compressibility (1/GPa) = 0.04069535
#
# Stress axis : x y z
#
# Youngs Moduli (GPa) = 87.04348 35.06790 128.13913
#
# Poissons Ratio (x) = 0.01905 0.26965
# Poissons Ratio (y) = 0.04728 0.11649
# Poissons Ratio (z) = 0.18317 0.03188
#
# Static dielectric constant tensor:
#      x y z
#    x 2.396220 -0.015630 -0.350580 
#    y -0.015630 2.286030 0.008760 
#    z -0.350580 0.008760 2.215880 
# 
# From -- ./inp_files/188878.got.cif
#   From: 2010.05.17/outbox.cif.g08.bks.cpg/sg2_95_cif.got.tgz:188878.got - 2010.06.03 11:33:40.
