data_PCOD9059502
_publ_section_title
;
Structure prediction by ZEFSAII (Michael W. Deem and Ramdas Pophale) SiO2 
 PCOD9059502
Probable space group: P -1
;
_chemical_formula_sum "Si O2"
_cell_formula_units_Z 16
_cell_length_a 8.112073
_cell_length_b 9.560808
_cell_length_c 12.493116
_cell_angle_alpha 103.670544
_cell_angle_beta 52.789790
_cell_angle_gamma 95.166276
_cell_volume 748.072136
_symmetry_space_group_name_H-M "P -1"
_symmetry_group_IT_number 2
_symmetry_cell_setting 'triclinic'
loop_
_space_group_symop_operation_xyz
x,y,z
-x,-y,-z
loop_
_atom_site_type_symbol
_atom_site_label
_atom_site_fract_x
_atom_site_fract_y
_atom_site_fract_z
Si Si1 0.819423 0.622114 0.125680
Si Si2 0.393929 0.872887 0.581329
Si Si3 0.505560 0.577266 0.400004
Si Si4 0.766277 0.873775 0.578649
Si Si5 0.191856 0.403865 0.363382
Si Si6 0.152185 0.875269 0.266317
Si Si7 0.394615 0.571316 0.155031
Si Si8 0.030439 0.055817 0.875072
O O1 0.739294 0.599608 0.274388
O O2 0.598094 0.612000 0.150628
O O3 0.891897 0.782880 0.114460
O O4 0.000000 0.500000 0.000000
O O5 0.379169 0.734257 0.485934
O O6 0.560100 0.823665 0.597285
O O7 0.500000 0.000000 0.500000
O O8 0.194192 0.941432 0.732691
O O9 0.500000 0.500000 0.500000
O O10 0.391873 0.467325 0.350621
O O11 0.840798 0.756688 0.616839
O O12 0.930261 0.887033 0.419489
O O13 0.722250 0.019815 0.688872
O O14 0.241279 0.450602 0.233493
O O15 0.000000 0.500000 0.500000
O O16 0.253781 0.715312 0.211005
O O17 0.135756 0.920278 0.155250
O O18 0.500000 0.500000 0.000000
O O19 0.000000 0.000000 0.000000
#
# Coordination Sequence:
#
# PCOD9059502 Si02
#       8
#     2   2   2   2   2   2   2   2
#     4  11  25  45  68  98 139 181 229 280 341 409
#     4  12  23  43  69  97 138 180 231 280 342 405
#     4  11  24  41  68 100 132 178 228 282 335 402
#     4  11  23  41  70 102 134 174 227 291 338 400
#     4  11  24  40  66 101 133 172 225 277 337 410
#     4  11  24  43  68 100 136 176 230 285 348 403
#     4  11  25  44  68  97 139 181 220 279 350 413
#     4  12  28  45  68 100 137 186 231 285 347 412
#
# _framework density 21.388311999999999
#
# number of rings (size 3 to 8) (size 9 to 14) (size 15 to 20)
#    0.000    0.750    5.000    1.500    5.250    3.000 
#    0.000    1.875    0.000    0.000    0.000    0.000 
#    0.000    0.000    0.000    0.000    0.000    0.000 
#
# Total GULP energy -89187.943714 kJ/mol
# GULP energy per Si atom -5574.246482 kJ/mol
# Density = 2.133963 g / cm^3
# Si number density = 21.388312 Si / 1000 Ang^3
#
#
#
# Elastic Constant Matrix: (Units=GPa)
#
#
# Indices 1 2 3 4 5 6 
#
# 1 36.7716 -19.1805 -8.3107 -6.7238 6.1634 -5.5886
# 2 -19.1805 97.5839 42.8617 -13.5482 8.8602 -3.2882
# 3 -8.3107 42.8617 136.1277 -17.9405 4.8282 -11.6154
# 4 -6.7238 -13.5482 -17.9405 40.1476 -1.7569 1.1573
# 5 6.1634 8.8602 4.8282 -1.7569 24.2769 5.6485
# 6 -5.5886 -3.2882 -11.6154 1.1573 5.6485 32.1633
#
#
#
# Elastic Compliance Matrix: (Units=1/GPa)
#
#
# Indices 1 2 3 4 5 6 
#
# 1 0.038902 0.009905 0.002032 0.009763 -0.015729 0.010917
# 2 0.009905 0.014981 -0.002887 0.004983 -0.007840 0.003408
# 3 0.002032 -0.002887 0.009185 0.003285 -0.001886 0.003588
# 4 0.009763 0.004983 0.003285 0.029454 -0.003505 0.002948
# 5 -0.015729 -0.007840 -0.001886 -0.003505 0.051212 -0.013084
# 6 0.010917 0.003408 0.003588 0.002948 -0.013084 0.036824
#
#
# Mechanical properties :
#
#
# Convention : Reuss Voigt Hill
#
# Bulk Modulus (GPa) = 12.32000 33.46936 22.89468
# Shear Modulus (GPa) = 26.38348 36.32508 31.35428
#
# Velocity S-wave (km/s) = 3.51600 4.12559 3.83293
# Velocity P-wave (km/s) = 4.71759 6.19487 5.50600
#
# Compressibility (1/GPa) = 0.08116882
#
# Stress axis : x y z
#
# Youngs Moduli (GPa) = 25.70591 66.75166 108.87346
#
# Poissons Ratio (x) = -0.66118 -0.22126
# Poissons Ratio (y) = -0.25462 0.31428
# Poissons Ratio (z) = -0.05224 0.19269
#
# Static dielectric constant tensor:
#      x y z
#    x 2.382090 -0.117390 0.305400 
#    y -0.117390 1.863680 -0.121120 
#    z 0.305400 -0.121120 1.938530 
# 
# From -- ./inp_files/243833.got.cif
#   From: 2010.05.17/outbox.cif.g08.bks.cpg/sg2_122_cif.got.tgz:243833.got - 2010.06.03 11:33:40.
