data_PCOD9059811
_publ_section_title
;
Structure prediction by ZEFSAII (Michael W. Deem and Ramdas Pophale) SiO2 
 PCOD9059811
Probable space group: P -1
;
_chemical_formula_sum "Si O2"
_cell_formula_units_Z 14
_cell_length_a 9.078571
_cell_length_b 24.871616
_cell_length_c 9.071656
_cell_angle_alpha 152.300424
_cell_angle_beta 130.073593
_cell_angle_gamma 40.748005
_cell_volume 619.038190
_symmetry_space_group_name_H-M "P -1"
_symmetry_group_IT_number 2
_symmetry_cell_setting 'triclinic'
loop_
_space_group_symop_operation_xyz
x,y,z
-x,-y,-z
loop_
_atom_site_type_symbol
_atom_site_label
_atom_site_fract_x
_atom_site_fract_y
_atom_site_fract_z
Si Si1 0.717177 0.275083 0.192081
Si Si2 0.840717 0.973082 0.220508
Si Si3 0.596325 0.429418 0.190449
Si Si4 0.810596 0.572268 0.176311
Si Si5 0.458640 0.149177 0.846051
Si Si6 0.958947 0.396107 0.126689
Si Si7 0.554800 0.851078 0.829074
O O1 0.709203 0.360881 0.251394
O O2 0.557820 0.405630 0.510554
O O3 0.591698 0.190686 0.920013
O O4 0.980447 0.156063 0.079265
O O5 0.662533 0.087554 0.269894
O O6 0.671871 0.940776 0.122406
O O7 0.000000 0.000000 0.500000
O O8 0.782351 0.377555 0.059498
O O9 0.422668 0.382180 0.941477
O O10 0.860452 0.464285 0.072795
O O11 0.760650 0.707013 0.553050
O O12 0.000000 0.500000 0.000000
O O13 0.500000 0.000000 0.500000
O O14 0.514195 0.164156 0.088149
O O15 0.194228 0.258095 0.920660
O O16 0.000000 0.500000 0.500000
#
# Coordination Sequence:
#
# PCOD9059811 Si02
#       7
#     2   2   2   2   2   2   2
#     4  11  23  42  69 103 140 184 247 297 356 438
#     4  11  24  43  68  98 142 193 242 296 375 440
#     4  11  24  42  73 102 139 190 243 302 361 432
#     4  12  25  42  72 107 140 187 248 300 364 435
#     4  12  26  44  71 106 150 193 241 304 372 437
#     4  12  24  47  72  99 146 189 238 302 365 426
#     4  11  25  46  68 103 148 191 241 308 363 444
#
# _framework density 22.615728000000001
#
# number of rings (size 3 to 8) (size 9 to 14) (size 15 to 20)
#    0.000    0.571    2.857    4.714    2.000    6.286 
#    0.000    0.000    0.000    0.000    0.000    0.000 
#    0.000    0.000    0.000    0.000    0.000    0.000 
#
# Total GULP energy -78184.196165 kJ/mol
# GULP energy per Si atom -5584.585440 kJ/mol
# Density = 2.256425 g / cm^3
# Si number density = 22.615728 Si / 1000 Ang^3
#
#
#
# Elastic Constant Matrix: (Units=GPa)
#
#
# Indices 1 2 3 4 5 6 
#
# 1 130.9107 26.8300 6.5465 11.8033 -11.8112 -12.8600
# 2 26.8300 116.5720 20.3983 17.7183 -12.0059 -12.3425
# 3 6.5465 20.3983 83.6039 23.5830 0.5112 -4.8822
# 4 11.8033 17.7183 23.5830 39.4265 -7.2834 -2.3567
# 5 -11.8112 -12.0059 0.5112 -7.2834 28.7138 0.1563
# 6 -12.8600 -12.3425 -4.8822 -2.3567 0.1563 37.0006
#
#
#
# Elastic Compliance Matrix: (Units=1/GPa)
#
#
# Indices 1 2 3 4 5 6 
#
# 1 0.008490 -0.001235 0.000179 -0.001469 0.002587 0.002458
# 2 -0.001235 0.010104 -0.001522 -0.002537 0.003086 0.002566
# 3 0.000179 -0.001522 0.014868 -0.008769 -0.003057 0.000971
# 4 -0.001469 -0.002537 -0.008769 0.033453 0.006979 -0.000413
# 5 0.002587 0.003086 -0.003057 0.006979 0.038996 0.001805
# 6 0.002458 0.002566 0.000971 -0.000413 0.001805 0.028831
#
#
# Mechanical properties :
#
#
# Convention : Reuss Voigt Hill
#
# Bulk Modulus (GPa) = 35.33019 48.73735 42.03377
# Shear Modulus (GPa) = 33.48186 39.51565 36.49875
#
# Velocity S-wave (km/s) = 3.85186 4.18456 4.02165
# Velocity P-wave (km/s) = 5.95301 6.70406 6.33967
#
# Compressibility (1/GPa) = 0.02830440
#
# Stress axis : x y z
#
# Youngs Moduli (GPa) = 117.78107 98.96896 67.26063
#
# Poissons Ratio (x) = 0.12228 -0.01201
# Poissons Ratio (y) = 0.14552 0.10237
# Poissons Ratio (z) = -0.02104 0.15062
#
# Static dielectric constant tensor:
#      x y z
#    x 1.763990 -0.019060 0.047230 
#    y -0.019060 1.786840 0.020040 
#    z 0.047230 0.020040 1.879750 
# 
# From -- ./inp_files/226816.got.cif
#   From: 2010.05.17/outbox.cif.g08.bks.cpg/sg2_114_cif.got.tgz:226816.got - 2010.06.03 11:33:40.
