data_PCOD9059864
_publ_section_title
;
Structure prediction by ZEFSAII (Michael W. Deem and Ramdas Pophale) SiO2 
 PCOD9059864
Probable space group: P -1
;
_chemical_formula_sum "Si O2"
_cell_formula_units_Z 14
_cell_length_a 20.049868
_cell_length_b 8.482444
_cell_length_c 17.244738
_cell_angle_alpha 42.041620
_cell_angle_beta 159.281174
_cell_angle_gamma 128.073702
_cell_volume 656.151158
_symmetry_space_group_name_H-M "P -1"
_symmetry_group_IT_number 2
_symmetry_cell_setting 'triclinic'
loop_
_space_group_symop_operation_xyz
x,y,z
-x,-y,-z
loop_
_atom_site_type_symbol
_atom_site_label
_atom_site_fract_x
_atom_site_fract_y
_atom_site_fract_z
Si Si1 0.495526 0.972305 0.804802
Si Si2 0.198422 0.173311 0.189725
Si Si3 0.389337 0.262884 0.822915
Si Si4 0.985927 0.644346 0.231857
Si Si5 0.662510 0.380107 0.786357
Si Si6 0.935443 0.918797 0.755859
Si Si7 0.550475 0.707389 0.794901
O O1 0.549093 0.840725 0.827654
O O2 0.580893 0.201681 0.815254
O O3 0.255139 0.067709 0.508298
O O4 0.581863 0.783958 0.036940
O O5 0.293773 0.394053 0.206152
O O6 0.090935 0.204844 0.145363
O O7 0.379361 0.912011 0.484699
O O8 0.050975 0.213023 0.942568
O O9 0.486393 0.466254 0.825940
O O10 0.155292 0.378443 0.506514
O O11 0.500000 0.000000 0.000000
O O12 0.771204 0.642112 0.025711
O O13 0.064191 0.807827 0.318032
O O14 0.500000 0.500000 0.500000
O O15 0.862940 0.218974 0.019213
#
# Coordination Sequence:
#
# PCOD9059864 Si02
#       7
#     2   2   2   2   2   2   2
#     4  11  25  47  69  98 137 182 233 278 332 414
#     4  11  24  43  71 108 142 173 223 290 349 404
#     4  12  30  47  68  99 140 187 233 283 338 409
#     4  12  25  45  72 102 141 182 225 287 348 402
#     4  12  23  42  69 107 138 175 232 282 340 408
#     4  11  23  42  70 102 136 184 224 277 347 404
#     4  11  24  48  71 101 137 180 233 280 344 410
#
# _framework density 21.336545999999998
#
# number of rings (size 3 to 8) (size 9 to 14) (size 15 to 20)
#    0.000    0.571    7.143    1.714    4.000    2.286 
#    0.000    0.000    0.000    0.000    0.000    0.000 
#    0.000    0.000    0.000    0.000    0.000    0.000 
#
# Total GULP energy -78369.868573 kJ/mol
# GULP energy per Si atom -5597.847755 kJ/mol
# Density = 2.128798 g / cm^3
# Si number density = 21.336546 Si / 1000 Ang^3
#
#
#
# Elastic Constant Matrix: (Units=GPa)
#
#
# Indices 1 2 3 4 5 6 
#
# 1 59.2792 11.6423 76.0123 -0.4711 0.7023 14.7938
# 2 11.6423 111.0800 40.7025 -17.8637 10.1559 17.2828
# 3 76.0123 40.7025 178.1141 -8.9075 9.8593 21.0899
# 4 -0.4711 -17.8637 -8.9075 33.9123 2.9611 6.1266
# 5 0.7023 10.1559 9.8593 2.9611 35.0434 6.2470
# 6 14.7938 17.2828 21.0899 6.1266 6.2470 20.4014
#
#
#
# Elastic Compliance Matrix: (Units=1/GPa)
#
#
# Indices 1 2 3 4 5 6 
#
# 1 0.043020 0.004539 -0.017369 0.001395 0.006041 -0.019353
# 2 0.004539 0.013290 -0.002799 0.008966 -0.001433 -0.013910
# 3 -0.017369 -0.002799 0.013815 0.001996 -0.003080 0.001029
# 4 0.001395 0.008966 0.001996 0.038876 -0.002633 -0.021539
# 5 0.006041 -0.001433 -0.003080 -0.002633 0.031494 -0.008837
# 6 -0.019353 -0.013910 0.001029 -0.021539 -0.008837 0.082944
#
#
# Mechanical properties :
#
#
# Convention : Reuss Voigt Hill
#
# Bulk Modulus (GPa) = 25.73020 67.24306 46.48663
# Shear Modulus (GPa) = 18.68090 32.54584 25.61337
#
# Velocity S-wave (km/s) = 2.96215 3.90982 3.46850
# Velocity P-wave (km/s) = 4.87694 7.20875 6.15429
#
# Compressibility (1/GPa) = 0.03886484
#
# Stress axis : x y z
#
# Youngs Moduli (GPa) = 23.24519 75.24645 72.38436
#
# Poissons Ratio (x) = -0.34153 1.25728
# Poissons Ratio (y) = -0.10551 0.20262
# Poissons Ratio (z) = 0.40376 0.21063
#
# Static dielectric constant tensor:
#      x y z
#    x 1.768250 -0.009880 0.004500 
#    y -0.009880 1.808310 0.022540 
#    z 0.004500 0.022540 1.744570 
# 
# From -- ./inp_files/282707.got.cif
#   From: 2010.05.17/outbox.cif.g08.bks.cpg/sg2_142_cif.got.tgz:282707.got - 2010.06.03 11:33:40.
