data_PCOD9059546
_publ_section_title
;
Structure prediction by ZEFSAII (Michael W. Deem and Ramdas Pophale) SiO2 
 PCOD9059546
Probable space group: P -1
;
_chemical_formula_sum "Si O2"
_cell_formula_units_Z 16
_cell_length_a 17.627766
_cell_length_b 9.050951
_cell_length_c 12.330518
_cell_angle_alpha 143.436595
_cell_angle_beta 50.676425
_cell_angle_gamma 102.508213
_cell_volume 700.714037
_symmetry_space_group_name_H-M "P -1"
_symmetry_group_IT_number 2
_symmetry_cell_setting 'triclinic'
loop_
_space_group_symop_operation_xyz
x,y,z
-x,-y,-z
loop_
_atom_site_type_symbol
_atom_site_label
_atom_site_fract_x
_atom_site_fract_y
_atom_site_fract_z
Si Si1 0.312002 0.320708 0.937357
Si Si2 0.836529 0.920946 0.122491
Si Si3 0.003634 0.776023 0.697300
Si Si4 0.717792 0.518034 0.700420
Si Si5 0.412448 0.310678 0.620975
Si Si6 0.340653 0.201208 0.401084
Si Si7 0.455713 0.792125 0.850484
Si Si8 0.955697 0.371949 0.051906
O O1 0.207090 0.276694 0.994538
O O2 0.322279 0.441637 0.884696
O O3 0.446758 0.971574 0.630477
O O4 0.292151 0.502896 0.173621
O O5 0.721569 0.248576 0.478612
O O6 0.892061 0.980328 0.005939
O O7 0.952630 0.726903 0.987313
O O8 0.000000 0.500000 0.500000
O O9 0.142443 0.595473 0.514626
O O10 0.981842 0.045206 0.796926
O O11 0.620866 0.878825 0.956360
O O12 0.375103 0.174532 0.481263
O O13 0.417421 0.578812 0.726899
O O14 0.398084 0.365632 0.394965
O O15 0.192287 0.379952 0.637369
O O16 0.413923 0.892983 0.073486
O O17 0.000000 0.500000 0.000000
#
# Coordination Sequence:
#
# PCOD9059546 Si02
#       8
#     2   2   2   2   2   2   2   2
#     4  11  25  43  66  97 141 178 226 276 345 408
#     4  11  24  46  70  97 137 183 225 281 335 411
#     4  11  23  41  71  99 132 183 231 279 333 408
#     4  11  23  43  69 101 133 177 233 278 338 411
#     4  11  26  43  64 101 138 179 220 286 342 401
#     4  11  24  44  69 100 136 175 228 279 344 406
#     4  11  25  40  73 103 129 179 229 285 341 403
#     4  11  25  45  69 100 139 181 226 284 342 407
#
# _framework density 22.833850000000002
#
# number of rings (size 3 to 8) (size 9 to 14) (size 15 to 20)
#    0.000    1.000    2.500    4.125    7.000    3.000 
#    0.000    3.125    0.000    0.000    0.000    0.000 
#    0.000    0.000    0.000    0.000    0.000    0.000 
#
# Total GULP energy -89385.998027 kJ/mol
# GULP energy per Si atom -5586.624877 kJ/mol
# Density = 2.278188 g / cm^3
# Si number density = 22.833850 Si / 1000 Ang^3
#
#
#
# Elastic Constant Matrix: (Units=GPa)
#
#
# Indices 1 2 3 4 5 6 
#
# 1 83.5684 28.1826 27.5356 -4.6367 0.2043 -8.2220
# 2 28.1826 121.3503 43.7830 -20.6698 1.0645 0.1246
# 3 27.5356 43.7830 96.3245 -22.6616 -4.7517 -2.7592
# 4 -4.6367 -20.6698 -22.6616 31.7686 -1.9498 4.5169
# 5 0.2043 1.0645 -4.7517 -1.9498 52.4736 -6.4527
# 6 -8.2220 0.1246 -2.7592 4.5169 -6.4527 26.7948
#
#
#
# Elastic Compliance Matrix: (Units=1/GPa)
#
#
# Indices 1 2 3 4 5 6 
#
# 1 0.014239 -0.002533 -0.003401 -0.002628 0.000145 0.004509
# 2 -0.002533 0.010769 -0.003168 0.004637 -0.000578 -0.002075
# 3 -0.003401 -0.003168 0.014781 0.008156 0.001660 -0.000482
# 4 -0.002628 0.004637 0.008156 0.040946 0.001369 -0.006561
# 5 0.000145 -0.000578 0.001660 0.001369 0.019856 0.004769
# 6 0.004509 -0.002075 -0.000482 -0.006561 0.004769 0.040919
#
#
# Mechanical properties :
#
#
# Convention : Reuss Voigt Hill
#
# Bulk Modulus (GPa) = 46.33026 55.58286 50.95656
# Shear Modulus (GPa) = 29.95679 35.65687 32.80683
#
# Velocity S-wave (km/s) = 3.62601 3.95597 3.79458
# Velocity P-wave (km/s) = 6.15344 6.72766 6.44695
#
# Compressibility (1/GPa) = 0.02158417
#
# Stress axis : x y z
#
# Youngs Moduli (GPa) = 70.23184 92.86040 67.65632
#
# Poissons Ratio (x) = 0.23525 0.23009
# Poissons Ratio (y) = 0.17792 0.21432
# Poissons Ratio (z) = 0.23885 0.29416
#
# Static dielectric constant tensor:
#      x y z
#    x 1.861480 -0.030430 0.017550 
#    y -0.030430 1.866860 -0.003310 
#    z 0.017550 -0.003310 1.908570 
# 
# From -- ./inp_files/462565.got.cif
#   From: 2010.05.17/outbox.cif.g08.bks.cpg/sg2_232_cif.got.tgz:462565.got - 2010.06.03 11:33:40.
