data_PCOD9059217
_publ_section_title
;
Structure prediction by ZEFSAII (Michael W. Deem and Ramdas Pophale) SiO2 
 PCOD9059217
Probable space group: P -1
;
_chemical_formula_sum "Si O2"
_cell_formula_units_Z 16
_cell_length_a 11.385980
_cell_length_b 8.622098
_cell_length_c 14.245575
_cell_angle_alpha 100.216676
_cell_angle_beta 149.207090
_cell_angle_gamma 81.306618
_cell_volume 704.590686
_symmetry_space_group_name_H-M "P -1"
_symmetry_group_IT_number 2
_symmetry_cell_setting 'triclinic'
loop_
_space_group_symop_operation_xyz
x,y,z
-x,-y,-z
loop_
_atom_site_type_symbol
_atom_site_label
_atom_site_fract_x
_atom_site_fract_y
_atom_site_fract_z
Si Si1 0.517903 0.788958 0.087070
Si Si2 0.320638 0.932214 0.138288
Si Si3 0.012327 0.371831 0.577384
Si Si4 0.278961 0.430011 0.461254
Si Si5 0.783479 0.111439 0.270178
Si Si6 0.776348 0.923855 0.551338
Si Si7 0.193990 0.525749 0.213943
Si Si8 0.089005 0.870279 0.168900
O O1 0.360526 0.798929 0.072730
O O2 0.724316 0.667563 0.222992
O O3 0.631583 0.964071 0.181495
O O4 0.368471 0.776960 0.889542
O O5 0.563979 0.984757 0.352071
O O6 0.182439 0.868416 0.126710
O O7 0.174107 0.075233 0.010551
O O8 0.873770 0.442741 0.576505
O O9 0.895409 0.213025 0.440118
O O10 0.000000 0.500000 0.500000
O O11 0.254309 0.263448 0.478458
O O12 0.195801 0.415527 0.294691
O O13 0.547432 0.477143 0.648951
O O14 0.987274 0.046829 0.337228
O O15 0.785263 0.999887 0.667875
O O16 0.143333 0.703105 0.233115
O O17 0.000000 0.500000 0.000000
#
# Coordination Sequence:
#
# PCOD9059217 Si02
#       8
#     2   2   2   2   2   2   2   2
#     4  11  25  44  68 102 137 176 230 282 338 401
#     4  11  23  40  72 102 133 173 231 281 336 401
#     4  12  25  46  69  99 138 187 224 275 348 400
#     4  11  27  47  70 101 139 182 228 277 341 411
#     4  11  25  44  70 100 135 178 230 285 331 403
#     4  12  23  46  72  98 135 175 232 284 331 404
#     4  11  28  48  69 103 143 177 224 283 341 407
#     4  11  26  42  71 104 130 182 228 278 345 397
#
# _framework density 22.708220000000001
#
# number of rings (size 3 to 8) (size 9 to 14) (size 15 to 20)
#    0.000    0.750    5.000    0.750    5.250    3.500 
#    0.000    0.000    0.000    0.000    0.000    0.000 
#    0.000    0.000    0.000    0.000    0.000    0.000 
#
# Total GULP energy -89600.218867 kJ/mol
# GULP energy per Si atom -5600.013679 kJ/mol
# Density = 2.265654 g / cm^3
# Si number density = 22.708220 Si / 1000 Ang^3
#
#
#
# Elastic Constant Matrix: (Units=GPa)
#
#
# Indices 1 2 3 4 5 6 
#
# 1 96.3215 20.6589 38.7727 -8.1540 -3.5175 -18.1014
# 2 20.6589 48.7734 11.4802 -22.4670 6.0594 -20.8803
# 3 38.7727 11.4802 123.3256 -41.3274 2.1043 -17.7934
# 4 -8.1540 -22.4670 -41.3274 46.1999 -5.6926 4.8869
# 5 -3.5175 6.0594 2.1043 -5.6926 25.7274 -5.0398
# 6 -18.1014 -20.8803 -17.7934 4.8869 -5.0398 33.2823
#
#
#
# Elastic Compliance Matrix: (Units=1/GPa)
#
#
# Indices 1 2 3 4 5 6 
#
# 1 0.013995 -0.006843 -0.005414 -0.005500 0.003084 0.001699
# 2 -0.006843 0.044750 0.010959 0.027459 -0.001203 0.025998
# 3 -0.005414 0.010959 0.016276 0.018020 0.001330 0.010188
# 4 -0.005500 0.027459 0.018020 0.048981 0.005577 0.017522
# 5 0.003084 -0.001203 0.001330 0.005577 0.042108 0.007191
# 6 0.001699 0.025998 0.010188 0.017522 0.007191 0.051243
#
#
# Mechanical properties :
#
#
# Convention : Reuss Voigt Hill
#
# Bulk Modulus (GPa) = 13.80708 45.58267 29.69487
# Shear Modulus (GPa) = 20.48414 34.20916 27.34665
#
# Velocity S-wave (km/s) = 3.00669 3.88553 3.47401
# Velocity P-wave (km/s) = 4.25993 6.34402 5.40340
#
# Compressibility (1/GPa) = 0.07242662
#
# Stress axis : x y z
#
# Youngs Moduli (GPa) = 71.45421 22.34617 61.43894
#
# Poissons Ratio (x) = 0.15292 0.33260
# Poissons Ratio (y) = 0.48896 -0.67331
# Poissons Ratio (z) = 0.38682 -0.24489
#
# Static dielectric constant tensor:
#      x y z
#    x 1.835120 0.009440 0.000130 
#    y 0.009440 1.823100 -0.003540 
#    z 0.000130 -0.003540 1.830120 
# 
# From -- ./inp_files/282807.got.cif
#   From: 2010.05.17/outbox.cif.g08.bks.cpg/sg2_142_cif.got.tgz:282807.got - 2010.06.03 11:33:40.
