data_PCOD9059310
_publ_section_title
;
Structure prediction by ZEFSAII (Michael W. Deem and Ramdas Pophale) SiO2 
 PCOD9059310
Probable space group: P -1
;
_chemical_formula_sum "Si O2"
_cell_formula_units_Z 14
_cell_length_a 8.124790
_cell_length_b 8.355778
_cell_length_c 19.906714
_cell_angle_alpha 52.724193
_cell_angle_beta 116.160933
_cell_angle_gamma 145.154716
_cell_volume 609.728322
_symmetry_space_group_name_H-M "P -1"
_symmetry_group_IT_number 2
_symmetry_cell_setting 'triclinic'
loop_
_space_group_symop_operation_xyz
x,y,z
-x,-y,-z
loop_
_atom_site_type_symbol
_atom_site_label
_atom_site_fract_x
_atom_site_fract_y
_atom_site_fract_z
Si Si1 0.248312 0.590100 0.482898
Si Si2 0.233123 0.152773 0.657320
Si Si3 0.638700 0.503076 0.762122
Si Si4 0.752040 0.372410 0.939838
Si Si5 0.648776 0.706896 0.907263
Si Si6 0.782532 0.584143 0.200549
Si Si7 0.153729 0.767067 0.621977
O O1 0.314398 0.441839 0.571995
O O2 0.000000 0.500000 0.500000
O O3 0.107551 0.414985 0.429995
O O4 0.540019 0.965679 0.430319
O O5 0.479181 0.297283 0.717972
O O6 0.191019 0.966207 0.635255
O O7 0.913270 0.881001 0.702716
O O8 0.768762 0.430166 0.848470
O O9 0.387293 0.409902 0.780837
O O10 0.693607 0.543809 0.913874
O O11 0.000000 0.500000 0.000000
O O12 0.500000 0.000000 0.000000
O O13 0.438343 0.665036 0.834906
O O14 0.500000 0.500000 0.000000
O O15 0.955009 0.076259 0.874448
O O16 0.886149 0.482087 0.287172
#
# Coordination Sequence:
#
# PCOD9059310 Si02
#       7
#     2   2   2   2   2   2   2
#     4  12  24  43  67  94 129 173 212 257 317 384
#     4  12  24  41  65  96 129 165 211 269 318 370
#     4  11  23  42  64  91 126 170 211 256 320 385
#     4  11  23  41  65  93 125 163 210 261 312 377
#     4  11  24  42  64  92 126 166 208 261 317 374
#     4  11  23  43  63  89 126 168 212 256 311 384
#     4  12  25  42  65  97 129 165 214 268 315 370
#
# _framework density 22.961044999999999
#
# number of rings (size 3 to 8) (size 9 to 14) (size 15 to 20)
#    0.000    0.571    0.000   10.286    0.000    3.429 
#    0.000    0.000    0.000    0.000    0.000    0.000 
#    0.000    0.000    0.000    0.000    0.000    0.000 
#
# Total GULP energy -78374.686346 kJ/mol
# GULP energy per Si atom -5598.191882 kJ/mol
# Density = 2.290878 g / cm^3
# Si number density = 22.961045 Si / 1000 Ang^3
#
#
#
# Elastic Constant Matrix: (Units=GPa)
#
#
# Indices 1 2 3 4 5 6 
#
# 1 37.9228 1.5023 20.1456 -0.8570 0.3047 2.2382
# 2 1.5023 117.5583 30.4334 18.4181 -0.1064 18.8410
# 3 20.1456 30.4334 130.6180 10.2173 6.2550 10.6196
# 4 -0.8570 18.4181 10.2173 58.6220 4.3837 -8.0327
# 5 0.3047 -0.1064 6.2550 4.3837 32.3650 -5.8796
# 6 2.2382 18.8410 10.6196 -8.0327 -5.8796 30.6019
#
#
#
# Elastic Compliance Matrix: (Units=1/GPa)
#
#
# Indices 1 2 3 4 5 6 
#
# 1 0.028877 0.000819 -0.004674 0.000855 0.000392 -0.000694
# 2 0.000819 0.010720 -0.001705 -0.004015 -0.000407 -0.007200
# 3 -0.004674 -0.001705 0.009180 -0.001329 -0.002015 -0.002530
# 4 0.000855 -0.004015 -0.001329 0.019715 -0.001008 0.007852
# 5 0.000392 -0.000407 -0.002015 -0.001008 0.032679 0.006935
# 6 -0.000694 -0.007200 -0.002530 0.007852 0.006935 0.041433
#
#
# Mechanical properties :
#
#
# Convention : Reuss Voigt Hill
#
# Bulk Modulus (GPa) = 26.55560 43.36240 34.95900
# Shear Modulus (GPa) = 30.07036 39.91898 34.99467
#
# Velocity S-wave (km/s) = 3.62280 4.17412 3.90819
# Velocity P-wave (km/s) = 5.39353 6.49286 5.96856
#
# Compressibility (1/GPa) = 0.03765684
#
# Stress axis : x y z
#
# Youngs Moduli (GPa) = 34.62979 93.28316 108.93053
#
# Poissons Ratio (x) = -0.07636 0.50911
# Poissons Ratio (y) = -0.02835 0.18572
# Poissons Ratio (z) = 0.16185 0.15905
#
# Static dielectric constant tensor:
#      x y z
#    x 1.864990 0.005460 -0.067360 
#    y 0.005460 1.822870 0.063230 
#    z -0.067360 0.063230 1.896810 
# 
# From -- ./inp_files/216881.got.cif
#   From: 2010.05.17/outbox.cif.g08.bks.cpg/sg2_109_cif.got.tgz:216881.got - 2010.06.03 11:33:40.
