data_PCOD9059741
_publ_section_title
;
Structure prediction by ZEFSAII (Michael W. Deem and Ramdas Pophale) SiO2 
 PCOD9059741
Probable space group: P -1
;
_chemical_formula_sum "Si O2"
_cell_formula_units_Z 16
_cell_length_a 11.857888
_cell_length_b 12.063254
_cell_length_c 7.125132
_cell_angle_alpha 113.799056
_cell_angle_beta 60.863137
_cell_angle_gamma 116.156402
_cell_volume 775.535126
_symmetry_space_group_name_H-M "P -1"
_symmetry_group_IT_number 2
_symmetry_cell_setting 'triclinic'
loop_
_space_group_symop_operation_xyz
x,y,z
-x,-y,-z
loop_
_atom_site_type_symbol
_atom_site_label
_atom_site_fract_x
_atom_site_fract_y
_atom_site_fract_z
Si Si1 0.400601 0.858188 0.957825
Si Si2 0.300100 0.398782 0.668437
Si Si3 0.717339 0.294232 0.700528
Si Si4 0.570421 0.346663 0.491912
Si Si5 0.880660 0.088130 0.850420
Si Si6 0.064283 0.767528 0.721890
Si Si7 0.118754 0.188832 0.421798
Si Si8 0.072881 0.468937 0.104321
O O1 0.387364 0.776867 0.103789
O O2 0.249406 0.865726 0.049370
O O3 0.441058 0.782049 0.701882
O O4 0.500000 0.000000 0.000000
O O5 0.425188 0.369256 0.646519
O O6 0.345954 0.537090 0.628766
O O7 0.243565 0.295605 0.481921
O O8 0.179003 0.396943 0.904579
O O9 0.643862 0.345042 0.628232
O O10 0.793894 0.201686 0.481883
O O11 0.837868 0.405361 0.776622
O O12 0.000222 0.150825 0.649341
O O13 0.845225 0.937646 0.748421
O O14 0.929029 0.132437 0.050862
O O15 0.945471 0.762343 0.670129
O O16 0.036835 0.629205 0.744838
O O17 0.000000 0.500000 0.000000
#
# Coordination Sequence:
#
# PCOD9059741 Si02
#       8
#     2   2   2   2   2   2   2   2
#     4  12  25  47  67  95 134 184 224 272 331 393
#     4  11  23  45  68  98 137 174 219 276 334 394
#     4  12  24  43  69  99 134 177 225 272 323 405
#     4  11  25  46  68  94 137 178 225 273 328 397
#     4  11  23  43  66  95 138 171 222 280 329 391
#     4  12  22  41  69 102 132 172 220 273 338 397
#     4  11  23  42  67  99 132 176 218 278 339 386
#     4  12  23  41  71 104 137 174 215 276 344 395
#
# _framework density 20.630917
#
# number of rings (size 3 to 8) (size 9 to 14) (size 15 to 20)
#    0.000    0.500    5.000    4.500    0.000    1.000 
#    4.500    0.000    0.000    0.000    0.000    0.000 
#    0.000    0.000    0.000    0.000    0.000    0.000 
#
# Total GULP energy -89546.425338 kJ/mol
# GULP energy per Si atom -5596.651584 kJ/mol
# Density = 2.058396 g / cm^3
# Si number density = 20.630917 Si / 1000 Ang^3
#
#
#
# Elastic Constant Matrix: (Units=GPa)
#
#
# Indices 1 2 3 4 5 6 
#
# 1 101.2311 7.1420 25.4099 1.4244 16.5486 -14.3600
# 2 7.1420 72.7315 20.1528 22.3561 13.1763 8.1996
# 3 25.4099 20.1528 96.1577 11.5510 18.2314 -0.1670
# 4 1.4244 22.3561 11.5510 29.5035 3.1126 8.1345
# 5 16.5486 13.1763 18.2314 3.1126 35.0930 2.2784
# 6 -14.3600 8.1996 -0.1670 8.1345 2.2784 34.0083
#
#
#
# Elastic Compliance Matrix: (Units=1/GPa)
#
#
# Indices 1 2 3 4 5 6 
#
# 1 0.012012 -0.000140 -0.002145 -0.000665 -0.004800 0.005576
# 2 -0.000140 0.019283 -0.001444 -0.013156 -0.005178 -0.001222
# 3 -0.002145 -0.001444 0.012573 -0.003402 -0.004718 0.000634
# 4 -0.000665 -0.013156 -0.003402 0.047256 0.003391 -0.008656
# 5 -0.004800 -0.005178 -0.004718 0.003391 0.035111 -0.003965
# 6 0.005576 -0.001222 0.000634 -0.008656 -0.003965 0.034393
#
#
# Mechanical properties :
#
#
# Convention : Reuss Voigt Hill
#
# Bulk Modulus (GPa) = 27.46541 41.72552 34.59547
# Shear Modulus (GPa) = 27.74352 34.21533 30.97942
#
# Velocity S-wave (km/s) = 3.67107 4.07682 3.87925
# Velocity P-wave (km/s) = 5.59559 6.51378 6.07207
#
# Compressibility (1/GPa) = 0.03640943
#
# Stress axis : x y z
#
# Youngs Moduli (GPa) = 83.25191 51.85987 79.53338
#
# Poissons Ratio (x) = 0.00724 0.17061
# Poissons Ratio (y) = 0.01162 0.11488
# Poissons Ratio (z) = 0.17858 0.07491
#
# Static dielectric constant tensor:
#      x y z
#    x 1.708230 -0.005990 -0.002600 
#    y -0.005990 1.726500 0.010220 
#    z -0.002600 0.010220 1.733570 
# 
# From -- ./inp_files/68989.got.cif
#   From: 2010.05.17/outbox.cif.g08.bks.cpg/sg2_35_cif.got.tgz:68989.got - 2010.06.03 11:33:40.
