data_PCOD9059552
_publ_section_title
;
Structure prediction by ZEFSAII (Michael W. Deem and Ramdas Pophale) SiO2 
 PCOD9059552
Probable space group: P -1
;
_chemical_formula_sum "Si O2"
_cell_formula_units_Z 16
_cell_length_a 8.347311
_cell_length_b 11.717313
_cell_length_c 18.325204
_cell_angle_alpha 149.989303
_cell_angle_beta 65.114243
_cell_angle_gamma 125.612381
_cell_volume 713.302104
_symmetry_space_group_name_H-M "P -1"
_symmetry_group_IT_number 2
_symmetry_cell_setting 'triclinic'
loop_
_space_group_symop_operation_xyz
x,y,z
-x,-y,-z
loop_
_atom_site_type_symbol
_atom_site_label
_atom_site_fract_x
_atom_site_fract_y
_atom_site_fract_z
Si Si1 0.965538 0.631093 0.150466
Si Si2 0.941343 0.517574 0.678192
Si Si3 0.612972 0.015758 0.290843
Si Si4 0.244020 0.603273 0.200287
Si Si5 0.552102 0.286000 0.122184
Si Si6 0.376735 0.491656 0.383394
Si Si7 0.029291 0.160194 0.365658
Si Si8 0.734241 0.889709 0.054424
O O1 0.763722 0.438140 0.125391
O O2 0.144142 0.689744 0.204605
O O3 0.964776 0.891519 0.269494
O O4 0.000000 0.500000 0.000000
O O5 0.836824 0.374046 0.693140
O O6 0.770107 0.496523 0.644110
O O7 0.054312 0.381434 0.540792
O O8 0.091546 0.819480 0.832250
O O9 0.481588 0.784176 0.243509
O O10 0.590767 0.912330 0.155741
O O11 0.552547 0.241232 0.438523
O O12 0.848264 0.127115 0.328042
O O13 0.189209 0.302997 0.035191
O O14 0.537016 0.441349 0.281294
O O15 0.383892 0.241385 0.069171
O O16 0.500000 0.000000 0.000000
O O17 0.232546 0.257022 0.334027
#
# Coordination Sequence:
#
# PCOD9059552 Si02
#       8
#     2   2   2   2   2   2   2   2
#     4  12  27  47  68  99 144 186 219 284 349 403
#     4  11  23  41  72 103 134 179 225 289 337 402
#     4  11  23  43  72 103 131 180 233 277 341 407
#     4  12  26  41  70 103 138 174 236 284 333 404
#     4  12  27  44  71 103 137 181 229 281 347 403
#     4  11  23  46  70 102 136 180 227 284 343 404
#     4  11  23  45  72  98 143 177 228 277 352 402
#     4  12  22  45  70 102 132 178 234 279 331 412
#
# _framework density 22.430887999999999
#
# number of rings (size 3 to 8) (size 9 to 14) (size 15 to 20)
#    0.000    0.500    3.750    5.250    3.500    1.500 
#    2.250    1.250    0.000    0.000    0.000    0.000 
#    0.000    0.000    0.000    0.000    0.000    0.000 
#
# Total GULP energy -89605.844569 kJ/mol
# GULP energy per Si atom -5600.365286 kJ/mol
# Density = 2.237983 g / cm^3
# Si number density = 22.430888 Si / 1000 Ang^3
#
#
#
# Elastic Constant Matrix: (Units=GPa)
#
#
# Indices 1 2 3 4 5 6 
#
# 1 29.1727 5.8295 5.3208 -0.2595 -8.3642 -4.1148
# 2 5.8295 164.3291 39.9545 -14.4098 -12.0395 12.2577
# 3 5.3208 39.9545 97.9434 -10.5842 -23.3873 4.4169
# 4 -0.2595 -14.4098 -10.5842 46.0350 -1.3587 -5.9037
# 5 -8.3642 -12.0395 -23.3873 -1.3587 31.5016 1.7244
# 6 -4.1148 12.2577 4.4169 -5.9037 1.7244 33.1512
#
#
#
# Elastic Compliance Matrix: (Units=1/GPa)
#
#
# Indices 1 2 3 4 5 6 
#
# 1 0.037877 -0.001035 0.000620 0.000921 0.009907 0.004650
# 2 -0.001035 0.007047 -0.002366 0.001397 0.000843 -0.002214
# 3 0.000620 -0.002366 0.013766 0.002594 0.009643 -0.000922
# 4 0.000921 0.001397 0.002594 0.023278 0.003532 0.003214
# 5 0.009907 0.000843 0.009643 0.003532 0.042114 -0.001928
# 6 0.004650 -0.002214 -0.000922 0.003214 -0.001928 0.032356
#
#
# Mechanical properties :
#
#
# Convention : Reuss Voigt Hill
#
# Bulk Modulus (GPa) = 18.82269 43.73944 31.28106
# Shear Modulus (GPa) = 27.82279 38.16027 32.99153
#
# Velocity S-wave (km/s) = 3.52572 4.12908 3.83927
# Velocity P-wave (km/s) = 4.99839 6.50188 5.79906
#
# Compressibility (1/GPa) = 0.05312737
#
# Stress axis : x y z
#
# Youngs Moduli (GPa) = 26.40138 141.90876 72.64249
#
# Poissons Ratio (x) = 0.14682 -0.04502
# Poissons Ratio (y) = 0.02732 0.17189
# Poissons Ratio (z) = -0.01636 0.33580
#
# Static dielectric constant tensor:
#      x y z
#    x 1.871130 0.030120 -0.010820 
#    y 0.030120 1.815500 -0.010930 
#    z -0.010820 -0.010930 1.819570 
# 
# From -- ./inp_files/209313.got.cif
#   From: 2010.05.17/outbox.cif.g08.bks.cpg/sg2_105_cif.got.tgz:209313.got - 2010.06.03 11:33:40.
