data_PCOD9059728
_publ_section_title
;
Structure prediction by ZEFSAII (Michael W. Deem and Ramdas Pophale) SiO2 
 PCOD9059728
Probable space group: P -1
;
_chemical_formula_sum "Si O2"
_cell_formula_units_Z 15
_cell_length_a 12.183269
_cell_length_b 9.174679
_cell_length_c 16.668060
_cell_angle_alpha 122.189098
_cell_angle_beta 140.679599
_cell_angle_gamma 87.182537
_cell_volume 735.478136
_symmetry_space_group_name_H-M "P -1"
_symmetry_group_IT_number 2
_symmetry_cell_setting 'triclinic'
loop_
_space_group_symop_operation_xyz
x,y,z
-x,-y,-z
loop_
_atom_site_type_symbol
_atom_site_label
_atom_site_fract_x
_atom_site_fract_y
_atom_site_fract_z
Si Si1 0.655473 0.204206 0.974679
Si Si2 0.015789 0.295240 0.744374
Si Si3 0.343261 0.754797 0.384185
Si Si4 0.500000 0.000000 0.000000
Si Si5 0.784234 0.700080 0.882103
Si Si6 0.306443 0.057249 0.219037
Si Si7 0.587792 0.653225 0.931663
Si Si8 0.752350 0.869664 0.363764
O O1 0.430470 0.166995 0.811288
O O2 0.608895 0.072790 0.991167
O O3 0.699335 0.101125 0.895796
O O4 0.869392 0.484180 0.183522
O O5 0.910563 0.330860 0.769173
O O6 0.214010 0.294831 0.883228
O O7 0.807221 0.047121 0.514575
O O8 0.312629 0.556520 0.262162
O O9 0.470483 0.803418 0.555437
O O10 0.500000 0.000000 0.500000
O O11 0.526603 0.806499 0.963053
O O12 0.694512 0.767402 0.781107
O O13 0.691649 0.703598 0.915927
O O14 0.067457 0.890133 0.087684
O O15 0.362247 0.378055 0.736414
O O16 0.000000 0.000000 0.500000
#
# Coordination Sequence:
#
# PCOD9059728 Si02
#       8
#     2   2   2   1   2   2   2   2
#     4  11  23  44  70  95 132 175 222 271 333 392
#     4  11  23  42  67  96 133 173 218 273 327 389
#     4  12  24  39  69 102 133 174 221 265 329 399
#     4  12  24  46  68  96 130 176 224 274 330 388
#     4  11  24  43  68  99 137 175 216 270 336 396
#     4  11  23  44  66  98 137 178 211 273 334 396
#     4  11  25  43  69  99 133 171 225 277 325 397
#     4  11  23  44  67  95 132 176 223 275 326 382
#
# _framework density 20.394895999999999
#
# number of rings (size 3 to 8) (size 9 to 14) (size 15 to 20)
#    0.000    0.800    4.000    3.600    1.867    3.200 
#    0.000    8.667    0.000    0.000    0.000    0.000 
#    0.000    0.000    0.000    0.000    0.000    0.000 
#
# Total GULP energy -83625.013052 kJ/mol
# GULP energy per Si atom -5575.000870 kJ/mol
# Density = 2.034848 g / cm^3
# Si number density = 20.394896 Si / 1000 Ang^3
#
#
#
# Elastic Constant Matrix: (Units=GPa)
#
#
# Indices 1 2 3 4 5 6 
#
# 1 107.6087 18.6826 11.8230 12.5091 6.0801 -10.8042
# 2 18.6826 94.6630 28.1477 27.6483 2.5044 -12.0382
# 3 11.8230 28.1477 54.8930 15.0463 1.9703 -7.1078
# 4 12.5091 27.6483 15.0463 19.5656 -2.3504 -1.8556
# 5 6.0801 2.5044 1.9703 -2.3504 35.7782 6.6577
# 6 -10.8042 -12.0382 -7.1078 -1.8556 6.6577 45.3330
#
#
#
# Elastic Compliance Matrix: (Units=1/GPa)
#
#
# Indices 1 2 3 4 5 6 
#
# 1 0.010517 0.000577 -0.000017 -0.007606 -0.002840 0.002763
# 2 0.000577 0.019409 -0.002193 -0.026155 -0.003882 0.004447
# 3 -0.000017 -0.002193 0.024058 -0.015440 -0.002733 0.002955
# 4 -0.007606 -0.026155 -0.015440 0.105485 0.012522 -0.008700
# 5 -0.002840 -0.003882 -0.002733 0.012522 0.030822 -0.006150
# 6 0.002763 0.004447 0.002955 -0.008700 -0.006150 0.024909
#
#
# Mechanical properties :
#
#
# Convention : Reuss Voigt Hill
#
# Bulk Modulus (GPa) = 19.71602 41.60792 30.66197
# Shear Modulus (GPa) = 21.24314 33.36945 27.30630
#
# Velocity S-wave (km/s) = 3.23087 4.04934 3.66304
# Velocity P-wave (km/s) = 4.85862 6.50449 5.74084
#
# Compressibility (1/GPa) = 0.05072018
#
# Stress axis : x y z
#
# Youngs Moduli (GPa) = 95.08788 51.52232 41.56613
#
# Poissons Ratio (x) = -0.02975 0.00069
# Poissons Ratio (y) = -0.05491 0.09114
# Poissons Ratio (z) = 0.00158 0.11297
#
# Static dielectric constant tensor:
#      x y z
#    x 1.748460 -0.010350 -0.010050 
#    y -0.010350 1.701520 -0.010980 
#    z -0.010050 -0.010980 1.726580 
# 
# From -- ./inp_files/27066.got.cif
#   From: 2010.05.17/outbox.cif.g08.bks.cpg/sg2_14_cif.got.tgz:27066.got - 2010.06.03 11:33:40.
