data_PCOD9059122
_publ_section_title
;
Structure prediction by ZEFSAII (Michael W. Deem and Ramdas Pophale) SiO2 
 PCOD9059122
Probable space group: P -1
;
_chemical_formula_sum "Si O2"
_cell_formula_units_Z 16
_cell_length_a 28.700956
_cell_length_b 6.579280
_cell_length_c 12.725411
_cell_angle_alpha 134.746887
_cell_angle_beta 26.961685
_cell_angle_gamma 136.419567
_cell_volume 737.880199
_symmetry_space_group_name_H-M "P -1"
_symmetry_group_IT_number 2
_symmetry_cell_setting 'triclinic'
loop_
_space_group_symop_operation_xyz
x,y,z
-x,-y,-z
loop_
_atom_site_type_symbol
_atom_site_label
_atom_site_fract_x
_atom_site_fract_y
_atom_site_fract_z
Si Si1 0.021933 0.384584 0.024492
Si Si2 0.876660 0.475269 0.716247
Si Si3 0.385240 0.239451 0.494626
Si Si4 0.685309 0.168911 0.141103
Si Si5 0.376878 0.260438 0.284121
Si Si6 0.790589 0.041655 0.088376
Si Si7 0.526494 0.916222 0.185893
Si Si8 0.138056 0.903530 0.597930
O O1 0.915595 0.330238 0.288649
O O2 0.122533 0.631073 0.964755
O O3 0.000000 0.500000 0.000000
O O4 0.050233 0.080637 0.829618
O O5 0.844960 0.267832 0.601824
O O6 0.000000 0.500000 0.500000
O O7 0.800083 0.316397 0.907931
O O8 0.852476 0.790576 0.861337
O O9 0.369027 0.565918 0.637397
O O10 0.403968 0.156918 0.306855
O O11 0.277129 0.033207 0.694249
O O12 0.480751 0.194652 0.358036
O O13 0.708845 0.025056 0.149567
O O14 0.608187 0.956347 0.133177
O O15 0.428662 0.616750 0.295774
O O16 0.248299 0.145754 0.496809
O O17 0.418656 0.127171 0.049768
#
# Coordination Sequence:
#
# PCOD9059122 Si02
#       8
#     2   2   2   2   2   2   2   2
#     4  11  23  40  67  97 132 175 221 269 334 398
#     4  11  24  43  68  97 135 176 220 277 334 401
#     4  11  23  42  70  95 134 178 222 282 330 398
#     4  11  24  44  67  97 138 175 226 275 334 405
#     4  11  24  43  66  97 135 172 227 281 333 397
#     4  11  25  44  68 104 135 178 224 273 341 404
#     4  11  24  44  67  99 131 180 226 277 337 395
#     4  11  23  42  64  96 132 170 221 274 329 395
#
# _framework density 21.683737000000001
#
# number of rings (size 3 to 8) (size 9 to 14) (size 15 to 20)
#    0.000    1.000    1.250    5.250    0.000   11.000 
#    4.500    0.000    0.000    0.000    0.000    0.000 
#    0.000    0.000    0.000    0.000    0.000    0.000 
#
# Total GULP energy -89450.977942 kJ/mol
# GULP energy per Si atom -5590.686121 kJ/mol
# Density = 2.163438 g / cm^3
# Si number density = 21.683737 Si / 1000 Ang^3
#
#
#
# Elastic Constant Matrix: (Units=GPa)
#
#
# Indices 1 2 3 4 5 6 
#
# 1 157.3744 32.6282 0.6921 34.5068 18.3023 -21.4748
# 2 32.6282 73.1675 47.9613 -12.0730 4.7393 0.4767
# 3 0.6921 47.9613 173.8692 -87.8813 -13.2247 16.0377
# 4 34.5068 -12.0730 -87.8813 117.9021 16.8724 -23.7288
# 5 18.3023 4.7393 -13.2247 16.8724 47.8331 -9.5486
# 6 -21.4748 0.4767 16.0377 -23.7288 -9.5486 41.6033
#
#
#
# Elastic Compliance Matrix: (Units=1/GPa)
#
#
# Indices 1 2 3 4 5 6 
#
# 1 0.008193 -0.003528 -0.000696 -0.002502 -0.001545 0.002756
# 2 -0.003528 0.019085 -0.006028 -0.001429 -0.001896 -0.000967
# 3 -0.000696 -0.006028 0.011575 0.008062 0.001246 0.000132
# 4 -0.002502 -0.001429 0.008062 0.016198 -0.001484 0.004515
# 5 -0.001545 -0.001896 0.001246 -0.001484 0.023196 0.003221
# 6 0.002756 -0.000967 0.000132 0.004515 0.003221 0.028734
#
#
# Mechanical properties :
#
#
# Convention : Reuss Voigt Hill
#
# Bulk Modulus (GPa) = 54.49971 62.99713 58.74842
# Shear Modulus (GPa) = 37.42464 63.00967 50.21716
#
# Velocity S-wave (km/s) = 4.15894 5.39644 4.81759
# Velocity P-wave (km/s) = 6.94628 8.24285 7.62218
#
# Compressibility (1/GPa) = 0.01834872
#
# Stress axis : x y z
#
# Youngs Moduli (GPa) = 122.05174 52.39590 86.39638
#
# Poissons Ratio (x) = 0.18487 0.06010
# Poissons Ratio (y) = 0.43065 0.52082
# Poissons Ratio (z) = 0.08491 0.31585
#
# Static dielectric constant tensor:
#      x y z
#    x 1.773380 0.057720 -0.013520 
#    y 0.057720 1.616100 0.074470 
#    z -0.013520 0.074470 1.749850 
# 
# From -- ./inp_files/83110.got.cif
#   From: 2010.05.17/outbox.cif.g08.bks.cpg/sg2_42_cif.got.tgz:83110.got - 2010.06.03 11:33:40.
