data_PCOD9059298
_publ_section_title
;
Structure prediction by ZEFSAII (Michael W. Deem and Ramdas Pophale) SiO2 
 PCOD9059298
Probable space group: P -1
;
_chemical_formula_sum "Si O2"
_cell_formula_units_Z 15
_cell_length_a 12.416812
_cell_length_b 21.571801
_cell_length_c 9.108841
_cell_angle_alpha 135.862853
_cell_angle_beta 36.644157
_cell_angle_gamma 150.403609
_cell_volume 717.538787
_symmetry_space_group_name_H-M "P -1"
_symmetry_group_IT_number 2
_symmetry_cell_setting 'triclinic'
loop_
_space_group_symop_operation_xyz
x,y,z
-x,-y,-z
loop_
_atom_site_type_symbol
_atom_site_label
_atom_site_fract_x
_atom_site_fract_y
_atom_site_fract_z
Si Si1 0.294079 0.729328 0.261842
Si Si2 0.163114 0.128027 0.446007
Si Si3 0.500000 0.500000 0.000000
Si Si4 0.010667 0.764677 0.819168
Si Si5 0.829264 0.475279 0.779357
Si Si6 0.232575 0.856822 0.045129
Si Si7 0.263803 0.685658 0.880677
Si Si8 0.818759 0.982886 0.052599
O O1 0.062616 0.704768 0.542452
O O2 0.347610 0.665443 0.203333
O O3 0.245413 0.676041 0.060390
O O4 0.530574 0.880028 0.252684
O O5 0.458215 0.250452 0.371344
O O6 0.184439 0.086220 0.197011
O O7 0.996506 0.158318 0.684199
O O8 0.000000 0.000000 0.500000
O O9 0.314675 0.488101 0.059840
O O10 0.280272 0.347065 0.004634
O O11 0.181291 0.808175 0.851746
O O12 0.085200 0.887036 0.881928
O O13 0.000000 0.500000 0.500000
O O14 0.030445 0.561199 0.837394
O O15 0.253193 0.784348 0.012543
O O16 0.500000 0.000000 0.000000
O O17 0.000000 0.000000 0.000000
#
# Coordination Sequence:
#
# PCOD9059298 Si02
#       8
#     2   2   1   2   2   2   2   2
#     4  11  25  47  68 103 145 184 232 291 362 419
#     4  11  23  41  65 100 137 181 235 287 345 419
#     4  12  26  46  72 108 132 184 246 286 348 418
#     4  12  25  45  69 104 142 184 239 290 348 429
#     4  12  25  47  73  99 138 187 237 289 348 425
#     4  12  23  41  69 101 139 185 237 289 348 414
#     4  11  25  44  68 102 139 186 230 293 357 414
#     4  11  25  42  68 100 140 188 228 291 352 412
#
# _framework density 20.904790999999999
#
# number of rings (size 3 to 8) (size 9 to 14) (size 15 to 20)
#    0.000    0.533    5.333    2.400    5.600    1.067 
#    0.000    0.667    0.000    0.000    0.000    0.000 
#    0.000    0.000    0.000    0.000    0.000    0.000 
#
# Total GULP energy -83562.743945 kJ/mol
# GULP energy per Si atom -5570.849596 kJ/mol
# Density = 2.085721 g / cm^3
# Si number density = 20.904791 Si / 1000 Ang^3
#
#
#
# Elastic Constant Matrix: (Units=GPa)
#
#
# Indices 1 2 3 4 5 6 
#
# 1 122.4228 39.2606 26.3741 -11.3011 -4.5132 -16.2817
# 2 39.2606 121.9667 3.2987 -12.5028 -0.2958 -9.5380
# 3 26.3741 3.2987 69.6263 4.7541 -9.0766 -5.5497
# 4 -11.3011 -12.5028 4.7541 15.0529 -0.8045 -4.3314
# 5 -4.5132 -0.2958 -9.0766 -0.8045 37.3921 0.4289
# 6 -16.2817 -9.5380 -5.5497 -4.3314 0.4289 54.9074
#
#
#
# Elastic Compliance Matrix: (Units=1/GPa)
#
#
# Indices 1 2 3 4 5 6 
#
# 1 0.011089 -0.002313 -0.004383 0.008711 0.000408 0.003128
# 2 -0.002313 0.009759 0.000066 0.006792 -0.000058 0.001552
# 3 -0.004383 0.000066 0.017026 -0.008506 0.003424 -0.000265
# 4 0.008711 0.006792 -0.008506 0.084082 0.000740 0.009530
# 5 0.000408 -0.000058 0.003424 0.000740 0.027636 0.000300
# 6 0.003128 0.001552 -0.000265 0.009530 0.000300 0.020132
#
#
# Mechanical properties :
#
#
# Convention : Reuss Voigt Hill
#
# Bulk Modulus (GPa) = 40.62639 50.20918 45.41779
# Shear Modulus (GPa) = 26.15207 37.80930 31.98068
#
# Velocity S-wave (km/s) = 3.54080 4.25743 3.91554
# Velocity P-wave (km/s) = 6.01602 6.94534 6.49732
#
# Compressibility (1/GPa) = 0.02461454
#
# Stress axis : x y z
#
# Youngs Moduli (GPa) = 90.17540 102.46802 58.73448
#
# Poissons Ratio (x) = 0.23697 0.25746
# Poissons Ratio (y) = 0.20854 -0.00388
# Poissons Ratio (z) = 0.39528 -0.00677
#
# Static dielectric constant tensor:
#      x y z
#    x 1.729910 -0.006580 0.004090 
#    y -0.006580 1.798010 -0.018800 
#    z 0.004090 -0.018800 1.757010 
# 
# From -- ./inp_files/260893.got.cif
#   From: 2010.05.17/outbox.cif.g08.bks.cpg/sg2_131_cif.got.tgz:260893.got - 2010.06.03 11:33:40.
