data_PCOD9059460
_publ_section_title
;
Structure prediction by ZEFSAII (Michael W. Deem and Ramdas Pophale) SiO2 
 PCOD9059460
Probable space group: P -1
;
_chemical_formula_sum "Si O2"
_cell_formula_units_Z 16
_cell_length_a 9.267373
_cell_length_b 9.494136
_cell_length_c 21.890320
_cell_angle_alpha 153.309816
_cell_angle_beta 123.627504
_cell_angle_gamma 58.728746
_cell_volume 718.815203
_symmetry_space_group_name_H-M "P -1"
_symmetry_group_IT_number 2
_symmetry_cell_setting 'triclinic'
loop_
_space_group_symop_operation_xyz
x,y,z
-x,-y,-z
loop_
_atom_site_type_symbol
_atom_site_label
_atom_site_fract_x
_atom_site_fract_y
_atom_site_fract_z
Si Si1 0.479455 0.400543 0.525321
Si Si2 0.223840 0.876011 0.718153
Si Si3 0.549045 0.250336 0.968253
Si Si4 0.613537 0.126100 0.630276
Si Si5 0.943826 0.431735 0.328485
Si Si6 0.979643 0.113324 0.653032
Si Si7 0.429346 0.658618 0.854101
Si Si8 0.810603 0.693806 0.768240
O O1 0.500000 0.500000 0.500000
O O2 0.318178 0.586024 0.591740
O O3 0.650611 0.483838 0.633529
O O4 0.445643 0.041834 0.387477
O O5 0.088389 0.740699 0.681544
O O6 0.378572 0.046116 0.852972
O O7 0.136697 0.097384 0.731219
O O8 0.717171 0.010688 0.898233
O O9 0.500000 0.500000 0.000000
O O10 0.572172 0.414729 0.102437
O O11 0.809987 0.065311 0.635073
O O12 0.563452 0.481019 0.770341
O O13 0.500000 0.000000 0.500000
O O14 0.759312 0.410310 0.242964
O O15 0.089388 0.253940 0.251504
O O16 0.990850 0.796414 0.490674
O O17 0.941232 0.452017 0.743307
O O18 0.500000 0.000000 0.000000
#
# Coordination Sequence:
#
# PCOD9059460 Si02
#       8
#     2   2   2   2   2   2   2   2
#     4  11  23  41  69 102 141 186 238 290 362 423
#     4  11  25  46  71 105 149 184 238 306 356 429
#     4  11  28  52  71  99 145 199 248 291 358 436
#     4  12  23  44  73 106 140 193 239 296 360 431
#     4  12  24  44  74 110 146 184 242 301 369 424
#     4  12  24  43  74 111 146 179 239 308 367 423
#     4  12  25  46  74 102 145 195 241 295 359 437
#     4  11  26  45  71 103 142 186 243 299 359 429
#
# _framework density 22.258851
#
# number of rings (size 3 to 8) (size 9 to 14) (size 15 to 20)
#    0.000    0.500    5.000    2.250    7.000    0.500 
#    2.250    1.250    0.000    0.000    0.000    0.000 
#    0.000    0.000    0.000    0.000    0.000    0.000 
#
# Total GULP energy -89438.109781 kJ/mol
# GULP energy per Si atom -5589.881861 kJ/mol
# Density = 2.220819 g / cm^3
# Si number density = 22.258851 Si / 1000 Ang^3
#
#
#
# Elastic Constant Matrix: (Units=GPa)
#
#
# Indices 1 2 3 4 5 6 
#
# 1 87.5050 17.9154 1.3275 -5.7485 -18.0857 9.1171
# 2 17.9154 124.9725 25.7954 -7.0499 -10.5006 7.9626
# 3 1.3275 25.7954 81.9323 -6.3520 -25.9918 -1.7873
# 4 -5.7485 -7.0499 -6.3520 30.5005 4.2159 5.3157
# 5 -18.0857 -10.5006 -25.9918 4.2159 28.6652 3.8611
# 6 9.1171 7.9626 -1.7873 5.3157 3.8611 45.1585
#
#
#
# Elastic Compliance Matrix: (Units=1/GPa)
#
#
# Indices 1 2 3 4 5 6 
#
# 1 0.014966 -0.001594 0.004523 0.002264 0.013160 -0.003953
# 2 -0.001594 0.008967 -0.002802 0.001492 -0.000276 -0.001522
# 3 0.004523 -0.002802 0.019206 0.001817 0.019179 -0.001513
# 4 0.002264 0.001492 0.001817 0.034873 -0.000876 -0.004678
# 5 0.013160 -0.000276 0.019179 -0.000876 0.061550 -0.007009
# 6 -0.003953 -0.001522 -0.001513 -0.004678 -0.007009 0.024301
#
#
# Mechanical properties :
#
#
# Convention : Reuss Voigt Hill
#
# Bulk Modulus (GPa) = 23.04504 42.72072 32.88288
# Shear Modulus (GPa) = 28.07837 37.48961 32.78399
#
# Velocity S-wave (km/s) = 3.55554 4.10842 3.84194
# Velocity P-wave (km/s) = 5.21838 6.46064 5.87245
#
# Compressibility (1/GPa) = 0.04339328
#
# Stress axis : x y z
#
# Youngs Moduli (GPa) = 66.81767 111.52480 52.06613
#
# Poissons Ratio (x) = 0.17775 -0.23551
# Poissons Ratio (y) = 0.10649 0.14591
# Poissons Ratio (z) = -0.30224 0.31254
#
# Static dielectric constant tensor:
#      x y z
#    x 1.738800 0.247540 0.084680 
#    y 0.247540 1.401680 -0.177780 
#    z 0.084680 -0.177780 1.732140 
# 
# From -- ./inp_files/185694.got.cif
#   From: 2010.05.17/outbox.cif.g08.bks.cpg/sg2_93_cif.got.tgz:185694.got - 2010.06.03 11:33:40.
