data_PCOD9059688
_publ_section_title
;
Structure prediction by ZEFSAII (Michael W. Deem and Ramdas Pophale) SiO2 
 PCOD9059688
Probable space group: P -1
;
_chemical_formula_sum "Si O2"
_cell_formula_units_Z 16
_cell_length_a 11.390314
_cell_length_b 12.023456
_cell_length_c 8.768663
_cell_angle_alpha 130.589695
_cell_angle_beta 81.015425
_cell_angle_gamma 121.022656
_cell_volume 751.294595
_symmetry_space_group_name_H-M "P -1"
_symmetry_group_IT_number 2
_symmetry_cell_setting 'triclinic'
loop_
_space_group_symop_operation_xyz
x,y,z
-x,-y,-z
loop_
_atom_site_type_symbol
_atom_site_label
_atom_site_fract_x
_atom_site_fract_y
_atom_site_fract_z
Si Si1 0.360570 0.506204 0.045318
Si Si2 0.878570 0.702877 0.336998
Si Si3 0.786260 0.804547 0.981421
Si Si4 0.328126 0.970946 0.672802
Si Si5 0.883309 0.955085 0.781411
Si Si6 0.961467 0.402146 0.579843
Si Si7 0.084191 0.720542 0.051652
Si Si8 0.366609 0.834652 0.245317
O O1 0.265941 0.421846 0.836841
O O2 0.273346 0.382723 0.096844
O O3 0.500000 0.500000 0.000000
O O4 0.387803 0.698220 0.213865
O O5 0.870162 0.861930 0.542060
O O6 0.924025 0.639549 0.420101
O O7 0.002119 0.743041 0.227492
O O8 0.704685 0.886800 0.144108
O O9 0.788472 0.817685 0.810075
O O10 0.950289 0.938306 0.114338
O O11 0.191725 0.778610 0.567980
O O12 0.342956 0.951763 0.471642
O O13 0.486262 0.039946 0.762742
O O14 0.855240 0.108486 0.912482
O O15 0.000000 0.500000 0.500000
O O16 0.975099 0.539356 0.826216
O O17 0.221176 0.724195 0.082584
#
# Coordination Sequence:
#
# PCOD9059688 Si02
#       8
#     2   2   2   2   2   2   2   2
#     4  12  25  44  71  99 137 184 230 285 341 411
#     4  12  24  41  70 102 135 181 241 282 331 413
#     4  11  23  43  66  97 139 178 223 284 345 408
#     4  11  23  42  67 100 137 176 227 279 345 403
#     4  11  25  40  67 102 135 178 225 287 350 395
#     4  12  25  42  68 103 144 178 225 286 348 409
#     4  12  23  43  69 104 140 178 238 285 334 413
#     4  11  24  41  70 103 133 179 230 284 339 406
#
# _framework density 21.296575000000001
#
# number of rings (size 3 to 8) (size 9 to 14) (size 15 to 20)
#    0.000    0.500    6.250    2.250    3.500    0.000 
#    0.000    4.375    0.000    0.000    0.000    0.000 
#    0.000    0.000    0.000    0.000    0.000    0.000 
#
# Total GULP energy -89385.034713 kJ/mol
# GULP energy per Si atom -5586.564670 kJ/mol
# Density = 2.124810 g / cm^3
# Si number density = 21.296575 Si / 1000 Ang^3
#
#
#
# Elastic Constant Matrix: (Units=GPa)
#
#
# Indices 1 2 3 4 5 6 
#
# 1 126.2532 36.2050 26.3218 -2.8204 0.4689 13.4034
# 2 36.2050 83.0368 36.1022 3.1022 5.6144 16.4195
# 3 26.3218 36.1022 83.8041 17.2698 -6.7843 -0.6847
# 4 -2.8204 3.1022 17.2698 22.6559 -0.4712 5.9687
# 5 0.4689 5.6144 -6.7843 -0.4712 32.5789 8.8691
# 6 13.4034 16.4195 -0.6847 5.9687 8.8691 14.2101
#
#
#
# Elastic Compliance Matrix: (Units=1/GPa)
#
#
# Indices 1 2 3 4 5 6 
#
# 1 0.011101 0.000638 -0.005798 0.010584 0.003631 -0.018200
# 2 0.000638 0.025558 -0.015168 0.019125 0.003967 -0.041374
# 3 -0.005798 -0.015168 0.026316 -0.028754 -0.002568 0.037944
# 4 0.010584 0.019125 -0.028754 0.085405 0.012861 -0.077367
# 5 0.003631 0.003967 -0.002568 0.012861 0.040110 -0.038569
# 6 -0.018200 -0.041374 0.037944 -0.077367 -0.038569 0.193742
#
#
# Mechanical properties :
#
#
# Convention : Reuss Voigt Hill
#
# Bulk Modulus (GPa) = 44.80521 54.48359 49.64440
# Shear Modulus (GPa) = 11.61906 26.85332 19.23619
#
# Velocity S-wave (km/s) = 2.33831 3.55480 3.00868
# Velocity P-wave (km/s) = 5.32678 6.51825 5.95240
#
# Compressibility (1/GPa) = 0.02231884
#
# Stress axis : x y z
#
# Youngs Moduli (GPa) = 90.07893 39.12698 38.00037
#
# Poissons Ratio (x) = -0.02497 0.22031
# Poissons Ratio (y) = -0.05748 0.57641
# Poissons Ratio (z) = 0.52224 0.59350
#
# Static dielectric constant tensor:
#      x y z
#    x 1.802280 -0.010940 -0.001330 
#    y -0.010940 1.814190 0.011020 
#    z -0.001330 0.011020 1.774840 
# 
# From -- ./inp_files/260619.got.cif
#   From: 2010.05.17/outbox.cif.g08.bks.cpg/sg2_131_cif.got.tgz:260619.got - 2010.06.03 11:33:40.
