data_PCOD9059663
_publ_section_title
;
Structure prediction by ZEFSAII (Michael W. Deem and Ramdas Pophale) SiO2 
 PCOD9059663
Probable space group: P -1
;
_chemical_formula_sum "Si O2"
_cell_formula_units_Z 14
_cell_length_a 17.178310
_cell_length_b 8.084696
_cell_length_c 6.428526
_cell_angle_alpha 62.802181
_cell_angle_beta 47.404426
_cell_angle_gamma 75.124833
_cell_volume 582.676122
_symmetry_space_group_name_H-M "P -1"
_symmetry_group_IT_number 2
_symmetry_cell_setting 'triclinic'
loop_
_space_group_symop_operation_xyz
x,y,z
-x,-y,-z
loop_
_atom_site_type_symbol
_atom_site_label
_atom_site_fract_x
_atom_site_fract_y
_atom_site_fract_z
Si Si1 0.977119 0.648755 0.282756
Si Si2 0.269431 0.013229 0.582588
Si Si3 0.082304 0.910545 0.258286
Si Si4 0.472395 0.830761 0.319618
Si Si5 0.731486 0.570516 0.661859
Si Si6 0.486059 0.550846 0.755258
Si Si7 0.827131 0.285037 0.406783
O O1 0.853679 0.618782 0.478246
O O2 0.000000 0.500000 0.500000
O O3 0.010915 0.835767 0.237941
O O4 0.063380 0.642578 0.947316
O O5 0.362686 0.897705 0.560521
O O6 0.223889 0.891254 0.534463
O O7 0.312189 0.225895 0.354624
O O8 0.177511 0.029386 0.908554
O O9 0.139844 0.773912 0.387253
O O10 0.000000 0.000000 0.500000
O O11 0.532076 0.753646 0.464150
O O12 0.468223 0.628761 0.332060
O O13 0.500000 0.000000 0.000000
O O14 0.748847 0.449645 0.490094
O O15 0.642990 0.454364 0.024915
O O16 0.500000 0.500000 0.000000
#
# Coordination Sequence:
#
# PCOD9059663 Si02
#       7
#     2   2   2   2   2   2   2
#     4  11  24  40  66  98 141 187 233 293 354 433
#     4  11  25  44  70 104 141 189 239 298 370 432
#     4  11  23  42  65  98 141 183 236 296 351 433
#     4  11  24  50  73 105 148 186 242 317 371 432
#     4  12  23  45  72 101 140 194 241 293 371 437
#     4  11  26  48  76 106 144 189 248 311 370 441
#     4  11  24  43  64  99 144 181 236 294 351 437
#
# _framework density 24.027072
#
# number of rings (size 3 to 8) (size 9 to 14) (size 15 to 20)
#    0.000    0.857    2.857    3.857    4.000    2.857 
#    2.571    0.000    0.000    0.000    0.000    0.000 
#    0.000    0.000    0.000    0.000    0.000    0.000 
#
# Total GULP energy -77944.803833 kJ/mol
# GULP energy per Si atom -5567.485988 kJ/mol
# Density = 2.397239 g / cm^3
# Si number density = 24.027072 Si / 1000 Ang^3
#
#
#
# Elastic Constant Matrix: (Units=GPa)
#
#
# Indices 1 2 3 4 5 6 
#
# 1 48.3423 32.9395 23.7415 -15.1525 9.2628 -8.1721
# 2 32.9395 158.3274 43.1653 -1.0298 4.4799 -17.8009
# 3 23.7415 43.1653 121.4498 -15.5506 2.2987 -2.3860
# 4 -15.1525 -1.0298 -15.5506 57.3721 -14.8102 8.7548
# 5 9.2628 4.4799 2.2987 -14.8102 38.4779 1.6746
# 6 -8.1721 -17.8009 -2.3860 8.7548 1.6746 31.8816
#
#
#
# Elastic Compliance Matrix: (Units=1/GPa)
#
#
# Indices 1 2 3 4 5 6 
#
# 1 0.028219 -0.004476 -0.003152 0.004877 -0.004354 0.003388
# 2 -0.004476 0.008346 -0.002316 -0.002515 -0.000901 0.004077
# 3 -0.003152 -0.002316 0.009927 0.002530 0.001502 -0.002132
# 4 0.004877 -0.002515 0.002530 0.022385 0.007868 -0.006525
# 5 -0.004354 -0.000901 0.001502 0.007868 0.030309 -0.005259
# 6 0.003388 0.004077 -0.002132 -0.006525 -0.005259 0.036420
#
#
# Mechanical properties :
#
#
# Convention : Reuss Voigt Hill
#
# Bulk Modulus (GPa) = 37.58838 58.64577 48.11708
# Shear Modulus (GPa) = 30.42039 40.76454 35.59246
#
# Velocity S-wave (km/s) = 3.56207 4.12346 3.85300
# Velocity P-wave (km/s) = 5.70929 6.86526 6.31378
#
# Compressibility (1/GPa) = 0.02660397
#
# Stress axis : x y z
#
# Youngs Moduli (GPa) = 35.43674 119.81385 100.73637
#
# Poissons Ratio (x) = 0.53625 0.31754
# Poissons Ratio (y) = 0.15861 0.23334
# Poissons Ratio (z) = 0.11170 0.27753
#
# Static dielectric constant tensor:
#      x y z
#    x 1.940810 -0.160030 0.117060 
#    y -0.160030 1.900890 0.097650 
#    z 0.117060 0.097650 2.282900 
# 
# From -- ./inp_files/91188.got.cif
#   From: 2010.05.17/outbox.cif.g08.bks.cpg/sg2_46_cif.got.tgz:91188.got - 2010.06.03 11:33:40.
