data_PCOD9059840
_publ_section_title
;
Structure prediction by ZEFSAII (Michael W. Deem and Ramdas Pophale) SiO2 
 PCOD9059840
Probable space group: P -1
;
_chemical_formula_sum "Si O2"
_cell_formula_units_Z 14
_cell_length_a 5.489572
_cell_length_b 15.986912
_cell_length_c 16.470974
_cell_angle_alpha 152.511562
_cell_angle_beta 97.852447
_cell_angle_gamma 93.364778
_cell_volume 607.647587
_symmetry_space_group_name_H-M "P -1"
_symmetry_group_IT_number 2
_symmetry_cell_setting 'triclinic'
loop_
_space_group_symop_operation_xyz
x,y,z
-x,-y,-z
loop_
_atom_site_type_symbol
_atom_site_label
_atom_site_fract_x
_atom_site_fract_y
_atom_site_fract_z
Si Si1 0.419363 0.135714 0.823297
Si Si2 0.183913 0.375917 0.300747
Si Si3 0.873395 0.453907 0.043400
Si Si4 0.804655 0.640127 0.884609
Si Si5 0.924409 0.874878 0.469836
Si Si6 0.823376 0.627922 0.526824
Si Si7 0.408477 0.198530 0.464938
O O1 0.148393 0.990981 0.645072
O O2 0.549143 0.985783 0.728072
O O3 0.572565 0.292901 0.895106
O O4 0.391682 0.263990 0.007442
O O5 0.076830 0.268423 0.117866
O O6 0.510763 0.470021 0.386671
O O7 0.119167 0.270005 0.294031
O O8 0.038990 0.531717 0.437503
O O9 0.013981 0.353444 0.024354
O O10 0.897412 0.656773 0.259746
O O11 0.000000 0.500000 0.000000
O O12 0.656579 0.407661 0.658454
O O13 0.659254 0.852796 0.487492
O O14 0.000000 0.000000 0.500000
O O15 0.808537 0.758337 0.562275
#
# Coordination Sequence:
#
# PCOD9059840 Si02
#       7
#     2   2   2   2   2   2   2
#     4  12  26  44  67  98 138 182 231 292 350 418
#     4   9  19  37  67 103 138 182 234 290 353 420
#     4  12  26  44  68  98 136 181 235 291 351 419
#     4  11  23  42  69  97 136 184 231 289 351 422
#     4  12  26  44  68  98 136 181 235 291 351 419
#     4   9  19  37  67 103 138 182 234 290 353 420
#     4  11  23  42  69  97 136 184 231 289 351 422
#
# _framework density 23.039670999999998
#
# number of rings (size 3 to 8) (size 9 to 14) (size 15 to 20)
#    0.000    1.143    2.857    3.429    6.000    2.286 
#    0.000    0.714    0.000    3.429    0.000    0.000 
#    0.000    0.000    0.000    0.000    0.000    0.000 
#
# Total GULP energy -78142.286463 kJ/mol
# GULP energy per Si atom -5581.591890 kJ/mol
# Density = 2.298723 g / cm^3
# Si number density = 23.039671 Si / 1000 Ang^3
#
#
#
# Elastic Constant Matrix: (Units=GPa)
#
#
# Indices 1 2 3 4 5 6 
#
# 1 55.5922 7.4094 24.9294 2.8350 -14.6442 10.1620
# 2 7.4094 109.0686 20.4798 -26.3819 -5.5016 10.8850
# 3 24.9294 20.4798 104.0885 8.7262 -16.2753 13.9480
# 4 2.8350 -26.3819 8.7262 39.7603 1.9518 -7.5410
# 5 -14.6442 -5.5016 -16.2753 1.9518 40.0072 -3.5307
# 6 10.1620 10.8850 13.9480 -7.5410 -3.5307 36.5865
#
#
#
# Elastic Compliance Matrix: (Units=1/GPa)
#
#
# Indices 1 2 3 4 5 6 
#
# 1 0.022240 -0.000703 -0.003365 -0.002497 0.006392 -0.004583
# 2 -0.000703 0.011828 -0.002833 0.008432 -0.000241 -0.000529
# 3 -0.003365 -0.002833 0.012434 -0.005239 0.003364 -0.003718
# 4 -0.002497 0.008432 -0.005239 0.033507 -0.002920 0.006807
# 5 0.006392 -0.000241 0.003364 -0.002920 0.028741 -0.000815
# 6 -0.004583 -0.000529 -0.003718 0.006807 -0.000815 0.031505
#
#
# Mechanical properties :
#
#
# Convention : Reuss Voigt Hill
#
# Bulk Modulus (GPa) = 30.58058 41.59852 36.08955
# Shear Modulus (GPa) = 30.31090 37.66617 33.98853
#
# Velocity S-wave (km/s) = 3.63105 4.04770 3.84502
# Velocity P-wave (km/s) = 5.55708 6.31977 5.95066
#
# Compressibility (1/GPa) = 0.03270049
#
# Stress axis : x y z
#
# Youngs Moduli (GPa) = 44.96433 84.54309 80.42502
#
# Poissons Ratio (x) = 0.05944 0.27065
# Poissons Ratio (y) = 0.03161 0.22780
# Poissons Ratio (z) = 0.15132 0.23947
#
# Static dielectric constant tensor:
#      x y z
#    x 2.035150 0.003680 0.040100 
#    y 0.003680 1.872480 -0.024100 
#    z 0.040100 -0.024100 1.832380 
# 
# From -- ./inp_files/97913.got.cif
#   From: 2010.05.17/outbox.cif.g08.bks.cpg/sg2_49_cif.got.tgz:97913.got - 2010.06.03 11:33:40.
