data_PCOD9059646
_publ_section_title
;
Structure prediction by ZEFSAII (Michael W. Deem and Ramdas Pophale) SiO2 
 PCOD9059646
Probable space group: P -1
;
_chemical_formula_sum "Si O2"
_cell_formula_units_Z 15
_cell_length_a 8.215757
_cell_length_b 12.582539
_cell_length_c 7.613280
_cell_angle_alpha 85.016936
_cell_angle_beta 120.225264
_cell_angle_gamma 79.134079
_cell_volume 652.337679
_symmetry_space_group_name_H-M "P -1"
_symmetry_group_IT_number 2
_symmetry_cell_setting 'triclinic'
loop_
_space_group_symop_operation_xyz
x,y,z
-x,-y,-z
loop_
_atom_site_type_symbol
_atom_site_label
_atom_site_fract_x
_atom_site_fract_y
_atom_site_fract_z
Si Si1 0.110345 0.126263 0.661457
Si Si2 0.211008 0.507725 0.680766
Si Si3 0.356296 0.208623 0.051308
Si Si4 0.223395 0.751351 0.765118
Si Si5 0.486194 0.037457 0.684006
Si Si6 0.845521 0.077555 0.034388
Si Si7 0.215230 0.424251 0.084946
Si Si8 0.500000 0.500000 0.500000
O O1 0.892505 0.175755 0.469453
O O2 0.266689 0.104201 0.594137
O O3 0.142511 0.006973 0.785576
O O4 0.186044 0.208051 0.819207
O O5 0.206526 0.630339 0.730905
O O6 0.357981 0.480516 0.598619
O O7 0.000000 0.500000 0.500000
O O8 0.256856 0.438744 0.897616
O O9 0.554632 0.241384 0.106389
O O10 0.440144 0.078227 0.155439
O O11 0.255578 0.291240 0.139755
O O12 0.126688 0.810279 0.884190
O O13 0.500000 0.000000 0.500000
O O14 0.638264 0.103998 0.818646
O O15 0.000000 0.000000 0.000000
O O16 0.359581 0.461530 0.288990
O O17 0.000000 0.500000 0.000000
#
# Coordination Sequence:
#
# PCOD9059646 Si02
#       8
#     2   2   2   2   2   2   2   1
#     4  11  23  43  69  96 146 178 226 300 346 433
#     4  12  27  52  77 112 153 198 262 324 383 453
#     4  11  24  46  70 105 138 191 242 290 374 443
#     4  12  24  44  74 103 141 197 238 293 379 437
#     4  11  23  43  68 102 145 183 232 297 350 436
#     4  11  23  42  65 103 141 185 237 288 354 438
#     4  12  27  50  78 107 152 195 255 323 378 454
#     4  12  26  50  76 106 148 198 250 328 384 436
#
# _framework density 22.994226999999999
#
# number of rings (size 3 to 8) (size 9 to 14) (size 15 to 20)
#    0.000    0.533    5.333    3.200    1.867    3.200 
#    4.800    0.000    0.000    0.000    0.000    0.000 
#    0.000    0.000    0.000    0.000    0.000    0.000 
#
# Total GULP energy -83546.120331 kJ/mol
# GULP energy per Si atom -5569.741355 kJ/mol
# Density = 2.294189 g / cm^3
# Si number density = 22.994227 Si / 1000 Ang^3
#
#
#
# Elastic Constant Matrix: (Units=GPa)
#
#
# Indices 1 2 3 4 5 6 
#
# 1 99.1251 17.2831 30.1849 18.1324 -0.8532 -15.4796
# 2 17.2831 78.9201 40.5218 35.0517 15.2407 -8.7012
# 3 30.1849 40.5218 134.4386 38.8666 1.3762 -1.7348
# 4 18.1324 35.0517 38.8666 41.0999 2.1819 6.2903
# 5 -0.8532 15.2407 1.3762 2.1819 31.9157 1.7787
# 6 -15.4796 -8.7012 -1.7348 6.2903 1.7787 27.4637
#
#
#
# Elastic Compliance Matrix: (Units=1/GPa)
#
#
# Indices 1 2 3 4 5 6 
#
# 1 0.013127 0.002908 -0.001168 -0.008691 -0.000967 0.010300
# 2 0.002908 0.029110 -0.001278 -0.026937 -0.012918 0.017787
# 3 -0.001168 -0.001278 0.010617 -0.008707 0.000629 0.001561
# 4 -0.008691 -0.026937 -0.008707 0.063287 0.010304 -0.029146
# 5 -0.000967 -0.012918 0.000629 0.010304 0.037266 -0.009372
# 6 0.010300 0.017787 0.001561 -0.029146 -0.009372 0.055234
#
#
# Mechanical properties :
#
#
# Convention : Reuss Voigt Hill
#
# Bulk Modulus (GPa) = 18.59520 54.27372 36.43446
# Shear Modulus (GPa) = 22.15896 35.06213 28.61055
#
# Velocity S-wave (km/s) = 3.10768 3.90913 3.53122
# Velocity P-wave (km/s) = 4.58054 6.63548 5.70135
#
# Compressibility (1/GPa) = 0.05377732
#
# Stress axis : x y z
#
# Youngs Moduli (GPa) = 76.17891 34.35235 94.19141
#
# Poissons Ratio (x) = -0.09988 0.11004
# Poissons Ratio (y) = -0.22150 0.12034
# Poissons Ratio (z) = 0.08899 0.04389
#
# Static dielectric constant tensor:
#      x y z
#    x 1.770020 -0.155170 0.188900 
#    y -0.155170 1.880820 0.096910 
#    z 0.188900 0.096910 1.576330 
# 
# From -- ./inp_files/187944.got.cif
#   From: 2010.05.17/outbox.cif.g08.bks.cpg/sg2_94_cif.got.tgz:187944.got - 2010.06.03 11:33:40.
