data_PCOD9059070
_publ_section_title
;
Structure prediction by ZEFSAII (Michael W. Deem and Ramdas Pophale) SiO2 
 PCOD9059070
Probable space group: P -1
;
_chemical_formula_sum "Si O2"
_cell_formula_units_Z 12
_cell_length_a 11.700588
_cell_length_b 14.296268
_cell_length_c 14.692719
_cell_angle_alpha 151.058177
_cell_angle_beta 151.902626
_cell_angle_gamma 30.199782
_cell_volume 512.158502
_symmetry_space_group_name_H-M "P -1"
_symmetry_group_IT_number 2
_symmetry_cell_setting 'triclinic'
loop_
_space_group_symop_operation_xyz
x,y,z
-x,-y,-z
loop_
_atom_site_type_symbol
_atom_site_label
_atom_site_fract_x
_atom_site_fract_y
_atom_site_fract_z
Si Si1 0.867517 0.728248 0.807041
Si Si2 0.197307 0.950093 0.802739
Si Si3 0.176405 0.264382 0.693808
Si Si4 0.658307 0.176922 0.825665
Si Si5 0.224648 0.268790 0.944117
Si Si6 0.739935 0.712607 0.515414
O O1 0.668947 0.738273 0.594605
O O2 0.971673 0.506139 0.741484
O O3 0.110829 0.744205 0.934976
O O4 0.798833 0.910605 0.988381
O O5 0.958243 0.876954 0.568305
O O6 0.179370 0.094007 0.824927
O O7 0.482696 0.753074 0.839050
O O8 0.446098 0.235705 0.807569
O O9 0.222079 0.219320 0.793751
O O10 0.500000 0.280163 0.710470
O O11 0.776060 0.922791 0.687221
O O12 0.000000 0.500000 0.000000
O O13 0.000000 0.500000 0.500000
#
# Coordination Sequence:
#
# PCOD9059070 Si02
#       6
#     2   2   2   2   2   2
#     4  12  25  45  72 104 145 188 228 281 346 414
#     4  11  26  48  73 103 141 178 235 292 346 413
#     4  12  25  46  73 106 140 187 230 285 348 411
#     4  11  25  45  67 103 149 186 230 277 341 418
#     4  11  25  51  75 102 135 183 233 294 356 408
#     4  11  23  40  65  96 135 189 234 273 333 398
#
# _framework density 23.430246
#
# number of rings (size 3 to 8) (size 9 to 14) (size 15 to 20)
#    0.000    0.667    3.333    4.500    0.000    3.333 
#    6.000    0.000    0.000    0.000    0.000    0.000 
#    0.000    0.000    0.000    0.000    0.000    0.000 
#
# Total GULP energy -67232.676694 kJ/mol
# GULP energy per Si atom -5602.723058 kJ/mol
# Density = 2.337692 g / cm^3
# Si number density = 23.430246 Si / 1000 Ang^3
#
#
#
# Elastic Constant Matrix: (Units=GPa)
#
#
# Indices 1 2 3 4 5 6 
#
# 1 131.9958 37.5886 42.1508 -14.3925 -30.0253 3.5729
# 2 37.5886 160.1787 30.5711 -5.7789 -16.8080 4.4843
# 3 42.1508 30.5711 52.5118 0.5581 -17.9540 -3.3098
# 4 -14.3925 -5.7789 0.5581 26.5384 5.1866 -9.4957
# 5 -30.0253 -16.8080 -17.9540 5.1866 36.0480 -3.5855
# 6 3.5729 4.4843 -3.3098 -9.4957 -3.5855 23.9646
#
#
#
# Elastic Compliance Matrix: (Units=1/GPa)
#
#
# Indices 1 2 3 4 5 6 
#
# 1 0.011913 -0.000637 -0.007480 0.005581 0.005126 0.000288
# 2 -0.000637 0.007209 -0.003480 0.000645 0.000871 -0.001349
# 3 -0.007480 -0.003480 0.030377 -0.005282 0.008548 0.005148
# 4 0.005581 0.000645 -0.005282 0.047496 -0.002854 0.016711
# 5 0.005126 0.000871 0.008548 -0.002854 0.037556 0.004742
# 6 0.000288 -0.001349 0.005148 0.016711 0.004742 0.049980
#
#
# Mechanical properties :
#
#
# Convention : Reuss Voigt Hill
#
# Bulk Modulus (GPa) = 38.01585 62.81195 50.41390
# Shear Modulus (GPa) = 23.09551 32.93523 28.01537
#
# Velocity S-wave (km/s) = 3.14301 3.75330 3.46163
# Velocity P-wave (km/s) = 5.42510 6.75642 6.12703
#
# Compressibility (1/GPa) = 0.02630482
#
# Stress axis : x y z
#
# Youngs Moduli (GPa) = 83.94447 138.71503 32.91976
#
# Poissons Ratio (x) = 0.08833 0.24625
# Poissons Ratio (y) = 0.05345 0.11456
# Poissons Ratio (z) = 0.62792 0.48272
#
# Static dielectric constant tensor:
#      x y z
#    x 1.882340 -0.031010 -0.030040 
#    y -0.031010 1.904050 -0.003300 
#    z -0.030040 -0.003300 1.869780 
# 
# From -- ./inp_files/521974.got.cif
#   From: 2010.05.17/outbox.cif.g08.bks.cpg/sg2_261_cif.got.tgz:521974.got - 2010.06.03 11:33:40.
