data_PCOD9059208
_publ_section_title
;
Structure prediction by ZEFSAII (Michael W. Deem and Ramdas Pophale) SiO2 
 PCOD9059208
Probable space group: P -1
;
_chemical_formula_sum "Si O2"
_cell_formula_units_Z 16
_cell_length_a 5.418216
_cell_length_b 16.989674
_cell_length_c 25.630480
_cell_angle_alpha 158.758754
_cell_angle_beta 50.868960
_cell_angle_gamma 127.228928
_cell_volume 661.884315
_symmetry_space_group_name_H-M "P -1"
_symmetry_group_IT_number 2
_symmetry_cell_setting 'triclinic'
loop_
_space_group_symop_operation_xyz
x,y,z
-x,-y,-z
loop_
_atom_site_type_symbol
_atom_site_label
_atom_site_fract_x
_atom_site_fract_y
_atom_site_fract_z
Si Si1 0.233946 0.216084 0.109018
Si Si2 0.237805 0.315332 0.867855
Si Si3 0.858251 0.525412 0.400157
Si Si4 0.953355 0.329859 0.107118
Si Si5 0.103096 0.026633 0.362120
Si Si6 0.783840 0.688851 0.626547
Si Si7 0.779417 0.895174 0.158662
Si Si8 0.930001 0.214740 0.675962
O O1 0.610517 0.200775 0.060440
O O2 0.135926 0.361973 0.261605
O O3 0.115690 0.338805 0.148072
O O4 0.000000 0.000000 0.000000
O O5 0.243285 0.311040 0.926981
O O6 0.570902 0.296592 0.782031
O O7 0.073409 0.081033 0.730066
O O8 0.000000 0.500000 0.000000
O O9 0.776002 0.647262 0.539816
O O10 0.548253 0.366158 0.334473
O O11 0.946814 0.720872 0.469320
O O12 0.899251 0.570949 0.240134
O O13 0.209444 0.202872 0.960587
O O14 0.474010 0.015024 0.292574
O O15 0.998567 0.872082 0.328953
O O16 0.000000 0.500000 0.500000
O O17 0.928575 0.928557 0.766225
O O18 0.000000 0.000000 0.500000
#
# Coordination Sequence:
#
# PCOD9059208 Si02
#       8
#     2   2   2   2   2   2   2   2
#     4  12  30  50  75 106 151 199 240 306 371 446
#     4  11  24  43  70 100 144 181 239 304 367 430
#     4  11  25  43  70 104 139 186 245 300 377 434
#     4  12  29  48  78 107 148 198 247 303 364 455
#     4  11  23  42  70 100 138 184 234 308 361 434
#     4  11  23  40  71 104 137 183 239 311 358 447
#     4  11  24  43  71 105 141 184 247 298 377 429
#     4  11  27  46  71 105 144 197 245 303 373 447
#
# _framework density 24.173406
#
# number of rings (size 3 to 8) (size 9 to 14) (size 15 to 20)
#    0.000    0.750    2.500    3.375   10.500    2.500 
#    0.000    0.000    0.000    0.000    0.000    0.000 
#    0.000    0.000    0.000    0.000    0.000    0.000 
#
# Total GULP energy -89286.966992 kJ/mol
# GULP energy per Si atom -5580.435437 kJ/mol
# Density = 2.411839 g / cm^3
# Si number density = 24.173406 Si / 1000 Ang^3
#
#
#
# Elastic Constant Matrix: (Units=GPa)
#
#
# Indices 1 2 3 4 5 6 
#
# 1 59.6122 8.3705 -9.9833 -1.5086 -2.5903 -1.4642
# 2 8.3705 56.2176 16.5995 21.4475 2.2131 -4.0238
# 3 -9.9833 16.5995 105.4922 -1.4696 4.1194 -4.8604
# 4 -1.5086 21.4475 -1.4696 39.2746 2.8252 1.6783
# 5 -2.5903 2.2131 4.1194 2.8252 35.2799 5.6147
# 6 -1.4642 -4.0238 -4.8604 1.6783 5.6147 28.3426
#
#
#
# Elastic Compliance Matrix: (Units=1/GPa)
#
#
# Indices 1 2 3 4 5 6 
#
# 1 0.017973 -0.004654 0.002452 0.003238 0.001019 0.000295
# 2 -0.004654 0.025596 -0.004467 -0.014418 -0.000852 0.003650
# 3 0.002452 -0.004467 0.010567 0.002959 -0.001229 0.001373
# 4 0.003238 -0.014418 0.002959 0.033805 -0.001418 -0.003093
# 5 0.001019 -0.000852 -0.001229 -0.001418 0.029697 -0.006078
# 6 0.000295 0.003650 0.001373 -0.003093 -0.006078 0.037439
#
#
# Mechanical properties :
#
#
# Convention : Reuss Voigt Hill
#
# Bulk Modulus (GPa) = 24.51236 27.92169 26.21702
# Shear Modulus (GPa) = 27.47042 34.33511 30.90276
#
# Velocity S-wave (km/s) = 3.37470 3.77286 3.57932
# Velocity P-wave (km/s) = 5.03458 5.52766 5.28687
#
# Compressibility (1/GPa) = 0.04079575
#
# Stress axis : x y z
#
# Youngs Moduli (GPa) = 55.63969 39.06924 94.63552
#
# Poissons Ratio (x) = 0.18185 -0.23206
# Poissons Ratio (y) = 0.25897 0.42278
# Poissons Ratio (z) = -0.13644 0.17454
#
# Static dielectric constant tensor:
#      x y z
#    x 2.017840 -0.068070 0.067500 
#    y -0.068070 1.598570 0.404480 
#    z 0.067500 0.404480 1.444070 
# 
# From -- ./inp_files/109591.got.cif
#   From: 2010.05.17/outbox.cif.g08.bks.cpg/sg2_55_cif.got.tgz:109591.got - 2010.06.03 11:33:40.
