data_PCOD9059724
_publ_section_title
;
Structure prediction by ZEFSAII (Michael W. Deem and Ramdas Pophale) SiO2 
 PCOD9059724
Probable space group: P -1
;
_chemical_formula_sum "Si O2"
_cell_formula_units_Z 14
_cell_length_a 8.224181
_cell_length_b 11.259901
_cell_length_c 8.965561
_cell_angle_alpha 109.666754
_cell_angle_beta 90.519178
_cell_angle_gamma 52.616881
_cell_volume 599.693766
_symmetry_space_group_name_H-M "P -1"
_symmetry_group_IT_number 2
_symmetry_cell_setting 'triclinic'
loop_
_space_group_symop_operation_xyz
x,y,z
-x,-y,-z
loop_
_atom_site_type_symbol
_atom_site_label
_atom_site_fract_x
_atom_site_fract_y
_atom_site_fract_z
Si Si1 0.587200 0.104104 0.925191
Si Si2 0.069001 0.783582 0.867701
Si Si3 0.887580 0.420306 0.450965
Si Si4 0.676764 0.313925 0.876700
Si Si5 0.391383 0.011249 0.657267
Si Si6 0.530726 0.271102 0.290012
Si Si7 0.026850 0.833472 0.428415
O O1 0.602781 0.207707 0.848764
O O2 0.466427 0.053334 0.818462
O O3 0.826689 0.946622 0.909143
O O4 0.473773 0.221699 0.117907
O O5 0.104427 0.625183 0.740112
O O6 0.138392 0.765675 0.031094
O O7 0.753294 0.225562 0.228318
O O8 0.657222 0.547783 0.577199
O O9 0.995220 0.245047 0.460313
O O10 0.000000 0.500000 0.500000
O O11 0.749919 0.300303 0.704796
O O12 0.500000 0.500000 0.000000
O O13 0.144915 0.137899 0.673735
O O14 0.500000 0.000000 0.500000
O O15 0.440462 0.843030 0.626482
O O16 0.000000 0.000000 0.500000
#
# Coordination Sequence:
#
# PCOD9059724 Si02
#       7
#     2   2   2   2   2   2   2
#     4  11  23  43  66  95 129 171 221 271 328 396
#     4  11  23  44  69  93 128 176 220 265 326 404
#     4  12  26  44  65  98 137 175 219 274 333 394
#     4  11  24  43  67  97 129 168 219 276 329 387
#     4  12  24  39  65 100 133 171 221 278 327 385
#     4  11  23  42  67  95 129 176 222 267 329 401
#     4  12  25  45  70  98 133 177 222 271 330 395
#
# _framework density 23.345248000000002
#
# number of rings (size 3 to 8) (size 9 to 14) (size 15 to 20)
#    0.000    0.571    0.000   11.143    0.000    4.571 
#    0.000    2.143    0.000    0.000    0.000    0.000 
#    0.000    0.000    0.000    0.000    0.000    0.000 
#
# Total GULP energy -78304.346796 kJ/mol
# GULP energy per Si atom -5593.167628 kJ/mol
# Density = 2.329211 g / cm^3
# Si number density = 23.345248 Si / 1000 Ang^3
#
#
#
# Elastic Constant Matrix: (Units=GPa)
#
#
# Indices 1 2 3 4 5 6 
#
# 1 84.0496 12.2041 21.4446 -4.8018 14.0219 10.3350
# 2 12.2041 62.6069 -3.5856 -4.6992 2.5882 2.7869
# 3 21.4446 -3.5856 60.3493 23.4482 3.5665 2.8255
# 4 -4.8018 -4.6992 23.4482 35.7483 1.5607 -11.8844
# 5 14.0219 2.5882 3.5665 1.5607 51.7157 -4.2747
# 6 10.3350 2.7869 2.8255 -11.8844 -4.2747 42.6698
#
#
#
# Elastic Compliance Matrix: (Units=1/GPa)
#
#
# Indices 1 2 3 4 5 6 
#
# 1 0.015539 -0.002759 -0.007929 0.006555 -0.003860 -0.001619
# 2 -0.002759 0.016682 0.001812 0.000503 -0.000262 -0.000427
# 3 -0.007929 0.001812 0.027975 -0.021155 0.000279 -0.005914
# 4 0.006555 0.000503 -0.021155 0.047090 -0.000705 0.012825
# 5 -0.003860 -0.000262 0.000279 -0.000705 0.020630 0.002804
# 6 -0.001619 -0.000427 -0.005914 0.012825 0.002804 0.028101
#
#
# Mechanical properties :
#
#
# Convention : Reuss Voigt Hill
#
# Bulk Modulus (GPa) = 23.56097 29.68132 26.62115
# Shear Modulus (GPa) = 26.60744 37.82294 32.21519
#
# Velocity S-wave (km/s) = 3.37966 4.02948 3.71879
# Velocity P-wave (km/s) = 5.03426 5.86435 5.46509
#
# Compressibility (1/GPa) = 0.04244307
#
# Stress axis : x y z
#
# Youngs Moduli (GPa) = 64.35466 59.94496 35.74615
#
# Poissons Ratio (x) = 0.16541 0.28342
# Poissons Ratio (y) = 0.17758 -0.06476
# Poissons Ratio (z) = 0.51024 -0.10859
#
# Static dielectric constant tensor:
#      x y z
#    x 1.946310 -0.000400 -0.031430 
#    y -0.000400 1.901880 -0.034870 
#    z -0.031430 -0.034870 1.896310 
# 
# From -- ./inp_files/190122.got.cif
#   From: 2010.05.17/outbox.cif.g08.bks.cpg/sg2_96_cif.got.tgz:190122.got - 2010.06.03 11:33:40.
