data_PCOD9059109
_publ_section_title
;
Structure prediction by ZEFSAII (Michael W. Deem and Ramdas Pophale) SiO2 
 PCOD9059109
Probable space group: P -1
;
_chemical_formula_sum "Si O2"
_cell_formula_units_Z 15
_cell_length_a 10.976099
_cell_length_b 9.319387
_cell_length_c 14.036733
_cell_angle_alpha 90.137726
_cell_angle_beta 30.344471
_cell_angle_gamma 98.140582
_cell_volume 697.159177
_symmetry_space_group_name_H-M "P -1"
_symmetry_group_IT_number 2
_symmetry_cell_setting 'triclinic'
loop_
_space_group_symop_operation_xyz
x,y,z
-x,-y,-z
loop_
_atom_site_type_symbol
_atom_site_label
_atom_site_fract_x
_atom_site_fract_y
_atom_site_fract_z
Si Si1 0.226330 0.586417 0.469840
Si Si2 0.247978 0.253268 0.677411
Si Si3 0.000000 0.000000 0.000000
Si Si4 0.242381 0.279249 0.955919
Si Si5 0.079802 0.880467 0.286240
Si Si6 0.179289 0.570137 0.721364
Si Si7 0.582269 0.780834 0.957422
Si Si8 0.140742 0.294826 0.396839
O O1 0.130017 0.555949 0.641244
O O2 0.178479 0.437602 0.439529
O O3 0.094623 0.701058 0.510236
O O4 0.521977 0.653126 0.269817
O O5 0.179915 0.405641 0.752706
O O6 0.545741 0.311891 0.452794
O O7 0.095191 0.185933 0.684994
O O8 0.163433 0.129845 0.815745
O O9 0.883671 0.890849 0.987725
O O10 0.355392 0.289891 0.986892
O O11 0.033378 0.367208 0.089659
O O12 0.918412 0.843785 0.491813
O O13 0.220534 0.054741 0.181341
O O14 0.303628 0.800114 0.145254
O O15 0.633135 0.696963 0.828187
#
# Coordination Sequence:
#
# PCOD9059109 Si02
#       8
#     2   2   1   2   2   2   2   2
#     4  11  23  41  69 101 137 175 235 282 342 415
#     4  11  25  48  71 103 140 185 235 291 339 417
#     4  12  26  48  72 102 140 180 240 282 352 404
#     4  12  25  46  73 103 136 185 233 292 343 416
#     4  11  23  44  64 101 143 176 228 287 338 425
#     4  11  25  48  73  99 142 187 238 282 347 411
#     4  11  24  41  70 102 135 183 224 282 357 408
#     4  11  23  40  67 102 135 181 223 283 346 416
#
# _framework density 21.515891
#
# number of rings (size 3 to 8) (size 9 to 14) (size 15 to 20)
#    0.000    0.800    6.667    0.400    1.867    1.600 
#    4.800    0.000    0.000    0.000    0.000    0.000 
#    0.000    0.000    0.000    0.000    0.000    0.000 
#
# Total GULP energy -83638.926302 kJ/mol
# GULP energy per Si atom -5575.928420 kJ/mol
# Density = 2.146692 g / cm^3
# Si number density = 21.515891 Si / 1000 Ang^3
#
#
#
# Elastic Constant Matrix: (Units=GPa)
#
#
# Indices 1 2 3 4 5 6 
#
# 1 81.8784 8.1831 -1.8614 3.1595 6.7947 11.7351
# 2 8.1831 34.2414 16.5819 -15.1610 -6.7251 8.6958
# 3 -1.8614 16.5819 51.2684 -0.4616 6.9759 1.0272
# 4 3.1595 -15.1610 -0.4616 28.8655 -1.3537 -0.9034
# 5 6.7947 -6.7251 6.9759 -1.3537 37.9208 -1.4458
# 6 11.7351 8.6958 1.0272 -0.9034 -1.4458 30.1815
#
#
#
# Elastic Compliance Matrix: (Units=1/GPa)
#
#
# Indices 1 2 3 4 5 6 
#
# 1 0.014290 -0.007938 0.003792 -0.006028 -0.005027 -0.003819
# 2 -0.007938 0.064332 -0.022950 0.034726 0.017806 -0.012775
# 3 0.003792 -0.022950 0.028285 -0.012394 -0.010269 0.003312
# 4 -0.006028 0.034726 -0.012394 0.053712 0.011242 -0.005093
# 5 -0.005027 0.017806 -0.010269 0.011242 0.032684 -0.000924
# 6 -0.003819 -0.012775 0.003312 -0.005093 -0.000924 0.037989
#
#
# Mechanical properties :
#
#
# Convention : Reuss Voigt Hill
#
# Bulk Modulus (GPa) = 18.96920 23.68838 21.32879
# Shear Modulus (GPa) = 16.49867 29.02588 22.76228
#
# Velocity S-wave (km/s) = 2.77214 3.67692 3.25611
# Velocity P-wave (km/s) = 4.36828 5.39072 4.90621
#
# Compressibility (1/GPa) = 0.05271703
#
# Stress axis : x y z
#
# Youngs Moduli (GPa) = 69.97930 15.54435 35.35458
#
# Poissons Ratio (x) = 0.12339 -0.13408
# Poissons Ratio (y) = 0.55548 0.81137
# Poissons Ratio (z) = -0.26539 0.35674
#
# Static dielectric constant tensor:
#      x y z
#    x 1.775030 -0.008430 -0.008020 
#    y -0.008430 1.770980 -0.007190 
#    z -0.008020 -0.007190 1.754130 
# 
# From -- ./inp_files/428987.got.cif
#   From: 2010.05.17/outbox.cif.g08.bks.cpg/sg2_215_cif.got.tgz:428987.got - 2010.06.03 11:33:40.
