data_PCOD9059910
_publ_section_title
;
Structure prediction by ZEFSAII (Michael W. Deem and Ramdas Pophale) SiO2 
 PCOD9059910
Probable space group: P -1
;
_chemical_formula_sum "Si O2"
_cell_formula_units_Z 16
_cell_length_a 12.676170
_cell_length_b 8.724165
_cell_length_c 12.648796
_cell_angle_alpha 53.700599
_cell_angle_beta 79.489290
_cell_angle_gamma 117.747151
_cell_volume 764.810336
_symmetry_space_group_name_H-M "P -1"
_symmetry_group_IT_number 2
_symmetry_cell_setting 'triclinic'
loop_
_space_group_symop_operation_xyz
x,y,z
-x,-y,-z
loop_
_atom_site_type_symbol
_atom_site_label
_atom_site_fract_x
_atom_site_fract_y
_atom_site_fract_z
Si Si1 0.777687 0.308370 0.568809
Si Si2 0.347209 0.929614 0.541031
Si Si3 0.107221 0.247718 0.296668
Si Si4 0.013290 0.505612 0.869731
Si Si5 0.845954 0.929686 0.049127
Si Si6 0.898421 0.076387 0.747297
Si Si7 0.478040 0.496645 0.631112
Si Si8 0.399746 0.718560 0.195652
O O1 0.691292 0.138024 0.547720
O O2 0.834279 0.183162 0.660224
O O3 0.678562 0.286858 0.684911
O O4 0.922386 0.633259 0.382464
O O5 0.187974 0.671802 0.735885
O O6 0.500000 0.000000 0.500000
O O7 0.396349 0.198068 0.467683
O O8 0.268043 0.484288 0.232488
O O9 0.032033 0.352458 0.234269
O O10 0.116807 0.123673 0.244217
O O11 0.000000 0.000000 0.500000
O O12 0.892898 0.192774 0.980967
O O13 0.000000 0.500000 0.000000
O O14 0.813422 0.920179 0.935542
O O15 0.696478 0.657345 0.248146
O O16 0.000000 0.000000 0.000000
O O17 0.500000 0.500000 0.500000
O O18 0.501458 0.329462 0.757174
O O19 0.500000 0.000000 0.000000
#
# Coordination Sequence:
#
# PCOD9059910 Si02
#       8
#     2   2   2   2   2   2   2   2
#     4  11  23  43  71  98 138 183 229 287 348 414
#     4  12  26  45  69 103 142 186 229 287 359 419
#     4  12  24  43  72 103 138 184 236 289 345 422
#     4  12  25  45  70 103 137 182 239 288 341 416
#     4  12  26  45  71 102 139 185 239 288 341 418
#     4  11  23  42  71 102 133 179 239 288 338 405
#     4  12  27  46  70 104 145 186 229 288 360 421
#     4  12  26  44  70 104 145 183 229 290 358 417
#
# _framework density 20.920218999999999
#
# number of rings (size 3 to 8) (size 9 to 14) (size 15 to 20)
#    0.000    0.250    2.500    7.500    1.750    2.000 
#    0.000    2.500    0.000    0.000    0.000    0.000 
#    0.000    0.000    0.000    0.000    0.000    0.000 
#
# Total GULP energy -89583.302960 kJ/mol
# GULP energy per Si atom -5598.956435 kJ/mol
# Density = 2.087260 g / cm^3
# Si number density = 20.920219 Si / 1000 Ang^3
#
#
#
# Elastic Constant Matrix: (Units=GPa)
#
#
# Indices 1 2 3 4 5 6 
#
# 1 83.6928 18.3220 7.5284 11.5005 3.7977 17.5506
# 2 18.3220 179.2108 43.8692 16.4104 -6.5877 3.6978
# 3 7.5284 43.8692 95.2920 13.6029 -8.1125 18.1054
# 4 11.5005 16.4104 13.6029 43.9553 0.9495 -0.3187
# 5 3.7977 -6.5877 -8.1125 0.9495 40.6245 -0.7567
# 6 17.5506 3.6978 18.1054 -0.3187 -0.7567 34.6899
#
#
#
# Elastic Compliance Matrix: (Units=1/GPa)
#
#
# Indices 1 2 3 4 5 6 
#
# 1 0.014350 -0.001359 0.001411 -0.003712 -0.001341 -0.007915
# 2 -0.001359 0.006547 -0.002978 -0.001170 0.000650 0.001547
# 3 0.001411 -0.002978 0.013908 -0.003662 0.002106 -0.007643
# 4 -0.003712 -0.001170 -0.003662 0.025345 -0.001090 0.004123
# 5 -0.001341 0.000650 0.002106 -0.001090 0.025293 0.000052
# 6 -0.007915 0.001547 -0.007643 0.004123 0.000052 0.036694
#
#
# Mechanical properties :
#
#
# Convention : Reuss Voigt Hill
#
# Bulk Modulus (GPa) = 34.53785 55.29275 44.91530
# Shear Modulus (GPa) = 36.32661 43.08568 39.70614
#
# Velocity S-wave (km/s) = 4.17158 4.54312 4.36131
# Velocity P-wave (km/s) = 6.30459 7.34899 6.84673
#
# Compressibility (1/GPa) = 0.02895374
#
# Stress axis : x y z
#
# Youngs Moduli (GPa) = 69.68781 152.73928 71.90142
#
# Poissons Ratio (x) = 0.20751 -0.10149
# Poissons Ratio (y) = 0.09468 0.21415
# Poissons Ratio (z) = -0.09836 0.45491
#
# Static dielectric constant tensor:
#      x y z
#    x 1.784570 0.027930 -0.023020 
#    y 0.027930 1.706910 -0.072610 
#    z -0.023020 -0.072610 1.771770 
# 
# From -- ./inp_files/418924.got.cif
#   From: 2010.05.17/outbox.cif.g08.bks.cpg/sg2_210_cif.got.tgz:418924.got - 2010.06.03 11:33:40.
