data_PCOD9059454
_publ_section_title
;
Structure prediction by ZEFSAII (Michael W. Deem and Ramdas Pophale) SiO2 
 PCOD9059454
Probable space group: P -1
;
_chemical_formula_sum "Si O2"
_cell_formula_units_Z 14
_cell_length_a 9.459412
_cell_length_b 10.198017
_cell_length_c 14.207435
_cell_angle_alpha 99.762570
_cell_angle_beta 120.699176
_cell_angle_gamma 39.719026
_cell_volume 688.191232
_symmetry_space_group_name_H-M "P -1"
_symmetry_group_IT_number 2
_symmetry_cell_setting 'triclinic'
loop_
_space_group_symop_operation_xyz
x,y,z
-x,-y,-z
loop_
_atom_site_type_symbol
_atom_site_label
_atom_site_fract_x
_atom_site_fract_y
_atom_site_fract_z
Si Si1 0.803001 0.494147 0.705417
Si Si2 0.669863 0.995437 0.114590
Si Si3 0.645211 0.308296 0.145260
Si Si4 0.955695 0.658706 0.441410
Si Si5 0.383410 0.114577 0.222461
Si Si6 0.068561 0.809108 0.958544
Si Si7 0.783466 0.234405 0.400708
O O1 0.785119 0.654359 0.760917
O O2 0.508465 0.613786 0.632104
O O3 0.912629 0.439172 0.629930
O O4 0.017948 0.259979 0.805051
O O5 0.625243 0.171343 0.083035
O O6 0.549554 0.071923 0.187935
O O7 0.500000 0.000000 0.000000
O O8 0.844628 0.246457 0.129258
O O9 0.761910 0.224925 0.280228
O O10 0.343679 0.573220 0.074588
O O11 0.000000 0.500000 0.500000
O O12 0.112219 0.683500 0.541007
O O13 0.626188 0.901706 0.346962
O O14 0.188513 0.125097 0.117040
O O15 0.000000 0.000000 0.000000
O O16 0.000000 0.000000 0.500000
#
# Coordination Sequence:
#
# PCOD9059454 Si02
#       7
#     2   2   2   2   2   2   2
#     4  11  24  44  70  96 135 182 222 285 346 401
#     4  11  23  41  69 101 131 170 231 280 335 409
#     4  11  26  44  68 103 135 181 231 281 341 418
#     4  11  27  43  68 102 135 180 231 285 341 414
#     4  11  24  44  66 100 134 173 232 278 340 409
#     4  11  27  45  68  99 141 184 225 283 353 407
#     4  12  24  48  70 100 143 180 236 281 344 416
#
# _framework density 20.343184000000001
#
# number of rings (size 3 to 8) (size 9 to 14) (size 15 to 20)
#    0.000    0.857    2.857    3.000    8.000    5.143 
#    0.000    0.000    0.000    0.000    0.000    0.000 
#    0.000    0.000    0.000    0.000    0.000    0.000 
#
# Total GULP energy -78265.046801 kJ/mol
# GULP energy per Si atom -5590.360486 kJ/mol
# Density = 2.029688 g / cm^3
# Si number density = 20.343184 Si / 1000 Ang^3
#
#
#
# Elastic Constant Matrix: (Units=GPa)
#
#
# Indices 1 2 3 4 5 6 
#
# 1 85.6251 35.7944 24.6595 -15.1230 11.1856 9.9277
# 2 35.7944 132.9401 49.5796 -4.3259 15.2708 14.2211
# 3 24.6595 49.5796 87.3488 -6.6857 2.6851 -1.3603
# 4 -15.1230 -4.3259 -6.6857 37.9545 2.1993 6.2264
# 5 11.1856 15.2708 2.6851 2.1993 42.6854 1.8527
# 6 9.9277 14.2211 -1.3603 6.2264 1.8527 39.6035
#
#
#
# Elastic Compliance Matrix: (Units=1/GPa)
#
#
# Indices 1 2 3 4 5 6 
#
# 1 0.015310 -0.002160 -0.002581 0.006239 -0.003225 -0.003981
# 2 -0.002160 0.010854 -0.005507 0.000133 -0.002829 -0.003434
# 3 -0.002581 -0.005507 0.015339 0.000464 0.001527 0.003007
# 4 0.006239 0.000133 0.000464 0.030120 -0.002995 -0.006191
# 5 -0.003225 -0.002829 0.001527 -0.002995 0.025292 0.001164
# 6 -0.003981 -0.003434 0.003007 -0.006191 0.001164 0.028504
#
#
# Mechanical properties :
#
#
# Convention : Reuss Voigt Hill
#
# Bulk Modulus (GPa) = 47.60753 58.44234 53.02493
# Shear Modulus (GPa) = 32.69723 37.10738 34.90231
#
# Velocity S-wave (km/s) = 4.01344 4.27555 4.14657
# Velocity P-wave (km/s) = 6.70298 7.29139 7.00337
#
# Compressibility (1/GPa) = 0.02100508
#
# Stress axis : x y z
#
# Youngs Moduli (GPa) = 65.31586 92.12832 65.19521
#
# Poissons Ratio (x) = 0.19902 0.16829
# Poissons Ratio (y) = 0.14110 0.35906
# Poissons Ratio (z) = 0.16860 0.50740
#
# Static dielectric constant tensor:
#      x y z
#    x 1.715620 0.017790 -0.036990 
#    y 0.017790 1.682310 0.029690 
#    z -0.036990 0.029690 1.735870 
# 
# From -- ./inp_files/40168.got.cif
#   From: 2010.05.17/outbox.cif.g08.bks.cpg/sg2_21_cif.got.tgz:40168.got - 2010.06.03 11:33:40.
