data_PCOD9059381
_publ_section_title
;
Structure prediction by ZEFSAII (Michael W. Deem and Ramdas Pophale) SiO2 
 PCOD9059381
Probable space group: P -1
;
_chemical_formula_sum "Si O2"
_cell_formula_units_Z 16
_cell_length_a 5.243591
_cell_length_b 17.538033
_cell_length_c 14.516940
_cell_angle_alpha 42.113849
_cell_angle_beta 124.343923
_cell_angle_gamma 125.607587
_cell_volume 706.134268
_symmetry_space_group_name_H-M "P -1"
_symmetry_group_IT_number 2
_symmetry_cell_setting 'triclinic'
loop_
_space_group_symop_operation_xyz
x,y,z
-x,-y,-z
loop_
_atom_site_type_symbol
_atom_site_label
_atom_site_fract_x
_atom_site_fract_y
_atom_site_fract_z
Si Si1 0.852763 0.742386 0.866308
Si Si2 0.544133 0.497563 0.617394
Si Si3 0.924092 0.593472 0.178011
Si Si4 0.789652 0.152113 0.645543
Si Si5 0.437297 0.128718 0.153099
Si Si6 0.260830 0.275132 0.463075
Si Si7 0.115506 0.245545 0.823773
Si Si8 0.231921 0.429160 0.154357
O O1 0.653317 0.803143 0.838307
O O2 0.670495 0.650637 0.833524
O O3 0.175442 0.835739 0.809129
O O4 0.986182 0.659528 0.035274
O O5 0.500000 0.500000 0.500000
O O6 0.462141 0.608062 0.546735
O O7 0.366288 0.366369 0.731309
O O8 0.919773 0.512249 0.695058
O O9 0.072437 0.693373 0.196216
O O10 0.540593 0.533095 0.159888
O O11 0.457702 0.188388 0.544129
O O12 0.029984 0.218798 0.552617
O O13 0.935582 0.181863 0.752911
O O14 0.713149 0.011625 0.741038
O O15 0.280373 0.169813 0.992128
O O16 0.108034 0.332517 0.297167
O O17 0.000000 0.500000 0.000000
#
# Coordination Sequence:
#
# PCOD9059381 Si02
#       8
#     2   2   2   2   2   2   2   2
#     4  11  24  45  70 101 132 183 244 301 341 403
#     4  12  22  39  66 104 153 181 218 286 369 438
#     4  11  23  41  67 108 145 178 226 291 359 436
#     4  12  27  47  70 102 145 195 233 290 342 423
#     4  11  25  48  71 100 140 190 250 287 334 410
#     4  12  27  44  69 106 145 179 235 290 362 428
#     4  11  23  41  70 105 143 186 231 282 356 426
#     4  12  25  46  73 106 142 185 233 299 368 426
#
# _framework density 22.658581000000002
#
# number of rings (size 3 to 8) (size 9 to 14) (size 15 to 20)
#    0.000    0.500    3.750    5.250    0.000    4.000 
#    0.000    6.875    0.000    0.000    0.000    0.000 
#    0.000    0.000    0.000    0.000    0.000    0.000 
#
# Total GULP energy -89375.664770 kJ/mol
# GULP energy per Si atom -5585.979048 kJ/mol
# Density = 2.260701 g / cm^3
# Si number density = 22.658581 Si / 1000 Ang^3
#
#
#
# Elastic Constant Matrix: (Units=GPa)
#
#
# Indices 1 2 3 4 5 6 
#
# 1 72.7948 18.4597 23.1944 -1.4610 -17.4175 -14.1537
# 2 18.4597 102.8312 44.7226 -9.5445 -14.1692 -19.2640
# 3 23.1944 44.7226 106.8125 -21.4614 -13.6643 -19.0511
# 4 -1.4610 -9.5445 -21.4614 38.1473 -1.7871 -8.4164
# 5 -17.4175 -14.1692 -13.6643 -1.7871 34.1045 2.9941
# 6 -14.1537 -19.2640 -19.0511 -8.4164 2.9941 36.4141
#
#
#
# Elastic Compliance Matrix: (Units=1/GPa)
#
#
# Indices 1 2 3 4 5 6 
#
# 1 0.017185 -0.000264 -0.001371 0.001398 0.007707 0.005512
# 2 -0.000264 0.013000 -0.003462 0.002626 0.003553 0.005278
# 3 -0.001371 -0.003462 0.014656 0.009061 0.003584 0.007103
# 4 0.001398 0.002626 0.009061 0.035477 0.006032 0.014377
# 5 0.007707 0.003553 0.003584 0.006032 0.036031 0.005182
# 6 0.005512 0.005278 0.007103 0.014377 0.005182 0.039009
#
#
# Mechanical properties :
#
#
# Convention : Reuss Voigt Hill
#
# Bulk Modulus (GPa) = 28.86456 50.57687 39.72072
# Shear Modulus (GPa) = 28.23244 34.80396 31.51820
#
# Velocity S-wave (km/s) = 3.53369 3.92346 3.73366
# Velocity P-wave (km/s) = 5.42364 6.54938 6.01292
#
# Compressibility (1/GPa) = 0.03464456
#
# Stress axis : x y z
#
# Youngs Moduli (GPa) = 58.19086 76.92353 68.23315
#
# Poissons Ratio (x) = 0.02034 0.09356
# Poissons Ratio (y) = 0.01539 0.23624
# Poissons Ratio (z) = 0.07979 0.26633
#
# Static dielectric constant tensor:
#      x y z
#    x 1.953660 0.007310 -0.025470 
#    y 0.007310 1.824760 0.031820 
#    z -0.025470 0.031820 1.833220 
# 
# From -- ./inp_files/485233.got.cif
#   From: 2010.05.17/outbox.cif.g08.bks.cpg/sg2_243_cif.got.tgz:485233.got - 2010.06.03 11:33:40.
