data_PCOD9059390
_publ_section_title
;
Structure prediction by ZEFSAII (Michael W. Deem and Ramdas Pophale) SiO2 
 PCOD9059390
Probable space group: P -1
;
_chemical_formula_sum "Si O2"
_cell_formula_units_Z 12
_cell_length_a 6.088558
_cell_length_b 15.291519
_cell_length_c 9.448096
_cell_angle_alpha 37.832966
_cell_angle_beta 80.915544
_cell_angle_gamma 97.393044
_cell_volume 483.913808
_symmetry_space_group_name_H-M "P -1"
_symmetry_group_IT_number 2
_symmetry_cell_setting 'triclinic'
loop_
_space_group_symop_operation_xyz
x,y,z
-x,-y,-z
loop_
_atom_site_type_symbol
_atom_site_label
_atom_site_fract_x
_atom_site_fract_y
_atom_site_fract_z
Si Si1 0.783675 0.446911 0.378694
Si Si2 0.874095 0.963497 0.210592
Si Si3 0.941627 0.125341 0.432518
Si Si4 0.552562 0.632978 0.029248
Si Si5 0.764474 0.262260 0.894910
Si Si6 0.362637 0.708994 0.685751
O O1 0.737316 0.316017 0.669958
O O2 0.820101 0.383679 0.302645
O O3 0.010136 0.597313 0.227940
O O4 0.560074 0.497219 0.303286
O O5 0.618566 0.811041 0.450625
O O6 0.056157 0.928155 0.339673
O O7 0.820793 0.110543 0.078993
O O8 0.000000 0.000000 0.000000
O O9 0.712236 0.165671 0.387300
O O10 0.174388 0.283205 0.165485
O O11 0.000000 0.000000 0.500000
O O12 0.391083 0.600768 0.945183
O O13 0.474368 0.747236 0.985250
#
# Coordination Sequence:
#
# PCOD9059390 Si02
#       6
#     2   2   2   2   2   2
#     4  11  25  43  66  96 133 174 216 265 325 384
#     4  11  25  44  67  96 129 170 218 267 323 385
#     4  11  23  41  67  97 131 172 216 266 324 383
#     4  11  23  41  67  96 132 172 216 265 323 386
#     4  11  25  44  67  96 133 173 216 267 323 386
#     4  11  25  43  68  99 131 169 217 271 323 382
#
# _framework density 24.797802000000001
#
# number of rings (size 3 to 8) (size 9 to 14) (size 15 to 20)
#    0.000    1.000    0.000    6.000    0.000   16.000 
#    0.000    0.000    0.000    0.000    0.000    0.000 
#    0.000    0.000    0.000    0.000    0.000    0.000 
#
# Total GULP energy -67137.184885 kJ/mol
# GULP energy per Si atom -5594.765407 kJ/mol
# Density = 2.474136 g / cm^3
# Si number density = 24.797802 Si / 1000 Ang^3
#
#
#
# Elastic Constant Matrix: (Units=GPa)
#
#
# Indices 1 2 3 4 5 6 
#
# 1 82.1776 21.4613 40.2993 8.1832 21.8462 -9.7978
# 2 21.4613 91.2982 13.0239 0.1714 12.4641 -5.8759
# 3 40.2993 13.0239 82.3608 12.9947 39.3565 14.4682
# 4 8.1832 0.1714 12.9947 49.3166 -1.1487 11.9737
# 5 21.8462 12.4641 39.3565 -1.1487 55.1339 2.2976
# 6 -9.7978 -5.8759 14.4682 11.9737 2.2976 50.2224
#
#
#
# Elastic Compliance Matrix: (Units=1/GPa)
#
#
# Indices 1 2 3 4 5 6 
#
# 1 0.018468 -0.002539 -0.009185 -0.002227 -0.000504 0.006506
# 2 -0.002539 0.011843 0.000005 0.000111 -0.001712 0.000941
# 3 -0.009185 0.000005 0.025325 -0.003642 -0.014200 -0.007569
# 4 -0.002227 0.000111 -0.003642 0.022923 0.004144 -0.005027
# 5 -0.000504 -0.001712 -0.014200 0.004144 0.028885 0.001483
# 6 0.006506 0.000941 -0.007569 -0.005027 0.001483 0.024602
#
#
# Mechanical properties :
#
#
# Convention : Reuss Voigt Hill
#
# Bulk Modulus (GPa) = 31.05907 45.04509 38.05208
# Shear Modulus (GPa) = 30.08093 43.00472 36.54283
#
# Velocity S-wave (km/s) = 3.48666 4.16891 3.84296
# Velocity P-wave (km/s) = 5.36295 6.43253 5.92194
#
# Compressibility (1/GPa) = 0.03219672
#
# Stress axis : x y z
#
# Youngs Moduli (GPa) = 54.14833 84.43575 39.48642
#
# Poissons Ratio (x) = 0.21439 0.36270
# Poissons Ratio (y) = 0.13749 -0.00019
# Poissons Ratio (z) = 0.49737 -0.00040
#
# Static dielectric constant tensor:
#      x y z
#    x 1.952800 0.028650 -0.006760 
#    y 0.028650 2.031490 -0.034670 
#    z -0.006760 -0.034670 1.948980 
# 
# From -- ./inp_files/21484.got.cif
#   From: 2010.05.17/outbox.cif.g08.bks.cpg/sg2_11_cif.got.tgz:21484.got - 2010.06.03 11:33:40.
