data_PCOD9059937
_publ_section_title
;
Structure prediction by ZEFSAII (Michael W. Deem and Ramdas Pophale) SiO2 
 PCOD9059937
Probable space group: P -1
;
_chemical_formula_sum "Si O2"
_cell_formula_units_Z 14
_cell_length_a 6.081342
_cell_length_b 14.974211
_cell_length_c 8.794250
_cell_angle_alpha 116.733436
_cell_angle_beta 120.498942
_cell_angle_gamma 64.340661
_cell_volume 594.064573
_symmetry_space_group_name_H-M "P -1"
_symmetry_group_IT_number 2
_symmetry_cell_setting 'triclinic'
loop_
_space_group_symop_operation_xyz
x,y,z
-x,-y,-z
loop_
_atom_site_type_symbol
_atom_site_label
_atom_site_fract_x
_atom_site_fract_y
_atom_site_fract_z
Si Si1 0.760293 0.942482 0.865247
Si Si2 0.494269 0.294850 0.939513
Si Si3 0.754255 0.282361 0.731678
Si Si4 0.223405 0.586256 0.441089
Si Si5 0.879326 0.595948 0.879962
Si Si6 0.750568 0.885979 0.172973
Si Si7 0.955624 0.720278 0.729520
O O1 0.818935 0.835251 0.710382
O O2 0.474823 0.015098 0.770072
O O3 0.739793 0.906016 0.004244
O O4 0.000000 0.000000 0.000000
O O5 0.499193 0.295263 0.759274
O O6 0.362274 0.208617 0.888040
O O7 0.350258 0.392926 0.066627
O O8 0.794574 0.262863 0.075911
O O9 0.726442 0.325651 0.585719
O O10 0.940992 0.163758 0.712637
O O11 0.896363 0.362070 0.927485
O O12 0.500000 0.500000 0.500000
O O13 0.046771 0.519384 0.246638
O O14 0.077105 0.638844 0.579723
O O15 0.799651 0.670794 0.761780
#
# Coordination Sequence:
#
# PCOD9059937 Si02
#       7
#     2   2   2   2   2   2   2
#     4  11  19  33  66  97 118 158 208 255 303 366
#     4  10  17  38  62  88 123 156 210 249 296 360
#     4  10  22  40  62  90 126 161 209 255 295 373
#     4  12  25  41  61  90 128 168 202 254 319 358
#     4  10  21  42  62  87 121 167 209 249 302 368
#     4  10  19  35  63  95 117 157 209 254 302 354
#     4  11  21  39  60  92 127 153 203 262 302 367
#
# _framework density 23.566464
#
# number of rings (size 3 to 8) (size 9 to 14) (size 15 to 20)
#    0.000    1.429    7.143    0.857    0.000    0.571 
#   10.286    0.714    0.000    3.429    0.000    0.000 
#    0.000    0.000    0.000    0.000    0.000    0.000 
#
# Total GULP energy -78096.509002 kJ/mol
# GULP energy per Si atom -5578.322072 kJ/mol
# Density = 2.351283 g / cm^3
# Si number density = 23.566464 Si / 1000 Ang^3
#
#
#
# Elastic Constant Matrix: (Units=GPa)
#
#
# Indices 1 2 3 4 5 6 
#
# 1 99.1525 38.5341 24.5722 -1.2818 -26.0174 -3.2339
# 2 38.5341 134.5271 28.0043 1.2449 -24.6958 -21.6978
# 3 24.5722 28.0043 40.0618 -4.2776 -11.0380 -13.4316
# 4 -1.2818 1.2449 -4.2776 32.5453 -0.1328 -11.5018
# 5 -26.0174 -24.6958 -11.0380 -0.1328 32.0343 3.4365
# 6 -3.2339 -21.6978 -13.4316 -11.5018 3.4365 47.3664
#
#
#
# Elastic Compliance Matrix: (Units=1/GPa)
#
#
# Indices 1 2 3 4 5 6 
#
# 1 0.014426 -0.001638 -0.006262 -0.001008 0.008550 -0.002406
# 2 -0.001638 0.010050 -0.003601 0.000219 0.004837 0.003173
# 3 -0.006262 -0.003601 0.036586 0.008261 0.003703 0.010035
# 4 -0.001008 0.000219 0.008261 0.035636 0.001171 0.010943
# 5 0.008550 0.004837 0.003703 0.001171 0.043062 0.001010
# 6 -0.002406 0.003173 0.010035 0.010943 0.001010 0.027831
#
#
# Mechanical properties :
#
#
# Convention : Reuss Voigt Hill
#
# Bulk Modulus (GPa) = 26.27354 50.66252 38.46803
# Shear Modulus (GPa) = 24.59684 34.56458 29.58071
#
# Velocity S-wave (km/s) = 3.23417 3.83389 3.54673
# Velocity P-wave (km/s) = 5.01193 6.41425 5.75596
#
# Compressibility (1/GPa) = 0.03806110
#
# Stress axis : x y z
#
# Youngs Moduli (GPa) = 69.32037 99.50376 27.33297
#
# Poissons Ratio (x) = 0.16297 0.17115
# Poissons Ratio (y) = 0.11353 0.09841
# Poissons Ratio (z) = 0.43407 0.35827
#
# Static dielectric constant tensor:
#      x y z
#    x 1.996400 -0.076660 0.008340 
#    y -0.076660 1.970910 -0.013170 
#    z 0.008340 -0.013170 1.943040 
# 
# From -- ./inp_files/34791.got.cif
#   From: 2010.05.17/outbox.cif.g08.bks.cpg/sg2_18_cif.got.tgz:34791.got - 2010.06.03 11:33:40.
