data_PCOD9059801
_publ_section_title
;
Structure prediction by ZEFSAII (Michael W. Deem and Ramdas Pophale) SiO2 
 PCOD9059801
Probable space group: P -1
;
_chemical_formula_sum "Si O2"
_cell_formula_units_Z 15
_cell_length_a 19.156863
_cell_length_b 12.187241
_cell_length_c 8.165630
_cell_angle_alpha 53.335647
_cell_angle_beta 81.993755
_cell_angle_gamma 37.169438
_cell_volume 664.829090
_symmetry_space_group_name_H-M "P -1"
_symmetry_group_IT_number 2
_symmetry_cell_setting 'triclinic'
loop_
_space_group_symop_operation_xyz
x,y,z
-x,-y,-z
loop_
_atom_site_type_symbol
_atom_site_label
_atom_site_fract_x
_atom_site_fract_y
_atom_site_fract_z
Si Si1 0.682612 0.712947 0.645740
Si Si2 0.267617 0.358027 0.686469
Si Si3 0.781061 0.816392 0.683132
Si Si4 0.500000 0.500000 0.500000
Si Si5 0.006298 0.309384 0.347347
Si Si6 0.450146 0.517023 0.172459
Si Si7 0.586150 0.638893 0.228093
Si Si8 0.736293 0.355361 0.100062
O O1 0.709289 0.647833 0.504606
O O2 0.722793 0.795960 0.608176
O O3 0.783542 0.424833 0.970468
O O4 0.500000 0.000000 0.500000
O O5 0.109427 0.545903 0.604001
O O6 0.278892 0.482634 0.665810
O O7 0.419244 0.001654 0.010022
O O8 0.877015 0.764634 0.598057
O O9 0.621602 0.163115 0.506141
O O10 0.893459 0.555266 0.017221
O O11 0.399421 0.699014 0.177831
O O12 0.598420 0.472582 0.460138
O O13 0.124799 0.977243 0.569038
O O14 0.330889 0.606293 0.073079
O O15 0.500000 0.500000 0.000000
O O16 0.597617 0.602312 0.061601
#
# Coordination Sequence:
#
# PCOD9059801 Si02
#       8
#     2   2   2   1   2   2   2   2
#     4  12  24  42  72 102 134 189 246 296 348 425
#     4  11  25  43  66 103 140 185 237 296 354 427
#     4  11  24  46  71 102 143 192 232 291 371 436
#     4  12  24  36  70 110 134 172 242 316 332 402
#     4  11  26  45  70 104 148 185 230 300 370 432
#     4  12  22  43  71 103 140 186 249 287 345 429
#     4  11  23  42  69 101 137 186 245 289 347 431
#     4  12  24  45  73 101 141 193 236 293 362 427
#
# _framework density 22.562189
#
# number of rings (size 3 to 8) (size 9 to 14) (size 15 to 20)
#    0.000    0.533    5.333    2.400    1.867    4.267 
#    0.000    4.000    0.000    0.000    0.000    0.000 
#    0.000    0.000    0.000    0.000    0.000    0.000 
#
# Total GULP energy -83617.752793 kJ/mol
# GULP energy per Si atom -5574.516853 kJ/mol
# Density = 2.251084 g / cm^3
# Si number density = 22.562189 Si / 1000 Ang^3
#
#
#
# Elastic Constant Matrix: (Units=GPa)
#
#
# Indices 1 2 3 4 5 6 
#
# 1 93.5470 26.1723 15.4342 2.1782 -20.3495 -22.5630
# 2 26.1723 41.5204 6.4228 8.0443 -3.4125 -25.0424
# 3 15.4342 6.4228 66.7605 -4.2400 -25.5344 -12.6838
# 4 2.1782 8.0443 -4.2400 42.8963 -1.5682 -7.6663
# 5 -20.3495 -3.4125 -25.5344 -1.5682 42.5310 4.0895
# 6 -22.5630 -25.0424 -12.6838 -7.6663 4.0895 28.5863
#
#
#
# Elastic Compliance Matrix: (Units=1/GPa)
#
#
# Indices 1 2 3 4 5 6 
#
# 1 0.015192 -0.004871 0.001203 0.001904 0.006922 0.007777
# 2 -0.004871 0.053831 0.004520 -0.001363 0.000334 0.044905
# 3 0.001203 0.004520 0.022206 0.004273 0.013078 0.014037
# 4 0.001904 -0.001363 0.004273 0.025550 0.003486 0.008558
# 5 0.006922 0.000334 0.013078 0.003486 0.034099 0.007616
# 6 0.007777 0.044905 0.014037 0.008558 0.007616 0.087892
#
#
# Mechanical properties :
#
#
# Convention : Reuss Voigt Hill
#
# Bulk Modulus (GPa) = 10.76063 33.09851 21.92957
# Shear Modulus (GPa) = 18.65360 33.05596 25.85478
#
# Velocity S-wave (km/s) = 2.87847 3.83182 3.38884
# Velocity P-wave (km/s) = 3.97833 5.85482 5.00530
#
# Compressibility (1/GPa) = 0.09293136
#
# Stress axis : x y z
#
# Youngs Moduli (GPa) = 65.82614 18.57658 45.03232
#
# Poissons Ratio (x) = 0.09049 -0.05416
# Poissons Ratio (y) = 0.32066 -0.20354
# Poissons Ratio (z) = -0.07916 -0.08396
#
# Static dielectric constant tensor:
#      x y z
#    x 1.726010 -0.230860 -0.082220 
#    y -0.230860 1.366490 -0.161060 
#    z -0.082220 -0.161060 1.851190 
# 
# From -- ./inp_files/302583.got.cif
#   From: 2010.05.17/outbox.cif.g08.bks.cpg/sg2_152_cif.got.tgz:302583.got - 2010.06.03 11:33:40.
