data_PCOD9059054
_publ_section_title
;
Structure prediction by ZEFSAII (Michael W. Deem and Ramdas Pophale) SiO2 
 PCOD9059054
Probable space group: P -1
;
_chemical_formula_sum "Si O2"
_cell_formula_units_Z 14
_cell_length_a 11.779175
_cell_length_b 9.199277
_cell_length_c 15.606925
_cell_angle_alpha 56.986526
_cell_angle_beta 151.039566
_cell_angle_gamma 109.067640
_cell_volume 638.066938
_symmetry_space_group_name_H-M "P -1"
_symmetry_group_IT_number 2
_symmetry_cell_setting 'triclinic'
loop_
_space_group_symop_operation_xyz
x,y,z
-x,-y,-z
loop_
_atom_site_type_symbol
_atom_site_label
_atom_site_fract_x
_atom_site_fract_y
_atom_site_fract_z
Si Si1 0.774193 0.479896 0.228935
Si Si2 0.406738 0.003744 0.294714
Si Si3 0.707240 0.330577 0.735731
Si Si4 0.125379 0.025463 0.282062
Si Si5 0.672041 0.376232 0.889123
Si Si6 0.871579 0.348965 0.515879
Si Si7 0.163751 0.382879 0.946983
O O1 0.849800 0.329401 0.404174
O O2 0.907726 0.487382 0.225164
O O3 0.862948 0.632807 0.288741
O O4 0.500000 0.500000 0.000000
O O5 0.676628 0.922523 0.545776
O O6 0.360253 0.852236 0.252697
O O7 0.209777 0.043758 0.233487
O O8 0.395906 0.184229 0.174302
O O9 0.500000 0.500000 0.500000
O O10 0.725304 0.405338 0.817151
O O11 0.949869 0.302572 0.849296
O O12 0.160872 0.815521 0.397573
O O13 0.842092 0.157419 0.079097
O O14 0.372657 0.463464 0.681959
O O15 0.789661 0.490368 0.989885
#
# Coordination Sequence:
#
# PCOD9059054 Si02
#       7
#     2   2   2   2   2   2   2
#     4  11  23  46  77  93 135 191 234 280 347 403
#     4  11  23  40  65 102 142 183 224 274 351 420
#     4  12  25  38  63 105 141 179 225 283 347 419
#     4  11  23  42  69  99 141 178 227 283 345 416
#     4  12  24  42  69 103 139 179 227 286 349 409
#     4  11  25  47  72 102 135 186 232 287 343 406
#     4  12  23  42  70  97 138 185 226 282 347 411
#
# _framework density 21.941272000000001
#
# number of rings (size 3 to 8) (size 9 to 14) (size 15 to 20)
#    0.000    0.571    4.286    4.286    4.000    0.000 
#    0.000    3.571    3.143    0.000    0.000    0.000 
#    0.000    0.000    0.000    0.000    0.000    0.000 
#
# Total GULP energy -77934.222319 kJ/mol
# GULP energy per Si atom -5566.730166 kJ/mol
# Density = 2.189133 g / cm^3
# Si number density = 21.941272 Si / 1000 Ang^3
#
#
#
# Elastic Constant Matrix: (Units=GPa)
#
#
# Indices 1 2 3 4 5 6 
#
# 1 66.2528 29.5023 25.2845 -8.3153 -16.7705 1.9314
# 2 29.5023 71.8451 25.5209 15.8841 -1.7261 1.5732
# 3 25.2845 25.5209 95.4297 7.1940 -6.2741 -9.2788
# 4 -8.3153 15.8841 7.1940 38.5766 -8.2421 0.5123
# 5 -16.7705 -1.7261 -6.2741 -8.2421 36.0647 8.4241
# 6 1.9314 1.5732 -9.2788 0.5123 8.4241 32.6357
#
#
#
# Elastic Compliance Matrix: (Units=1/GPa)
#
#
# Indices 1 2 3 4 5 6 
#
# 1 0.030100 -0.013707 -0.005136 0.017058 0.018103 -0.007521
# 2 -0.013707 0.023085 -0.001915 -0.014099 -0.009235 0.001759
# 3 -0.005136 -0.001915 0.012912 -0.003228 -0.002058 0.004649
# 4 0.017058 -0.014099 -0.003228 0.039780 0.017265 -0.006329
# 5 0.018103 -0.009235 -0.002058 0.017265 0.042181 -0.012370
# 6 -0.007521 0.001759 0.004649 -0.006329 -0.012370 0.035616
#
#
# Mechanical properties :
#
#
# Convention : Reuss Voigt Hill
#
# Bulk Modulus (GPa) = 40.68462 43.79368 42.23915
# Shear Modulus (GPa) = 21.42390 31.67006 26.54698
#
# Velocity S-wave (km/s) = 3.12816 3.80333 3.48215
# Velocity P-wave (km/s) = 5.62405 6.26817 5.95483
#
# Compressibility (1/GPa) = 0.02457931
#
# Stress axis : x y z
#
# Youngs Moduli (GPa) = 33.22228 43.31884 77.44683
#
# Poissons Ratio (x) = 0.59379 0.39780
# Poissons Ratio (y) = 0.45539 0.14831
# Poissons Ratio (z) = 0.17065 0.08296
#
# Static dielectric constant tensor:
#      x y z
#    x 1.846300 0.026780 0.026450 
#    y 0.026780 1.783050 -0.004850 
#    z 0.026450 -0.004850 1.173910 
# 
# From -- ./inp_files/426797.got.cif
#   From: 2010.05.17/outbox.cif.g08.bks.cpg/sg2_214_cif.got.tgz:426797.got - 2010.06.03 11:33:40.
