data_PCOD9059872
_publ_section_title
;
Structure prediction by ZEFSAII (Michael W. Deem and Ramdas Pophale) SiO2 
 PCOD9059872
Probable space group: P -1
;
_chemical_formula_sum "Si O2"
_cell_formula_units_Z 16
_cell_length_a 17.090676
_cell_length_b 11.259628
_cell_length_c 8.596968
_cell_angle_alpha 116.002285
_cell_angle_beta 128.887807
_cell_angle_gamma 34.010980
_cell_volume 707.395551
_symmetry_space_group_name_H-M "P -1"
_symmetry_group_IT_number 2
_symmetry_cell_setting 'triclinic'
loop_
_space_group_symop_operation_xyz
x,y,z
-x,-y,-z
loop_
_atom_site_type_symbol
_atom_site_label
_atom_site_fract_x
_atom_site_fract_y
_atom_site_fract_z
Si Si1 0.395287 0.671577 0.321794
Si Si2 0.500908 0.157119 0.065421
Si Si3 0.706840 0.433922 0.102647
Si Si4 0.091895 0.491327 0.985699
Si Si5 0.951501 0.838213 0.776860
Si Si6 0.125494 0.210487 0.666181
Si Si7 0.115808 0.756258 0.477319
Si Si8 0.354001 0.399104 0.342698
O O1 0.500000 0.500000 0.500000
O O2 0.487365 0.715566 0.433334
O O3 0.206591 0.903127 0.258255
O O4 0.392147 0.577205 0.116937
O O5 0.417166 0.319891 0.199963
O O6 0.684350 0.021218 0.196924
O O7 0.385344 0.329237 0.883736
O O8 0.500000 0.000000 0.000000
O O9 0.745376 0.369353 0.291751
O O10 0.883025 0.263735 0.136828
O O11 0.117190 0.370284 0.800280
O O12 0.996486 0.715839 0.922577
O O13 0.259359 0.358827 0.206888
O O14 0.000000 0.500000 0.000000
O O15 0.907246 0.781822 0.551074
O O16 0.995705 0.255861 0.626170
O O17 0.208678 0.646267 0.365913
O O18 0.000000 0.000000 0.500000
#
# Coordination Sequence:
#
# PCOD9059872 Si02
#       8
#     2   2   2   2   2   2   2   2
#     4  12  24  42  73 105 137 176 240 293 344 405
#     4  12  23  45  74 103 137 180 236 293 341 409
#     4  11  25  44  72 100 137 189 234 280 347 421
#     4  12  24  45  70 101 143 183 231 285 350 413
#     4  11  23  42  70 104 132 186 235 281 345 423
#     4  11  23  44  72 100 137 187 227 286 348 415
#     4  11  29  47  68 102 148 184 230 287 354 415
#     4  12  25  46  68 106 143 179 233 296 341 416
#
# _framework density 22.618181
#
# number of rings (size 3 to 8) (size 9 to 14) (size 15 to 20)
#    0.000    0.500    6.250    0.750    7.000    1.500 
#    2.250    1.250    0.000    0.000    0.000    0.000 
#    0.000    0.000    0.000    0.000    0.000    0.000 
#
# Total GULP energy -89261.284757 kJ/mol
# GULP energy per Si atom -5578.830297 kJ/mol
# Density = 2.256670 g / cm^3
# Si number density = 22.618181 Si / 1000 Ang^3
#
#
#
# Elastic Constant Matrix: (Units=GPa)
#
#
# Indices 1 2 3 4 5 6 
#
# 1 51.1718 11.2198 31.9589 -6.3774 8.2186 -4.0160
# 2 11.2198 107.8681 49.9549 -1.0258 -20.2506 -2.0226
# 3 31.9589 49.9549 132.7936 4.7576 24.2981 15.9782
# 4 -6.3774 -1.0258 4.7576 39.1279 0.0297 5.9624
# 5 8.2186 -20.2506 24.2981 0.0297 42.9415 -2.3851
# 6 -4.0160 -2.0226 15.9782 5.9624 -2.3851 32.2663
#
#
#
# Elastic Compliance Matrix: (Units=1/GPa)
#
#
# Indices 1 2 3 4 5 6 
#
# 1 0.024786 0.000916 -0.007187 0.004029 0.000083 0.005963
# 2 0.000916 0.016252 -0.009604 0.000706 0.013297 0.006741
# 3 -0.007187 -0.009604 0.016581 -0.001855 -0.013109 -0.010334
# 4 0.004029 0.000706 -0.001855 0.026990 0.000398 -0.003494
# 5 0.000083 0.013297 -0.013109 0.000398 0.037517 0.010035
# 6 0.005963 0.006741 -0.010334 -0.003494 0.010035 0.038661
#
#
# Mechanical properties :
#
#
# Convention : Reuss Voigt Hill
#
# Bulk Modulus (GPa) = 38.65381 53.12231 45.88806
# Shear Modulus (GPa) = 24.85563 36.11380 30.48472
#
# Velocity S-wave (km/s) = 3.31860 4.00017 3.67522
# Velocity P-wave (km/s) = 5.64012 6.69871 6.19208
#
# Compressibility (1/GPa) = 0.02587067
#
# Stress axis : x y z
#
# Youngs Moduli (GPa) = 40.34466 61.52918 60.30870
#
# Poissons Ratio (x) = -0.05635 0.43343
# Poissons Ratio (y) = -0.03695 0.57920
# Poissons Ratio (z) = 0.28995 0.59092
#
# Static dielectric constant tensor:
#      x y z
#    x 1.910600 0.015770 0.005380 
#    y 0.015770 1.864390 0.013590 
#    z 0.005380 0.013590 1.857050 
# 
# From -- ./inp_files/333644.got.cif
#   From: 2010.05.17/outbox.cif.g08.bks.cpg/sg2_167_cif.got.tgz:333644.got - 2010.06.03 11:33:40.
