data_PCOD9059832
_publ_section_title
;
Structure prediction by ZEFSAII (Michael W. Deem and Ramdas Pophale) SiO2 
 PCOD9059832
Probable space group: P -1
;
_chemical_formula_sum "Si O2"
_cell_formula_units_Z 14
_cell_length_a 15.884914
_cell_length_b 10.439612
_cell_length_c 12.069379
_cell_angle_alpha 56.340192
_cell_angle_beta 48.375211
_cell_angle_gamma 28.694703
_cell_volume 716.104726
_symmetry_space_group_name_H-M "P -1"
_symmetry_group_IT_number 2
_symmetry_cell_setting 'triclinic'
loop_
_space_group_symop_operation_xyz
x,y,z
-x,-y,-z
loop_
_atom_site_type_symbol
_atom_site_label
_atom_site_fract_x
_atom_site_fract_y
_atom_site_fract_z
Si Si1 0.674336 0.271824 0.369227
Si Si2 0.144296 0.222112 0.445112
Si Si3 0.134161 0.634630 0.793924
Si Si4 0.518524 0.959115 0.134505
Si Si5 0.894097 0.283438 0.475078
Si Si6 0.529922 0.533235 0.777584
Si Si7 0.691211 0.084615 0.004421
O O1 0.500000 0.500000 0.500000
O O2 0.841048 0.212428 0.273217
O O3 0.585707 0.385558 0.270206
O O4 0.758090 0.009235 0.445094
O O5 0.000000 0.500000 0.500000
O O6 0.029412 0.247005 0.443646
O O7 0.316620 0.122780 0.282525
O O8 0.311373 0.351245 0.834745
O O9 0.150330 0.601153 0.663184
O O10 0.924625 0.806722 0.932488
O O11 0.500000 0.000000 0.000000
O O12 0.582350 0.048886 0.088948
O O13 0.695528 0.468565 0.625844
O O14 0.000000 0.000000 0.500000
O O15 0.636245 0.269882 0.868630
O O16 0.386356 0.763921 0.884162
#
# Coordination Sequence:
#
# PCOD9059832 Si02
#       7
#     2   2   2   2   2   2   2
#     4  12  22  43  72  99 127 177 237 277 325 395
#     4  12  26  43  68 103 135 171 223 288 342 382
#     4  12  24  41  71  95 126 180 236 264 327 410
#     4  12  26  43  64  94 141 175 219 274 336 406
#     4  12  21  42  74  95 125 176 234 276 320 401
#     4  11  23  42  69  95 135 170 222 285 331 398
#     4  11  25  42  62 100 136 175 214 273 352 393
#
# _framework density 19.550214
#
# number of rings (size 3 to 8) (size 9 to 14) (size 15 to 20)
#    0.000    0.286    5.714    3.000    0.000    4.000 
#    0.000    2.857    0.000    0.000    0.000    0.000 
#    0.000    0.000    0.000    0.000    0.000    0.000 
#
# Total GULP energy -78374.627252 kJ/mol
# GULP energy per Si atom -5598.187661 kJ/mol
# Density = 1.950572 g / cm^3
# Si number density = 19.550214 Si / 1000 Ang^3
#
#
#
# Elastic Constant Matrix: (Units=GPa)
#
#
# Indices 1 2 3 4 5 6 
#
# 1 143.6634 39.5007 70.7898 11.8546 -9.9118 -3.6389
# 2 39.5007 120.9849 57.2218 7.0142 14.0033 -1.3652
# 3 70.7898 57.2218 124.2955 15.8946 -0.3649 -14.1357
# 4 11.8546 7.0142 15.8946 18.7099 -8.2732 -2.0363
# 5 -9.9118 14.0033 -0.3649 -8.2732 47.5600 -6.2647
# 6 -3.6389 -1.3652 -14.1357 -2.0363 -6.2647 31.7629
#
#
#
# Elastic Compliance Matrix: (Units=1/GPa)
#
#
# Indices 1 2 3 4 5 6 
#
# 1 0.009996 -0.001001 -0.005237 -0.000669 0.002109 -0.000856
# 2 -0.001001 0.011420 -0.004782 -0.001769 -0.004272 -0.002708
# 3 -0.005237 -0.004782 0.014705 -0.006833 -0.000063 0.005288
# 4 -0.000669 -0.001769 -0.006833 0.066154 0.012294 0.003472
# 5 0.002109 -0.004272 -0.000063 0.012294 0.025635 0.005874
# 6 -0.000856 -0.002708 0.005288 0.003472 0.005874 0.035003
#
#
# Mechanical properties :
#
#
# Convention : Reuss Voigt Hill
#
# Bulk Modulus (GPa) = 71.02304 80.44094 75.73199
# Shear Modulus (GPa) = 26.36466 34.36864 30.36665
#
# Velocity S-wave (km/s) = 3.67626 4.19736 3.94542
# Velocity P-wave (km/s) = 7.37748 8.04522 7.71858
#
# Compressibility (1/GPa) = 0.01407994
#
# Stress axis : x y z
#
# Youngs Moduli (GPa) = 100.04183 87.56198 68.00600
#
# Poissons Ratio (x) = 0.08768 0.35618
# Poissons Ratio (y) = 0.10018 0.32518
# Poissons Ratio (z) = 0.52396 0.41869
#
# Static dielectric constant tensor:
#      x y z
#    x 1.663640 0.001870 -0.013940 
#    y 0.001870 1.678910 -0.017520 
#    z -0.013940 -0.017520 1.668720 
# 
# From -- ./inp_files/184471.got.cif
#   From: 2010.05.17/outbox.cif.g08.bks.cpg/sg2_93_cif.got.tgz:184471.got - 2010.06.03 11:33:40.
