data_PCOD9059894
_publ_section_title
;
Structure prediction by ZEFSAII (Michael W. Deem and Ramdas Pophale) SiO2 
 PCOD9059894
Probable space group: P -1
;
_chemical_formula_sum "Si O2"
_cell_formula_units_Z 16
_cell_length_a 14.461015
_cell_length_b 9.068928
_cell_length_c 14.820928
_cell_angle_alpha 79.262241
_cell_angle_beta 150.083399
_cell_angle_gamma 80.392171
_cell_volume 706.890902
_symmetry_space_group_name_H-M "P -1"
_symmetry_group_IT_number 2
_symmetry_cell_setting 'triclinic'
loop_
_space_group_symop_operation_xyz
x,y,z
-x,-y,-z
loop_
_atom_site_type_symbol
_atom_site_label
_atom_site_fract_x
_atom_site_fract_y
_atom_site_fract_z
Si Si1 0.246537 0.536869 0.292921
Si Si2 0.659269 0.105157 0.445081
Si Si3 0.035085 0.341675 0.615858
Si Si4 0.785505 0.069932 0.241420
Si Si5 0.725471 0.786849 0.758034
Si Si6 0.604064 0.668225 0.977691
Si Si7 0.674565 0.432990 0.448538
Si Si8 0.828222 0.275633 0.100448
O O1 0.500000 0.500000 0.500000
O O2 0.256176 0.369898 0.271838
O O3 0.227870 0.532595 0.385999
O O4 0.982790 0.734591 0.003438
O O5 0.394250 0.201919 0.250094
O O6 0.606275 0.166469 0.288878
O O7 0.730567 0.226625 0.534671
O O8 0.887264 0.866840 0.675889
O O9 0.000000 0.500000 0.500000
O O10 0.786549 0.418603 0.447283
O O11 0.182605 0.125883 0.718163
O O12 0.198942 0.309202 0.841505
O O13 0.533181 0.271326 0.049304
O O14 0.817215 0.127056 0.164179
O O15 0.000000 0.000000 0.500000
O O16 0.500000 0.000000 0.500000
O O17 0.745210 0.449208 0.080949
O O18 0.375920 0.610370 0.163777
#
# Coordination Sequence:
#
# PCOD9059894 Si02
#       8
#     2   2   2   2   2   2   2   2
#     4  11  25  49  77 106 152 186 235 305 365 435
#     4  11  23  45  69  99 140 182 238 293 354 432
#     4  12  25  42  65 101 142 181 235 293 357 421
#     4  12  21  43  65  94 135 184 233 293 350 423
#     4  11  27  46  75 111 143 189 242 297 367 437
#     4  11  24  40  66  95 136 178 231 294 355 418
#     4  11  24  45  70 101 138 191 236 288 365 430
#     4  11  23  42  70  96 133 188 238 288 355 424
#
# _framework density 22.634329000000001
#
# number of rings (size 3 to 8) (size 9 to 14) (size 15 to 20)
#    0.000    0.750    3.750    3.750    1.750    3.500 
#    2.250    0.000    0.000    0.000    0.000    0.000 
#    0.000    0.000    0.000    0.000    0.000    0.000 
#
# Total GULP energy -89370.531763 kJ/mol
# GULP energy per Si atom -5585.658235 kJ/mol
# Density = 2.258281 g / cm^3
# Si number density = 22.634329 Si / 1000 Ang^3
#
#
#
# Elastic Constant Matrix: (Units=GPa)
#
#
# Indices 1 2 3 4 5 6 
#
# 1 76.3631 16.9308 15.9018 5.9947 7.2333 -13.4967
# 2 16.9308 106.4459 69.3317 3.1271 -4.4792 -8.4589
# 3 15.9018 69.3317 135.9101 1.7668 12.4618 -16.2775
# 4 5.9947 3.1271 1.7668 33.0617 2.4267 0.3277
# 5 7.2333 -4.4792 12.4618 2.4267 33.0874 2.9511
# 6 -13.4967 -8.4589 -16.2775 0.3277 2.9511 26.4429
#
#
#
# Elastic Compliance Matrix: (Units=1/GPa)
#
#
# Indices 1 2 3 4 5 6 
#
# 1 0.015551 -0.002547 0.000924 -0.002368 -0.004654 0.008240
# 2 -0.002547 0.015330 -0.008324 -0.000965 0.006033 -0.002181
# 3 0.000924 -0.008324 0.012892 0.000365 -0.006791 0.006498
# 4 -0.002368 -0.000965 0.000365 0.030901 -0.001886 -0.001465
# 5 -0.004654 0.006033 -0.006791 -0.001886 0.035517 -0.008566
# 6 0.008240 -0.002181 0.006498 -0.001465 -0.008566 0.046300
#
#
# Mechanical properties :
#
#
# Convention : Reuss Voigt Hill
#
# Bulk Modulus (GPa) = 41.87725 58.11642 49.99683
# Shear Modulus (GPa) = 27.12323 32.95538 30.03931
#
# Velocity S-wave (km/s) = 3.46544 3.81988 3.64697
# Velocity P-wave (km/s) = 5.87828 6.72215 6.31433
#
# Compressibility (1/GPa) = 0.02387931
#
# Stress axis : x y z
#
# Youngs Moduli (GPa) = 64.30617 65.23075 77.56557
#
# Poissons Ratio (x) = 0.16612 -0.07167
# Poissons Ratio (y) = 0.16377 0.64567
# Poissons Ratio (z) = -0.05942 0.54300
#
# Static dielectric constant tensor:
#      x y z
#    x 2.142110 0.052050 0.153220 
#    y 0.052050 1.862210 -0.016990 
#    z 0.153220 -0.016990 1.928800 
# 
# From -- ./inp_files/55522.got.cif
#   From: 2010.05.17/outbox.cif.g08.bks.cpg/sg2_28_cif.got.tgz:55522.got - 2010.06.03 11:33:40.
