data_PCOD9059940
_publ_section_title
;
Structure prediction by ZEFSAII (Michael W. Deem and Ramdas Pophale) SiO2 
 PCOD9059940
Probable space group: P -1
;
_chemical_formula_sum "Si O2"
_cell_formula_units_Z 14
_cell_length_a 23.019612
_cell_length_b 4.930848
_cell_length_c 15.449313
_cell_angle_alpha 110.591753
_cell_angle_beta 20.122445
_cell_angle_gamma 112.038835
_cell_volume 559.201065
_symmetry_space_group_name_H-M "P -1"
_symmetry_group_IT_number 2
_symmetry_cell_setting 'triclinic'
loop_
_space_group_symop_operation_xyz
x,y,z
-x,-y,-z
loop_
_atom_site_type_symbol
_atom_site_label
_atom_site_fract_x
_atom_site_fract_y
_atom_site_fract_z
Si Si1 0.870433 0.713025 0.172591
Si Si2 0.323475 0.842488 0.684120
Si Si3 0.208924 0.774120 0.105927
Si Si4 0.573080 0.519281 0.995150
Si Si5 0.413130 0.991151 0.377169
Si Si6 0.211945 0.936415 0.300879
Si Si7 0.910333 0.858671 0.832808
O O1 0.743876 0.508256 0.259621
O O2 0.734189 0.845756 0.439413
O O3 0.000000 0.500000 0.000000
O O4 0.000000 0.000000 0.000000
O O5 0.500000 0.000000 0.500000
O O6 0.351418 0.905286 0.550724
O O7 0.169113 0.980180 0.960145
O O8 0.131513 0.765981 0.309508
O O9 0.130441 0.485238 0.134017
O O10 0.185313 0.049257 0.110063
O O11 0.410952 0.790021 0.837081
O O12 0.457863 0.701707 0.235139
O O13 0.500000 0.500000 0.000000
O O14 0.621212 0.215902 0.928540
O O15 0.746456 0.742010 0.761726
O O16 0.103713 0.936550 0.539188
#
# Coordination Sequence:
#
# PCOD9059940 Si02
#       7
#     2   2   2   2   2   2   2
#     4  12  28  50  72 107 152 203 249 307 376 441
#     4  12  27  48  79 116 153 203 255 307 377 461
#     4  11  23  42  71 106 146 196 233 305 370 449
#     4  11  26  47  75 100 137 192 254 306 360 449
#     4  11  26  47  78 105 152 194 253 305 378 447
#     4  11  24  44  69 105 140 187 244 301 383 425
#     4  12  25  41  71 107 154 184 241 305 372 450
#
# _framework density 25.035719
#
# number of rings (size 3 to 8) (size 9 to 14) (size 15 to 20)
#    0.000    0.571    2.857    4.714    6.000    3.429 
#    0.000    0.000    0.000    0.000    0.000    0.000 
#    0.000    0.000    0.000    0.000    0.000    0.000 
#
# Total GULP energy -78233.457714 kJ/mol
# GULP energy per Si atom -5588.104122 kJ/mol
# Density = 2.497874 g / cm^3
# Si number density = 25.035719 Si / 1000 Ang^3
#
#
#
# Elastic Constant Matrix: (Units=GPa)
#
#
# Indices 1 2 3 4 5 6 
#
# 1 94.2675 13.5398 34.5832 9.9427 16.6421 4.7612
# 2 13.5398 118.1895 33.8078 -11.5380 5.0744 3.3732
# 3 34.5832 33.8078 166.2715 23.0006 15.7767 5.1769
# 4 9.9427 -11.5380 23.0006 42.7863 -0.5098 2.0077
# 5 16.6421 5.0744 15.7767 -0.5098 58.2118 11.3279
# 6 4.7612 3.3732 5.1769 2.0077 11.3279 41.8350
#
#
#
# Elastic Compliance Matrix: (Units=1/GPa)
#
#
# Indices 1 2 3 4 5 6 
#
# 1 0.012138 -0.000973 -0.001746 -0.002169 -0.002892 -0.000200
# 2 -0.000973 0.009649 -0.002330 0.004114 0.000229 -0.000638
# 3 -0.001746 -0.002330 0.007580 -0.004316 -0.001396 0.000034
# 4 -0.002169 0.004114 -0.004316 0.027394 0.001942 -0.001391
# 5 -0.002892 0.000229 -0.001396 0.001942 0.019323 -0.004842
# 6 -0.000200 -0.000638 0.000034 -0.001391 -0.004842 0.025351
#
#
# Mechanical properties :
#
#
# Convention : Reuss Voigt Hill
#
# Bulk Modulus (GPa) = 51.90019 60.28778 56.09399
# Shear Modulus (GPa) = 42.38860 48.35313 45.37086
#
# Velocity S-wave (km/s) = 4.11922 4.39950 4.26167
# Velocity P-wave (km/s) = 6.58783 7.06685 6.83154
#
# Compressibility (1/GPa) = 0.01926775
#
# Stress axis : x y z
#
# Youngs Moduli (GPa) = 82.38655 103.63723 131.93187
#
# Poissons Ratio (x) = 0.10084 0.23035
# Poissons Ratio (y) = 0.08016 0.30746
# Poissons Ratio (z) = 0.14385 0.24152
#
# Static dielectric constant tensor:
#      x y z
#    x 2.182670 0.154970 -0.058090 
#    y 0.154970 2.123650 -0.023570 
#    z -0.058090 -0.023570 2.039220 
# 
# From -- ./inp_files/579506.got.cif
#   From: 2010.05.17/outbox.cif.g08.bks.cpg/sg2_290_cif.got.tgz:579506.got - 2010.06.03 11:33:40.
