data_PCOD9059632
_publ_section_title
;
Structure prediction by ZEFSAII (Michael W. Deem and Ramdas Pophale) SiO2 
 PCOD9059632
Probable space group: P -1
;
_chemical_formula_sum "Si O2"
_cell_formula_units_Z 14
_cell_length_a 5.381325
_cell_length_b 12.084725
_cell_length_c 9.323303
_cell_angle_alpha 103.893180
_cell_angle_beta 95.781236
_cell_angle_gamma 78.859527
_cell_volume 576.542522
_symmetry_space_group_name_H-M "P -1"
_symmetry_group_IT_number 2
_symmetry_cell_setting 'triclinic'
loop_
_space_group_symop_operation_xyz
x,y,z
-x,-y,-z
loop_
_atom_site_type_symbol
_atom_site_label
_atom_site_fract_x
_atom_site_fract_y
_atom_site_fract_z
Si Si1 0.028013 0.038481 0.804492
Si Si2 0.281017 0.106170 0.564785
Si Si3 0.059093 0.197191 0.284832
Si Si4 0.943609 0.463946 0.320693
Si Si5 0.395179 0.535587 0.168836
Si Si6 0.606747 0.862580 0.956637
Si Si7 0.413775 0.777105 0.176379
O O1 0.124975 0.050540 0.656028
O O2 0.734394 0.090727 0.796914
O O3 0.134997 0.129078 0.938611
O O4 0.082349 0.905518 0.812696
O O5 0.117138 0.164365 0.441683
O O6 0.380253 0.208975 0.687846
O O7 0.500000 0.000000 0.500000
O O8 0.327917 0.175741 0.211458
O O9 0.937958 0.326771 0.286428
O O10 0.659827 0.519977 0.269151
O O11 0.000000 0.500000 0.500000
O O12 0.171286 0.485155 0.228161
O O13 0.282928 0.672713 0.185059
O O14 0.500000 0.500000 0.000000
O O15 0.499253 0.767210 0.013227
O O16 0.500000 0.000000 0.000000
#
# Coordination Sequence:
#
# PCOD9059632 Si02
#       7
#     2   2   2   2   2   2   2
#     4  11  24  40  68 104 135 182 228 288 370 433
#     4  11  23  42  64 106 139 181 228 282 368 443
#     4  12  24  43  72 102 145 179 237 301 360 437
#     4  12  30  52  75 113 152 204 254 316 376 434
#     4  12  29  52  80 107 147 205 265 304 367 451
#     4  11  23  42  64 109 142 174 226 295 377 428
#     4  11  25  43  73  95 143 181 233 296 354 439
#
# _framework density 24.282684
#
# number of rings (size 3 to 8) (size 9 to 14) (size 15 to 20)
#    0.000    0.571    2.857    4.286    8.000    2.286 
#    0.000    0.000    0.000    0.000    0.000    0.000 
#    0.000    0.000    0.000    0.000    0.000    0.000 
#
# Total GULP energy -78093.568680 kJ/mol
# GULP energy per Si atom -5578.112049 kJ/mol
# Density = 2.422742 g / cm^3
# Si number density = 24.282684 Si / 1000 Ang^3
#
#
#
# Elastic Constant Matrix: (Units=GPa)
#
#
# Indices 1 2 3 4 5 6 
#
# 1 69.7680 23.9203 22.1628 -18.7077 -9.1358 8.9821
# 2 23.9203 165.6602 13.9352 -18.1301 -9.8671 21.4864
# 3 22.1628 13.9352 105.1885 -29.6979 -22.1533 12.0530
# 4 -18.7077 -18.1301 -29.6979 33.8116 4.7155 -7.7636
# 5 -9.1358 -9.8671 -22.1533 4.7155 39.8342 -10.2504
# 6 8.9821 21.4864 12.0530 -7.7636 -10.2504 37.4726
#
#
#
# Elastic Compliance Matrix: (Units=1/GPa)
#
#
# Indices 1 2 3 4 5 6 
#
# 1 0.017529 -0.001363 -0.000765 0.007778 0.002081 -0.000994
# 2 -0.001363 0.006917 0.000621 0.002699 0.000627 -0.003109
# 3 -0.000765 0.000621 0.014206 0.011350 0.006368 -0.000649
# 4 0.007778 0.002699 0.011350 0.045510 0.004288 0.003539
# 5 0.002081 0.000627 0.006368 0.004288 0.030390 0.006295
# 6 -0.000994 -0.003109 -0.000649 0.003539 0.006295 0.031371
#
#
# Mechanical properties :
#
#
# Convention : Reuss Voigt Hill
#
# Bulk Modulus (GPa) = 28.05902 51.18370 39.62136
# Shear Modulus (GPa) = 31.09148 40.93023 36.01086
#
# Velocity S-wave (km/s) = 3.58215 4.11003 3.85513
# Velocity P-wave (km/s) = 5.35624 6.60660 6.01400
#
# Compressibility (1/GPa) = 0.03563916
#
# Stress axis : x y z
#
# Youngs Moduli (GPa) = 57.04692 144.57346 70.39490
#
# Poissons Ratio (x) = 0.19701 0.05383
# Poissons Ratio (y) = 0.07774 -0.04372
# Poissons Ratio (z) = 0.04362 -0.08979
#
# Static dielectric constant tensor:
#      x y z
#    x 2.111520 -0.036970 0.072430 
#    y -0.036970 1.904460 0.134310 
#    z 0.072430 0.134310 1.146670 
# 
# From -- ./inp_files/49305.got.cif
#   From: 2010.05.17/outbox.cif.g08.bks.cpg/sg2_25_cif.got.tgz:49305.got - 2010.06.03 11:33:40.
