data_PCOD9059027
_publ_section_title
;
Structure prediction by ZEFSAII (Michael W. Deem and Ramdas Pophale) SiO2 
 PCOD9059027
Probable space group: P -1
;
_chemical_formula_sum "Si O2"
_cell_formula_units_Z 16
_cell_length_a 7.784695
_cell_length_b 15.267666
_cell_length_c 7.120995
_cell_angle_alpha 110.617368
_cell_angle_beta 123.575666
_cell_angle_gamma 97.712909
_cell_volume 598.390767
_symmetry_space_group_name_H-M "P -1"
_symmetry_group_IT_number 2
_symmetry_cell_setting 'triclinic'
loop_
_space_group_symop_operation_xyz
x,y,z
-x,-y,-z
loop_
_atom_site_type_symbol
_atom_site_label
_atom_site_fract_x
_atom_site_fract_y
_atom_site_fract_z
Si Si1 0.518475 0.853721 0.662826
Si Si2 0.468648 0.475688 0.682720
Si Si3 0.915677 0.121029 0.471853
Si Si4 0.217963 0.600771 0.643191
Si Si5 0.745758 0.361465 0.751588
Si Si6 0.225138 0.913350 0.072780
Si Si7 0.346768 0.114471 0.793537
Si Si8 0.999090 0.301701 0.162330
O O1 0.255257 0.837143 0.510361
O O2 0.477281 0.748393 0.455703
O O3 0.685665 0.963462 0.754234
O O4 0.592765 0.861417 0.931472
O O5 0.500000 0.500000 0.500000
O O6 0.426857 0.572623 0.804017
O O7 0.672231 0.448808 0.851820
O O8 0.233397 0.372072 0.459311
O O9 0.186812 0.171217 0.689888
O O10 0.813332 0.007452 0.413402
O O11 0.856219 0.104221 0.204309
O O12 0.212268 0.617894 0.429993
O O13 0.191980 0.692475 0.806175
O O14 0.000000 0.500000 0.500000
O O15 0.949174 0.354032 0.986559
O O16 0.441994 0.886303 0.195487
O O17 0.031720 0.815049 0.984166
#
# Coordination Sequence:
#
# PCOD9059027 Si02
#       8
#     2   2   2   2   2   2   2   2
#     4   9  18  32  51  82 127 168 202 245 291 350
#     4   9  22  43  64  90 121 149 197 261 313 371
#     4   8  14  27  50  77 111 160 208 249 293 338
#     4   9  20  41  66  90 117 149 197 258 313 366
#     4  11  23  40  62  91 126 164 202 245 304 369
#     4   9  18  32  51  84 126 162 205 250 286 351
#     4   8  14  27  50  78 111 159 210 249 291 339
#     4  11  23  40  64  92 123 162 204 249 306 367
#
# _framework density 26.738382000000001
#
# number of rings (size 3 to 8) (size 9 to 14) (size 15 to 20)
#    0.000    2.750    0.000    3.000    0.000    7.500 
#    0.000    4.375    0.000    0.000    0.000    0.000 
#    0.000    0.000    0.000    0.000    0.000    0.000 
#
# Total GULP energy -89334.318033 kJ/mol
# GULP energy per Si atom -5583.394877 kJ/mol
# Density = 2.667752 g / cm^3
# Si number density = 26.738382 Si / 1000 Ang^3
#
#
#
# Elastic Constant Matrix: (Units=GPa)
#
#
# Indices 1 2 3 4 5 6 
#
# 1 47.3315 19.6412 0.2850 -8.3421 -5.5985 -9.0995
# 2 19.6412 107.3050 13.3997 13.6541 1.8166 11.5622
# 3 0.2850 13.3997 62.1716 0.7644 -5.3598 1.0832
# 4 -8.3421 13.6541 0.7644 36.1758 5.6555 -0.3680
# 5 -5.5985 1.8166 -5.3598 5.6555 33.0271 -11.5795
# 6 -9.0995 11.5622 1.0832 -0.3680 -11.5795 32.1368
#
#
#
# Elastic Compliance Matrix: (Units=1/GPa)
#
#
# Indices 1 2 3 4 5 6 
#
# 1 0.030472 -0.008817 0.002235 0.008919 0.009880 0.015387
# 2 -0.008817 0.013143 -0.002969 -0.006280 -0.004747 -0.008907
# 3 0.002235 -0.002969 0.017015 0.000661 0.004107 0.002615
# 4 0.008919 -0.006280 0.000661 0.032420 -0.002045 0.004397
# 5 0.009880 -0.004747 0.004107 -0.002045 0.039779 0.018677
# 6 0.015387 -0.008907 0.002615 0.004397 0.018677 0.045370
#
#
# Mechanical properties :
#
#
# Convention : Reuss Voigt Hill
#
# Bulk Modulus (GPa) = 24.08089 31.49555 27.78822
# Shear Modulus (GPa) = 23.68057 32.50011 28.09034
#
# Velocity S-wave (km/s) = 2.97920 3.49016 3.24475
# Velocity P-wave (km/s) = 4.56726 5.29588 4.94501
#
# Compressibility (1/GPa) = 0.04152670
#
# Stress axis : x y z
#
# Youngs Moduli (GPa) = 32.81735 76.08603 58.77323
#
# Poissons Ratio (x) = 0.67083 -0.13133
# Poissons Ratio (y) = 0.28934 0.17450
# Poissons Ratio (z) = -0.07333 0.22591
#
# Static dielectric constant tensor:
#      x y z
#    x 2.392080 -0.017090 0.266130 
#    y -0.017090 2.160570 0.043140 
#    z 0.266130 0.043140 2.327150 
# 
# From -- ./inp_files/202724.got.cif
#   From: 2010.05.17/outbox.cif.g08.bks.cpg/sg2_102_cif.got.tgz:202724.got - 2010.06.03 11:33:40.
