data_PCOD9059533
_publ_section_title
;
Structure prediction by ZEFSAII (Michael W. Deem and Ramdas Pophale) SiO2 
 PCOD9059533
Probable space group: P -1
;
_chemical_formula_sum "Si O2"
_cell_formula_units_Z 16
_cell_length_a 14.452882
_cell_length_b 14.835948
_cell_length_c 9.030275
_cell_angle_alpha 86.405861
_cell_angle_beta 115.309652
_cell_angle_gamma 148.787613
_cell_volume 691.909963
_symmetry_space_group_name_H-M "P -1"
_symmetry_group_IT_number 2
_symmetry_cell_setting 'triclinic'
loop_
_space_group_symop_operation_xyz
x,y,z
-x,-y,-z
loop_
_atom_site_type_symbol
_atom_site_label
_atom_site_fract_x
_atom_site_fract_y
_atom_site_fract_z
Si Si1 0.977673 0.567370 0.084063
Si Si2 0.753660 0.887054 0.465237
Si Si3 0.184429 0.905778 0.009865
Si Si4 0.650846 0.528915 0.579085
Si Si5 0.295067 0.256664 0.855084
Si Si6 0.587279 0.367435 0.262945
Si Si7 0.910982 0.333186 0.524105
Si Si8 0.385458 0.050385 0.800520
O O1 0.072162 0.730968 0.041831
O O2 0.678905 0.321957 0.958114
O O3 0.136293 0.691903 0.332343
O O4 0.000000 0.500000 0.000000
O O5 0.508235 0.677328 0.423091
O O6 0.711045 0.781462 0.313930
O O7 0.771944 0.999221 0.390157
O O8 0.010266 0.064941 0.709506
O O9 0.299046 0.972521 0.919979
O O10 0.934784 0.764888 0.816956
O O11 0.411085 0.142367 0.225794
O O12 0.500000 0.500000 0.500000
O O13 0.656692 0.498675 0.418244
O O14 0.500000 0.500000 0.000000
O O15 0.399195 0.259062 0.023975
O O16 0.846346 0.537033 0.353120
O O17 0.000000 0.500000 0.500000
O O18 0.672673 0.092035 0.303439
#
# Coordination Sequence:
#
# PCOD9059533 Si02
#       8
#     2   2   2   2   2   2   2   2
#     4  12  29  49  80 116 143 199 252 308 381 446
#     4  11  24  42  69 105 145 195 247 304 369 436
#     4  12  26  48  76 106 156 195 248 310 374 449
#     4  12  27  45  70 112 151 196 257 310 365 443
#     4  11  23  41  71 102 143 201 249 300 379 441
#     4  12  26  47  73 108 152 201 248 308 379 439
#     4  12  28  49  80 112 148 198 246 307 382 445
#     4  12  25  51  76 106 159 195 242 313 373 450
#
# _framework density 23.124396000000001
#
# number of rings (size 3 to 8) (size 9 to 14) (size 15 to 20)
#    0.000    0.250    5.000    3.000    5.250    4.500 
#    0.000    0.000    0.000    0.000    0.000    0.000 
#    0.000    0.000    0.000    0.000    0.000    0.000 
#
# Total GULP energy -89618.005264 kJ/mol
# GULP energy per Si atom -5601.125329 kJ/mol
# Density = 2.307176 g / cm^3
# Si number density = 23.124396 Si / 1000 Ang^3
#
#
#
# Elastic Constant Matrix: (Units=GPa)
#
#
# Indices 1 2 3 4 5 6 
#
# 1 77.9652 19.7476 15.0267 -9.2779 -21.0902 -6.3378
# 2 19.7476 138.1746 26.2445 2.5588 -4.5761 -9.2583
# 3 15.0267 26.2445 50.9851 5.8229 -9.3024 -7.1791
# 4 -9.2779 2.5588 5.8229 45.1980 -2.7913 -3.8491
# 5 -21.0902 -4.5761 -9.3024 -2.7913 36.6859 8.5023
# 6 -6.3378 -9.2583 -7.1791 -3.8491 8.5023 41.6576
#
#
#
# Elastic Compliance Matrix: (Units=1/GPa)
#
#
# Indices 1 2 3 4 5 6 
#
# 1 0.016790 -0.001605 -0.002959 0.004496 0.008981 0.000270
# 2 -0.001605 0.008228 -0.003777 -0.000282 -0.001140 0.001140
# 3 -0.002959 -0.003777 0.023618 -0.003084 0.003153 0.001852
# 4 0.004496 -0.000282 -0.003084 0.023798 0.003199 0.001636
# 5 0.008981 -0.001140 0.003153 0.003199 0.034502 -0.005090
# 6 0.000270 0.001140 0.001852 0.001636 -0.005090 0.025809
#
#
# Mechanical properties :
#
#
# Convention : Reuss Voigt Hill
#
# Bulk Modulus (GPa) = 31.29632 43.24025 37.26829
# Shear Modulus (GPa) = 31.23466 38.44871 34.84169
#
# Velocity S-wave (km/s) = 3.67921 4.08203 3.88584
# Velocity P-wave (km/s) = 5.62246 6.39976 6.02366
#
# Compressibility (1/GPa) = 0.03195264
#
# Stress axis : x y z
#
# Youngs Moduli (GPa) = 59.56084 121.53649 42.34001
#
# Poissons Ratio (x) = 0.19510 0.12528
# Poissons Ratio (y) = 0.09561 0.15994
# Poissons Ratio (z) = 0.17623 0.45910
#
# Static dielectric constant tensor:
#      x y z
#    x 1.892930 -0.023300 0.036520 
#    y -0.023300 1.885700 -0.004650 
#    z 0.036520 -0.004650 1.860760 
# 
# From -- ./inp_files/315338.got.cif
#   From: 2010.05.17/outbox.cif.g08.bks.cpg/sg2_158_cif.got.tgz:315338.got - 2010.06.03 11:33:40.
