data_PCOD9059468
_publ_section_title
;
Structure prediction by ZEFSAII (Michael W. Deem and Ramdas Pophale) SiO2 
 PCOD9059468
Probable space group: P -1
;
_chemical_formula_sum "Si O2"
_cell_formula_units_Z 16
_cell_length_a 14.646634
_cell_length_b 11.612916
_cell_length_c 11.678021
_cell_angle_alpha 85.280231
_cell_angle_beta 67.308327
_cell_angle_gamma 29.342087
_cell_volume 742.871785
_symmetry_space_group_name_H-M "P -1"
_symmetry_group_IT_number 2
_symmetry_cell_setting 'triclinic'
loop_
_space_group_symop_operation_xyz
x,y,z
-x,-y,-z
loop_
_atom_site_type_symbol
_atom_site_label
_atom_site_fract_x
_atom_site_fract_y
_atom_site_fract_z
Si Si1 0.222224 0.774725 0.722401
Si Si2 0.786229 0.087163 0.867250
Si Si3 0.264493 0.254369 0.175013
Si Si4 0.131522 0.169958 0.348067
Si Si5 0.335003 0.351001 0.327734
Si Si6 0.695814 0.882030 0.362232
Si Si7 0.671075 0.144191 0.495637
Si Si8 0.522175 0.560253 0.803954
O O1 0.409914 0.484838 0.597008
O O2 0.168504 0.935069 0.646125
O O3 0.346027 0.697702 0.780321
O O4 0.985498 0.952818 0.844663
O O5 0.657328 0.310500 0.820664
O O6 0.884715 0.877761 0.760924
O O7 0.611019 0.235206 0.041666
O O8 0.283751 0.124040 0.261393
O O9 0.276664 0.358683 0.233305
O O10 0.983296 0.543059 0.242720
O O11 0.500000 0.000000 0.000000
O O12 0.869027 0.478044 0.500901
O O13 0.249457 0.962886 0.404452
O O14 0.324116 0.501407 0.322692
O O15 0.591743 0.032574 0.277204
O O16 0.500000 0.000000 0.500000
O O17 0.676556 0.016487 0.440019
#
# Coordination Sequence:
#
# PCOD9059468 Si02
#       8
#     2   2   2   2   2   2   2   2
#     4  11  23  42  66  99 142 172 233 279 341 409
#     4  11  25  41  66  97 140 182 218 282 350 416
#     4  12  28  48  68 103 144 181 229 293 352 412
#     4  12  23  45  70 101 135 180 235 285 344 409
#     4  12  24  44  75  97 133 181 234 288 342 413
#     4  12  24  45  73 101 135 181 237 287 343 406
#     4  11  23  41  69 105 131 178 231 290 334 406
#     4  11  24  44  64 100 138 179 226 277 352 412
#
# _framework density 21.538036000000002
#
# number of rings (size 3 to 8) (size 9 to 14) (size 15 to 20)
#    0.000    0.500    5.000    3.750    1.750    1.500 
#    2.250    0.000    0.000    0.000    0.000    0.000 
#    0.000    0.000    0.000    0.000    0.000    0.000 
#
# Total GULP energy -89378.931632 kJ/mol
# GULP energy per Si atom -5586.183227 kJ/mol
# Density = 2.148901 g / cm^3
# Si number density = 21.538036 Si / 1000 Ang^3
#
#
#
# Elastic Constant Matrix: (Units=GPa)
#
#
# Indices 1 2 3 4 5 6 
#
# 1 98.8549 10.4951 25.1762 5.1665 0.0179 0.4962
# 2 10.4951 79.8005 14.9876 6.0953 -6.0863 -3.7833
# 3 25.1762 14.9876 90.5800 15.9783 -5.7435 7.8576
# 4 5.1665 6.0953 15.9783 18.7632 6.6524 -5.0054
# 5 0.0179 -6.0863 -5.7435 6.6524 32.5769 2.1252
# 6 0.4962 -3.7833 7.8576 -5.0054 2.1252 27.4828
#
#
#
# Elastic Compliance Matrix: (Units=1/GPa)
#
#
# Indices 1 2 3 4 5 6 
#
# 1 0.010975 -0.000926 -0.003078 0.000384 -0.000845 0.000690
# 2 -0.000926 0.013462 -0.001225 -0.003788 0.002988 0.001299
# 3 -0.003078 -0.001225 0.016304 -0.017275 0.006726 -0.008441
# 4 0.000384 -0.003788 -0.017275 0.082572 -0.021995 0.021150
# 5 -0.000845 0.002988 0.006726 -0.021995 0.037481 -0.008401
# 6 0.000690 0.001299 -0.008441 0.021150 -0.008401 0.043468
#
#
# Mechanical properties :
#
#
# Convention : Reuss Voigt Hill
#
# Bulk Modulus (GPa) = 33.02320 41.17256 37.09788
# Shear Modulus (GPa) = 22.24058 30.33636 26.28847
#
# Velocity S-wave (km/s) = 3.21692 3.75707 3.49744
# Velocity P-wave (km/s) = 5.40036 6.16267 5.79407
#
# Compressibility (1/GPa) = 0.03028174
#
# Stress axis : x y z
#
# Youngs Moduli (GPa) = 91.11806 74.28331 61.33381
#
# Poissons Ratio (x) = 0.06881 0.18880
# Poissons Ratio (y) = 0.08440 0.07514
# Poissons Ratio (z) = 0.28049 0.09100
#
# Static dielectric constant tensor:
#      x y z
#    x 1.755720 -0.008280 -0.002210 
#    y -0.008280 1.831160 0.020580 
#    z -0.002210 0.020580 1.790450 
# 
# From -- ./inp_files/398705.got.cif
#   From: 2010.05.17/outbox.cif.g08.bks.cpg/sg2_200_cif.got.tgz:398705.got - 2010.06.03 11:33:40.
