data_PCOD9059941
_publ_section_title
;
Structure prediction by ZEFSAII (Michael W. Deem and Ramdas Pophale) SiO2 
 PCOD9059941
Probable space group: P -1
;
_chemical_formula_sum "Si O2"
_cell_formula_units_Z 14
_cell_length_a 17.810944
_cell_length_b 23.570312
_cell_length_c 8.771089
_cell_angle_alpha 149.920316
_cell_angle_beta 31.707038
_cell_angle_gamma 158.497955
_cell_volume 655.240606
_symmetry_space_group_name_H-M "P -1"
_symmetry_group_IT_number 2
_symmetry_cell_setting 'triclinic'
loop_
_space_group_symop_operation_xyz
x,y,z
-x,-y,-z
loop_
_atom_site_type_symbol
_atom_site_label
_atom_site_fract_x
_atom_site_fract_y
_atom_site_fract_z
Si Si1 0.619572 0.027999 0.711824
Si Si2 0.033689 0.128430 0.847665
Si Si3 0.245662 0.657900 0.906427
Si Si4 0.623623 0.673566 0.761046
Si Si5 0.619990 0.481921 0.859238
Si Si6 0.447966 0.136327 0.848466
Si Si7 0.086385 0.984312 0.673263
O O1 0.744767 0.997875 0.501347
O O2 0.499654 0.919759 0.511469
O O3 0.749728 0.214594 0.876661
O O4 0.500000 0.000000 0.000000
O O5 0.141439 0.117099 0.770744
O O6 0.171163 0.317216 0.998219
O O7 0.000000 0.000000 0.500000
O O8 0.796536 0.032113 0.074332
O O9 0.322134 0.599557 0.525724
O O10 0.398413 0.758314 0.026331
O O11 0.000000 0.500000 0.000000
O O12 0.500000 0.500000 0.500000
O O13 0.869060 0.791630 0.564433
O O14 0.526686 0.626535 0.990883
O O15 0.565906 0.752659 0.954535
O O16 0.500000 0.500000 0.000000
O O17 0.000000 0.000000 0.000000
#
# Coordination Sequence:
#
# PCOD9059941 Si02
#       7
#     2   2   2   2   2   2   2
#     4  12  27  48  72 105 145 190 236 289 358 435
#     4  11  23  42  75 109 137 182 242 291 343 418
#     4  12  29  49  70 105 146 189 233 300 364 416
#     4  11  23  42  71 107 139 178 240 297 348 408
#     4  12  25  42  75 106 146 181 238 293 353 416
#     4  11  25  48  70  99 143 194 237 288 352 433
#     4  11  23  44  74  97 140 187 237 284 349 416
#
# _framework density 21.366197
#
# number of rings (size 3 to 8) (size 9 to 14) (size 15 to 20)
#    0.000    0.571    2.857    6.429    8.000    0.000 
#    2.571    1.429    0.000    0.000    0.000    0.000 
#    0.000    0.000    0.000    0.000    0.000    0.000 
#
# Total GULP energy -77940.122713 kJ/mol
# GULP energy per Si atom -5567.151622 kJ/mol
# Density = 2.131757 g / cm^3
# Si number density = 21.366197 Si / 1000 Ang^3
#
#
#
# Elastic Constant Matrix: (Units=GPa)
#
#
# Indices 1 2 3 4 5 6 
#
# 1 94.9357 32.7103 21.2825 -9.6787 -1.6661 -0.3088
# 2 32.7103 112.6819 7.0679 14.9054 6.2214 0.8269
# 3 21.2825 7.0679 124.3395 -2.3432 15.4126 14.9402
# 4 -9.6787 14.9054 -2.3432 41.6370 1.1523 1.3541
# 5 -1.6661 6.2214 15.4126 1.1523 40.1561 4.7584
# 6 -0.3088 0.8269 14.9402 1.3541 4.7584 33.2540
#
#
#
# Elastic Compliance Matrix: (Units=1/GPa)
#
#
# Indices 1 2 3 4 5 6 
#
# 1 0.012999 -0.004319 -0.002220 0.004367 0.001842 0.000784
# 2 -0.004319 0.010851 0.000254 -0.004825 -0.001823 0.000034
# 3 -0.002220 0.000254 0.009261 0.000126 -0.003248 -0.003728
# 4 0.004367 -0.004825 0.000126 0.026793 0.000233 -0.001020
# 5 0.001842 -0.001823 -0.003248 0.000233 0.026776 -0.002319
# 6 0.000784 0.000034 -0.003728 -0.001020 -0.002319 0.032126
#
#
# Mechanical properties :
#
#
# Convention : Reuss Voigt Hill
#
# Bulk Modulus (GPa) = 48.68505 50.45316 49.56911
# Shear Modulus (GPa) = 36.17277 41.06919 38.62098
#
# Velocity S-wave (km/s) = 4.11906 4.38900 4.25617
# Velocity P-wave (km/s) = 6.74223 7.02490 6.88502
#
# Compressibility (1/GPa) = 0.02054018
#
# Stress axis : x y z
#
# Youngs Moduli (GPa) = 76.92657 92.15592 107.98065
#
# Poissons Ratio (x) = 0.39806 0.23969
# Poissons Ratio (y) = 0.33228 -0.02738
# Poissons Ratio (z) = 0.17076 -0.02337
#
# Static dielectric constant tensor:
#      x y z
#    x 1.812600 0.101900 0.119460 
#    y 0.101900 1.876990 0.095570 
#    z 0.119460 0.095570 1.860320 
# 
# From -- ./inp_files/158008.got.cif
#   From: 2010.05.17/outbox.cif.g08.bks.cpg/sg2_80_cif.got.tgz:158008.got - 2010.06.03 11:33:40.
