data_PCOD9059816
_publ_section_title
;
Structure prediction by ZEFSAII (Michael W. Deem and Ramdas Pophale) SiO2 
 PCOD9059816
Probable space group: P -1
;
_chemical_formula_sum "Si O2"
_cell_formula_units_Z 16
_cell_length_a 19.730584
_cell_length_b 18.109090
_cell_length_c 10.234369
_cell_angle_alpha 34.100435
_cell_angle_beta 152.153144
_cell_angle_gamma 150.698561
_cell_volume 809.570858
_symmetry_space_group_name_H-M "P -1"
_symmetry_group_IT_number 2
_symmetry_cell_setting 'triclinic'
loop_
_space_group_symop_operation_xyz
x,y,z
-x,-y,-z
loop_
_atom_site_type_symbol
_atom_site_label
_atom_site_fract_x
_atom_site_fract_y
_atom_site_fract_z
Si Si1 0.967772 0.633428 0.080884
Si Si2 0.575352 0.903821 0.698749
Si Si3 0.413144 0.517872 0.453990
Si Si4 0.158662 0.978302 0.800070
Si Si5 0.395325 0.118093 0.744790
Si Si6 0.938205 0.625339 0.350820
Si Si7 0.711466 0.076171 0.406051
Si Si8 0.556890 0.446565 0.047238
O O1 0.945113 0.659248 0.157620
O O2 0.040841 0.521279 0.375736
O O3 0.783609 0.547019 0.822174
O O4 0.090565 0.797853 0.978283
O O5 0.456983 0.720317 0.731190
O O6 0.500000 0.000000 0.500000
O O7 0.662990 0.988605 0.589447
O O8 0.715030 0.923456 0.011414
O O9 0.500000 0.500000 0.500000
O O10 0.523477 0.700624 0.402574
O O11 0.438730 0.436708 0.740093
O O12 0.264376 0.043079 0.751779
O O13 0.000000 0.000000 0.500000
O O14 0.302024 0.027584 0.586873
O O15 0.560617 0.108301 0.074283
O O16 0.753985 0.577302 0.160821
O O17 0.101150 0.770623 0.484479
O O18 0.500000 0.500000 0.000000
#
# Coordination Sequence:
#
# PCOD9059816 Si02
#       8
#     2   2   2   2   2   2   2   2
#     4  11  23  42  69 105 133 173 243 288 328 401
#     4  12  24  45  73 100 136 186 239 278 334 420
#     4  12  23  44  71  99 139 183 225 276 349 411
#     4  12  25  41  67 104 136 177 229 286 337 402
#     4  11  25  44  67 103 140 178 222 282 355 409
#     4  11  24  43  71 101 133 180 233 286 337 406
#     4  11  24  45  71  99 137 179 227 287 344 405
#     4  12  28  46  68 105 145 182 223 287 359 411
#
# _framework density 19.763556000000001
#
# number of rings (size 3 to 8) (size 9 to 14) (size 15 to 20)
#    0.000    0.500    5.000    3.750    1.750    2.000 
#    0.000    3.125    0.000    0.000    0.000    0.000 
#    0.000    0.000    0.000    0.000    0.000    0.000 
#
# Total GULP energy -89446.076296 kJ/mol
# GULP energy per Si atom -5590.379768 kJ/mol
# Density = 1.971857 g / cm^3
# Si number density = 19.763556 Si / 1000 Ang^3
#
#
#
# Elastic Constant Matrix: (Units=GPa)
#
#
# Indices 1 2 3 4 5 6 
#
# 1 85.1256 51.5939 52.6044 13.5560 -19.5845 -13.6221
# 2 51.5939 155.3072 29.7499 7.1883 -3.3011 -7.8251
# 3 52.6044 29.7499 82.9975 21.3947 -3.4852 -5.8936
# 4 13.5560 7.1883 21.3947 39.1627 4.7421 -0.1395
# 5 -19.5845 -3.3011 -3.4852 4.7421 23.8808 3.5018
# 6 -13.6221 -7.8251 -5.8936 -0.1395 3.5018 28.1364
#
#
#
# Elastic Compliance Matrix: (Units=1/GPa)
#
#
# Indices 1 2 3 4 5 6 
#
# 1 0.033040 -0.006849 -0.015816 -0.004364 0.023560 0.007824
# 2 -0.006849 0.008394 0.000902 0.000877 -0.004465 -0.000233
# 3 -0.015816 0.000902 0.022904 -0.006238 -0.008024 -0.001641
# 4 -0.004364 0.000877 -0.006238 0.031542 -0.010378 -0.001728
# 5 0.023560 -0.004465 -0.008024 -0.010378 0.061352 0.000797
# 6 0.007824 -0.000233 -0.001641 -0.001728 0.000797 0.038813
#
#
# Mechanical properties :
#
#
# Convention : Reuss Voigt Hill
#
# Bulk Modulus (GPa) = 48.04963 65.70297 56.87630
# Shear Modulus (GPa) = 20.28334 30.86813 25.57573
#
# Velocity S-wave (km/s) = 3.20707 3.95634 3.60124
# Velocity P-wave (km/s) = 6.17080 7.36117 6.79211
#
# Compressibility (1/GPa) = 0.02081182
#
# Stress axis : x y z
#
# Youngs Moduli (GPa) = 30.26669 119.12978 43.66102
#
# Poissons Ratio (x) = 0.81596 0.69053
# Poissons Ratio (y) = 0.20731 -0.03939
# Poissons Ratio (z) = 0.47869 -0.10748
#
# Static dielectric constant tensor:
#      x y z
#    x 1.661690 -0.013390 0.024580 
#    y -0.013390 1.693160 -0.014910 
#    z 0.024580 -0.014910 1.696880 
# 
# From -- ./inp_files/263334.got.cif
#   From: 2010.05.17/outbox.cif.g08.bks.cpg/sg2_132_cif.got.tgz:263334.got - 2010.06.03 11:33:40.
