data_PCOD9059196
_publ_section_title
;
Structure prediction by ZEFSAII (Michael W. Deem and Ramdas Pophale) SiO2 
 PCOD9059196
Probable space group: P -1
;
_chemical_formula_sum "Si O2"
_cell_formula_units_Z 14
_cell_length_a 8.328551
_cell_length_b 12.898356
_cell_length_c 9.246871
_cell_angle_alpha 123.915588
_cell_angle_beta 128.312836
_cell_angle_gamma 59.687479
_cell_volume 627.274229
_symmetry_space_group_name_H-M "P -1"
_symmetry_group_IT_number 2
_symmetry_cell_setting 'triclinic'
loop_
_space_group_symop_operation_xyz
x,y,z
-x,-y,-z
loop_
_atom_site_type_symbol
_atom_site_label
_atom_site_fract_x
_atom_site_fract_y
_atom_site_fract_z
Si Si1 0.103268 0.605324 0.712557
Si Si2 0.928871 0.626094 0.960182
Si Si3 0.419037 0.682003 0.749581
Si Si4 0.576425 0.045867 0.933081
Si Si5 0.874911 0.896475 0.794638
Si Si6 0.755740 0.974527 0.481514
Si Si7 0.151609 0.789184 0.418609
O O1 0.051132 0.603923 0.855248
O O2 0.981919 0.749876 0.712860
O O3 0.000000 0.500000 0.500000
O O4 0.333423 0.595479 0.755717
O O5 0.671102 0.654519 0.837561
O O6 0.000000 0.500000 0.000000
O O7 0.017069 0.731539 0.182061
O O8 0.295556 0.688276 0.531607
O O9 0.347853 0.827300 0.888149
O O10 0.399027 0.087106 0.745443
O O11 0.722034 0.911187 0.855433
O O12 0.500000 0.000000 0.000000
O O13 0.743560 0.958299 0.631282
O O14 0.000000 0.000000 0.000000
O O15 0.989691 0.892947 0.507316
O O16 0.723538 0.122001 0.529334
#
# Coordination Sequence:
#
# PCOD9059196 Si02
#       7
#     2   2   2   2   2   2   2
#     4  12  28  49  78 111 154 201 256 320 379 454
#     4  12  29  51  77 106 147 204 264 309 382 467
#     4  12  25  51  78 108 157 199 250 322 388 441
#     4  12  23  42  71 111 150 200 246 314 387 445
#     4  12  24  44  72 108 149 193 256 312 374 457
#     4  11  23  40  70 107 152 187 247 309 380 453
#     4  11  23  43  71 109 146 193 246 310 378 454
#
# _framework density 22.318787
#
# number of rings (size 3 to 8) (size 9 to 14) (size 15 to 20)
#    0.000    0.286    5.714    3.000    2.000    2.857 
#    0.000    1.429    0.000    0.000    0.000    0.000 
#    0.000    0.000    0.000    0.000    0.000    0.000 
#
# Total GULP energy -78078.619771 kJ/mol
# GULP energy per Si atom -5577.044269 kJ/mol
# Density = 2.226799 g / cm^3
# Si number density = 22.318787 Si / 1000 Ang^3
#
#
#
# Elastic Constant Matrix: (Units=GPa)
#
#
# Indices 1 2 3 4 5 6 
#
# 1 125.5293 35.1076 61.4021 -8.9758 -15.5672 28.0985
# 2 35.1076 72.1886 37.8954 1.4978 -3.9023 17.5875
# 3 61.4021 37.8954 160.0138 -5.9271 -1.9495 15.6509
# 4 -8.9758 1.4978 -5.9271 42.1968 6.6671 1.9857
# 5 -15.5672 -3.9023 -1.9495 6.6671 33.2747 -5.9642
# 6 28.0985 17.5875 15.6509 1.9857 -5.9642 40.9875
#
#
#
# Elastic Compliance Matrix: (Units=1/GPa)
#
#
# Indices 1 2 3 4 5 6 
#
# 1 0.012206 -0.002648 -0.003407 0.001861 0.003849 -0.005461
# 2 -0.002648 0.017775 -0.002787 -0.001386 0.000124 -0.004662
# 3 -0.003407 -0.002787 0.008214 0.000770 -0.001571 0.000129
# 4 0.001861 -0.001386 0.000770 0.025147 -0.004804 -0.002892
# 5 0.003849 0.000124 -0.001571 -0.004804 0.033273 0.002982
# 6 -0.005461 -0.004662 0.000129 -0.002892 0.002982 0.030666
#
#
# Mechanical properties :
#
#
# Convention : Reuss Voigt Hill
#
# Bulk Modulus (GPa) = 48.75551 69.61574 59.18562
# Shear Modulus (GPa) = 32.93783 38.18026 35.55905
#
# Velocity S-wave (km/s) = 3.84577 4.14052 3.99586
# Velocity P-wave (km/s) = 6.45077 7.35648 6.91846
#
# Compressibility (1/GPa) = 0.02051050
#
# Stress axis : x y z
#
# Youngs Moduli (GPa) = 81.92797 56.25906 121.74968
#
# Poissons Ratio (x) = 0.14897 0.41477
# Poissons Ratio (y) = 0.21694 0.33935
# Poissons Ratio (z) = 0.27911 0.15681
#
# Static dielectric constant tensor:
#      x y z
#    x 2.206640 -0.007590 0.096820 
#    y -0.007590 1.828540 -0.016040 
#    z 0.096820 -0.016040 1.845990 
# 
# From -- ./inp_files/190485.got.cif
#   From: 2010.05.17/outbox.cif.g08.bks.cpg/sg2_96_cif.got.tgz:190485.got - 2010.06.03 11:33:40.
