data_PCOD9059161
_publ_section_title
;
Structure prediction by ZEFSAII (Michael W. Deem and Ramdas Pophale) SiO2 
 PCOD9059161
Probable space group: P -1
;
_chemical_formula_sum "Si O2"
_cell_formula_units_Z 16
_cell_length_a 22.295170
_cell_length_b 18.386516
_cell_length_c 11.867666
_cell_angle_alpha 24.348939
_cell_angle_beta 147.953377
_cell_angle_gamma 160.248422
_cell_volume 676.144596
_symmetry_space_group_name_H-M "P -1"
_symmetry_group_IT_number 2
_symmetry_cell_setting 'triclinic'
loop_
_space_group_symop_operation_xyz
x,y,z
-x,-y,-z
loop_
_atom_site_type_symbol
_atom_site_label
_atom_site_fract_x
_atom_site_fract_y
_atom_site_fract_z
Si Si1 0.387993 0.149539 0.935576
Si Si2 0.030048 0.250109 0.463893
Si Si3 0.477739 0.852392 0.493789
Si Si4 0.850731 0.670890 0.217702
Si Si5 0.154117 0.553800 0.700167
Si Si6 0.959381 0.069587 0.225174
Si Si7 0.619056 0.739074 0.492855
Si Si8 0.387944 0.721421 0.278303
O O1 0.569970 0.473232 0.798276
O O2 0.375311 0.180995 0.738270
O O3 0.215679 0.026347 0.893665
O O4 0.399574 0.955425 0.248221
O O5 0.098759 0.372870 0.525412
O O6 0.178921 0.520867 0.238267
O O7 0.818625 0.020905 0.453296
O O8 0.058356 0.086078 0.689463
O O9 0.360200 0.554891 0.780315
O O10 0.465345 0.804068 0.410004
O O11 0.674541 0.117248 0.476600
O O12 0.849819 0.577071 0.229530
O O13 0.000000 0.000000 0.000000
O O14 0.000000 0.500000 0.500000
O O15 0.112691 0.390920 0.977079
O O16 0.000000 0.000000 0.500000
O O17 0.450318 0.623284 0.449828
O O18 0.500000 0.000000 0.000000
#
# Coordination Sequence:
#
# PCOD9059161 Si02
#       8
#     2   2   2   2   2   2   2   2
#     4  11  23  41  70 109 149 195 248 302 381 452
#     4  11  24  44  69 105 145 191 249 312 364 448
#     4  11  26  47  73 105 148 200 252 319 370 456
#     4  11  25  50  73  99 142 197 256 307 377 449
#     4  12  28  50  75 109 150 202 253 310 383 455
#     4  12  24  43  75 112 148 189 251 315 372 448
#     4  11  23  40  69 103 149 201 238 301 384 445
#     4  11  24  42  66 104 153 194 245 305 388 454
#
# _framework density 23.663578000000001
#
# number of rings (size 3 to 8) (size 9 to 14) (size 15 to 20)
#    0.000    0.750    5.000    1.875    5.250    0.500 
#    0.000    0.625    0.000    0.000    0.000    0.000 
#    0.000    0.000    0.000    0.000    0.000    0.000 
#
# Total GULP energy -89303.419945 kJ/mol
# GULP energy per Si atom -5581.463747 kJ/mol
# Density = 2.360972 g / cm^3
# Si number density = 23.663578 Si / 1000 Ang^3
#
#
#
# Elastic Constant Matrix: (Units=GPa)
#
#
# Indices 1 2 3 4 5 6 
#
# 1 57.6697 -8.9779 7.0194 -2.6670 -28.0854 1.0337
# 2 -8.9779 113.7546 25.9475 -39.0145 -19.0359 3.7368
# 3 7.0194 25.9475 66.1359 -32.9161 -23.7014 6.8850
# 4 -2.6670 -39.0145 -32.9161 52.9897 5.9725 0.3188
# 5 -28.0854 -19.0359 -23.7014 5.9725 34.4123 -3.9664
# 6 1.0337 3.7368 6.8850 0.3188 -3.9664 36.7158
#
#
#
# Elastic Compliance Matrix: (Units=1/GPa)
#
#
# Indices 1 2 3 4 5 6 
#
# 1 0.043982 0.014412 0.017450 0.017720 0.052761 -0.000431
# 2 0.014412 0.017716 0.008554 0.016333 0.024468 -0.001311
# 3 0.017450 0.008554 0.037635 0.026087 0.039867 -0.004339
# 4 0.017720 0.016333 0.026087 0.044258 0.033341 -0.003836
# 5 0.052761 0.024468 0.039867 0.033341 0.107310 -0.000149
# 6 -0.000431 -0.001311 -0.004339 -0.003836 -0.000149 0.028213
#
#
# Mechanical properties :
#
#
# Convention : Reuss Voigt Hill
#
# Bulk Modulus (GPa) = 5.55049 31.72646 18.63848
# Shear Modulus (GPa) = 19.35451 39.06163 29.20807
#
# Velocity S-wave (km/s) = 2.86300 4.06730 3.51708
# Velocity P-wave (km/s) = 3.64414 5.95765 4.93829
#
# Compressibility (1/GPa) = 0.18016417
#
# Stress axis : x y z
#
# Youngs Moduli (GPa) = 22.73657 56.44491 26.57121
#
# Poissons Ratio (x) = -0.81346 -0.46368
# Poissons Ratio (y) = -0.32767 -0.22728
# Poissons Ratio (z) = -0.39676 -0.48281
#
# Static dielectric constant tensor:
#      x y z
#    x 1.903070 0.000860 0.025080 
#    y 0.000860 1.926650 -0.052800 
#    z 0.025080 -0.052800 2.020180 
# 
# From -- ./inp_files/278799.got.cif
#   From: 2010.05.17/outbox.cif.g08.bks.cpg/sg2_140_cif.got.tgz:278799.got - 2010.06.03 11:33:40.
