data_PCOD9059001
_publ_section_title
;
Structure prediction by ZEFSAII (Michael W. Deem and Ramdas Pophale) SiO2 
 PCOD9059001
Probable space group: P -1
;
_chemical_formula_sum "Si O2"
_cell_formula_units_Z 14
_cell_length_a 12.138728
_cell_length_b 5.126487
_cell_length_c 15.130396
_cell_angle_alpha 115.253021
_cell_angle_beta 139.653981
_cell_angle_gamma 65.586011
_cell_volume 545.019373
_symmetry_space_group_name_H-M "P -1"
_symmetry_group_IT_number 2
_symmetry_cell_setting 'triclinic'
loop_
_space_group_symop_operation_xyz
x,y,z
-x,-y,-z
loop_
_atom_site_type_symbol
_atom_site_label
_atom_site_fract_x
_atom_site_fract_y
_atom_site_fract_z
Si Si1 0.073941 0.567907 0.462922
Si Si2 0.396875 0.428228 0.541577
Si Si3 0.076345 0.026212 0.843026
Si Si4 0.816747 0.986473 0.283726
Si Si5 0.860102 0.657161 0.780451
Si Si6 0.436679 0.984737 0.275620
Si Si7 0.470542 0.805660 0.078781
O O1 0.235808 0.367281 0.494674
O O2 0.000000 0.500000 0.500000
O O3 0.921146 0.665855 0.316433
O O4 0.159489 0.850498 0.586877
O O5 0.306180 0.412353 0.388527
O O6 0.454717 0.745856 0.626883
O O7 0.540955 0.193421 0.643001
O O8 0.086258 0.923209 0.730667
O O9 0.976470 0.355840 0.834472
O O10 0.976386 0.837345 0.818709
O O11 0.279932 0.982128 0.979294
O O12 0.616011 0.979202 0.153339
O O13 0.763345 0.862679 0.827037
O O14 0.491891 0.777413 0.194762
O O15 0.500000 0.500000 0.000000
#
# Coordination Sequence:
#
# PCOD9059001 Si02
#       7
#     2   2   2   2   2   2   2
#     4  11  23  39  74 108 150 186 236 309 388 448
#     4  12  24  46  76 114 150 184 248 314 397 448
#     4  12  27  47  75 107 152 206 251 306 361 450
#     4  11  24  45  68 109 146 190 244 307 378 444
#     4  12  26  50  78 111 150 193 258 307 384 451
#     4  12  28  49  77 111 148 200 248 320 377 447
#     4  12  29  50  74 108 154 205 260 304 371 444
#
# _framework density 25.687159000000001
#
# number of rings (size 3 to 8) (size 9 to 14) (size 15 to 20)
#    0.000    0.286    2.857    5.571    6.000    3.429 
#    0.000    0.000    0.000    0.000    0.000    0.000 
#    0.000    0.000    0.000    0.000    0.000    0.000 
#
# Total GULP energy -78250.095354 kJ/mol
# GULP energy per Si atom -5589.292525 kJ/mol
# Density = 2.562869 g / cm^3
# Si number density = 25.687159 Si / 1000 Ang^3
#
#
#
# Elastic Constant Matrix: (Units=GPa)
#
#
# Indices 1 2 3 4 5 6 
#
# 1 146.1502 29.3217 29.2000 13.1207 14.4895 -13.6311
# 2 29.3217 150.1853 38.2747 -16.1533 8.8433 2.9888
# 3 29.2000 38.2747 78.6258 -15.2649 9.0050 -13.1849
# 4 13.1207 -16.1533 -15.2649 28.5341 -1.7078 0.9852
# 5 14.4895 8.8433 9.0050 -1.7078 38.3491 -4.5004
# 6 -13.6311 2.9888 -13.1849 0.9852 -4.5004 48.2590
#
#
#
# Elastic Compliance Matrix: (Units=1/GPa)
#
#
# Indices 1 2 3 4 5 6 
#
# 1 0.008808 -0.001503 -0.003343 -0.006883 -0.002316 0.001592
# 2 -0.001503 0.008182 -0.002926 0.003781 -0.000683 -0.001872
# 3 -0.003343 -0.002926 0.017994 0.009289 -0.001424 0.003830
# 4 -0.006883 0.003781 0.009289 0.045427 0.001520 -0.000426
# 5 -0.002316 -0.000683 -0.001424 0.001520 0.027693 0.001551
# 6 0.001592 -0.001872 0.003830 -0.000426 0.001551 0.022487
#
#
# Mechanical properties :
#
#
# Convention : Reuss Voigt Hill
#
# Bulk Modulus (GPa) = 51.44663 63.17269 57.30966
# Shear Modulus (GPa) = 32.76227 41.57277 37.16752
#
# Velocity S-wave (km/s) = 3.57520 4.02733 3.80798
# Velocity P-wave (km/s) = 6.09215 6.80238 6.45704
#
# Compressibility (1/GPa) = 0.01943762
#
# Stress axis : x y z
#
# Youngs Moduli (GPa) = 113.53436 122.22241 55.57559
#
# Poissons Ratio (x) = 0.18373 0.18582
# Poissons Ratio (y) = 0.17067 0.16262
# Poissons Ratio (z) = 0.37960 0.35764
#
# Static dielectric constant tensor:
#      x y z
#    x 2.209740 -0.009460 -0.024970 
#    y -0.009460 2.160380 0.103860 
#    z -0.024970 0.103860 2.197600 
# 
# From -- ./inp_files/511200.got.cif
#   From: 2010.05.17/outbox.cif.g08.bks.cpg/sg2_256_cif.got.tgz:511200.got - 2010.06.03 11:33:40.
