data_PCOD9059171
_publ_section_title
;
Structure prediction by ZEFSAII (Michael W. Deem and Ramdas Pophale) SiO2 
 PCOD9059171
Probable space group: P -1
;
_chemical_formula_sum "Si O2"
_cell_formula_units_Z 12
_cell_length_a 9.712976
_cell_length_b 9.906623
_cell_length_c 9.394966
_cell_angle_alpha 58.835095
_cell_angle_beta 113.655360
_cell_angle_gamma 147.694465
_cell_volume 412.113697
_symmetry_space_group_name_H-M "P -1"
_symmetry_group_IT_number 2
_symmetry_cell_setting 'triclinic'
loop_
_space_group_symop_operation_xyz
x,y,z
-x,-y,-z
loop_
_atom_site_type_symbol
_atom_site_label
_atom_site_fract_x
_atom_site_fract_y
_atom_site_fract_z
Si Si1 0.421228 0.964822 0.653143
Si Si2 0.064500 0.364704 0.593219
Si Si3 0.427254 0.335104 0.419356
Si Si4 0.125575 0.561106 0.230572
Si Si5 0.785813 0.584221 0.907047
Si Si6 0.200214 0.027312 0.060401
O O1 0.350520 0.091283 0.564875
O O2 0.500000 0.000000 0.500000
O O3 0.639413 0.137087 0.771542
O O4 0.176184 0.649180 0.764111
O O5 0.328230 0.501983 0.671181
O O6 0.115396 0.406834 0.423896
O O7 0.000000 0.500000 0.500000
O O8 0.846495 0.092107 0.739121
O O9 0.500000 0.500000 0.500000
O O10 0.231987 0.272919 0.277715
O O11 0.193770 0.546606 0.118218
O O12 0.052170 0.812720 0.984520
O O13 0.497634 0.327787 0.996222
O O14 0.000000 0.000000 0.000000
#
# Coordination Sequence:
#
# PCOD9059171 Si02
#       6
#     2   2   2   2   2   2
#     4  11  23  40  69 117 156 198 264 334 392 460
#     4  11  25  48  79 115 156 212 271 329 399 487
#     4  11  23  45  80 119 155 209 281 332 394 491
#     4  11  24  45  77 109 152 203 271 319 390 483
#     4  12  26  48  77 117 157 206 270 339 402 470
#     4  12  28  48  75 115 167 207 263 337 417 476
#
# _framework density 29.118176999999999
#
# number of rings (size 3 to 8) (size 9 to 14) (size 15 to 20)
#    0.000    0.667    5.000    4.000    2.333    2.000 
#    0.000    5.833    0.000    0.000    0.000    0.000 
#    0.000    0.000    0.000    0.000    0.000    0.000 
#
# Total GULP energy -67006.062195 kJ/mol
# GULP energy per Si atom -5583.838516 kJ/mol
# Density = 2.905190 g / cm^3
# Si number density = 29.118177 Si / 1000 Ang^3
#
#
#
# Elastic Constant Matrix: (Units=GPa)
#
#
# Indices 1 2 3 4 5 6 
#
# 1 171.0749 51.0114 17.5800 13.1769 2.1604 -1.3208
# 2 51.0114 201.5136 31.7026 48.9285 7.2289 6.7207
# 3 17.5800 31.7026 153.1262 32.5405 7.3300 8.3507
# 4 13.1769 48.9285 32.5405 49.0740 2.4252 11.3130
# 5 2.1604 7.2289 7.3300 2.4252 48.4075 6.7150
# 6 -1.3208 6.7207 8.3507 11.3130 6.7150 57.8616
#
#
#
# Elastic Compliance Matrix: (Units=1/GPa)
#
#
# Indices 1 2 3 4 5 6 
#
# 1 0.006356 -0.001566 -0.000437 0.000058 -0.000040 0.000383
# 2 -0.001566 0.006976 0.000173 -0.006735 -0.000734 0.000531
# 3 -0.000437 0.000173 0.007672 -0.005089 -0.000908 -0.000037
# 4 0.000058 -0.006735 -0.005089 0.031502 0.000853 -0.004740
# 5 -0.000040 -0.000734 -0.000908 0.000853 0.021199 -0.002412
# 6 0.000383 0.000531 -0.000037 -0.004740 -0.002412 0.018442
#
#
# Mechanical properties :
#
#
# Convention : Reuss Voigt Hill
#
# Bulk Modulus (GPa) = 57.65425 80.70029 69.17727
# Shear Modulus (GPa) = 49.21913 59.43001 54.32457
#
# Velocity S-wave (km/s) = 4.11581 4.52264 4.32401
# Velocity P-wave (km/s) = 6.51380 7.41938 6.98129
#
# Compressibility (1/GPa) = 0.01734478
#
# Stress axis : x y z
#
# Youngs Moduli (GPa) = 157.32804 143.35784 130.34749
#
# Poissons Ratio (x) = 0.22444 0.05694
# Poissons Ratio (y) = 0.24631 -0.02256
# Poissons Ratio (z) = 0.06872 -0.02481
#
# Static dielectric constant tensor:
#      x y z
#    x 2.405370 0.090850 0.182200 
#    y 0.090850 2.813210 0.162560 
#    z 0.182200 0.162560 2.407030 
# 
# From -- ./inp_files/383956.got.cif
#   From: 2010.05.17/outbox.cif.g08.bks.cpg/sg2_192_cif.got.tgz:383956.got - 2010.06.03 11:33:40.
