data_PCOD9059792
_publ_section_title
;
Structure prediction by ZEFSAII (Michael W. Deem and Ramdas Pophale) SiO2 
 PCOD9059792
Probable space group: P -1
;
_chemical_formula_sum "Si O2"
_cell_formula_units_Z 16
_cell_length_a 25.505416
_cell_length_b 9.629924
_cell_length_c 8.243679
_cell_angle_alpha 113.489028
_cell_angle_beta 39.119803
_cell_angle_gamma 144.130985
_cell_volume 585.835305
_symmetry_space_group_name_H-M "P -1"
_symmetry_group_IT_number 2
_symmetry_cell_setting 'triclinic'
loop_
_space_group_symop_operation_xyz
x,y,z
-x,-y,-z
loop_
_atom_site_type_symbol
_atom_site_label
_atom_site_fract_x
_atom_site_fract_y
_atom_site_fract_z
Si Si1 0.401359 0.275151 0.406654
Si Si2 0.860719 0.969062 0.869392
Si Si3 0.806523 0.448854 0.509519
Si Si4 0.031674 0.861345 0.677961
Si Si5 0.174699 0.815410 0.474108
Si Si6 0.427834 0.722392 0.821832
Si Si7 0.571789 0.856943 0.224516
Si Si8 0.259061 0.465963 0.593921
O O1 0.323768 0.144159 0.353816
O O2 0.483779 0.247037 0.244990
O O3 0.530476 0.617986 0.265133
O O4 0.250200 0.077214 0.799219
O O5 0.924260 0.102268 0.597207
O O6 0.023847 0.193726 0.689241
O O7 0.733698 0.630101 0.007338
O O8 0.744492 0.399915 0.460283
O O9 0.860399 0.365837 0.391295
O O10 0.653487 0.257139 0.900834
O O11 0.037898 0.717114 0.701061
O O12 0.171754 0.192307 0.574932
O O13 0.859431 0.672608 0.038483
O O14 0.250170 0.857033 0.152532
O O15 0.542871 0.913507 0.477490
O O16 0.431868 0.683208 0.350511
#
# Coordination Sequence:
#
# PCOD9059792 Si02
#       8
#     2   2   2   2   2   2   2   2
#     4  11  23  42  70  99 131 172 221 273 326 386
#     4  11  23  43  70  97 133 171 219 274 328 386
#     4  12  27  43  65  99 138 178 210 271 334 390
#     4  11  23  42  68  99 128 170 220 271 320 391
#     4  12  26  44  66  97 139 175 217 266 331 392
#     4  11  23  42  69 101 130 171 222 272 328 385
#     4  11  23  42  69 100 128 174 222 275 321 384
#     4  11  24  40  68  99 130 168 221 270 323 384
#
# _framework density 27.311430999999999
#
# number of rings (size 3 to 8) (size 9 to 14) (size 15 to 20)
#    0.000    0.750    2.500    6.000    5.250    5.000 
#    0.000    2.500    0.000    0.000    0.000    0.000 
#    0.000    0.000    0.000    0.000    0.000    0.000 
#
# Total GULP energy -89862.981382 kJ/mol
# GULP energy per Si atom -5616.436336 kJ/mol
# Density = 2.724927 g / cm^3
# Si number density = 27.311431 Si / 1000 Ang^3
#
#
#
# Elastic Constant Matrix: (Units=GPa)
#
#
# Indices 1 2 3 4 5 6 
#
# 1 144.8858 34.7153 23.6413 12.9956 -12.2092 -17.6713
# 2 34.7153 70.6073 27.5758 4.9768 2.0315 -11.1361
# 3 23.6413 27.5758 118.1276 22.7488 -1.3321 -3.5408
# 4 12.9956 4.9768 22.7488 29.5377 4.0736 -2.5411
# 5 -12.2092 2.0315 -1.3321 4.0736 47.4895 -2.0409
# 6 -17.6713 -11.1361 -3.5408 -2.5411 -2.0409 51.3116
#
#
#
# Elastic Compliance Matrix: (Units=1/GPa)
#
#
# Indices 1 2 3 4 5 6 
#
# 1 0.008584 -0.003686 -0.000139 -0.003245 0.002729 0.002095
# 2 -0.003686 0.017715 -0.003728 0.001968 -0.001878 0.002341
# 3 -0.000139 -0.003728 0.010879 -0.007878 0.001085 -0.000453
# 4 -0.003245 0.001968 -0.007878 0.041721 -0.004690 0.000646
# 5 0.002729 -0.001878 0.001085 -0.004690 0.022326 0.001263
# 6 0.002095 0.002341 -0.000453 0.000646 0.001263 0.020769
#
#
# Mechanical properties :
#
#
# Convention : Reuss Voigt Hill
#
# Bulk Modulus (GPa) = 45.30323 56.16505 50.73414
# Shear Modulus (GPa) = 34.61194 42.18032 38.39613
#
# Velocity S-wave (km/s) = 3.56379 3.93417 3.75355
# Velocity P-wave (km/s) = 5.79291 6.42233 6.11572
#
# Compressibility (1/GPa) = 0.02207348
#
# Stress axis : x y z
#
# Youngs Moduli (GPa) = 116.49155 56.44795 91.91733
#
# Poissons Ratio (x) = 0.20805 0.01279
# Poissons Ratio (y) = 0.42935 0.34266
# Poissons Ratio (z) = 0.01621 0.21043
#
# Static dielectric constant tensor:
#      x y z
#    x 2.049940 -0.016210 0.039700 
#    y -0.016210 2.245560 -0.030350 
#    z 0.039700 -0.030350 2.062550 
# 
# From -- ./inp_files/207829.got.cif
#   From: 2010.05.17/outbox.cif.g08.bks.cpg/sg2_104_cif.got.tgz:207829.got - 2010.06.03 11:33:40.
