data_PCOD9059904
_publ_section_title
;
Structure prediction by ZEFSAII (Michael W. Deem and Ramdas Pophale) SiO2 
 PCOD9059904
Probable space group: P -1
;
_chemical_formula_sum "Si O2"
_cell_formula_units_Z 16
_cell_length_a 11.971142
_cell_length_b 9.249239
_cell_length_c 8.021919
_cell_angle_alpha 113.293990
_cell_angle_beta 125.637405
_cell_angle_gamma 60.568850
_cell_volume 621.194061
_symmetry_space_group_name_H-M "P -1"
_symmetry_group_IT_number 2
_symmetry_cell_setting 'triclinic'
loop_
_space_group_symop_operation_xyz
x,y,z
-x,-y,-z
loop_
_atom_site_type_symbol
_atom_site_label
_atom_site_fract_x
_atom_site_fract_y
_atom_site_fract_z
Si Si1 0.924957 0.192070 0.576334
Si Si2 0.594852 0.064896 0.483199
Si Si3 0.345081 0.058904 0.054907
Si Si4 0.584667 0.427835 0.710364
Si Si5 0.824180 0.424111 0.133124
Si Si6 0.183752 0.228061 0.652037
Si Si7 0.351922 0.703490 0.823517
Si Si8 0.951990 0.851606 0.968913
O O1 0.755958 0.247239 0.408186
O O2 0.962671 0.199530 0.804155
O O3 0.012826 0.276996 0.573471
O O4 0.000000 0.000000 0.500000
O O5 0.479254 0.114458 0.251408
O O6 0.618625 0.229156 0.647459
O O7 0.500000 0.000000 0.500000
O O8 0.742041 0.917512 0.483696
O O9 0.266402 0.150215 0.861315
O O10 0.217324 0.096425 0.101066
O O11 0.403011 0.858113 0.983769
O O12 0.500000 0.500000 0.500000
O O13 0.475240 0.528924 0.806737
O O14 0.731081 0.465790 0.898550
O O15 0.797361 0.596051 0.284411
O O16 0.751971 0.314217 0.126903
O O17 0.987832 0.309295 0.172700
O O18 0.000000 0.000000 0.000000
#
# Coordination Sequence:
#
# PCOD9059904 Si02
#       8
#     2   2   2   2   2   2   2   2
#     4  11  23  42  71  99 134 180 224 270 336 405
#     4  12  26  42  66  99 133 176 225 281 330 397
#     4  11  23  44  68  94 135 180 221 269 338 401
#     4  12  26  42  68  98 133 178 228 279 331 401
#     4  12  25  43  68 100 136 176 222 281 335 397
#     4  11  25  44  68  96 136 178 219 276 338 397
#     4  12  23  44  68  98 135 180 223 274 335 402
#     4  11  23  42  71 101 133 179 224 273 335 403
#
# _framework density 25.756847
#
# number of rings (size 3 to 8) (size 9 to 14) (size 15 to 20)
#    0.000    0.500    3.750    5.250    1.750    4.500 
#    0.000    0.000    0.000    0.000    0.000    0.000 
#    0.000    0.000    0.000    0.000    0.000    0.000 
#
# Total GULP energy -89743.405217 kJ/mol
# GULP energy per Si atom -5608.962826 kJ/mol
# Density = 2.569822 g / cm^3
# Si number density = 25.756847 Si / 1000 Ang^3
#
#
#
# Elastic Constant Matrix: (Units=GPa)
#
#
# Indices 1 2 3 4 5 6 
#
# 1 120.7581 39.9654 12.8743 8.3549 -15.4423 -34.5022
# 2 39.9654 139.8834 27.0951 37.7488 -5.4344 -29.1609
# 3 12.8743 27.0951 93.7724 2.7011 0.6153 -16.6349
# 4 8.3549 37.7488 2.7011 47.7492 -0.0161 -5.4768
# 5 -15.4423 -5.4344 0.6153 -0.0161 50.0260 -0.3988
# 6 -34.5022 -29.1609 -16.6349 -5.4768 -0.3988 51.9793
#
#
#
# Elastic Compliance Matrix: (Units=1/GPa)
#
#
# Indices 1 2 3 4 5 6 
#
# 1 0.011109 -0.001772 0.000106 0.000193 0.003287 0.006459
# 2 -0.001772 0.010911 -0.002075 -0.007801 0.000689 0.003464
# 3 0.000106 -0.002075 0.011708 0.001279 -0.000314 0.002786
# 4 0.000193 -0.007801 0.001279 0.026887 -0.000803 -0.001012
# 5 0.003287 0.000689 -0.000314 -0.000803 0.021103 0.002545
# 6 0.006459 0.003464 0.002786 -0.001012 0.002545 0.026273
#
#
# Mechanical properties :
#
#
# Convention : Reuss Voigt Hill
#
# Bulk Modulus (GPa) = 38.10206 57.14262 47.62234
# Shear Modulus (GPa) = 40.25025 48.24950 44.24987
#
# Velocity S-wave (km/s) = 3.95739 4.33282 4.14935
# Velocity P-wave (km/s) = 5.97548 6.87493 6.44093
#
# Compressibility (1/GPa) = 0.02624530
#
# Stress axis : x y z
#
# Youngs Moduli (GPa) = 90.02082 91.64978 85.40825
#
# Poissons Ratio (x) = 0.16243 -0.00902
# Poissons Ratio (y) = 0.15955 0.17719
# Poissons Ratio (z) = -0.00950 0.19014
#
# Static dielectric constant tensor:
#      x y z
#    x 2.102500 0.007810 0.022670 
#    y 0.007810 1.967840 -0.069050 
#    z 0.022670 -0.069050 2.116050 
# 
# From -- ./inp_files/245220.got.cif
#   From: 2010.05.17/outbox.cif.g08.bks.cpg/sg2_123_cif.got.tgz:245220.got - 2010.06.03 11:33:40.
