data_PCOD9059478
_publ_section_title
;
Structure prediction by ZEFSAII (Michael W. Deem and Ramdas Pophale) SiO2 
 PCOD9059478
Probable space group: P -1
;
_chemical_formula_sum "Si O2"
_cell_formula_units_Z 16
_cell_length_a 14.598884
_cell_length_b 11.333719
_cell_length_c 11.438206
_cell_angle_alpha 120.462310
_cell_angle_beta 151.889803
_cell_angle_gamma 52.100237
_cell_volume 700.542942
_symmetry_space_group_name_H-M "P -1"
_symmetry_group_IT_number 2
_symmetry_cell_setting 'triclinic'
loop_
_space_group_symop_operation_xyz
x,y,z
-x,-y,-z
loop_
_atom_site_type_symbol
_atom_site_label
_atom_site_fract_x
_atom_site_fract_y
_atom_site_fract_z
Si Si1 0.191090 0.920270 0.266512
Si Si2 0.494312 0.575977 0.408439
Si Si3 0.202768 0.401137 0.415795
Si Si4 0.442112 0.114008 0.701171
Si Si5 0.772090 0.551563 0.074607
Si Si6 0.914804 0.081124 0.251407
Si Si7 0.248053 0.570886 0.767471
Si Si8 0.722707 0.868408 0.218644
O O1 0.317197 0.745515 0.296451
O O2 0.367842 0.990677 0.501815
O O3 0.071269 0.960857 0.276668
O O4 0.000000 0.000000 0.000000
O O5 0.500000 0.500000 0.500000
O O6 0.705043 0.584268 0.597253
O O7 0.438722 0.472174 0.202888
O O8 0.360156 0.252113 0.586499
O O9 0.172025 0.536828 0.539952
O O10 0.959494 0.424095 0.148272
O O11 0.308079 0.162901 0.695004
O O12 0.690542 0.062854 0.992037
O O13 0.809610 0.511242 0.232716
O O14 0.745181 0.718896 0.101410
O O15 0.833820 0.254802 0.205754
O O16 0.076628 0.085758 0.539204
O O17 0.500000 0.500000 0.000000
O O18 0.500000 0.000000 0.000000
#
# Coordination Sequence:
#
# PCOD9059478 Si02
#       8
#     2   2   2   2   2   2   2   2
#     4  11  25  47  69 101 145 191 244 289 350 427
#     4  12  30  49  68  98 146 197 249 294 347 429
#     4  12  23  42  75 107 136 182 233 294 368 423
#     4  11  23  42  74 106 140 177 233 302 350 428
#     4  12  23  42  74 103 141 183 232 296 362 432
#     4  11  23  41  69 107 136 180 233 293 360 423
#     4  12  19  39  73 114 142 166 226 299 371 427
#     4  11  25  41  64 105 149 182 223 289 372 430
#
# _framework density 22.839428999999999
#
# number of rings (size 3 to 8) (size 9 to 14) (size 15 to 20)
#    0.000    0.500    5.000    4.125    3.500    4.000 
#    2.250    0.000    0.000    0.000    0.000    0.000 
#    0.000    0.000    0.000    0.000    0.000    0.000 
#
# Total GULP energy -89349.430181 kJ/mol
# GULP energy per Si atom -5584.339386 kJ/mol
# Density = 2.278744 g / cm^3
# Si number density = 22.839429 Si / 1000 Ang^3
#
#
#
# Elastic Constant Matrix: (Units=GPa)
#
#
# Indices 1 2 3 4 5 6 
#
# 1 110.7109 26.1509 6.5828 -8.2847 22.1125 8.9839
# 2 26.1509 104.4902 51.8900 4.3802 6.5048 1.1044
# 3 6.5828 51.8900 117.0775 4.4320 34.9648 13.9725
# 4 -8.2847 4.3802 4.4320 42.5834 -3.0640 -0.5376
# 5 22.1125 6.5048 34.9648 -3.0640 44.2059 -2.8400
# 6 8.9839 1.1044 13.9725 -0.5376 -2.8400 23.4435
#
#
#
# Elastic Compliance Matrix: (Units=1/GPa)
#
#
# Indices 1 2 3 4 5 6 
#
# 1 0.013136 -0.005634 0.006202 0.001563 -0.011167 -0.009782
# 2 -0.005634 0.015453 -0.010268 -0.000849 0.009162 0.008641
# 3 0.006202 -0.010268 0.020383 -0.001422 -0.018863 -0.016359
# 4 0.001563 -0.000849 -0.001422 0.024196 0.002217 0.001112
# 5 -0.011167 0.009162 -0.018863 0.002217 0.043242 0.020379
# 6 -0.009782 0.008641 -0.016359 0.001112 0.020379 0.058242
#
#
# Mechanical properties :
#
#
# Convention : Reuss Voigt Hill
#
# Bulk Modulus (GPa) = 33.81589 55.72512 44.77050
# Shear Modulus (GPa) = 24.52076 38.55688 31.53882
#
# Velocity S-wave (km/s) = 3.28016 4.11319 3.72007
# Velocity P-wave (km/s) = 5.40222 6.85634 6.17225
#
# Compressibility (1/GPa) = 0.02957190
#
# Stress axis : x y z
#
# Youngs Moduli (GPa) = 76.12786 64.71166 49.06080
#
# Poissons Ratio (x) = 0.36461 -0.30427
# Poissons Ratio (y) = 0.42893 0.50373
# Poissons Ratio (z) = -0.47214 0.66443
#
# Static dielectric constant tensor:
#      x y z
#    x 1.880320 -0.001190 0.025640 
#    y -0.001190 1.813340 0.033480 
#    z 0.025640 0.033480 1.984700 
# 
# From -- ./inp_files/451711.got.cif
#   From: 2010.05.17/outbox.cif.g08.bks.cpg/sg2_226_cif.got.tgz:451711.got - 2010.06.03 11:33:40.
