data_PCOD9059863
_publ_section_title
;
Structure prediction by ZEFSAII (Michael W. Deem and Ramdas Pophale) SiO2 
 PCOD9059863
Probable space group: P -1
;
_chemical_formula_sum "Si O2"
_cell_formula_units_Z 15
_cell_length_a 13.443284
_cell_length_b 9.473406
_cell_length_c 11.692468
_cell_angle_alpha 50.220491
_cell_angle_beta 124.734729
_cell_angle_gamma 139.216583
_cell_volume 736.635890
_symmetry_space_group_name_H-M "P -1"
_symmetry_group_IT_number 2
_symmetry_cell_setting 'triclinic'
loop_
_space_group_symop_operation_xyz
x,y,z
-x,-y,-z
loop_
_atom_site_type_symbol
_atom_site_label
_atom_site_fract_x
_atom_site_fract_y
_atom_site_fract_z
Si Si1 0.118313 0.733665 0.525261
Si Si2 0.394001 0.340259 0.766401
Si Si3 0.033768 0.029831 0.639676
Si Si4 0.536330 0.170500 0.777955
Si Si5 0.287707 0.632028 0.871901
Si Si6 0.131765 0.469703 0.094120
Si Si7 0.544006 0.864681 0.523971
Si Si8 0.500000 0.500000 0.000000
O O1 0.186499 0.672768 0.704244
O O2 0.000000 0.500000 0.500000
O O3 0.020156 0.819916 0.441198
O O4 0.271080 0.954124 0.448921
O O5 0.213733 0.170627 0.708734
O O6 0.474163 0.277723 0.761136
O O7 0.474052 0.614657 0.660170
O O8 0.421525 0.332048 0.922395
O O9 0.000000 0.000000 0.500000
O O10 0.934559 0.778200 0.765829
O O11 0.715976 0.318790 0.848115
O O12 0.513809 0.183280 0.620550
O O13 0.428097 0.893234 0.873305
O O14 0.356449 0.522343 0.905859
O O15 0.186800 0.484358 0.992777
O O16 0.000000 0.500000 0.000000
O O17 0.500000 0.000000 0.500000
#
# Coordination Sequence:
#
# PCOD9059863 Si02
#       8
#     2   2   2   2   2   2   2   1
#     4  11  24  46  68 101 142 184 234 298 361 419
#     4  12  24  45  71 103 141 192 243 292 359 433
#     4  12  25  45  72 103 143 186 241 301 360 422
#     4  11  23  45  72  99 139 187 245 292 350 439
#     4  11  25  47  71 104 142 196 236 301 359 435
#     4  12  25  42  71 111 142 184 239 300 369 422
#     4  11  23  42  70 102 135 187 241 288 357 426
#     4  12  26  44  72  98 150 182 250 286 364 426
#
# _framework density 20.362842000000001
#
# number of rings (size 3 to 8) (size 9 to 14) (size 15 to 20)
#    0.000    0.533    1.333    8.800    1.867    1.067 
#    2.400    1.333    0.000    0.000    0.000    0.000 
#    0.000    0.000    0.000    0.000    0.000    0.000 
#
# Total GULP energy -83591.930817 kJ/mol
# GULP energy per Si atom -5572.795388 kJ/mol
# Density = 2.031649 g / cm^3
# Si number density = 20.362842 Si / 1000 Ang^3
#
#
#
# Elastic Constant Matrix: (Units=GPa)
#
#
# Indices 1 2 3 4 5 6 
#
# 1 153.7214 65.9072 45.7864 6.8001 21.5959 -19.0775
# 2 65.9072 168.4327 63.2103 14.3062 1.0371 8.2614
# 3 45.7864 63.2103 82.2812 -5.4801 17.2210 8.8194
# 4 6.8001 14.3062 -5.4801 47.9692 4.7961 7.7868
# 5 21.5959 1.0371 17.2210 4.7961 27.4632 -4.0714
# 6 -19.0775 8.2614 8.8194 7.7868 -4.0714 49.2898
#
#
#
# Elastic Compliance Matrix: (Units=1/GPa)
#
#
# Indices 1 2 3 4 5 6 
#
# 1 0.009921 -0.002954 -0.002745 -0.001071 -0.005104 0.004574
# 2 -0.002954 0.010614 -0.008488 -0.004515 0.008029 -0.000027
# 3 -0.002745 -0.008488 0.024710 0.008371 -0.015465 -0.006661
# 4 -0.001071 -0.004515 0.008371 0.025215 -0.009518 -0.005925
# 5 -0.005104 0.008029 -0.015465 -0.009518 0.052263 0.005267
# 6 0.004574 -0.000027 -0.006661 -0.005925 0.005267 0.024626
#
#
# Mechanical properties :
#
#
# Convention : Reuss Voigt Hill
#
# Bulk Modulus (GPa) = 59.27408 83.80479 71.53944
# Shear Modulus (GPa) = 27.57139 40.24654 33.90897
#
# Velocity S-wave (km/s) = 3.68367 4.45057 4.08516
# Velocity P-wave (km/s) = 6.87494 8.22528 7.58024
#
# Compressibility (1/GPa) = 0.01687078
#
# Stress axis : x y z
#
# Youngs Moduli (GPa) = 100.79154 94.21634 40.46943
#
# Poissons Ratio (x) = 0.27832 0.11109
# Poissons Ratio (y) = 0.29774 0.34352
# Poissons Ratio (z) = 0.27667 0.79973
#
# Static dielectric constant tensor:
#      x y z
#    x 1.569820 -0.034570 -0.101060 
#    y -0.034570 1.642890 -0.015880 
#    z -0.101060 -0.015880 1.712530 
# 
# From -- ./inp_files/174344.got.cif
#   From: 2010.05.17/outbox.cif.g08.bks.cpg/sg2_88_cif.got.tgz:174344.got - 2010.06.03 11:33:40.
