data_PCOD9059349
_publ_section_title
;
Structure prediction by ZEFSAII (Michael W. Deem and Ramdas Pophale) SiO2 
 PCOD9059349
Probable space group: P -1
;
_chemical_formula_sum "Si O2"
_cell_formula_units_Z 10
_cell_length_a 14.064806
_cell_length_b 14.182162
_cell_length_c 11.472618
_cell_angle_alpha 148.628987
_cell_angle_beta 150.771990
_cell_angle_gamma 21.353493
_cell_volume 395.885862
_symmetry_space_group_name_H-M "P -1"
_symmetry_group_IT_number 2
_symmetry_cell_setting 'triclinic'
loop_
_space_group_symop_operation_xyz
x,y,z
-x,-y,-z
loop_
_atom_site_type_symbol
_atom_site_label
_atom_site_fract_x
_atom_site_fract_y
_atom_site_fract_z
Si Si1 0.482389 0.025261 0.694716
Si Si2 0.824481 0.876404 0.290631
Si Si3 0.307058 0.775728 0.152165
Si Si4 0.341483 0.398915 0.244727
Si Si5 0.834641 0.400909 0.996186
O O1 0.317560 0.068590 0.680348
O O2 0.320184 0.325029 0.813887
O O3 0.438050 0.887194 0.415199
O O4 0.820284 0.821524 0.862230
O O5 0.166347 0.635575 0.400371
O O6 0.676831 0.149837 0.364439
O O7 0.753467 0.747596 0.999517
O O8 0.500000 0.500000 0.000000
O O9 0.258404 0.720186 0.168778
O O10 0.000000 0.000000 0.000000
O O11 0.265622 0.508769 0.149141
#
# Coordination Sequence:
#
# PCOD9059349 Si02
#       5
#     2   2   2   2   2
#     4  11  23  41  66  93 124 163 204 249 307 369
#     4   9  16  30  56  89 123 158 193 235 293 361
#     4  12  28  46  64  90 122 158 212 270 310 356
#     4   9  16  30  56  89 123 158 193 235 293 361
#     4  11  23  41  66  93 124 163 204 249 307 369
#
# _framework density 25.259806999999999
#
# number of rings (size 3 to 8) (size 9 to 14) (size 15 to 20)
#    0.000    1.600    0.000    8.400    0.000    4.800 
#    0.000    2.000    0.000    0.000    0.000    5.600 
#    0.000    0.000    0.000    0.000    0.000    0.000 
#
# Total GULP energy -55970.942914 kJ/mol
# GULP energy per Si atom -5597.094291 kJ/mol
# Density = 2.520231 g / cm^3
# Si number density = 25.259807 Si / 1000 Ang^3
#
#
#
# Elastic Constant Matrix: (Units=GPa)
#
#
# Indices 1 2 3 4 5 6 
#
# 1 105.7110 39.8980 14.7288 5.8514 10.2392 5.7564
# 2 39.8980 231.5707 35.1744 15.3607 6.0556 -25.7685
# 3 14.7288 35.1744 89.8452 30.0295 23.2438 -5.3882
# 4 5.8514 15.3607 30.0295 26.0580 4.2351 -8.1963
# 5 10.2392 6.0556 23.2438 4.2351 35.8621 11.9307
# 6 5.7564 -25.7685 -5.3882 -8.1963 11.9307 40.3624
#
#
#
# Elastic Compliance Matrix: (Units=1/GPa)
#
#
# Indices 1 2 3 4 5 6 
#
# 1 0.010601 -0.001946 -0.000230 -0.001567 -0.001477 -0.002666
# 2 -0.001946 0.005286 -0.001441 0.000257 -0.000667 0.003709
# 3 -0.000230 -0.001441 0.022477 -0.022747 -0.011911 0.001015
# 4 -0.001567 0.000257 -0.022747 0.067247 0.003930 0.009845
# 5 -0.001477 -0.000667 -0.011911 0.003930 0.039937 -0.012812
# 6 -0.002666 0.003709 0.001015 0.009845 -0.012812 0.033446
#
#
# Mechanical properties :
#
#
# Convention : Reuss Voigt Hill
#
# Bulk Modulus (GPa) = 32.12380 67.41437 49.76909
# Shear Modulus (GPa) = 25.43167 42.94489 34.18828
#
# Velocity S-wave (km/s) = 3.17646 4.12773 3.68294
# Velocity P-wave (km/s) = 5.11841 7.03306 6.15069
#
# Compressibility (1/GPa) = 0.03112957
#
# Stress axis : x y z
#
# Youngs Moduli (GPa) = 94.32924 189.19345 44.48936
#
# Poissons Ratio (x) = 0.36811 0.01025
# Poissons Ratio (y) = 0.18353 0.06412
# Poissons Ratio (z) = 0.02172 0.27268
#
# Static dielectric constant tensor:
#      x y z
#    x 1.988980 -0.041670 -0.008010 
#    y -0.041670 2.038360 -0.025990 
#    z -0.008010 -0.025990 2.039000 
# 
# From -- ./inp_files/74732.got.cif
#   From: 2010.05.17/outbox.cif.g08.bks.cpg/sg2_38_cif.got.tgz:74732.got - 2010.06.03 11:33:40.
