data_PCOD9059954
_publ_section_title
;
Structure prediction by ZEFSAII (Michael W. Deem and Ramdas Pophale) SiO2 
 PCOD9059954
Probable space group: P -1
;
_chemical_formula_sum "Si O2"
_cell_formula_units_Z 16
_cell_length_a 12.344894
_cell_length_b 9.483115
_cell_length_c 8.333001
_cell_angle_alpha 102.921604
_cell_angle_beta 75.899812
_cell_angle_gamma 53.268260
_cell_volume 667.218566
_symmetry_space_group_name_H-M "P -1"
_symmetry_group_IT_number 2
_symmetry_cell_setting 'triclinic'
loop_
_space_group_symop_operation_xyz
x,y,z
-x,-y,-z
loop_
_atom_site_type_symbol
_atom_site_label
_atom_site_fract_x
_atom_site_fract_y
_atom_site_fract_z
Si Si1 0.383058 0.158225 0.444342
Si Si2 0.450036 0.861267 0.090366
Si Si3 0.209463 0.544135 0.087996
Si Si4 0.975593 0.542706 0.331317
Si Si5 0.525457 0.303170 0.280353
Si Si6 0.832948 0.118519 0.291735
Si Si7 0.701932 0.268344 0.704291
Si Si8 0.963220 0.266717 0.101328
O O1 0.207232 0.286497 0.590387
O O2 0.420898 0.291090 0.423442
O O3 0.500000 0.000000 0.500000
O O4 0.405934 0.047918 0.242158
O O5 0.379802 0.796194 0.207748
O O6 0.634429 0.678289 0.980735
O O7 0.401561 0.865019 0.927868
O O8 0.225364 0.696121 0.175572
O O9 0.070422 0.592329 0.243663
O O10 0.181808 0.561331 0.913428
O O11 0.033947 0.346748 0.170322
O O12 0.000000 0.500000 0.500000
O O13 0.660074 0.258019 0.320090
O O14 0.422533 0.514642 0.281092
O O15 0.820907 0.114780 0.485343
O O16 0.909266 0.202908 0.239389
O O17 0.927591 0.913506 0.109058
#
# Coordination Sequence:
#
# PCOD9059954 Si02
#       8
#     2   2   2   2   2   2   2   2
#     4  12  27  44  71 107 142 185 242 292 347 425
#     4  11  24  43  72 104 139 183 238 290 349 422
#     4  11  24  44  71  96 143 182 227 284 356 412
#     4  12  27  47  72 101 145 186 232 290 358 419
#     4  11  23  42  71  96 142 183 233 285 354 414
#     4  11  24  40  68  98 136 179 231 285 336 423
#     4  11  23  45  71 103 138 185 238 285 354 419
#     4  11  25  43  64 100 140 180 224 281 357 409
#
# _framework density 23.980148
#
# number of rings (size 3 to 8) (size 9 to 14) (size 15 to 20)
#    0.000    0.750    0.000    8.625    7.000    0.500 
#    0.000    0.000    0.000    0.000    0.000    0.000 
#    0.000    0.000    0.000    0.000    0.000    0.000 
#
# Total GULP energy -89721.524096 kJ/mol
# GULP energy per Si atom -5607.595256 kJ/mol
# Density = 2.392557 g / cm^3
# Si number density = 23.980148 Si / 1000 Ang^3
#
#
#
# Elastic Constant Matrix: (Units=GPa)
#
#
# Indices 1 2 3 4 5 6 
#
# 1 76.9716 22.5498 11.3193 -1.1167 -7.2230 7.0434
# 2 22.5498 57.3289 2.5137 -11.0488 -10.7136 16.9348
# 3 11.3193 2.5137 93.4880 -1.2953 -2.6413 -0.9269
# 4 -1.1167 -11.0488 -1.2953 40.9034 4.2322 -2.3536
# 5 -7.2230 -10.7136 -2.6413 4.2322 54.5889 -5.5757
# 6 7.0434 16.9348 -0.9269 -2.3536 -5.5757 35.9062
#
#
#
# Elastic Compliance Matrix: (Units=1/GPa)
#
#
# Indices 1 2 3 4 5 6 
#
# 1 0.015037 -0.005891 -0.001659 -0.001330 0.000839 -0.000171
# 2 -0.005891 0.024091 0.000121 0.005542 0.002560 -0.009443
# 3 -0.001659 0.000121 0.010915 0.000331 0.000371 0.000629
# 4 -0.001330 0.005542 0.000331 0.025993 -0.001171 -0.000823
# 5 0.000839 0.002560 0.000371 -0.001171 0.019199 0.001542
# 6 -0.000171 -0.009443 0.000629 -0.000823 0.001542 0.032539
#
#
# Mechanical properties :
#
#
# Convention : Reuss Voigt Hill
#
# Bulk Modulus (GPa) = 28.42033 33.39490 30.90762
# Shear Modulus (GPa) = 32.39197 39.04006 35.71602
#
# Velocity S-wave (km/s) = 3.67929 4.03925 3.86346
# Velocity P-wave (km/s) = 5.47055 5.97581 5.72875
#
# Compressibility (1/GPa) = 0.03518608
#
# Stress axis : x y z
#
# Youngs Moduli (GPa) = 66.50447 41.50937 91.61335
#
# Poissons Ratio (x) = 0.24452 0.15195
# Poissons Ratio (y) = 0.39177 -0.01108
# Poissons Ratio (z) = 0.11031 -0.00502
#
# Static dielectric constant tensor:
#      x y z
#    x 1.872290 -0.038710 0.002630 
#    y -0.038710 1.916700 0.044300 
#    z 0.002630 0.044300 1.913530 
# 
# From -- ./inp_files/244990.got.cif
#   From: 2010.05.17/outbox.cif.g08.bks.cpg/sg2_123_cif.got.tgz:244990.got - 2010.06.03 11:33:40.
