data_PCOD9059975
_publ_section_title
;
Structure prediction by ZEFSAII (Michael W. Deem and Ramdas Pophale) SiO2 
 PCOD9059975
Probable space group: P -1
;
_chemical_formula_sum "Si O2"
_cell_formula_units_Z 14
_cell_length_a 8.236723
_cell_length_b 9.716926
_cell_length_c 13.522104
_cell_angle_alpha 43.967633
_cell_angle_beta 113.494029
_cell_angle_gamma 130.269620
_cell_volume 568.746547
_symmetry_space_group_name_H-M "P -1"
_symmetry_group_IT_number 2
_symmetry_cell_setting 'triclinic'
loop_
_space_group_symop_operation_xyz
x,y,z
-x,-y,-z
loop_
_atom_site_type_symbol
_atom_site_label
_atom_site_fract_x
_atom_site_fract_y
_atom_site_fract_z
Si Si1 0.525510 0.210046 0.465388
Si Si2 0.248292 0.323063 0.825896
Si Si3 0.707455 0.413063 0.940121
Si Si4 0.572640 0.014454 0.776443
Si Si5 0.077351 0.924139 0.467506
Si Si6 0.053125 0.571288 0.209781
Si Si7 0.909175 0.924315 0.815687
O O1 0.710584 0.478859 0.347749
O O2 0.500000 0.000000 0.500000
O O3 0.518901 0.135993 0.614245
O O4 0.311895 0.173681 0.392369
O O5 0.469364 0.353053 0.889571
O O6 0.135675 0.381850 0.854462
O O7 0.085198 0.065819 0.870313
O O8 0.841816 0.426890 0.869902
O O9 0.843389 0.665197 0.899413
O O10 0.638887 0.190374 0.111739
O O11 0.697146 0.910481 0.807193
O O12 0.747413 0.217439 0.787647
O O13 0.043798 0.679475 0.624627
O O14 0.996371 0.906030 0.347060
O O15 0.000000 0.000000 0.500000
#
# Coordination Sequence:
#
# PCOD9059975 Si02
#       7
#     2   2   2   2   2   2   2
#     4  12  21  42  74  99 135 188 233 295 360 403
#     4  11  24  45  77 104 138 192 244 289 359 423
#     4  12  25  50  69 103 156 187 231 300 357 424
#     4  11  25  44  71 104 143 190 238 292 356 432
#     4  12  22  41  70 104 141 176 240 302 347 417
#     4  11  24  44  72 104 145 186 241 294 354 429
#     4  11  23  42  72 104 138 189 241 292 352 424
#
# _framework density 24.615532999999999
#
# number of rings (size 3 to 8) (size 9 to 14) (size 15 to 20)
#    0.000    0.571    5.714    1.714    0.000    5.714 
#    2.571    5.000    0.000    0.000    0.000    0.000 
#    0.000    0.000    0.000    0.000    0.000    0.000 
#
# Total GULP energy -78282.204436 kJ/mol
# GULP energy per Si atom -5591.586031 kJ/mol
# Density = 2.455951 g / cm^3
# Si number density = 24.615533 Si / 1000 Ang^3
#
#
#
# Elastic Constant Matrix: (Units=GPa)
#
#
# Indices 1 2 3 4 5 6 
#
# 1 82.5370 60.1036 34.0863 11.0078 -7.8945 -10.5209
# 2 60.1036 135.1877 48.6533 0.1099 -13.7567 -13.6337
# 3 34.0863 48.6533 188.3757 -10.1085 -23.8792 -5.4926
# 4 11.0078 0.1099 -10.1085 46.7616 2.7833 -9.0512
# 5 -7.8945 -13.7567 -23.8792 2.7833 32.3301 10.3517
# 6 -10.5209 -13.6337 -5.4926 -9.0512 10.3517 27.9409
#
#
#
# Elastic Compliance Matrix: (Units=1/GPa)
#
#
# Indices 1 2 3 4 5 6 
#
# 1 0.019319 -0.007816 -0.001672 -0.004575 0.000026 0.001641
# 2 -0.007816 0.011723 -0.001290 0.002008 0.001064 0.002780
# 3 -0.001672 -0.001290 0.006502 0.001358 0.004063 -0.001046
# 4 -0.004575 0.002008 0.001358 0.024780 -0.004324 0.009153
# 5 0.000026 0.001064 0.004063 -0.004324 0.039469 -0.014696
# 6 0.001641 0.002780 -0.001046 0.009153 -0.014696 0.045968
#
#
# Mechanical properties :
#
#
# Convention : Reuss Voigt Hill
#
# Bulk Modulus (GPa) = 62.54071 76.86522 69.70296
# Shear Modulus (GPa) = 28.62948 38.95702 33.79325
#
# Velocity S-wave (km/s) = 3.41407 3.98253 3.70921
# Velocity P-wave (km/s) = 6.40339 7.24165 6.83538
#
# Compressibility (1/GPa) = 0.01598959
#
# Stress axis : x y z
#
# Youngs Moduli (GPa) = 51.76158 85.30055 153.80936
#
# Poissons Ratio (x) = 0.66670 0.25710
# Poissons Ratio (y) = 0.40456 0.19839
# Poissons Ratio (z) = 0.08652 0.11003
#
# Static dielectric constant tensor:
#      x y z
#    x 1.961830 -0.053780 0.093970 
#    y -0.053780 1.718600 0.037000 
#    z 0.093970 0.037000 1.971960 
# 
# From -- ./inp_files/381383.got.cif
#   From: 2010.05.17/outbox.cif.g08.bks.cpg/sg2_191_cif.got.tgz:381383.got - 2010.06.03 11:33:40.
