data_PCOD9059633
_publ_section_title
;
Structure prediction by ZEFSAII (Michael W. Deem and Ramdas Pophale) SiO2 
 PCOD9059633
Probable space group: P -1
;
_chemical_formula_sum "Si O2"
_cell_formula_units_Z 12
_cell_length_a 9.516716
_cell_length_b 10.922621
_cell_length_c 4.946057
_cell_angle_alpha 80.384512
_cell_angle_beta 94.130310
_cell_angle_gamma 77.578042
_cell_volume 491.919041
_symmetry_space_group_name_H-M "P -1"
_symmetry_group_IT_number 2
_symmetry_cell_setting 'triclinic'
loop_
_space_group_symop_operation_xyz
x,y,z
-x,-y,-z
loop_
_atom_site_type_symbol
_atom_site_label
_atom_site_fract_x
_atom_site_fract_y
_atom_site_fract_z
Si Si1 0.328033 0.351170 0.200971
Si Si2 0.075807 0.764344 0.726213
Si Si3 0.303673 0.924396 0.871202
Si Si4 0.824782 0.396644 0.712242
Si Si5 0.482325 0.677372 0.237935
Si Si6 0.236072 0.092038 0.322366
O O1 0.194943 0.456669 0.265875
O O2 0.452430 0.326228 0.455209
O O3 0.283565 0.219241 0.197727
O O4 0.393851 0.396379 0.920499
O O5 0.196025 0.846586 0.748058
O O6 0.127534 0.652838 0.558537
O O7 0.924951 0.858560 0.598981
O O8 0.068574 0.696354 0.036502
O O9 0.334026 0.015391 0.603710
O O10 0.435053 0.818391 0.050802
O O11 0.234638 0.005335 0.091525
O O12 0.663003 0.374130 0.749668
#
# Coordination Sequence:
#
# PCOD9059633 Si02
#       6
#     2   2   2   2   2   2
#     4  12  25  40  63  94 128 162 198 252 313 366
#     4  11  23  42  67  91 120 162 210 255 299 358
#     4  11  23  42  64  90 123 163 209 251 299 362
#     4  11  23  42  67  91 120 162 210 255 299 358
#     4  11  23  42  64  90 123 163 209 251 299 362
#     4  12  25  40  63  94 128 162 198 252 313 366
#
# _framework density 24.394257
#
# number of rings (size 3 to 8) (size 9 to 14) (size 15 to 20)
#    0.000    0.667    0.000   10.000    0.000    5.333 
#    0.000    0.000    0.000    0.000    0.000    0.000 
#    0.000    0.000    0.000    0.000    0.000    0.000 
#
# Total GULP energy -67269.666786 kJ/mol
# GULP energy per Si atom -5605.805566 kJ/mol
# Density = 2.433873 g / cm^3
# Si number density = 24.394257 Si / 1000 Ang^3
#
#
#
# Elastic Constant Matrix: (Units=GPa)
#
#
# Indices 1 2 3 4 5 6 
#
# 1 39.6662 24.0289 12.0139 2.1805 -7.2822 -8.6655
# 2 24.0289 70.1853 -17.8842 7.3498 -4.1903 -20.7682
# 3 12.0139 -17.8842 67.0021 13.3278 -1.7675 -1.7924
# 4 2.1805 7.3498 13.3278 40.0667 -16.4080 -6.8840
# 5 -7.2822 -4.1903 -1.7675 -16.4080 27.2260 1.4348
# 6 -8.6655 -20.7682 -1.7924 -6.8840 1.4348 23.8489
#
#
#
# Elastic Compliance Matrix: (Units=1/GPa)
#
#
# Indices 1 2 3 4 5 6 
#
# 1 0.043347 -0.018703 -0.014800 0.012377 0.015161 0.001011
# 2 -0.018703 0.029976 0.013278 -0.007897 -0.005253 0.018342
# 3 -0.014800 0.013278 0.023382 -0.011704 -0.007715 0.005028
# 4 0.012377 -0.007897 -0.011704 0.041487 0.025961 0.007154
# 5 0.015161 -0.005253 -0.007715 0.025961 0.054881 0.004546
# 6 0.001011 0.018342 0.005028 0.007154 0.004546 0.060440
#
#
# Mechanical properties :
#
#
# Convention : Reuss Voigt Hill
#
# Bulk Modulus (GPa) = 17.77669 23.68564 20.73116
# Shear Modulus (GPa) = 15.98905 28.80799 22.39852
#
# Velocity S-wave (km/s) = 2.56294 3.44020 3.03345
# Velocity P-wave (km/s) = 4.00765 5.05080 4.55916
#
# Compressibility (1/GPa) = 0.05625345
#
# Stress axis : x y z
#
# Youngs Moduli (GPa) = 23.06983 33.36049 42.76848
#
# Poissons Ratio (x) = 0.62395 0.63296
# Poissons Ratio (y) = 0.43148 -0.56787
# Poissons Ratio (z) = 0.34143 -0.44295
#
# Static dielectric constant tensor:
#      x y z
#    x 1.939420 0.000240 -0.019510 
#    y 0.000240 1.958710 -0.027020 
#    z -0.019510 -0.027020 1.876140 
# 
# From -- ./inp_files/57459.got.cif
#   From: 2010.05.17/outbox.cif.g08.bks.cpg/sg2_29_cif.got.tgz:57459.got - 2010.06.03 11:33:40.
