data_PCOD9059168
_publ_section_title
;
Structure prediction by ZEFSAII (Michael W. Deem and Ramdas Pophale) SiO2 
 PCOD9059168
Probable space group: P -1
;
_chemical_formula_sum "Si O2"
_cell_formula_units_Z 14
_cell_length_a 10.473994
_cell_length_b 12.788440
_cell_length_c 6.316450
_cell_angle_alpha 48.023034
_cell_angle_beta 113.159653
_cell_angle_gamma 108.681711
_cell_volume 576.254705
_symmetry_space_group_name_H-M "P -1"
_symmetry_group_IT_number 2
_symmetry_cell_setting 'triclinic'
loop_
_space_group_symop_operation_xyz
x,y,z
-x,-y,-z
loop_
_atom_site_type_symbol
_atom_site_label
_atom_site_fract_x
_atom_site_fract_y
_atom_site_fract_z
Si Si1 0.360727 0.669579 0.738804
Si Si2 0.131949 0.327701 0.808657
Si Si3 0.169865 0.641576 0.307323
Si Si4 0.427099 0.413367 0.375269
Si Si5 0.702275 0.136419 0.240436
Si Si6 0.995179 0.880238 0.335359
Si Si7 0.260814 0.152396 0.493574
O O1 0.221138 0.702625 0.483901
O O2 0.467685 0.633840 0.674682
O O3 0.400281 0.799844 0.743536
O O4 0.335633 0.527683 0.051774
O O5 0.200287 0.478355 0.569920
O O6 0.069117 0.253662 0.657816
O O7 0.995707 0.353245 0.829539
O O8 0.227662 0.236055 0.141317
O O9 0.258642 0.738090 0.069980
O O10 0.500000 0.500000 0.500000
O O11 0.338183 0.265339 0.552237
O O12 0.852131 0.118898 0.468513
O O13 0.657711 0.984889 0.316056
O O14 0.884329 0.902416 0.417618
O O15 0.000000 0.000000 0.000000
#
# Coordination Sequence:
#
# PCOD9059168 Si02
#       7
#     2   2   2   2   2   2   2
#     4  11  25  46  74 100 145 186 239 308 354 410
#     4  11  23  40  69 108 147 189 236 285 366 433
#     4  11  23  41  68 109 146 184 238 298 353 432
#     4  11  27  52  74 101 138 195 253 301 347 426
#     4  12  25  42  71 111 150 185 231 299 366 430
#     4  12  24  40  69 109 156 186 227 290 361 441
#     4  12  26  45  75 107 147 196 237 286 368 432
#
# _framework density 24.294813999999999
#
# number of rings (size 3 to 8) (size 9 to 14) (size 15 to 20)
#    0.000    0.571    5.714    2.143    4.000    1.143 
#    0.000    2.857    0.000    0.000    0.000    0.000 
#    0.000    0.000    0.000    0.000    0.000    0.000 
#
# Total GULP energy -78281.048729 kJ/mol
# GULP energy per Si atom -5591.503481 kJ/mol
# Density = 2.423952 g / cm^3
# Si number density = 24.294814 Si / 1000 Ang^3
#
#
#
# Elastic Constant Matrix: (Units=GPa)
#
#
# Indices 1 2 3 4 5 6 
#
# 1 64.7826 41.5464 17.8519 -9.3143 -6.7914 -12.9210
# 2 41.5464 140.5250 29.7043 -5.9916 -9.4922 -23.3489
# 3 17.8519 29.7043 128.2569 -7.1455 -7.2898 -3.7378
# 4 -9.3143 -5.9916 -7.1455 33.7882 7.0330 5.8592
# 5 -6.7914 -9.4922 -7.2898 7.0330 18.5644 -1.0851
# 6 -12.9210 -23.3489 -3.7378 5.8592 -1.0851 38.1451
#
#
#
# Elastic Compliance Matrix: (Units=1/GPa)
#
#
# Indices 1 2 3 4 5 6 
#
# 1 0.020380 -0.004818 -0.001244 0.003174 0.003502 0.003444
# 2 -0.004818 0.009750 -0.001335 -0.001391 0.003490 0.004518
# 3 -0.001244 -0.001335 0.008417 0.000915 0.001791 -0.000503
# 4 0.003174 -0.001391 0.000915 0.033896 -0.012339 -0.005244
# 5 0.003502 0.003490 0.001791 -0.012339 0.062729 0.007178
# 6 0.003444 0.004518 -0.000503 -0.005244 0.007178 0.031108
#
#
# Mechanical properties :
#
#
# Convention : Reuss Voigt Hill
#
# Bulk Modulus (GPa) = 42.10195 56.86331 49.48263
# Shear Modulus (GPa) = 26.45609 34.39700 30.42655
#
# Velocity S-wave (km/s) = 3.30352 3.76682 3.54275
# Velocity P-wave (km/s) = 5.64962 6.50960 6.09480
#
# Compressibility (1/GPa) = 0.02375187
#
# Stress axis : x y z
#
# Youngs Moduli (GPa) = 49.06885 102.56493 118.80209
#
# Poissons Ratio (x) = 0.49416 0.14785
# Poissons Ratio (y) = 0.23641 0.15860
# Poissons Ratio (z) = 0.06107 0.13692
#
# Static dielectric constant tensor:
#      x y z
#    x 2.010980 0.055970 0.015360 
#    y 0.055970 2.152300 0.016180 
#    z 0.015360 0.016180 1.942110 
# 
# From -- ./inp_files/28102.got.cif
#   From: 2010.05.17/outbox.cif.g08.bks.cpg/sg2_15_cif.got.tgz:28102.got - 2010.06.03 11:33:40.
