data_PCOD9059875
_publ_section_title
;
Structure prediction by ZEFSAII (Michael W. Deem and Ramdas Pophale) SiO2 
 PCOD9059875
Probable space group: P -1
;
_chemical_formula_sum "Si O2"
_cell_formula_units_Z 16
_cell_length_a 8.979090
_cell_length_b 9.036158
_cell_length_c 11.642260
_cell_angle_alpha 106.358452
_cell_angle_beta 74.205084
_cell_angle_gamma 128.714434
_cell_volume 701.374778
_symmetry_space_group_name_H-M "P -1"
_symmetry_group_IT_number 2
_symmetry_cell_setting 'triclinic'
loop_
_space_group_symop_operation_xyz
x,y,z
-x,-y,-z
loop_
_atom_site_type_symbol
_atom_site_label
_atom_site_fract_x
_atom_site_fract_y
_atom_site_fract_z
Si Si1 0.696702 0.020691 0.450368
Si Si2 0.280444 0.526226 0.684487
Si Si3 0.250150 0.536024 0.199521
Si Si4 0.344300 0.282926 0.764115
Si Si5 0.875048 0.619307 0.565768
Si Si6 0.887003 0.253801 0.835733
Si Si7 0.036063 0.195337 0.996299
Si Si8 0.295777 0.136687 0.343241
O O1 0.688101 0.909498 0.314389
O O2 0.714138 0.920452 0.535189
O O3 0.500000 0.000000 0.500000
O O4 0.894688 0.232532 0.454445
O O5 0.343685 0.390232 0.675604
O O6 0.216119 0.493757 0.558597
O O7 0.477552 0.736104 0.710108
O O8 0.090887 0.440837 0.783542
O O9 0.459381 0.589001 0.180344
O O10 0.182257 0.512984 0.339963
O O11 0.257725 0.699600 0.164479
O O12 0.114973 0.338678 0.116928
O O13 0.187358 0.257995 0.876068
O O14 0.791752 0.744365 0.628050
O O15 0.884031 0.210655 0.961615
O O16 0.832153 0.062487 0.741969
O O17 0.000000 0.000000 0.000000
#
# Coordination Sequence:
#
# PCOD9059875 Si02
#       8
#     2   2   2   2   2   2   2   2
#     4  12  25  39  66 108 149 180 227 292 351 420
#     4  11  23  42  70 104 140 193 228 282 348 433
#     4  12  25  45  69 102 140 182 232 299 348 399
#     4  11  23  44  70 102 138 181 235 285 345 425
#     4  12  23  43  71 100 148 190 235 278 350 426
#     4  11  26  45  70 102 145 180 231 296 358 403
#     4  11  25  49  75  97 130 186 244 286 345 416
#     4  12  22  43  68 100 143 187 235 271 351 427
#
# _framework density 22.812341
#
# number of rings (size 3 to 8) (size 9 to 14) (size 15 to 20)
#    0.000    0.500    3.750    6.000    1.750    0.500 
#    2.250    0.625    0.000    0.000    0.000    0.000 
#    0.000    0.000    0.000    0.000    0.000    0.000 
#
# Total GULP energy -89509.649726 kJ/mol
# GULP energy per Si atom -5594.353108 kJ/mol
# Density = 2.276042 g / cm^3
# Si number density = 22.812341 Si / 1000 Ang^3
#
#
#
# Elastic Constant Matrix: (Units=GPa)
#
#
# Indices 1 2 3 4 5 6 
#
# 1 88.4971 18.6275 18.1676 4.2513 31.0938 -9.1238
# 2 18.6275 64.0583 12.0518 -7.9529 12.2978 1.8919
# 3 18.1676 12.0518 70.9734 -1.6522 33.7523 -13.3419
# 4 4.2513 -7.9529 -1.6522 28.7059 -6.1880 -1.6653
# 5 31.0938 12.2978 33.7523 -6.1880 43.1386 -7.9034
# 6 -9.1238 1.8919 -13.3419 -1.6653 -7.9034 41.8117
#
#
#
# Elastic Compliance Matrix: (Units=1/GPa)
#
#
# Indices 1 2 3 4 5 6 
#
# 1 0.016907 -0.003635 0.003300 -0.006284 -0.014274 0.001958
# 2 -0.003635 0.017863 -0.002194 0.005145 -0.000416 -0.002175
# 3 0.003300 -0.002194 0.024011 -0.003822 -0.020263 0.004499
# 4 -0.006284 0.005145 -0.003822 0.039600 0.011918 0.001006
# 5 -0.014274 -0.000416 -0.020263 0.011918 0.051263 0.000603
# 6 0.001958 -0.002175 0.004499 0.001006 0.000603 0.026032
#
#
# Mechanical properties :
#
#
# Convention : Reuss Voigt Hill
#
# Bulk Modulus (GPa) = 18.61418 35.69142 27.15280
# Shear Modulus (GPa) = 25.17103 34.37672 29.77388
#
# Velocity S-wave (km/s) = 3.32534 3.88614 3.61663
# Velocity P-wave (km/s) = 4.78762 5.98462 5.41927
#
# Compressibility (1/GPa) = 0.05372247
#
# Stress axis : x y z
#
# Youngs Moduli (GPa) = 59.14870 55.98016 41.64774
#
# Poissons Ratio (x) = 0.20347 -0.13742
# Poissons Ratio (y) = 0.21499 0.09138
# Poissons Ratio (z) = -0.19517 0.12282
#
# Static dielectric constant tensor:
#      x y z
#    x 1.927880 -0.011970 0.025230 
#    y -0.011970 1.863600 -0.035070 
#    z 0.025230 -0.035070 1.861320 
# 
# From -- ./inp_files/206525.got.cif
#   From: 2010.05.17/outbox.cif.g08.bks.cpg/sg2_104_cif.got.tgz:206525.got - 2010.06.03 11:33:40.
