data_PCOD9059074
_publ_section_title
;
Structure prediction by ZEFSAII (Michael W. Deem and Ramdas Pophale) SiO2 
 PCOD9059074
Probable space group: P -1
;
_chemical_formula_sum "Si O2"
_cell_formula_units_Z 15
_cell_length_a 8.377301
_cell_length_b 15.044068
_cell_length_c 14.446452
_cell_angle_alpha 143.594129
_cell_angle_beta 57.658700
_cell_angle_gamma 95.721980
_cell_volume 686.016120
_symmetry_space_group_name_H-M "P -1"
_symmetry_group_IT_number 2
_symmetry_cell_setting 'triclinic'
loop_
_space_group_symop_operation_xyz
x,y,z
-x,-y,-z
loop_
_atom_site_type_symbol
_atom_site_label
_atom_site_fract_x
_atom_site_fract_y
_atom_site_fract_z
Si Si1 0.599336 0.682009 0.363060
Si Si2 0.877412 0.736592 0.631970
Si Si3 0.038875 0.975224 0.859088
Si Si4 0.262894 0.107462 0.399846
Si Si5 0.000000 0.000000 0.500000
Si Si6 0.626882 0.715510 0.864221
Si Si7 0.634640 0.090563 0.546431
Si Si8 0.837850 0.260324 0.007877
O O1 0.332594 0.821486 0.615039
O O2 0.724418 0.773524 0.426177
O O3 0.528491 0.713088 0.302702
O O4 0.766276 0.462077 0.166680
O O5 0.795901 0.787224 0.593372
O O6 0.685304 0.763214 0.787359
O O7 0.931423 0.877986 0.767173
O O8 0.128963 0.505211 0.367812
O O9 0.000000 0.000000 0.000000
O O10 0.902655 0.188957 0.033665
O O11 0.047771 0.103678 0.492970
O O12 0.531188 0.887943 0.111768
O O13 0.713176 0.109069 0.637877
O O14 0.395233 0.722554 0.932585
O O15 0.500000 0.000000 0.500000
O O16 0.911237 0.919157 0.273484
#
# Coordination Sequence:
#
# PCOD9059074 Si02
#       8
#     2   2   2   2   1   2   2   2
#     4  11  25  43  68  99 140 178 229 289 344 421
#     4  11  24  42  68 102 136 181 237 285 343 420
#     4  11  23  40  65  98 137 183 226 283 343 405
#     4  12  24  45  70  99 137 183 229 290 354 411
#     4  12  24  46  74 100 134 186 230 290 352 418
#     4  11  23  42  71  99 139 185 230 288 345 421
#     4  11  24  49  71  98 138 180 236 293 352 419
#     4  11  24  43  69  98 139 184 229 287 352 420
#
# _framework density 21.865373999999999
#
# number of rings (size 3 to 8) (size 9 to 14) (size 15 to 20)
#    0.000    0.800    5.333    2.000    1.867    5.333 
#    0.000    1.333    0.000    0.000    0.000    0.000 
#    0.000    0.000    0.000    0.000    0.000    0.000 
#
# Total GULP energy -83596.855117 kJ/mol
# GULP energy per Si atom -5573.123674 kJ/mol
# Density = 2.181561 g / cm^3
# Si number density = 21.865374 Si / 1000 Ang^3
#
#
#
# Elastic Constant Matrix: (Units=GPa)
#
#
# Indices 1 2 3 4 5 6 
#
# 1 92.2551 20.5802 18.0136 7.5359 -6.2976 7.3176
# 2 20.5802 112.6676 41.0222 25.2853 -1.9084 -4.1500
# 3 18.0136 41.0222 54.6575 30.0952 -10.9913 -0.7986
# 4 7.5359 25.2853 30.0952 35.9846 8.3274 -12.2394
# 5 -6.2976 -1.9084 -10.9913 8.3274 17.9144 -6.1046
# 6 7.3176 -4.1500 -0.7986 -12.2394 -6.1046 49.4444
#
#
#
# Elastic Compliance Matrix: (Units=1/GPa)
#
#
# Indices 1 2 3 4 5 6 
#
# 1 0.011933 -0.001360 -0.000536 -0.002790 0.004321 -0.002046
# 2 -0.001360 0.013079 -0.016198 0.007982 -0.012221 0.001504
# 3 -0.000536 -0.016198 0.137073 -0.141740 0.142427 -0.016567
# 4 -0.002790 0.007982 -0.141740 0.188207 -0.166104 0.024874
# 5 0.004321 -0.012221 0.142427 -0.166104 0.215925 -0.013823
# 6 -0.002046 0.001504 -0.016567 0.024874 -0.013823 0.024837
#
#
# Mechanical properties :
#
#
# Convention : Reuss Voigt Hill
#
# Bulk Modulus (GPa) = 7.94313 46.53467 27.23890
# Shear Modulus (GPa) = 7.47150 32.66632 20.06891
#
# Velocity S-wave (km/s) = 1.85053 3.86939 3.03287
# Velocity P-wave (km/s) = 2.86471 6.42584 4.97484
#
# Compressibility (1/GPa) = 0.12589491
#
# Stress axis : x y z
#
# Youngs Moduli (GPa) = 83.80207 76.45794 7.29537
#
# Poissons Ratio (x) = 0.10401 0.00391
# Poissons Ratio (y) = 0.11400 0.11817
# Poissons Ratio (z) = 0.04496 1.23849
#
# Static dielectric constant tensor:
#      x y z
#    x 1.852760 -0.047610 0.033950 
#    y -0.047610 1.846710 -0.014530 
#    z 0.033950 -0.014530 1.780260 
# 
# From -- ./inp_files/200674.got.cif
#   From: 2010.05.17/outbox.cif.g08.bks.cpg/sg2_101_cif.got.tgz:200674.got - 2010.06.03 11:33:40.
