data_PCOD9059407
_publ_section_title
;
Structure prediction by ZEFSAII (Michael W. Deem and Ramdas Pophale) SiO2 
 PCOD9059407
Probable space group: P -1
;
_chemical_formula_sum "Si O2"
_cell_formula_units_Z 10
_cell_length_a 10.627506
_cell_length_b 10.408852
_cell_length_c 9.138523
_cell_angle_alpha 62.684934
_cell_angle_beta 139.595181
_cell_angle_gamma 139.638746
_cell_volume 406.226034
_symmetry_space_group_name_H-M "P -1"
_symmetry_group_IT_number 2
_symmetry_cell_setting 'triclinic'
loop_
_space_group_symop_operation_xyz
x,y,z
-x,-y,-z
loop_
_atom_site_type_symbol
_atom_site_label
_atom_site_fract_x
_atom_site_fract_y
_atom_site_fract_z
Si Si1 0.168868 0.189386 0.941291
Si Si2 0.235751 0.562776 0.791625
Si Si3 0.757321 0.548428 0.646059
Si Si4 0.680712 0.228953 0.929615
Si Si5 0.055273 0.881256 0.527189
O O1 0.467038 0.281236 0.110634
O O2 0.195677 0.374165 0.904815
O O3 0.978892 0.096837 0.679582
O O4 0.000000 0.000000 0.000000
O O5 0.260305 0.658327 0.921196
O O6 0.000000 0.500000 0.500000
O O7 0.500000 0.500000 0.500000
O O8 0.822397 0.639484 0.493092
O O9 0.063359 0.743883 0.882642
O O10 0.701213 0.356059 0.748516
O O11 0.628650 0.995856 0.230673
O O12 0.000000 0.000000 0.500000
#
# Coordination Sequence:
#
# PCOD9059407 Si02
#       5
#     2   2   2   2   2
#     4  11  27  46  70 101 143 186 228 284 349 413
#     4  11  25  46  68 100 144 183 228 284 351 412
#     4  11  23  41  68 101 137 171 232 284 340 398
#     4  11  25  42  71 102 132 184 231 282 341 409
#     4  12  23  44  71 101 137 178 230 284 338 406
#
# _framework density 24.616837
#
# number of rings (size 3 to 8) (size 9 to 14) (size 15 to 20)
#    0.000    0.800    4.000    1.800    2.800    8.800 
#    0.000    0.000    0.000    0.000    0.000    0.000 
#    0.000    0.000    0.000    0.000    0.000    0.000 
#
# Total GULP energy -55903.259370 kJ/mol
# GULP energy per Si atom -5590.325937 kJ/mol
# Density = 2.456081 g / cm^3
# Si number density = 24.616837 Si / 1000 Ang^3
#
#
#
# Elastic Constant Matrix: (Units=GPa)
#
#
# Indices 1 2 3 4 5 6 
#
# 1 120.7632 83.2068 76.1970 -0.8026 10.7582 27.3391
# 2 83.2068 151.1088 63.1399 -23.3862 -9.3183 42.1385
# 3 76.1970 63.1399 182.3344 2.9925 8.2715 27.7302
# 4 -0.8026 -23.3862 2.9925 63.4560 16.4053 -2.9215
# 5 10.7582 -9.3183 8.2715 16.4053 61.9179 7.7643
# 6 27.3391 42.1385 27.7302 -2.9215 7.7643 55.9750
#
#
#
# Elastic Compliance Matrix: (Units=1/GPa)
#
#
# Indices 1 2 3 4 5 6 
#
# 1 0.016479 -0.007921 -0.004012 -0.001710 -0.003097 0.000242
# 2 -0.007921 0.013907 -0.000733 0.003894 0.003350 -0.006499
# 3 -0.004012 -0.000733 0.007627 -0.000720 -0.000079 -0.001293
# 4 -0.001710 0.003894 -0.000720 0.018178 -0.003804 -0.000264
# 5 -0.003097 0.003350 -0.000079 -0.003804 0.018683 -0.003760
# 6 0.000242 -0.006499 -0.001293 -0.000264 -0.003760 0.023788
#
#
# Mechanical properties :
#
#
# Convention : Reuss Voigt Hill
#
# Bulk Modulus (GPa) = 78.85576 99.92157 89.38866
# Shear Modulus (GPa) = 38.99480 51.71398 45.35439
#
# Velocity S-wave (km/s) = 3.98436 4.58837 4.29699
# Velocity P-wave (km/s) = 7.29860 8.29155 7.81087
#
# Compressibility (1/GPa) = 0.01268138
#
# Stress axis : x y z
#
# Youngs Moduli (GPa) = 60.68177 71.90403 131.11110
#
# Poissons Ratio (x) = 0.56955 0.52603
# Poissons Ratio (y) = 0.48065 0.09615
# Poissons Ratio (z) = 0.24346 0.05273
#
# Static dielectric constant tensor:
#      x y z
#    x 2.075280 -0.108860 -0.015490 
#    y -0.108860 2.085630 -0.072350 
#    z -0.015490 -0.072350 2.081580 
# 
# From -- ./inp_files/251757.got.cif
#   From: 2010.05.17/outbox.cif.g08.bks.cpg/sg2_126_cif.got.tgz:251757.got - 2010.06.03 11:33:40.
