data_PCOD9059367
_publ_section_title
;
Structure prediction by ZEFSAII (Michael W. Deem and Ramdas Pophale) SiO2 
 PCOD9059367
Probable space group: P -1
;
_chemical_formula_sum "Si O2"
_cell_formula_units_Z 16
_cell_length_a 13.902991
_cell_length_b 12.348433
_cell_length_c 14.383800
_cell_angle_alpha 20.228896
_cell_angle_beta 64.292942
_cell_angle_gamma 68.637090
_cell_volume 762.067215
_symmetry_space_group_name_H-M "P -1"
_symmetry_group_IT_number 2
_symmetry_cell_setting 'triclinic'
loop_
_space_group_symop_operation_xyz
x,y,z
-x,-y,-z
loop_
_atom_site_type_symbol
_atom_site_label
_atom_site_fract_x
_atom_site_fract_y
_atom_site_fract_z
Si Si1 0.445351 0.790892 0.106938
Si Si2 0.824231 0.659267 0.828489
Si Si3 0.706672 0.796648 0.270409
Si Si4 0.831076 0.338933 0.474098
Si Si5 0.861313 0.262261 0.959708
Si Si6 0.330599 0.285584 0.004817
Si Si7 0.010898 0.252631 0.612935
Si Si8 0.144953 0.630883 0.765671
O O1 0.367714 0.490280 0.418514
O O2 0.545082 0.694379 0.084417
O O3 0.500000 0.000000 0.000000
O O4 0.371551 0.000635 0.913214
O O5 0.825727 0.391291 0.968487
O O6 0.704308 0.672953 0.907532
O O7 0.863680 0.009588 0.493890
O O8 0.888749 0.586480 0.954911
O O9 0.783725 0.640398 0.292423
O O10 0.775991 0.017178 0.138051
O O11 0.907840 0.218500 0.616758
O O12 0.893208 0.405115 0.295979
O O13 0.734376 0.051421 0.729018
O O14 0.894366 0.568256 0.635278
O O15 0.959860 0.065947 0.097517
O O16 0.268977 0.551576 0.767102
O O17 0.000000 0.500000 0.500000
#
# Coordination Sequence:
#
# PCOD9059367 Si02
#       8
#     2   2   2   2   2   2   2   2
#     4  12  24  40  65 105 131 174 213 278 329 397
#     4   9  21  42  69  89 130 187 211 268 334 375
#     4  12  27  39  68  97 140 167 224 261 344 386
#     4  11  23  41  67 101 131 172 216 280 339 391
#     4  12  26  49  66  96 139 176 223 273 316 406
#     4   9  22  40  68  94 140 161 224 267 338 379
#     4  12  27  43  70  98 134 177 223 267 337 397
#     4   9  20  38  67  91 126 174 214 269 325 381
#
# _framework density 20.995524
#
# number of rings (size 3 to 8) (size 9 to 14) (size 15 to 20)
#    0.750    0.500    2.500    3.000    5.250    0.000 
#    0.000   10.000    0.000    0.000    0.000    0.000 
#    0.000    0.000    0.000    0.000    0.000    0.000 
#
# Total GULP energy -89396.075704 kJ/mol
# GULP energy per Si atom -5587.254731 kJ/mol
# Density = 2.094774 g / cm^3
# Si number density = 20.995524 Si / 1000 Ang^3
#
#
#
# Elastic Constant Matrix: (Units=GPa)
#
#
# Indices 1 2 3 4 5 6 
#
# 1 91.1891 30.0085 33.6988 -9.1346 7.3131 19.2848
# 2 30.0085 122.4114 19.9109 -25.0973 -7.6235 10.6263
# 3 33.6988 19.9109 112.9354 -0.5697 10.0936 12.6238
# 4 -9.1346 -25.0973 -0.5697 43.2049 -1.6716 4.4229
# 5 7.3131 -7.6235 10.0936 -1.6716 40.5010 7.0399
# 6 19.2848 10.6263 12.6238 4.4229 7.0399 22.7017
#
#
#
# Elastic Compliance Matrix: (Units=1/GPa)
#
#
# Indices 1 2 3 4 5 6 
#
# 1 0.015333 -0.001618 -0.003001 0.003398 -0.000241 -0.011187
# 2 -0.001618 0.010835 -0.001116 0.006656 0.003852 -0.005569
# 3 -0.003001 -0.001116 0.010325 -0.001032 -0.001960 -0.001861
# 4 0.003398 0.006656 -0.001032 0.029154 0.004260 -0.012430
# 5 -0.000241 0.003852 -0.001960 0.004260 0.027858 -0.009978
# 6 -0.011187 -0.005569 -0.001861 -0.012430 -0.009978 0.062710
#
#
# Mechanical properties :
#
#
# Convention : Reuss Voigt Hill
#
# Bulk Modulus (GPa) = 39.96167 54.86359 47.41263
# Shear Modulus (GPa) = 28.40490 37.47603 32.94046
#
# Velocity S-wave (km/s) = 3.68217 4.22945 3.96527
# Velocity P-wave (km/s) = 6.09529 7.07382 6.60271
#
# Compressibility (1/GPa) = 0.02502398
#
# Stress axis : x y z
#
# Youngs Moduli (GPa) = 65.21829 92.29064 96.85414
#
# Poissons Ratio (x) = 0.14931 0.29065
# Poissons Ratio (y) = 0.10551 0.10807
# Poissons Ratio (z) = 0.19572 0.10298
#
# Static dielectric constant tensor:
#      x y z
#    x 1.758880 -0.035980 -0.006420 
#    y -0.035980 1.805780 0.041630 
#    z -0.006420 0.041630 1.756270 
# 
# From -- ./inp_files/519463.got.cif
#   From: 2010.05.17/outbox.cif.g08.bks.cpg/sg2_260_cif.got.tgz:519463.got - 2010.06.03 11:33:40.
