data_PCOD9059470
_publ_section_title
;
Structure prediction by ZEFSAII (Michael W. Deem and Ramdas Pophale) SiO2 
 PCOD9059470
Probable space group: P -1
;
_chemical_formula_sum "Si O2"
_cell_formula_units_Z 14
_cell_length_a 9.658303
_cell_length_b 18.723044
_cell_length_c 16.666270
_cell_angle_alpha 158.945168
_cell_angle_beta 35.395498
_cell_angle_gamma 136.748852
_cell_volume 619.499130
_symmetry_space_group_name_H-M "P -1"
_symmetry_group_IT_number 2
_symmetry_cell_setting 'triclinic'
loop_
_space_group_symop_operation_xyz
x,y,z
-x,-y,-z
loop_
_atom_site_type_symbol
_atom_site_label
_atom_site_fract_x
_atom_site_fract_y
_atom_site_fract_z
Si Si1 0.861238 0.699582 0.383032
Si Si2 0.327018 0.269026 0.147310
Si Si3 0.377584 0.334167 0.932501
Si Si4 0.625076 0.053252 0.078210
Si Si5 0.805393 0.024571 0.456704
Si Si6 0.895164 0.266042 0.868956
Si Si7 0.013339 0.670738 0.771203
O O1 0.583791 0.799998 0.620878
O O2 0.890686 0.461719 0.134177
O O3 0.998530 0.836423 0.520208
O O4 0.982002 0.704505 0.243315
O O5 0.614210 0.243240 0.968580
O O6 0.213351 0.500049 0.460255
O O7 0.161780 0.216922 0.096909
O O8 0.298058 0.137477 0.101458
O O9 0.157825 0.428995 0.192099
O O10 0.500000 0.500000 0.000000
O O11 0.280054 0.161654 0.744742
O O12 0.574420 0.198363 0.753349
O O13 0.847228 0.172514 0.085043
O O14 0.500000 0.000000 0.000000
O O15 0.939255 0.916665 0.357225
#
# Coordination Sequence:
#
# PCOD9059470 Si02
#       7
#     2   2   2   2   2   2   2
#     4  11  23  41  69 105 140 178 237 295 353 416
#     4  11  25  46  72 103 144 190 238 293 355 426
#     4  11  26  46  70 102 141 190 238 300 357 427
#     4  12  26  45  72 105 145 192 235 291 361 433
#     4  11  23  42  69 103 138 180 239 293 357 416
#     4  11  23  42  71 104 138 186 240 300 347 423
#     4  11  26  48  69 103 146 189 238 291 362 428
#
# _framework density 22.598901000000001
#
# number of rings (size 3 to 8) (size 9 to 14) (size 15 to 20)
#    0.000    0.857    2.857    3.429    2.000    6.286 
#    0.000    0.000    0.000    0.000    0.000    0.000 
#    0.000    0.000    0.000    0.000    0.000    0.000 
#
# Total GULP energy -78169.315369 kJ/mol
# GULP energy per Si atom -5583.522526 kJ/mol
# Density = 2.254747 g / cm^3
# Si number density = 22.598901 Si / 1000 Ang^3
#
#
#
# Elastic Constant Matrix: (Units=GPa)
#
#
# Indices 1 2 3 4 5 6 
#
# 1 128.3641 61.4361 50.6966 6.9298 -13.8008 19.4017
# 2 61.4361 111.4734 34.9795 -3.3891 -10.7139 19.0955
# 3 50.6966 34.9795 98.8196 2.1116 -21.9573 5.8950
# 4 6.9298 -3.3891 2.1116 44.9407 9.7515 2.9679
# 5 -13.8008 -10.7139 -21.9573 9.7515 39.3467 7.4555
# 6 19.4017 19.0955 5.8950 2.9679 7.4555 34.3693
#
#
#
# Elastic Compliance Matrix: (Units=1/GPa)
#
#
# Indices 1 2 3 4 5 6 
#
# 1 0.012692 -0.004910 -0.003984 -0.002360 0.002241 -0.004036
# 2 -0.004910 0.013180 -0.001585 0.001829 0.001428 -0.004747
# 3 -0.003984 -0.001585 0.014272 -0.001576 0.006644 -0.000623
# 4 -0.002360 0.001829 -0.001576 0.024401 -0.007267 0.000056
# 5 0.002241 0.001428 0.006644 -0.007267 0.033983 -0.009942
# 6 -0.004036 -0.004747 -0.000623 0.000056 -0.009942 0.036270
#
#
# Mechanical properties :
#
#
# Convention : Reuss Voigt Hill
#
# Bulk Modulus (GPa) = 52.12229 70.32015 61.22122
# Shear Modulus (GPa) = 30.83543 36.50098 33.66821
#
# Velocity S-wave (km/s) = 3.69788 4.02327 3.86400
# Velocity P-wave (km/s) = 6.43013 7.26405 6.85977
#
# Compressibility (1/GPa) = 0.01918565
#
# Stress axis : x y z
#
# Youngs Moduli (GPa) = 78.78920 75.87174 70.06894
#
# Poissons Ratio (x) = 0.37251 0.27917
# Poissons Ratio (y) = 0.38683 0.11107
# Poissons Ratio (z) = 0.31392 0.12027
#
# Static dielectric constant tensor:
#      x y z
#    x 1.866740 0.027900 0.047100 
#    y 0.027900 1.844550 0.020690 
#    z 0.047100 0.020690 1.936280 
# 
# From -- ./inp_files/562697.got.cif
#   From: 2010.05.17/outbox.cif.g08.bks.cpg/sg2_282_cif.got.tgz:562697.got - 2010.06.03 11:33:40.
