data_PCOD9059135
_publ_section_title
;
Structure prediction by ZEFSAII (Michael W. Deem and Ramdas Pophale) SiO2 
 PCOD9059135
Probable space group: P -1
;
_chemical_formula_sum "Si O2"
_cell_formula_units_Z 14
_cell_length_a 23.015774
_cell_length_b 11.693227
_cell_length_c 8.815441
_cell_angle_alpha 138.944988
_cell_angle_beta 150.279788
_cell_angle_gamma 27.816697
_cell_volume 547.856349
_symmetry_space_group_name_H-M "P -1"
_symmetry_group_IT_number 2
_symmetry_cell_setting 'triclinic'
loop_
_space_group_symop_operation_xyz
x,y,z
-x,-y,-z
loop_
_atom_site_type_symbol
_atom_site_label
_atom_site_fract_x
_atom_site_fract_y
_atom_site_fract_z
Si Si1 0.271854 0.719622 0.351725
Si Si2 0.740236 0.111619 0.169593
Si Si3 0.114190 0.429200 0.054130
Si Si4 0.661476 0.197696 0.744692
Si Si5 0.512709 0.965843 0.819619
Si Si6 0.564041 0.751955 0.321916
Si Si7 0.108915 0.541512 0.854109
O O1 0.226070 0.832422 0.533739
O O2 0.467131 0.463255 0.556420
O O3 0.267978 0.832999 0.296396
O O4 0.145215 0.688543 0.007709
O O5 0.761428 0.153074 0.081238
O O6 0.542984 0.284384 0.889739
O O7 0.815140 0.837897 0.092802
O O8 0.245931 0.434047 0.410081
O O9 0.030058 0.622706 0.922350
O O10 0.000000 0.500000 0.000000
O O11 0.628367 0.026545 0.530844
O O12 0.474273 0.190399 0.882976
O O13 0.698753 0.720559 0.950398
O O14 0.500000 0.000000 0.000000
O O15 0.500000 0.000000 0.500000
O O16 0.000000 0.500000 0.500000
#
# Coordination Sequence:
#
# PCOD9059135 Si02
#       7
#     2   2   2   2   2   2   2
#     4  10  23  42  65 104 139 174 228 283 353 415
#     4  11  20  42  74  97 133 180 229 292 343 399
#     4  11  24  43  66  99 137 180 237 276 340 413
#     4  10  20  37  67 107 137 166 225 291 347 403
#     4  11  20  35  68 100 127 170 228 275 336 403
#     4  10  17  37  65  95 124 164 222 282 326 387
#     4  11  25  46  64  95 142 178 218 289 350 408
#
# _framework density 25.554144000000001
#
# number of rings (size 3 to 8) (size 9 to 14) (size 15 to 20)
#    0.000    1.429    5.714    2.143    2.000    0.000 
#    2.571    1.429    0.000    0.000    0.000    0.000 
#    0.000    0.000    0.000    0.000    0.000    0.000 
#
# Total GULP energy -77954.592419 kJ/mol
# GULP energy per Si atom -5568.185173 kJ/mol
# Density = 2.549598 g / cm^3
# Si number density = 25.554144 Si / 1000 Ang^3
#
#
#
# Elastic Constant Matrix: (Units=GPa)
#
#
# Indices 1 2 3 4 5 6 
#
# 1 198.9837 22.2554 42.6669 4.3426 -13.5948 19.6350
# 2 22.2554 58.6110 16.8685 8.5395 5.9523 15.8353
# 3 42.6669 16.8685 115.8482 11.3068 6.9866 -2.9843
# 4 4.3426 8.5395 11.3068 24.7939 7.3150 -3.3589
# 5 -13.5948 5.9523 6.9866 7.3150 40.4115 0.4943
# 6 19.6350 15.8353 -2.9843 -3.3589 0.4943 31.3761
#
#
#
# Elastic Compliance Matrix: (Units=1/GPa)
#
#
# Indices 1 2 3 4 5 6 
#
# 1 0.006217 -0.000760 -0.002342 -0.001131 0.002861 -0.003896
# 2 -0.000760 0.022567 -0.002469 -0.007653 -0.001621 -0.011942
# 3 -0.002342 -0.002469 0.010289 -0.002431 -0.001805 0.003458
# 4 -0.001131 -0.007653 -0.002431 0.047816 -0.007606 0.009578
# 5 0.002861 -0.001621 -0.001805 -0.007606 0.027665 -0.002394
# 6 -0.003896 -0.011942 0.003458 0.009578 -0.002394 0.041729
#
#
# Mechanical properties :
#
#
# Convention : Reuss Voigt Hill
#
# Bulk Modulus (GPa) = 35.80099 59.66939 47.73519
# Shear Modulus (GPa) = 28.29097 38.75977 33.52537
#
# Velocity S-wave (km/s) = 3.33092 3.89880 3.62599
# Velocity P-wave (km/s) = 5.36970 6.60821 6.02088
#
# Compressibility (1/GPa) = 0.02793219
#
# Stress axis : x y z
#
# Youngs Moduli (GPa) = 160.84369 44.31253 97.19021
#
# Poissons Ratio (x) = 0.03367 0.22758
# Poissons Ratio (y) = 0.12223 0.23996
# Poissons Ratio (z) = 0.37664 0.10941
#
# Static dielectric constant tensor:
#      x y z
#    x 1.876550 0.007240 0.030050 
#    y 0.007240 2.167780 0.100380 
#    z 0.030050 0.100380 1.910280 
# 
# From -- ./inp_files/346411.got.cif
#   From: 2010.05.17/outbox.cif.g08.bks.cpg/sg2_174_cif.got.tgz:346411.got - 2010.06.03 11:33:40.
