data_PCOD9059115
_publ_section_title
;
Structure prediction by ZEFSAII (Michael W. Deem and Ramdas Pophale) SiO2 
 PCOD9059115
Probable space group: P -1
;
_chemical_formula_sum "Si O2"
_cell_formula_units_Z 13
_cell_length_a 9.611323
_cell_length_b 12.505275
_cell_length_c 19.579565
_cell_angle_alpha 157.468136
_cell_angle_beta 146.560237
_cell_angle_gamma 36.967458
_cell_volume 492.482095
_symmetry_space_group_name_H-M "P -1"
_symmetry_group_IT_number 2
_symmetry_cell_setting 'triclinic'
loop_
_space_group_symop_operation_xyz
x,y,z
-x,-y,-z
loop_
_atom_site_type_symbol
_atom_site_label
_atom_site_fract_x
_atom_site_fract_y
_atom_site_fract_z
Si Si1 0.407961 0.969451 0.868569
Si Si2 0.154093 0.375601 0.226448
Si Si3 0.375607 0.930165 0.589050
Si Si4 0.000000 0.500000 0.000000
Si Si5 0.637453 0.762640 0.365472
Si Si6 0.232419 0.463843 0.938062
Si Si7 0.127294 0.435387 0.412108
O O1 0.651870 0.888615 0.873591
O O2 0.240700 0.715213 0.645584
O O3 0.229883 0.244928 0.935913
O O4 0.500000 0.000000 0.000000
O O5 0.257558 0.657580 0.406556
O O6 0.154049 0.388652 0.314706
O O7 0.878342 0.370250 0.077559
O O8 0.672322 0.818103 0.625496
O O9 0.241701 0.065758 0.544770
O O10 0.332106 0.159493 0.767172
O O11 0.008272 0.484650 0.078766
O O12 0.442443 0.607462 0.150038
O O13 0.823907 0.536432 0.352624
O O14 0.500000 0.000000 0.500000
#
# Coordination Sequence:
#
# PCOD9059115 Si02
#       7
#     2   2   2   1   2   2   2
#     4  11  23  40  67 105 135 174 232 287 337 404
#     4  11  23  45  74 105 137 180 240 290 336 419
#     4  11  25  47  73 102 137 190 232 286 354 402
#     4  12  24  42  72 102 136 180 232 284 352 396
#     4  12  29  46  67 103 147 182 235 287 353 421
#     4  12  25  44  74 102 139 187 232 288 346 424
#     4  11  25  46  72 100 142 181 235 292 339 421
#
# _framework density 26.396899999999999
#
# number of rings (size 3 to 8) (size 9 to 14) (size 15 to 20)
#    0.000    0.615    3.077    5.538    4.308    1.231 
#    2.769    0.000    0.000    0.000    0.000    0.000 
#    0.000    0.000    0.000    0.000    0.000    0.000 
#
# Total GULP energy -72584.470745 kJ/mol
# GULP energy per Si atom -5583.420827 kJ/mol
# Density = 2.633682 g / cm^3
# Si number density = 26.396900 Si / 1000 Ang^3
#
#
#
# Elastic Constant Matrix: (Units=GPa)
#
#
# Indices 1 2 3 4 5 6 
#
# 1 55.1773 -0.9564 125.9306 45.0325 -47.6623 9.1664
# 2 -0.9564 170.1108 35.3772 17.5854 -3.2326 -42.6633
# 3 125.9306 35.3772 -375.5773 -118.8378 9.5478 -143.9129
# 4 45.0325 17.5854 -118.8378 28.1528 6.0389 -39.0874
# 5 -47.6623 -3.2326 9.5478 6.0389 44.6347 13.4326
# 6 9.1664 -42.6633 -143.9129 -39.0874 13.4326 22.5948
#
#
#
# Elastic Compliance Matrix: (Units=1/GPa)
#
#
# Indices 1 2 3 4 5 6 
#
# 1 0.025928 0.002942 0.006204 -0.004642 0.023407 0.012606
# 2 0.002942 0.007998 -0.000392 -0.001800 0.001889 0.007175
# 3 0.006204 -0.000392 0.002268 -0.005357 0.007621 -0.002607
# 4 -0.004642 -0.001800 -0.005357 0.016401 -0.004839 -0.004387
# 5 0.023407 0.001889 0.007621 -0.004839 0.044157 0.007984
# 6 0.012606 0.007175 -0.002607 -0.004387 0.007984 0.023751
#
#
# Mechanical properties :
#
#
# Convention : Reuss Voigt Hill
#
# Bulk Modulus (GPa) = 18.62145 18.93485 18.77815
# Shear Modulus (GPa) = 41.35764 -1.63290 19.86237
#
# Velocity S-wave (km/s) = 3.96253 -0.78736 2.74606
# Velocity P-wave (km/s) = 5.29200 2.52232 4.14532
#
# Compressibility (1/GPa) = 0.05370152
#
# Stress axis : x y z
#
# Youngs Moduli (GPa) = 38.56863 125.03161 440.82911
#
# Poissons Ratio (x) = -0.36781 -2.73489
# Poissons Ratio (y) = -0.11346 0.17283
# Poissons Ratio (z) = -0.23928 0.04902
#
# Static dielectric constant tensor:
#      x y z
#    x 2.312790 0.036410 0.037950 
#    y 0.036410 2.133140 -0.062670 
#    z 0.037950 -0.062670 2.074290 
# 
# From -- ./inp_files/164308.got.cif
#   From: 2010.05.17/outbox.cif.g08.bks.cpg/sg2_83_cif.got.tgz:164308.got - 2010.06.03 11:33:40.
