data_PCOD9059786
_publ_section_title
;
Structure prediction by ZEFSAII (Michael W. Deem and Ramdas Pophale) SiO2 
 PCOD9059786
Probable space group: P -1
;
_chemical_formula_sum "Si O2"
_cell_formula_units_Z 14
_cell_length_a 9.974933
_cell_length_b 10.149369
_cell_length_c 21.726929
_cell_angle_alpha 143.553023
_cell_angle_beta 143.557572
_cell_angle_gamma 42.593894
_cell_volume 751.099949
_symmetry_space_group_name_H-M "P -1"
_symmetry_group_IT_number 2
_symmetry_cell_setting 'triclinic'
loop_
_space_group_symop_operation_xyz
x,y,z
-x,-y,-z
loop_
_atom_site_type_symbol
_atom_site_label
_atom_site_fract_x
_atom_site_fract_y
_atom_site_fract_z
Si Si1 0.137697 0.606486 0.251869
Si Si2 0.195843 0.110402 0.144051
Si Si3 0.322492 0.394338 0.731285
Si Si4 0.560179 0.063231 0.476298
Si Si5 0.086799 0.168440 0.270284
Si Si6 0.632629 0.690764 0.141836
Si Si7 0.831734 0.346829 0.860939
O O1 0.196198 0.350031 0.203041
O O2 0.264893 0.773369 0.397283
O O3 0.219233 0.613350 0.214708
O O4 0.857502 0.688427 0.183158
O O5 0.142483 0.148947 0.210999
O O6 0.442796 0.930499 0.159855
O O7 0.000000 0.000000 0.000000
O O8 0.279207 0.358321 0.773763
O O9 0.587799 0.416497 0.833172
O O10 0.133182 0.616912 0.721106
O O11 0.330467 0.169272 0.608806
O O12 0.316843 0.185020 0.398841
O O13 0.500000 0.000000 0.500000
O O14 0.052680 0.921459 0.185033
O O15 0.500000 0.500000 0.000000
O O16 0.000000 0.500000 0.000000
#
# Coordination Sequence:
#
# PCOD9059786 Si02
#       7
#     2   2   2   2   2   2   2
#     4  12  25  41  70 103 130 178 226 272 339 395
#     4  12  23  43  69 101 137 172 219 279 338 400
#     4  11  23  44  70  93 135 184 216 275 341 389
#     4  11  24  48  66  94 143 173 229 281 321 397
#     4  11  23  44  70  93 135 184 216 275 341 389
#     4  12  23  43  69 101 137 172 219 279 338 400
#     4  11  23  42  68  98 136 173 225 279 333 401
#
# _framework density 18.639332
#
# number of rings (size 3 to 8) (size 9 to 14) (size 15 to 20)
#    0.000    0.571    8.571    1.714    0.000    4.571 
#    0.000    0.000    0.000    0.000    0.000    0.000 
#    0.000    0.000    0.000    0.000    0.000    0.000 
#
# Total GULP energy -78237.920115 kJ/mol
# GULP energy per Si atom -5588.422865 kJ/mol
# Density = 1.859691 g / cm^3
# Si number density = 18.639332 Si / 1000 Ang^3
#
#
#
# Elastic Constant Matrix: (Units=GPa)
#
#
# Indices 1 2 3 4 5 6 
#
# 1 32.8414 10.5772 -20.4508 6.3440 -6.0731 2.7408
# 2 10.5772 140.4684 59.4431 11.9058 6.4837 -3.1166
# 3 -20.4508 59.4431 50.4791 13.6221 3.9681 -31.6453
# 4 6.3440 11.9058 13.6221 31.6026 6.9673 1.2248
# 5 -6.0731 6.4837 3.9681 6.9673 34.2909 -9.4148
# 6 2.7408 -3.1166 -31.6453 1.2248 -9.4148 35.4225
#
#
#
# Elastic Compliance Matrix: (Units=1/GPa)
#
#
# Indices 1 2 3 4 5 6 
#
# 1 0.007456 0.010938 -0.029884 0.009947 -0.007151 -0.028557
# 2 0.010938 0.000991 0.014795 -0.010881 0.006227 0.014490
# 3 -0.029884 0.014795 -0.033410 0.019760 -0.016859 -0.031398
# 4 0.009947 -0.010881 0.019760 0.024469 0.000756 0.015281
# 5 -0.007151 0.006227 -0.016859 0.000756 0.026618 -0.006912
# 6 -0.028557 0.014490 -0.031398 0.015281 -0.006912 0.001300
#
#
# Mechanical properties :
#
#
# Convention : Reuss Voigt Hill
#
# Bulk Modulus (GPa) = -30.06215 35.88087 2.90936
# Shear Modulus (GPa) = 202.94439 31.87781 117.41110
#
# Velocity S-wave (km/s) = 10.44586 4.14000 7.94530
# Velocity P-wave (km/s) = 11.37210 6.49189 9.25930
#
# Compressibility (1/GPa) = -0.03326442
#
# Stress axis : x y z
#
# Youngs Moduli (GPa) = 134.11410 1009.46806 -29.93119
#
# Poissons Ratio (x) = -11.04192 -0.89448
# Poissons Ratio (y) = -1.46699 0.44284
# Poissons Ratio (z) = 4.00792 -14.93546
#
# Static dielectric constant tensor:
#      x y z
#    x 1.621250 -0.001500 -0.014820 
#    y -0.001500 1.635260 -0.004060 
#    z -0.014820 -0.004060 1.648100 
# 
# From -- ./inp_files/179591.got.cif
#   From: 2010.05.17/outbox.cif.g08.bks.cpg/sg2_90_cif.got.tgz:179591.got - 2010.06.03 11:33:40.
