data_PCOD9059739
_publ_section_title
;
Structure prediction by ZEFSAII (Michael W. Deem and Ramdas Pophale) SiO2 
 PCOD9059739
Probable space group: P -1
;
_chemical_formula_sum "Si O2"
_cell_formula_units_Z 14
_cell_length_a 13.619978
_cell_length_b 10.623218
_cell_length_c 18.709694
_cell_angle_alpha 35.214492
_cell_angle_beta 157.121136
_cell_angle_gamma 148.892068
_cell_volume 538.387468
_symmetry_space_group_name_H-M "P -1"
_symmetry_group_IT_number 2
_symmetry_cell_setting 'triclinic'
loop_
_space_group_symop_operation_xyz
x,y,z
-x,-y,-z
loop_
_atom_site_type_symbol
_atom_site_label
_atom_site_fract_x
_atom_site_fract_y
_atom_site_fract_z
Si Si1 0.636204 0.353571 0.894737
Si Si2 0.780013 0.463612 0.661821
Si Si3 0.235586 0.279915 0.078295
Si Si4 0.703532 0.165179 0.625036
Si Si5 0.698789 0.975563 0.042152
Si Si6 0.605434 0.803572 0.340333
Si Si7 0.857293 0.572530 0.305983
O O1 0.725485 0.622114 0.858501
O O2 0.415777 0.284894 0.714385
O O3 0.839465 0.248956 0.044585
O O4 0.491481 0.192949 0.942389
O O5 0.579775 0.269713 0.556553
O O6 0.856959 0.748357 0.565444
O O7 0.635358 0.379530 0.681098
O O8 0.040046 0.400066 0.865873
O O9 0.523210 0.393704 0.171224
O O10 0.168144 0.000067 0.173878
O O11 0.960414 0.405897 0.651003
O O12 0.500000 0.000000 0.500000
O O13 0.496975 0.986883 0.837586
O O14 0.885379 0.845532 0.206413
O O15 0.000000 0.500000 0.500000
#
# Coordination Sequence:
#
# PCOD9059739 Si02
#       7
#     2   2   2   2   2   2   2
#     4   8  17  37  69  90 128 171 223 267 328 386
#     4  11  24  39  64  99 142 171 222 278 338 397
#     4  11  23  43  66 104 133 176 221 279 336 391
#     4  12  25  44  69  94 133 184 227 277 329 404
#     4   8  17  36  67  91 128 171 219 277 314 391
#     4   9  19  41  63  96 132 177 216 274 330 403
#     4  11  23  42  67  98 131 170 232 271 329 397
#
# _framework density 26.003577
#
# number of rings (size 3 to 8) (size 9 to 14) (size 15 to 20)
#    0.857    1.143    1.429    2.143    2.000    1.143 
#    5.143    4.286    0.000    0.000    0.000    0.000 
#    0.000    0.000    0.000    0.000    0.000    0.000 
#
# Total GULP energy -77942.062616 kJ/mol
# GULP energy per Si atom -5567.290187 kJ/mol
# Density = 2.594439 g / cm^3
# Si number density = 26.003577 Si / 1000 Ang^3
#
#
#
# Elastic Constant Matrix: (Units=GPa)
#
#
# Indices 1 2 3 4 5 6 
#
# 1 100.4265 22.3086 18.5302 -5.3652 -11.1747 12.7278
# 2 22.3086 64.3715 17.4381 -27.9939 -0.4531 -1.5562
# 3 18.5302 17.4381 155.9806 -36.3125 -8.7960 27.3361
# 4 -5.3652 -27.9939 -36.3125 51.2360 3.9475 -5.7188
# 5 -11.1747 -0.4531 -8.7960 3.9475 41.7227 -15.9082
# 6 12.7278 -1.5562 27.3361 -5.7188 -15.9082 36.8056
#
#
#
# Elastic Compliance Matrix: (Units=1/GPa)
#
#
# Indices 1 2 3 4 5 6 
#
# 1 0.011705 -0.005037 -0.000742 -0.002566 0.001916 -0.003280
# 2 -0.005037 0.022802 0.000203 0.012597 -0.000635 0.004238
# 3 -0.000742 0.000203 0.008758 0.005675 -0.001113 -0.005839
# 4 -0.002566 0.012597 0.005675 0.030420 -0.001791 0.001158
# 5 0.001916 -0.000635 -0.001113 -0.001791 0.029161 0.012463
# 6 -0.003280 0.004238 -0.005839 0.001158 0.012463 0.038387
#
#
# Mechanical properties :
#
#
# Convention : Reuss Voigt Hill
#
# Bulk Modulus (GPa) = 31.14005 48.59247 39.86626
# Shear Modulus (GPa) = 30.65813 43.45298 37.05555
#
# Velocity S-wave (km/s) = 3.43738 4.09227 3.77904
# Velocity P-wave (km/s) = 5.26834 6.40752 5.86565
#
# Compressibility (1/GPa) = 0.03211298
#
# Stress axis : x y z
#
# Youngs Moduli (GPa) = 85.43158 43.85670 114.18098
#
# Poissons Ratio (x) = 0.22092 0.08470
# Poissons Ratio (y) = 0.43035 -0.02321
# Poissons Ratio (z) = 0.06338 -0.00892
#
# Static dielectric constant tensor:
#      x y z
#    x 2.064260 -0.064390 0.022370 
#    y -0.064390 2.148960 0.094590 
#    z 0.022370 0.094590 2.205330 
# 
# From -- ./inp_files/597702.got.cif
#   From: 2010.05.17/outbox.cif.g08.bks.cpg/sg2_299_cif.got.tgz:597702.got - 2010.06.03 11:33:40.
