data_PCOD9059347
_publ_section_title
;
Structure prediction by ZEFSAII (Michael W. Deem and Ramdas Pophale) SiO2 
 PCOD9059347
Probable space group: P -1
;
_chemical_formula_sum "Si O2"
_cell_formula_units_Z 10
_cell_length_a 14.621784
_cell_length_b 5.521223
_cell_length_c 6.591064
_cell_angle_alpha 70.816763
_cell_angle_beta 51.884899
_cell_angle_gamma 93.636867
_cell_volume 369.140892
_symmetry_space_group_name_H-M "P -1"
_symmetry_group_IT_number 2
_symmetry_cell_setting 'triclinic'
loop_
_space_group_symop_operation_xyz
x,y,z
-x,-y,-z
loop_
_atom_site_type_symbol
_atom_site_label
_atom_site_fract_x
_atom_site_fract_y
_atom_site_fract_z
Si Si1 0.664929 0.021514 0.620331
Si Si2 0.972114 0.666609 0.612823
Si Si3 0.228514 0.182576 0.111908
Si Si4 0.402273 0.442469 0.466667
Si Si5 0.043425 0.738273 0.986449
O O1 0.677205 0.889730 0.855220
O O2 0.581596 0.763158 0.668887
O O3 0.616812 0.274104 0.641153
O O4 0.807149 0.138090 0.306831
O O5 0.821677 0.584314 0.806057
O O6 0.997152 0.369926 0.680682
O O7 0.968556 0.621014 0.897595
O O8 0.095952 0.940762 0.377716
O O9 0.276611 0.253896 0.803531
O O10 0.500000 0.500000 0.500000
O O11 0.000000 0.000000 0.000000
#
# Coordination Sequence:
#
# PCOD9059347 Si02
#       5
#     2   2   2   2   2
#     4  12  26  47  75 104 143 190 241 294 363 422
#     4  11  23  41  66 106 149 183 226 288 354 438
#     4  11  26  44  71 107 144 188 234 291 360 431
#     4  12  29  51  73 103 140 190 253 307 348 411
#     4  12  23  40  67 106 144 180 225 278 351 435
#
# _framework density 27.089925000000001
#
# number of rings (size 3 to 8) (size 9 to 14) (size 15 to 20)
#    0.000    0.400    4.000    4.200    5.600    1.600 
#    0.000    0.000    0.000    0.000    0.000    0.000 
#    0.000    0.000    0.000    0.000    0.000    0.000 
#
# Total GULP energy -55842.095037 kJ/mol
# GULP energy per Si atom -5584.209504 kJ/mol
# Density = 2.702827 g / cm^3
# Si number density = 27.089925 Si / 1000 Ang^3
#
#
#
# Elastic Constant Matrix: (Units=GPa)
#
#
# Indices 1 2 3 4 5 6 
#
# 1 151.1168 74.1339 14.2622 -8.4402 22.2092 -3.0605
# 2 74.1339 143.7122 23.5289 -1.4675 26.6054 8.5870
# 3 14.2622 23.5289 104.0681 -9.9881 27.5988 -14.4139
# 4 -8.4402 -1.4675 -9.9881 42.9783 -5.1465 12.3419
# 5 22.2092 26.6054 27.5988 -5.1465 57.7517 -8.1137
# 6 -3.0605 8.5870 -14.4139 12.3419 -8.1137 71.1717
#
#
#
# Elastic Compliance Matrix: (Units=1/GPa)
#
#
# Indices 1 2 3 4 5 6 
#
# 1 0.009090 -0.004515 0.000357 0.001373 -0.001378 0.000613
# 2 -0.004515 0.010087 -0.001286 -0.000619 -0.002613 -0.001862
# 3 0.000357 -0.001286 0.011474 0.001655 -0.004645 0.001678
# 4 0.001373 -0.000619 0.001655 0.025073 0.000667 -0.003803
# 5 -0.001378 -0.002613 -0.004645 0.000667 0.021561 0.001658
# 6 0.000613 -0.001862 0.001678 -0.003803 0.001658 0.015490
#
#
# Mechanical properties :
#
#
# Convention : Reuss Voigt Hill
#
# Bulk Modulus (GPa) = 50.60111 69.19410 59.89761
# Shear Modulus (GPa) = 45.35131 53.51182 49.43156
#
# Velocity S-wave (km/s) = 4.09602 4.44930 4.27631
# Velocity P-wave (km/s) = 6.41009 7.21061 6.82210
#
# Compressibility (1/GPa) = 0.01976241
#
# Stress axis : x y z
#
# Youngs Moduli (GPa) = 110.00678 99.14035 87.15377
#
# Poissons Ratio (x) = 0.44764 -0.03113
# Poissons Ratio (y) = 0.49671 0.11210
# Poissons Ratio (z) = -0.03929 0.12752
#
# Static dielectric constant tensor:
#      x y z
#    x 1.969130 0.376180 0.116080 
#    y 0.376180 1.375970 -0.014580 
#    z 0.116080 -0.014580 2.162870 
# 
# From -- ./inp_files/229492.got.cif
#   From: 2010.05.17/outbox.cif.g08.bks.cpg/sg2_115_cif.got.tgz:229492.got - 2010.06.03 11:33:40.
