data_PCOD9059401
_publ_section_title
;
Structure prediction by ZEFSAII (Michael W. Deem and Ramdas Pophale) SiO2 
 PCOD9059401
Probable space group: P -1
;
_chemical_formula_sum "Si O2"
_cell_formula_units_Z 16
_cell_length_a 8.734213
_cell_length_b 10.368265
_cell_length_c 22.611046
_cell_angle_alpha 39.341133
_cell_angle_beta 149.716438
_cell_angle_gamma 133.887052
_cell_volume 652.519816
_symmetry_space_group_name_H-M "P -1"
_symmetry_group_IT_number 2
_symmetry_cell_setting 'triclinic'
loop_
_space_group_symop_operation_xyz
x,y,z
-x,-y,-z
loop_
_atom_site_type_symbol
_atom_site_label
_atom_site_fract_x
_atom_site_fract_y
_atom_site_fract_z
Si Si1 0.272069 0.885010 0.101961
Si Si2 0.715149 0.208235 0.073515
Si Si3 0.820715 0.160364 0.445581
Si Si4 0.517306 0.960881 0.277896
Si Si5 0.228010 0.691320 0.493477
Si Si6 0.900251 0.561882 0.777529
Si Si7 0.175255 0.937448 0.275496
Si Si8 0.334490 0.584899 0.802740
O O1 0.498829 0.874876 0.236745
O O2 0.165024 0.652775 0.133594
O O3 0.453482 0.030151 0.064400
O O4 0.000000 0.000000 0.000000
O O5 0.912107 0.278682 0.172901
O O6 0.554801 0.406807 0.929813
O O7 0.945870 0.113386 0.139040
O O8 0.779806 0.179680 0.495141
O O9 0.811480 0.355864 0.329649
O O10 0.144715 0.073196 0.575829
O O11 0.515345 0.028863 0.372182
O O12 0.239997 0.853904 0.261866
O O13 0.491795 0.204324 0.188537
O O14 0.577867 0.638237 0.623008
O O15 0.101097 0.786593 0.358037
O O16 0.000000 0.500000 0.500000
O O17 0.098236 0.527277 0.797326
#
# Coordination Sequence:
#
# PCOD9059401 Si02
#       8
#     2   2   2   2   2   2   2   2
#     4  12  25  45  70 104 139 179 227 279 339 406
#     4  12  24  46  69 102 137 183 230 274 345 408
#     4  11  23  43  68 100 135 174 230 282 338 405
#     4  11  23  43  70 102 135 177 228 282 341 402
#     4  12  25  43  67 102 135 176 228 284 344 404
#     4  12  23  43  72 101 135 181 227 281 338 406
#     4  11  24  43  70  99 136 176 224 288 338 401
#     4  11  23  41  68 100 134 177 230 277 338 410
#
# _framework density 24.520327000000002
#
# number of rings (size 3 to 8) (size 9 to 14) (size 15 to 20)
#    0.000    0.500    3.750    6.750    0.000    3.000 
#    2.250    3.125    0.000    0.000    0.000    0.000 
#    0.000    0.000    0.000    0.000    0.000    0.000 
#
# Total GULP energy -89576.539194 kJ/mol
# GULP energy per Si atom -5598.533700 kJ/mol
# Density = 2.446452 g / cm^3
# Si number density = 24.520327 Si / 1000 Ang^3
#
#
#
# Elastic Constant Matrix: (Units=GPa)
#
#
# Indices 1 2 3 4 5 6 
#
# 1 75.9435 19.1381 26.9202 -8.0630 9.8954 14.6357
# 2 19.1381 80.9135 13.1733 -6.7861 -8.1500 15.4004
# 3 26.9202 13.1733 135.8639 -2.6372 16.5510 15.8928
# 4 -8.0630 -6.7861 -2.6372 36.2297 7.5896 -4.5688
# 5 9.8954 -8.1500 16.5510 7.5896 41.7367 4.6210
# 6 14.6357 15.4004 15.8928 -4.5688 4.6210 28.1893
#
#
#
# Elastic Compliance Matrix: (Units=1/GPa)
#
#
# Indices 1 2 3 4 5 6 
#
# 1 0.016259 -0.002739 -0.001889 0.003138 -0.003684 -0.004768
# 2 -0.002739 0.014939 -0.000625 0.000298 0.004545 -0.007084
# 3 -0.001889 -0.000625 0.008484 0.000285 -0.002762 -0.002962
# 4 0.003138 0.000298 0.000285 0.030306 -0.006760 0.004067
# 5 -0.003684 0.004545 -0.002762 -0.006760 0.028576 -0.004793
# 6 -0.004768 -0.007084 -0.002962 0.004067 -0.004793 0.044935
#
#
# Mechanical properties :
#
#
# Convention : Reuss Voigt Hill
#
# Bulk Modulus (GPa) = 34.27243 45.68715 39.97979
# Shear Modulus (GPa) = 30.53810 36.79709 33.66760
#
# Velocity S-wave (km/s) = 3.53288 3.87806 3.70949
# Velocity P-wave (km/s) = 5.53617 6.22296 5.88958
#
# Compressibility (1/GPa) = 0.02917797
#
# Stress axis : x y z
#
# Youngs Moduli (GPa) = 61.50283 66.93679 117.87349
#
# Poissons Ratio (x) = 0.18331 0.22263
# Poissons Ratio (y) = 0.16843 0.07368
# Poissons Ratio (z) = 0.11616 0.04184
#
# Static dielectric constant tensor:
#      x y z
#    x 2.522440 -0.297890 -0.209200 
#    y -0.297890 2.116340 0.073440 
#    z -0.209200 0.073440 2.011480 
# 
# From -- ./inp_files/350031.got.cif
#   From: 2010.05.17/outbox.cif.g08.bks.cpg/sg2_176_cif.got.tgz:350031.got - 2010.06.03 11:33:40.
