data_PCOD9059435
_publ_section_title
;
Structure prediction by ZEFSAII (Michael W. Deem and Ramdas Pophale) SiO2 
 PCOD9059435
Probable space group: P -1
;
_chemical_formula_sum "Si O2"
_cell_formula_units_Z 16
_cell_length_a 6.771387
_cell_length_b 16.567017
_cell_length_c 9.463009
_cell_angle_alpha 120.743573
_cell_angle_beta 92.963269
_cell_angle_gamma 55.058591
_cell_volume 702.766160
_symmetry_space_group_name_H-M "P -1"
_symmetry_group_IT_number 2
_symmetry_cell_setting 'triclinic'
loop_
_space_group_symop_operation_xyz
x,y,z
-x,-y,-z
loop_
_atom_site_type_symbol
_atom_site_label
_atom_site_fract_x
_atom_site_fract_y
_atom_site_fract_z
Si Si1 0.779460 0.285343 0.314132
Si Si2 0.128980 0.909830 0.639446
Si Si3 0.093844 0.134165 0.920234
Si Si4 0.883174 0.325522 0.848584
Si Si5 0.354788 0.232963 0.596624
Si Si6 0.229908 0.503692 0.500308
Si Si7 0.622491 0.558615 0.235766
Si Si8 0.401859 0.021903 0.354043
O O1 0.778053 0.200935 0.350898
O O2 0.484397 0.380948 0.332367
O O3 0.836851 0.373532 0.452607
O O4 0.983773 0.200333 0.124287
O O5 0.333946 0.856027 0.471606
O O6 0.847790 0.964493 0.635588
O O7 0.106126 0.018042 0.807949
O O8 0.913209 0.233424 0.881132
O O9 0.380558 0.078872 0.835302
O O10 0.671744 0.361505 0.755955
O O11 0.162864 0.262873 0.740900
O O12 0.781454 0.449546 0.032614
O O13 0.287995 0.360617 0.677606
O O14 0.324707 0.151468 0.420912
O O15 0.320392 0.498447 0.659152
O O16 0.000000 0.500000 0.500000
O O17 0.500000 0.000000 0.500000
#
# Coordination Sequence:
#
# PCOD9059435 Si02
#       8
#     2   2   2   2   2   2   2   2
#     4  11  25  49  67  98 137 177 233 279 328 405
#     4  11  26  43  70  98 134 183 223 277 338 402
#     4  11  25  44  68  99 136 176 227 280 339 398
#     4  11  24  44  70 104 137 173 226 283 344 404
#     4  11  23  41  68  97 138 171 224 272 342 403
#     4  11  26  45  72 100 135 184 229 275 339 400
#     4  11  24  45  69 102 135 178 223 287 341 399
#     4  11  25  42  65 101 133 177 225 275 338 403
#
# _framework density 22.767175000000002
#
# number of rings (size 3 to 8) (size 9 to 14) (size 15 to 20)
#    0.000    1.000    3.750    1.500    3.500    3.500 
#    2.250    0.000    0.000    0.000    0.000    0.000 
#    0.000    0.000    0.000    0.000    0.000    0.000 
#
# Total GULP energy -89341.774504 kJ/mol
# GULP energy per Si atom -5583.860907 kJ/mol
# Density = 2.271536 g / cm^3
# Si number density = 22.767175 Si / 1000 Ang^3
#
#
#
# Elastic Constant Matrix: (Units=GPa)
#
#
# Indices 1 2 3 4 5 6 
#
# 1 162.0801 44.9659 52.7149 12.1325 -27.4013 2.5245
# 2 44.9659 120.4237 31.5438 16.6645 -0.2576 17.4729
# 3 52.7149 31.5438 121.9844 23.2448 -33.6522 -2.1608
# 4 12.1325 16.6645 23.2448 37.5209 2.3442 3.7482
# 5 -27.4013 -0.2576 -33.6522 2.3442 34.7826 8.7080
# 6 2.5245 17.4729 -2.1608 3.7482 8.7080 29.9323
#
#
#
# Elastic Compliance Matrix: (Units=1/GPa)
#
#
# Indices 1 2 3 4 5 6 
#
# 1 0.008302 -0.002504 -0.001181 -0.001111 0.005662 -0.000832
# 2 -0.002504 0.010833 -0.002113 -0.002009 -0.002477 -0.005293
# 3 -0.001181 -0.002113 0.014781 -0.008655 0.014091 -0.000615
# 4 -0.001111 -0.002009 -0.008655 0.034011 -0.011487 -0.000275
# 5 0.005662 -0.002477 0.014091 -0.011487 0.050415 -0.011243
# 6 -0.000832 -0.005293 -0.000615 -0.000275 -0.011243 0.039830
#
#
# Mechanical properties :
#
#
# Convention : Reuss Voigt Hill
#
# Bulk Modulus (GPa) = 44.80527 73.65970 59.23248
# Shear Modulus (GPa) = 28.21550 38.79805 33.50678
#
# Velocity S-wave (km/s) = 3.52420 4.13258 3.84045
# Velocity P-wave (km/s) = 6.02349 7.42931 6.76303
#
# Compressibility (1/GPa) = 0.02231880
#
# Stress axis : x y z
#
# Youngs Moduli (GPa) = 120.45314 92.30773 67.65659
#
# Poissons Ratio (x) = 0.23114 0.07991
# Poissons Ratio (y) = 0.30161 0.14299
# Poissons Ratio (z) = 0.14227 0.19509
#
# Static dielectric constant tensor:
#      x y z
#    x 1.844900 -0.004560 -0.006680 
#    y -0.004560 1.937710 0.029660 
#    z -0.006680 0.029660 1.832940 
# 
# From -- ./inp_files/369099.got.cif
#   From: 2010.05.17/outbox.cif.g08.bks.cpg/sg2_185_cif.got.tgz:369099.got - 2010.06.03 11:33:40.
