data_PCOD9059942
_publ_section_title
;
Structure prediction by ZEFSAII (Michael W. Deem and Ramdas Pophale) SiO2 
 PCOD9059942
Probable space group: P -1
;
_chemical_formula_sum "Si O2"
_cell_formula_units_Z 16
_cell_length_a 12.790448
_cell_length_b 15.695389
_cell_length_c 5.718128
_cell_angle_alpha 59.399488
_cell_angle_beta 107.373992
_cell_angle_gamma 139.503651
_cell_volume 633.551475
_symmetry_space_group_name_H-M "P -1"
_symmetry_group_IT_number 2
_symmetry_cell_setting 'triclinic'
loop_
_space_group_symop_operation_xyz
x,y,z
-x,-y,-z
loop_
_atom_site_type_symbol
_atom_site_label
_atom_site_fract_x
_atom_site_fract_y
_atom_site_fract_z
Si Si1 0.920000 0.550554 0.326085
Si Si2 0.582302 0.306425 0.667718
Si Si3 0.465139 0.289101 0.195832
Si Si4 0.989804 0.841418 0.635666
Si Si5 0.877338 0.883874 0.884089
Si Si6 0.931336 0.300205 0.290909
Si Si7 0.580424 0.156609 0.248885
Si Si8 0.359170 0.462796 0.318465
O O1 0.729758 0.407902 0.440600
O O2 0.000000 0.500000 0.500000
O O3 0.990312 0.654812 0.459546
O O4 0.960864 0.601236 0.009791
O O5 0.433228 0.252786 0.500932
O O6 0.641564 0.426992 0.725101
O O7 0.557265 0.181115 0.932489
O O8 0.311490 0.228051 0.034854
O O9 0.506544 0.204239 0.260613
O O10 0.588188 0.465326 0.004754
O O11 0.927324 0.813105 0.900132
O O12 0.817311 0.707534 0.570676
O O13 0.110474 0.837561 0.631118
O O14 0.092125 0.007488 0.429977
O O15 0.000000 0.000000 0.000000
O O16 0.774846 0.266933 0.245951
O O17 0.500000 0.000000 0.500000
O O18 0.500000 0.500000 0.500000
#
# Coordination Sequence:
#
# PCOD9059942 Si02
#       8
#     2   2   2   2   2   2   2   2
#     4  12  24  43  74 108 156 188 252 309 386 449
#     4  11  24  43  72 107 148 197 245 322 383 457
#     4  11  25  46  72 106 148 194 255 313 392 460
#     4  11  25  44  69 107 143 191 257 309 383 454
#     4  11  26  47  72  99 146 197 251 316 383 459
#     4  12  26  45  75 112 148 206 249 319 380 464
#     4  11  26  47  69 104 152 204 260 303 382 463
#     4  11  23  42  71 107 144 185 247 315 386 456
#
# _framework density 25.254460000000002
#
# number of rings (size 3 to 8) (size 9 to 14) (size 15 to 20)
#    0.000    0.750    2.500    4.125    3.500    7.500 
#    2.250    0.000    0.000    0.000    0.000    0.000 
#    0.000    0.000    0.000    0.000    0.000    0.000 
#
# Total GULP energy -89115.664981 kJ/mol
# GULP energy per Si atom -5569.729061 kJ/mol
# Density = 2.519698 g / cm^3
# Si number density = 25.254460 Si / 1000 Ang^3
#
#
#
# Elastic Constant Matrix: (Units=GPa)
#
#
# Indices 1 2 3 4 5 6 
#
# 1 93.5744 26.8235 12.8616 8.6218 -3.8743 -22.4125
# 2 26.8235 83.2191 30.7831 10.6058 -13.8796 4.5889
# 3 12.8616 30.7831 131.2788 -6.1968 0.5204 19.0845
# 4 8.6218 10.6058 -6.1968 45.2295 4.4652 1.2011
# 5 -3.8743 -13.8796 0.5204 4.4652 30.1062 7.0041
# 6 -22.4125 4.5889 19.0845 1.2011 7.0041 43.9092
#
#
#
# Elastic Compliance Matrix: (Units=1/GPa)
#
#
# Indices 1 2 3 4 5 6 
#
# 1 0.014506 -0.004624 -0.001733 -0.001956 -0.002043 0.009020
# 2 -0.004624 0.016920 -0.003164 -0.004285 0.008837 -0.004046
# 3 -0.001733 -0.003164 0.009307 0.002583 -0.001183 -0.004481
# 4 -0.001956 -0.004285 0.002583 0.024428 -0.005556 -0.001455
# 5 -0.002043 0.008837 -0.001183 -0.005556 0.039645 -0.007624
# 6 0.009020 -0.004046 -0.004481 -0.001455 -0.007624 0.031005
#
#
# Mechanical properties :
#
#
# Convention : Reuss Voigt Hill
#
# Bulk Modulus (GPa) = 46.09682 49.88985 47.99334
# Shear Modulus (GPa) = 30.84856 39.68925 35.26891
#
# Velocity S-wave (km/s) = 3.49880 3.96861 3.74109
# Velocity P-wave (km/s) = 5.88343 6.38730 6.14053
#
# Compressibility (1/GPa) = 0.02169347
#
# Stress axis : x y z
#
# Youngs Moduli (GPa) = 68.93546 59.10148 107.44646
#
# Poissons Ratio (x) = 0.27327 0.18615
# Poissons Ratio (y) = 0.31874 0.33992
# Poissons Ratio (z) = 0.11943 0.18698
#
# Static dielectric constant tensor:
#      x y z
#    x 2.036310 -0.299500 -0.190080 
#    y -0.299500 1.623750 0.062050 
#    z -0.190080 0.062050 2.311150 
# 
# From -- ./inp_files/97595.got.cif
#   From: 2010.05.17/outbox.cif.g08.bks.cpg/sg2_49_cif.got.tgz:97595.got - 2010.06.03 11:33:40.
