data_PCOD9059866
_publ_section_title
;
Structure prediction by ZEFSAII (Michael W. Deem and Ramdas Pophale) SiO2 
 PCOD9059866
Probable space group: P -1
;
_chemical_formula_sum "Si O2"
_cell_formula_units_Z 14
_cell_length_a 11.895107
_cell_length_b 18.064506
_cell_length_c 6.838760
_cell_angle_alpha 43.313172
_cell_angle_beta 54.847533
_cell_angle_gamma 38.618235
_cell_volume 629.069144
_symmetry_space_group_name_H-M "P -1"
_symmetry_group_IT_number 2
_symmetry_cell_setting 'triclinic'
loop_
_space_group_symop_operation_xyz
x,y,z
-x,-y,-z
loop_
_atom_site_type_symbol
_atom_site_label
_atom_site_fract_x
_atom_site_fract_y
_atom_site_fract_z
Si Si1 0.590366 0.316409 0.073029
Si Si2 0.090714 0.838304 0.208208
Si Si3 0.998548 0.680408 0.148992
Si Si4 0.672667 0.357957 0.305172
Si Si5 0.238456 0.108631 0.703089
Si Si6 0.543148 0.798204 0.857748
Si Si7 0.876271 0.559307 0.204200
O O1 0.584528 0.324337 0.297345
O O2 0.521527 0.245053 0.170842
O O3 0.796927 0.226639 0.977683
O O4 0.473076 0.477770 0.809628
O O5 0.238675 0.747108 0.401461
O O6 0.931712 0.832076 0.379218
O O7 0.000000 0.000000 0.000000
O O8 0.844335 0.831718 0.113297
O O9 0.916242 0.642187 0.142141
O O10 0.075435 0.567451 0.466184
O O11 0.162119 0.661506 0.924013
O O12 0.337241 0.166280 0.422418
O O13 0.378508 0.939690 0.861583
O O14 0.672559 0.666139 0.125591
O O15 0.000000 0.500000 0.000000
#
# Coordination Sequence:
#
# PCOD9059866 Si02
#       7
#     2   2   2   2   2   2   2
#     4  11  25  46  70 106 138 185 237 292 353 419
#     4  12  25  50  71  99 142 193 233 288 355 420
#     4  11  24  43  71 107 135 185 240 284 355 419
#     4  11  26  44  74 104 139 183 243 294 346 423
#     4  11  24  45  68 104 141 182 236 278 355 423
#     4  11  24  44  71 102 145 183 228 296 348 419
#     4  11  23  42  70 102 144 185 227 295 351 414
#
# _framework density 22.255106000000001
#
# number of rings (size 3 to 8) (size 9 to 14) (size 15 to 20)
#    0.000    0.857    4.286    2.143    4.000    3.429 
#    0.000    0.000    0.000    0.000    0.000    0.000 
#    0.000    0.000    0.000    0.000    0.000    0.000 
#
# Total GULP energy -78385.546072 kJ/mol
# GULP energy per Si atom -5598.967577 kJ/mol
# Density = 2.220445 g / cm^3
# Si number density = 22.255106 Si / 1000 Ang^3
#
#
#
# Elastic Constant Matrix: (Units=GPa)
#
#
# Indices 1 2 3 4 5 6 
#
# 1 120.2786 37.1423 3.1082 -6.5067 -4.3743 14.8656
# 2 37.1423 166.8493 5.0635 -1.6338 -1.2931 14.4339
# 3 3.1082 5.0635 27.4140 7.1724 -0.2608 11.7503
# 4 -6.5067 -1.6338 7.1724 22.2966 -7.0200 -0.6264
# 5 -4.3743 -1.2931 -0.2608 -7.0200 31.5953 1.0011
# 6 14.8656 14.4339 11.7503 -0.6264 1.0011 38.8435
#
#
#
# Elastic Compliance Matrix: (Units=1/GPa)
#
#
# Indices 1 2 3 4 5 6 
#
# 1 0.009488 -0.001806 -0.000373 0.003327 0.002066 -0.002847
# 2 -0.001806 0.006548 -0.000303 0.000027 0.000074 -0.001652
# 3 -0.000373 -0.000303 0.046934 -0.016540 -0.002904 -0.014134
# 4 0.003327 0.000027 -0.016540 0.055184 0.012450 0.004289
# 5 0.002066 0.000074 -0.002904 0.012450 0.034702 -0.000633
# 6 -0.002847 -0.001652 -0.014134 0.004289 -0.000633 0.031809
#
#
# Mechanical properties :
#
#
# Convention : Reuss Voigt Hill
#
# Bulk Modulus (GPa) = 17.23924 45.01889 31.12906
# Shear Modulus (GPa) = 23.92749 36.49561 30.21155
#
# Velocity S-wave (km/s) = 3.28250 4.05393 3.68844
# Velocity P-wave (km/s) = 4.70419 6.49499 5.67073
#
# Compressibility (1/GPa) = 0.05800719
#
# Stress axis : x y z
#
# Youngs Moduli (GPa) = 105.39236 152.70881 21.30647
#
# Poissons Ratio (x) = 0.27579 0.00794
# Poissons Ratio (y) = 0.19034 0.00646
# Poissons Ratio (z) = 0.03928 0.04629
#
# Static dielectric constant tensor:
#      x y z
#    x 1.837160 0.002140 -0.012910 
#    y 0.002140 1.794700 0.009180 
#    z -0.012910 0.009180 1.800550 
# 
# From -- ./inp_files/77957.got.cif
#   From: 2010.05.17/outbox.cif.g08.bks.cpg/sg2_39_cif.got.tgz:77957.got - 2010.06.03 11:33:40.
