data_PCOD9059939
_publ_section_title
;
Structure prediction by ZEFSAII (Michael W. Deem and Ramdas Pophale) SiO2 
 PCOD9059939
Probable space group: P -1
;
_chemical_formula_sum "Si O2"
_cell_formula_units_Z 15
_cell_length_a 9.299857
_cell_length_b 13.827867
_cell_length_c 7.799234
_cell_angle_alpha 36.724347
_cell_angle_beta 72.562152
_cell_angle_gamma 75.537623
_cell_volume 572.093007
_symmetry_space_group_name_H-M "P -1"
_symmetry_group_IT_number 2
_symmetry_cell_setting 'triclinic'
loop_
_space_group_symop_operation_xyz
x,y,z
-x,-y,-z
loop_
_atom_site_type_symbol
_atom_site_label
_atom_site_fract_x
_atom_site_fract_y
_atom_site_fract_z
Si Si1 0.757788 0.977435 0.963856
Si Si2 0.506772 0.808721 0.103478
Si Si3 0.493689 0.807999 0.729726
Si Si4 0.168016 0.845720 0.791840
Si Si5 0.021937 0.180566 0.417765
Si Si6 0.824562 0.453761 0.610603
Si Si7 0.500000 0.500000 0.500000
Si Si8 0.222672 0.323999 0.386314
O O1 0.627219 0.066367 0.994033
O O2 0.661731 0.895139 0.962466
O O3 0.823131 0.827312 0.260865
O O4 0.882453 0.097367 0.682120
O O5 0.483451 0.645019 0.446908
O O6 0.501852 0.722403 0.038683
O O7 0.329558 0.803892 0.712752
O O8 0.621882 0.731814 0.677686
O O9 0.500000 0.000000 0.500000
O O10 0.034860 0.790595 0.794756
O O11 0.145622 0.034495 0.567944
O O12 0.168302 0.741181 0.111825
O O13 0.094947 0.327246 0.281832
O O14 0.696427 0.507335 0.445883
O O15 0.765705 0.521652 0.718843
O O16 0.000000 0.500000 0.500000
#
# Coordination Sequence:
#
# PCOD9059939 Si02
#       8
#     2   2   2   2   2   2   1   2
#     4  11  23  42  71 106 140 183 251 299 352 436
#     4  11  24  42  71 102 141 190 238 299 369 426
#     4  12  22  44  71 103 146 182 238 301 353 442
#     4  11  25  46  70 104 147 193 235 300 373 424
#     4  11  25  42  73 106 143 187 244 300 363 432
#     4  12  29  52  74 108 151 191 248 306 367 440
#     4  12  26  48  72 108 140 196 238 294 378 426
#     4  12  26  44  73 107 140 193 243 297 370 429
#
# _framework density 26.219511000000001
#
# number of rings (size 3 to 8) (size 9 to 14) (size 15 to 20)
#    0.000    0.533    5.333    2.000    5.600    1.067 
#    2.400    0.000    0.000    0.000    0.000    0.000 
#    0.000    0.000    0.000    0.000    0.000    0.000 
#
# Total GULP energy -83703.018935 kJ/mol
# GULP energy per Si atom -5580.201262 kJ/mol
# Density = 2.615983 g / cm^3
# Si number density = 26.219511 Si / 1000 Ang^3
#
#
#
# Elastic Constant Matrix: (Units=GPa)
#
#
# Indices 1 2 3 4 5 6 
#
# 1 190.3592 45.3108 24.7244 -3.6011 1.3275 -5.8992
# 2 45.3108 99.1934 10.4041 2.9278 -3.7310 -6.5683
# 3 24.7244 10.4041 35.2946 -8.6848 8.1164 -6.2932
# 4 -3.6011 2.9278 -8.6848 31.5553 -3.8495 -5.8031
# 5 1.3275 -3.7310 8.1164 -3.8495 39.6356 4.0887
# 6 -5.8992 -6.5683 -6.2932 -5.8031 4.0887 45.6935
#
#
#
# Elastic Compliance Matrix: (Units=1/GPa)
#
#
# Indices 1 2 3 4 5 6 
#
# 1 0.006334 -0.002484 -0.003820 -0.000076 0.000340 -0.000106
# 2 -0.002484 0.011606 -0.002299 -0.001694 0.001411 0.000690
# 3 -0.003820 -0.002299 0.036990 0.010210 -0.007313 0.006222
# 4 -0.000076 -0.001694 0.010210 0.035764 0.000644 0.005637
# 5 0.000340 0.001411 -0.007313 0.000644 0.027233 -0.003116
# 6 -0.000106 0.000690 0.006222 0.005637 -0.003116 0.023822
#
#
# Mechanical properties :
#
#
# Convention : Reuss Voigt Hill
#
# Bulk Modulus (GPa) = 26.50944 53.96954 40.23949
# Shear Modulus (GPa) = 29.14921 39.67073 34.40997
#
# Velocity S-wave (km/s) = 3.33789 3.89398 3.62661
# Velocity P-wave (km/s) = 4.99879 6.39108 5.73732
#
# Compressibility (1/GPa) = 0.03772241
#
# Stress axis : x y z
#
# Youngs Moduli (GPa) = 157.88589 86.16160 27.03407
#
# Poissons Ratio (x) = 0.21407 0.10327
# Poissons Ratio (y) = 0.39226 0.06216
# Poissons Ratio (z) = 0.60315 0.19811
#
# Static dielectric constant tensor:
#      x y z
#    x 2.030550 0.021280 -0.108160 
#    y 0.021280 2.020640 0.100610 
#    z -0.108160 0.100610 1.627610 
# 
# From -- ./inp_files/198948.got.cif
#   From: 2010.05.17/outbox.cif.g08.bks.cpg/sg2_100_cif.got.tgz:198948.got - 2010.06.03 11:33:40.
