data_PCOD9059257
_publ_section_title
;
Structure prediction by ZEFSAII (Michael W. Deem and Ramdas Pophale) SiO2 
 PCOD9059257
Probable space group: P -1
;
_chemical_formula_sum "Si O2"
_cell_formula_units_Z 16
_cell_length_a 5.378639
_cell_length_b 6.308912
_cell_length_c 25.573877
_cell_angle_alpha 93.113785
_cell_angle_beta 127.462111
_cell_angle_gamma 101.506263
_cell_volume 657.547635
_symmetry_space_group_name_H-M "P -1"
_symmetry_group_IT_number 2
_symmetry_cell_setting 'triclinic'
loop_
_space_group_symop_operation_xyz
x,y,z
-x,-y,-z
loop_
_atom_site_type_symbol
_atom_site_label
_atom_site_fract_x
_atom_site_fract_y
_atom_site_fract_z
Si Si1 0.932450 0.730613 0.470485
Si Si2 0.150809 0.075223 0.303661
Si Si3 0.639323 0.312458 0.287892
Si Si4 0.353521 0.353573 0.930209
Si Si5 0.891591 0.934196 0.926228
Si Si6 0.592380 0.859754 0.162722
Si Si7 0.844232 0.551704 0.844929
Si Si8 0.213641 0.737099 0.391610
O O1 0.535714 0.661618 0.420724
O O2 0.000000 0.500000 0.500000
O O3 0.133087 0.762989 0.442164
O O4 0.000000 0.000000 0.500000
O O5 0.485184 0.227949 0.323383
O O6 0.862299 0.173738 0.288621
O O7 0.244042 0.951678 0.363120
O O8 0.967789 0.922266 0.229174
O O9 0.324253 0.323673 0.214753
O O10 0.890393 0.554566 0.327500
O O11 0.552141 0.270838 0.910996
O O12 0.172999 0.493211 0.873285
O O13 0.500000 0.500000 0.000000
O O14 0.116714 0.127314 0.920888
O O15 0.932140 0.701941 0.910161
O O16 0.525309 0.926605 0.861746
O O17 0.000000 0.000000 0.000000
O O18 0.406310 0.689500 0.180319
#
# Coordination Sequence:
#
# PCOD9059257 Si02
#       8
#     2   2   2   2   2   2   2   2
#     4  12  30  55  89 128 176 228 275 334 397 478
#     4  12  27  46  77 114 157 201 265 327 398 477
#     4  12  27  46  78 114 155 207 260 327 404 474
#     4  11  25  40  63  92 130 183 249 323 392 478
#     4  11  23  41  61  89 128 182 245 308 389 472
#     4  11  24  42  64  96 139 182 247 322 393 466
#     4  11  24  42  64  97 137 185 246 318 398 465
#     4  12  28  52  84 120 169 212 271 328 394 479
#
# _framework density 24.332839
#
# number of rings (size 3 to 8) (size 9 to 14) (size 15 to 20)
#    0.000    0.500    2.500    4.500    8.750    7.000 
#    0.000    0.000    0.000    0.000    0.000    0.000 
#    0.000    0.000    0.000    0.000    0.000    0.000 
#
# Total GULP energy -89233.975738 kJ/mol
# GULP energy per Si atom -5577.123484 kJ/mol
# Density = 2.427746 g / cm^3
# Si number density = 24.332839 Si / 1000 Ang^3
#
#
#
# Elastic Constant Matrix: (Units=GPa)
#
#
# Indices 1 2 3 4 5 6 
#
# 1 109.3032 42.3939 28.2591 -31.8806 -6.0787 7.3864
# 2 42.3939 109.3767 26.1029 -28.1309 -9.4617 3.0866
# 3 28.2591 26.1029 62.2875 -27.0614 -5.2555 -5.4899
# 4 -31.8806 -28.1309 -27.0614 45.9092 0.7765 -0.2509
# 5 -6.0787 -9.4617 -5.2555 0.7765 34.9758 -4.8191
# 6 7.3864 3.0866 -5.4899 -0.2509 -4.8191 48.3409
#
#
#
# Elastic Compliance Matrix: (Units=1/GPa)
#
#
# Indices 1 2 3 4 5 6 
#
# 1 0.012640 -0.002781 -0.002167 0.005774 0.000730 -0.001897
# 2 -0.002781 0.011955 -0.001677 0.004365 0.002365 -0.000270
# 3 -0.002167 -0.001677 0.023079 0.011042 0.002861 0.003402
# 4 0.005774 0.004365 0.011042 0.034926 0.003149 0.000588
# 5 0.000730 0.002365 0.002861 0.003149 0.030143 0.003084
# 6 -0.001897 -0.000270 0.003402 0.000588 0.003084 0.021690
#
#
# Mechanical properties :
#
#
# Convention : Reuss Voigt Hill
#
# Bulk Modulus (GPa) = 29.04665 52.71991 40.88328
# Shear Modulus (GPa) = 31.41569 38.12595 34.77082
#
# Velocity S-wave (km/s) = 3.59706 3.96264 3.78427
# Velocity P-wave (km/s) = 5.40508 6.53069 5.99437
#
# Compressibility (1/GPa) = 0.03442738
#
# Stress axis : x y z
#
# Youngs Moduli (GPa) = 79.11130 83.64405 43.32989
#
# Poissons Ratio (x) = 0.23258 0.09388
# Poissons Ratio (y) = 0.21998 0.07264
# Poissons Ratio (z) = 0.17140 0.14023
#
# Static dielectric constant tensor:
#      x y z
#    x 1.995280 -0.005770 -0.012200 
#    y -0.005770 1.968870 0.056280 
#    z -0.012200 0.056280 1.996110 
# 
# From -- ./inp_files/13677.got.cif
#   From: 2010.05.17/outbox.cif.g08.bks.cpg/sg2_7_cif.got.tgz:13677.got - 2010.06.03 11:33:40.
