data_PCOD9059498
_publ_section_title
;
Structure prediction by ZEFSAII (Michael W. Deem and Ramdas Pophale) SiO2 
 PCOD9059498
Probable space group: P -1
;
_chemical_formula_sum "Si O2"
_cell_formula_units_Z 16
_cell_length_a 10.842231
_cell_length_b 7.368999
_cell_length_c 16.822199
_cell_angle_alpha 148.747265
_cell_angle_beta 119.799756
_cell_angle_gamma 64.872918
_cell_volume 605.097033
_symmetry_space_group_name_H-M "P -1"
_symmetry_group_IT_number 2
_symmetry_cell_setting 'triclinic'
loop_
_space_group_symop_operation_xyz
x,y,z
-x,-y,-z
loop_
_atom_site_type_symbol
_atom_site_label
_atom_site_fract_x
_atom_site_fract_y
_atom_site_fract_z
Si Si1 0.662004 0.183549 0.956786
Si Si2 0.888009 0.224139 0.270400
Si Si3 0.890932 0.114111 0.700099
Si Si4 0.404983 0.963298 0.376632
Si Si5 0.653780 0.836076 0.979600
Si Si6 0.419069 0.031649 0.719757
Si Si7 0.045329 0.836352 0.037254
Si Si8 0.159643 0.017258 0.530385
O O1 0.528880 0.951332 0.795689
O O2 0.723816 0.995159 0.982831
O O3 0.606745 0.554572 0.113098
O O4 0.784624 0.223388 0.944501
O O5 0.824157 0.591507 0.356228
O O6 0.975122 0.147808 0.350238
O O7 0.754477 0.959608 0.128561
O O8 0.002295 0.093216 0.191353
O O9 0.755576 0.907034 0.615190
O O10 0.959802 0.473540 0.889127
O O11 0.831779 0.219780 0.633755
O O12 0.370526 0.564277 0.194033
O O13 0.493570 0.079703 0.372634
O O14 0.500000 0.000000 0.500000
O O15 0.500000 0.000000 0.000000
O O16 0.262546 0.925265 0.601223
O O17 0.000000 0.000000 0.000000
O O18 0.000000 0.000000 0.500000
#
# Coordination Sequence:
#
# PCOD9059498 Si02
#       8
#     2   2   2   2   2   2   2   2
#     4  11  23  41  70 101 130 171 231 285 331 404
#     4  12  25  44  68 102 135 176 241 283 335 414
#     4  12  26  42  70 100 137 185 228 282 347 409
#     4  12  24  46  69  97 143 181 218 281 349 411
#     4  12  24  43  71  98 136 180 231 283 336 402
#     4  11  23  43  67  99 133 174 227 279 341 406
#     4  12  22  43  72 101 135 175 229 287 346 402
#     4  12  25  47  67  96 141 186 223 290 354 405
#
# _framework density 26.442039999999999
#
# number of rings (size 3 to 8) (size 9 to 14) (size 15 to 20)
#    0.000    0.250    6.250    3.000    1.750    1.000 
#    2.250    0.625    0.000    0.000    0.000    0.000 
#    0.000    0.000    0.000    0.000    0.000    0.000 
#
# Total GULP energy -89412.402419 kJ/mol
# GULP energy per Si atom -5588.275151 kJ/mol
# Density = 2.638186 g / cm^3
# Si number density = 26.442040 Si / 1000 Ang^3
#
#
#
# Elastic Constant Matrix: (Units=GPa)
#
#
# Indices 1 2 3 4 5 6 
#
# 1 136.4105 1.2587 14.3686 -22.0173 15.2007 -17.5913
# 2 1.2587 68.7140 17.7474 -16.4655 17.2089 -15.0285
# 3 14.3686 17.7474 98.2513 -28.2186 18.4028 -16.6348
# 4 -22.0173 -16.4655 -28.2186 56.8699 -12.1900 13.3416
# 5 15.2007 17.2089 18.4028 -12.1900 46.5712 -15.4293
# 6 -17.5913 -15.0285 -16.6348 13.3416 -15.4293 33.7483
#
#
#
# Elastic Compliance Matrix: (Units=1/GPa)
#
#
# Indices 1 2 3 4 5 6 
#
# 1 0.008332 0.001567 0.000107 0.002614 -0.001545 0.003353
# 2 0.001567 0.017673 -0.000856 0.003210 -0.004179 0.005085
# 3 0.000107 -0.000856 0.012668 0.004875 -0.002506 0.002846
# 4 0.002614 0.003210 0.004875 0.022949 0.000892 -0.003470
# 5 -0.001545 -0.004179 -0.002506 0.000892 0.027501 0.008319
# 6 0.003353 0.005085 0.002846 -0.003470 0.008319 0.040222
#
#
# Mechanical properties :
#
#
# Convention : Reuss Voigt Hill
#
# Bulk Modulus (GPa) = 24.80900 41.12501 32.96701
# Shear Modulus (GPa) = 35.42424 45.43795 40.43109
#
# Velocity S-wave (km/s) = 3.66415 4.14985 3.91454
# Velocity P-wave (km/s) = 5.22534 6.20873 5.73814
#
# Compressibility (1/GPa) = 0.04030795
#
# Stress axis : x y z
#
# Youngs Moduli (GPa) = 120.02364 56.58222 78.93782
#
# Poissons Ratio (x) = -0.08864 -0.00841
# Poissons Ratio (y) = -0.18804 0.06756
# Poissons Ratio (z) = -0.01279 0.04843
#
# Static dielectric constant tensor:
#      x y z
#    x 1.894690 0.006350 0.088350 
#    y 0.006350 2.097240 0.004460 
#    z 0.088350 0.004460 2.085660 
# 
# From -- ./inp_files/282918.got.cif
#   From: 2010.05.17/outbox.cif.g08.bks.cpg/sg2_142_cif.got.tgz:282918.got - 2010.06.03 11:33:40.
