data_PCOD9059519
_publ_section_title
;
Structure prediction by ZEFSAII (Michael W. Deem and Ramdas Pophale) SiO2 
 PCOD9059519
Probable space group: P -1
;
_chemical_formula_sum "Si O2"
_cell_formula_units_Z 12
_cell_length_a 9.677832
_cell_length_b 10.661533
_cell_length_c 10.049296
_cell_angle_alpha 84.984624
_cell_angle_beta 136.365448
_cell_angle_gamma 120.487059
_cell_volume 544.085885
_symmetry_space_group_name_H-M "P -1"
_symmetry_group_IT_number 2
_symmetry_cell_setting 'triclinic'
loop_
_space_group_symop_operation_xyz
x,y,z
-x,-y,-z
loop_
_atom_site_type_symbol
_atom_site_label
_atom_site_fract_x
_atom_site_fract_y
_atom_site_fract_z
Si Si1 0.039655 0.862735 0.685307
Si Si2 0.767017 0.312640 0.232841
Si Si3 0.337828 0.656982 0.564977
Si Si4 0.390630 0.224716 0.776812
Si Si5 0.906262 0.824915 0.899764
Si Si6 0.789522 0.307672 0.822562
O O1 0.227672 0.819530 0.821376
O O2 0.803168 0.752229 0.424417
O O3 0.921403 0.832584 0.750472
O O4 0.203956 0.049656 0.737136
O O5 0.650154 0.250483 0.304386
O O6 0.070156 0.474521 0.424003
O O7 0.603266 0.344476 0.026492
O O8 0.604054 0.685671 0.744438
O O9 0.301984 0.704357 0.391125
O O10 0.547671 0.225973 0.763335
O O11 0.079727 0.776903 0.070904
O O12 0.000000 0.000000 0.000000
O O13 0.000000 0.500000 0.000000
#
# Coordination Sequence:
#
# PCOD9059519 Si02
#       6
#     2   2   2   2   2   2
#     4  11  24  42  70  98 133 184 227 274 339 410
#     4  11  24  44  69  95 139 181 221 284 338 404
#     4  11  26  43  67 104 136 176 230 283 340 397
#     4  11  23  41  70  97 130 178 229 274 333 405
#     4  12  27  44  70 104 139 177 228 286 336 402
#     4  12  25  45  73 102 136 181 226 283 338 405
#
# _framework density 22.055340999999999
#
# number of rings (size 3 to 8) (size 9 to 14) (size 15 to 20)
#    0.000    0.667    5.000    1.500    4.667    6.000 
#    0.000    3.333    0.000    0.000    0.000    0.000 
#    0.000    0.000    0.000    0.000    0.000    0.000 
#
# Total GULP energy -67053.730793 kJ/mol
# GULP energy per Si atom -5587.810899 kJ/mol
# Density = 2.200514 g / cm^3
# Si number density = 22.055341 Si / 1000 Ang^3
#
#
#
# Elastic Constant Matrix: (Units=GPa)
#
#
# Indices 1 2 3 4 5 6 
#
# 1 92.8133 23.7615 27.5207 -10.8927 -4.9831 29.4695
# 2 23.7615 38.3272 2.0423 -11.5662 5.8019 6.1300
# 3 27.5207 2.0423 95.7993 -18.0599 8.5252 2.4285
# 4 -10.8927 -11.5662 -18.0599 35.7448 7.1708 0.9163
# 5 -4.9831 5.8019 8.5252 7.1708 43.9067 -3.1310
# 6 29.4695 6.1300 2.4285 0.9163 -3.1310 45.6485
#
#
#
# Elastic Compliance Matrix: (Units=1/GPa)
#
#
# Indices 1 2 3 4 5 6 
#
# 1 0.018187 -0.010328 -0.005297 -0.001013 0.003925 -0.009783
# 2 -0.010328 0.037726 0.005592 0.013775 -0.009466 0.000378
# 3 -0.005297 0.005592 0.013819 0.008197 -0.005262 0.001408
# 4 -0.001013 0.013775 0.008197 0.038354 -0.010011 -0.003089
# 5 0.003925 -0.009466 -0.005262 -0.010011 0.027206 0.001084
# 6 -0.009783 0.000378 0.001408 -0.003089 0.001084 0.028233
#
#
# Mechanical properties :
#
#
# Convention : Reuss Voigt Hill
#
# Bulk Modulus (GPa) = 20.13445 37.06543 28.59994
# Shear Modulus (GPa) = 24.98201 36.63435 30.80818
#
# Velocity S-wave (km/s) = 3.36921 4.07998 3.74151
# Velocity P-wave (km/s) = 4.92791 6.24797 5.62679
#
# Compressibility (1/GPa) = 0.04966611
#
# Stress axis : x y z
#
# Youngs Moduli (GPa) = 54.98380 26.50722 72.36607
#
# Poissons Ratio (x) = 0.27377 0.38330
# Poissons Ratio (y) = 0.56789 -0.40469
# Poissons Ratio (z) = 0.29123 -0.14824
#
# Static dielectric constant tensor:
#      x y z
#    x 1.772320 -0.016840 -0.026830 
#    y -0.016840 1.787230 0.057430 
#    z -0.026830 0.057430 1.878100 
# 
# From -- ./inp_files/169152.got.cif
#   From: 2010.05.17/outbox.cif.g08.bks.cpg/sg2_85_cif.got.tgz:169152.got - 2010.06.03 11:33:40.
