data_PCOD9059689
_publ_section_title
;
Structure prediction by ZEFSAII (Michael W. Deem and Ramdas Pophale) SiO2 
 PCOD9059689
Probable space group: P -1
;
_chemical_formula_sum "Si O2"
_cell_formula_units_Z 14
_cell_length_a 25.453350
_cell_length_b 8.750237
_cell_length_c 9.379970
_cell_angle_alpha 130.414560
_cell_angle_beta 40.117706
_cell_angle_gamma 150.303857
_cell_volume 666.049487
_symmetry_space_group_name_H-M "P -1"
_symmetry_group_IT_number 2
_symmetry_cell_setting 'triclinic'
loop_
_space_group_symop_operation_xyz
x,y,z
-x,-y,-z
loop_
_atom_site_type_symbol
_atom_site_label
_atom_site_fract_x
_atom_site_fract_y
_atom_site_fract_z
Si Si1 0.704652 0.858938 0.008998
Si Si2 0.267365 0.966341 0.255854
Si Si3 0.184622 0.258926 0.660075
Si Si4 0.106070 0.290302 0.142370
Si Si5 0.708355 0.210742 0.427210
Si Si6 0.853504 0.749671 0.664389
Si Si7 0.533916 0.830155 0.805653
O O1 0.585781 0.528370 0.126131
O O2 0.753612 0.115793 0.174650
O O3 0.803460 0.866054 0.779865
O O4 0.674649 0.899135 0.941897
O O5 0.147112 0.597680 0.261108
O O6 0.226811 0.108415 0.481617
O O7 0.362035 0.044092 0.218914
O O8 0.286764 0.585118 0.561764
O O9 0.163273 0.308643 0.890748
O O10 0.044878 0.015706 0.733185
O O11 0.170145 0.299045 0.147535
O O12 0.793342 0.449659 0.525506
O O13 0.583843 0.911049 0.588377
O O14 0.000000 0.000000 0.500000
O O15 0.500000 0.000000 0.000000
#
# Coordination Sequence:
#
# PCOD9059689 Si02
#       7
#     2   2   2   2   2   2   2
#     4  12  26  45  68 102 137 178 230 276 338 402
#     4  12  23  44  70  98 133 178 226 278 339 396
#     4  11  24  43  66 102 138 177 223 278 336 407
#     4  11  23  42  67 100 141 177 221 276 341 396
#     4  12  24  45  67 100 139 176 228 275 335 398
#     4  12  24  45  71 100 140 178 222 281 337 402
#     4  12  25  48  71  95 136 181 228 283 336 396
#
# _framework density 21.019459000000001
#
# number of rings (size 3 to 8) (size 9 to 14) (size 15 to 20)
#    0.000    0.286    7.143    1.286    2.000    0.571 
#    2.571    1.429    0.000    0.000    0.000    0.000 
#    0.000    0.000    0.000    0.000    0.000    0.000 
#
# Total GULP energy -78213.066203 kJ/mol
# GULP energy per Si atom -5586.647586 kJ/mol
# Density = 2.097162 g / cm^3
# Si number density = 21.019459 Si / 1000 Ang^3
#
#
#
# Elastic Constant Matrix: (Units=GPa)
#
#
# Indices 1 2 3 4 5 6 
#
# 1 122.5883 27.9855 52.5011 10.2468 10.2381 -9.2733
# 2 27.9855 43.0219 20.1538 22.7989 -7.9660 -10.8921
# 3 52.5011 20.1538 107.1710 16.6115 6.2475 2.3676
# 4 10.2468 22.7989 16.6115 39.6318 -6.2448 9.0329
# 5 10.2381 -7.9660 6.2475 -6.2448 28.7643 -2.9191
# 6 -9.2733 -10.8921 2.3676 9.0329 -2.9191 30.9641
#
#
#
# Elastic Compliance Matrix: (Units=1/GPa)
#
#
# Indices 1 2 3 4 5 6 
#
# 1 0.012151 -0.008192 -0.004536 0.002716 -0.005036 -0.000163
# 2 -0.008192 0.059217 -0.003263 -0.035047 0.015491 0.030311
# 3 -0.004536 -0.003263 0.012710 -0.001999 -0.002804 -0.003159
# 4 0.002716 -0.035047 -0.001999 0.051285 -0.001793 -0.026492
# 5 -0.005036 0.015491 -0.002804 -0.001793 0.041944 0.008633
# 6 -0.000163 0.030311 -0.003159 -0.026492 0.008633 0.051693
#
#
# Mechanical properties :
#
#
# Convention : Reuss Voigt Hill
#
# Bulk Modulus (GPa) = 19.19557 52.67357 35.93457
# Shear Modulus (GPa) = 17.96312 31.34810 24.65561
#
# Velocity S-wave (km/s) = 2.92652 3.86603 3.42861
# Velocity P-wave (km/s) = 4.53558 6.71134 5.72772
#
# Compressibility (1/GPa) = 0.05209536
#
# Stress axis : x y z
#
# Youngs Moduli (GPa) = 82.29449 16.88703 78.67991
#
# Poissons Ratio (x) = 0.13835 0.35689
# Poissons Ratio (y) = 0.67420 0.25673
# Poissons Ratio (z) = 0.37329 0.05510
#
# Static dielectric constant tensor:
#      x y z
#    x 1.761080 -0.031200 0.049350 
#    y -0.031200 1.783590 -0.031050 
#    z 0.049350 -0.031050 1.746970 
# 
# From -- ./inp_files/188979.got.cif
#   From: 2010.05.17/outbox.cif.g08.bks.cpg/sg2_95_cif.got.tgz:188979.got - 2010.06.03 11:33:40.
