data_PCOD9059248
_publ_section_title
;
Structure prediction by ZEFSAII (Michael W. Deem and Ramdas Pophale) SiO2 
 PCOD9059248
Probable space group: P -1
;
_chemical_formula_sum "Si O2"
_cell_formula_units_Z 16
_cell_length_a 12.980419
_cell_length_b 9.397633
_cell_length_c 13.345501
_cell_angle_alpha 81.955428
_cell_angle_beta 143.323004
_cell_angle_gamma 73.317748
_cell_volume 710.248959
_symmetry_space_group_name_H-M "P -1"
_symmetry_group_IT_number 2
_symmetry_cell_setting 'triclinic'
loop_
_space_group_symop_operation_xyz
x,y,z
-x,-y,-z
loop_
_atom_site_type_symbol
_atom_site_label
_atom_site_fract_x
_atom_site_fract_y
_atom_site_fract_z
Si Si1 0.304595 0.336539 0.967110
Si Si2 0.614984 0.758877 0.176139
Si Si3 0.038061 0.906144 0.255282
Si Si4 0.167239 0.670695 0.949117
Si Si5 0.365360 0.022960 0.142294
Si Si6 0.671931 0.801227 0.590178
Si Si7 0.047813 0.640387 0.431862
Si Si8 0.452015 0.411783 0.385712
O O1 0.457435 0.229475 0.996096
O O2 0.280269 0.512266 0.964893
O O3 0.054404 0.410819 0.728190
O O4 0.376826 0.189400 0.128094
O O5 0.713680 0.556925 0.320185
O O6 0.844696 0.732874 0.347236
O O7 0.438276 0.932132 0.096063
O O8 0.064533 0.786441 0.382989
O O9 0.297026 0.793131 0.430778
O O10 0.893234 0.131336 0.141334
O O11 0.894189 0.895773 0.060085
O O12 0.920771 0.733771 0.775537
O O13 0.330291 0.559422 0.183704
O O14 0.539643 0.860901 0.374816
O O15 0.696214 0.635836 0.680683
O O16 0.500000 0.000000 0.500000
O O17 0.500000 0.500000 0.500000
#
# Coordination Sequence:
#
# PCOD9059248 Si02
#       8
#     2   2   2   2   2   2   2   2
#     4   9  20  38  68  99 130 174 226 278 329 403
#     4   9  18  39  70 104 128 179 236 272 332 408
#     4  11  26  44  67 103 139 178 229 280 346 404
#     4  12  26  47  68  98 145 177 224 289 346 400
#     4  11  23  40  76  98 138 177 232 284 333 407
#     4  12  26  45  70 101 135 182 227 284 345 398
#     4   8  19  38  70  96 135 173 235 270 332 411
#     4  12  29  46  71  97 135 187 234 279 338 411
#
# _framework density 22.527311000000001
#
# number of rings (size 3 to 8) (size 9 to 14) (size 15 to 20)
#    0.750    0.750    1.250    3.000    8.750    1.000 
#    0.000    1.250    0.000    0.000    0.000    0.000 
#    0.000    0.000    0.000    0.000    0.000    0.000 
#
# Total GULP energy -89428.426421 kJ/mol
# GULP energy per Si atom -5589.276651 kJ/mol
# Density = 2.247604 g / cm^3
# Si number density = 22.527311 Si / 1000 Ang^3
#
#
#
# Elastic Constant Matrix: (Units=GPa)
#
#
# Indices 1 2 3 4 5 6 
#
# 1 53.5354 39.0477 17.2211 0.3640 -21.1195 7.3581
# 2 39.0477 109.6367 6.4356 -10.5823 -16.8796 20.7110
# 3 17.2211 6.4356 74.8570 -7.0254 -10.2298 3.5909
# 4 0.3640 -10.5823 -7.0254 26.3817 7.7797 -6.5285
# 5 -21.1195 -16.8796 -10.2298 7.7797 30.4616 -11.9196
# 6 7.3581 20.7110 3.5909 -6.5285 -11.9196 36.8555
#
#
#
# Elastic Compliance Matrix: (Units=1/GPa)
#
#
# Indices 1 2 3 4 5 6 
#
# 1 0.037267 -0.011540 -0.005885 -0.012154 0.022415 0.004715
# 2 -0.011540 0.014307 0.001812 0.005882 -0.003289 -0.005934
# 3 -0.005885 0.001812 0.015096 0.004546 0.000725 -0.000274
# 4 -0.012154 0.005882 0.004546 0.046506 -0.014667 0.002172
# 5 0.022415 -0.003289 0.000725 -0.014667 0.055486 0.012649
# 6 0.004715 -0.005934 -0.000274 0.002172 0.012649 0.034029
#
#
# Mechanical properties :
#
#
# Convention : Reuss Voigt Hill
#
# Bulk Modulus (GPa) = 28.21327 40.38200 34.29763
# Shear Modulus (GPa) = 20.34754 30.42807 25.38780
#
# Velocity S-wave (km/s) = 3.00865 3.67920 3.36069
# Velocity P-wave (km/s) = 4.96191 6.00112 5.50608
#
# Compressibility (1/GPa) = 0.03544431
#
# Stress axis : x y z
#
# Youngs Moduli (GPa) = 26.83361 69.89532 66.24371
#
# Poissons Ratio (x) = 0.80659 0.38983
# Poissons Ratio (y) = 0.30966 -0.12004
# Poissons Ratio (z) = 0.15791 -0.12666
#
# Static dielectric constant tensor:
#      x y z
#    x 1.864100 -0.002570 0.015250 
#    y -0.002570 1.830950 -0.001930 
#    z 0.015250 -0.001930 1.840610 
# 
# From -- ./inp_files/529811.got.cif
#   From: 2010.05.17/outbox.cif.g08.bks.cpg/sg2_265_cif.got.tgz:529811.got - 2010.06.03 11:33:40.
