data_PCOD9059413
_publ_section_title
;
Structure prediction by ZEFSAII (Michael W. Deem and Ramdas Pophale) SiO2 
 PCOD9059413
Probable space group: P -1
;
_chemical_formula_sum "Si O2"
_cell_formula_units_Z 16
_cell_length_a 10.050328
_cell_length_b 12.850347
_cell_length_c 4.993237
_cell_angle_alpha 96.813904
_cell_angle_beta 100.953407
_cell_angle_gamma 102.117824
_cell_volume 610.521251
_symmetry_space_group_name_H-M "P -1"
_symmetry_group_IT_number 2
_symmetry_cell_setting 'triclinic'
loop_
_space_group_symop_operation_xyz
x,y,z
-x,-y,-z
loop_
_atom_site_type_symbol
_atom_site_label
_atom_site_fract_x
_atom_site_fract_y
_atom_site_fract_z
Si Si1 0.382021 0.121943 0.981933
Si Si2 0.620938 0.073333 0.742626
Si Si3 0.125502 0.010086 0.757644
Si Si4 0.426172 0.358677 0.122865
Si Si5 0.030860 0.191156 0.114516
Si Si6 0.749323 0.620880 0.462188
Si Si7 0.836675 0.281259 0.704667
Si Si8 0.760696 0.403389 0.214808
O O1 0.536813 0.128095 0.941727
O O2 0.267815 0.080019 0.694137
O O3 0.387489 0.233674 0.156213
O O4 0.323954 0.016769 0.106611
O O5 0.725634 0.165765 0.654372
O O6 0.500000 0.000000 0.500000
O O7 0.098430 0.099178 0.987599
O O8 0.000000 0.000000 0.500000
O O9 0.099606 0.884557 0.800902
O O10 0.349789 0.417628 0.327461
O O11 0.592982 0.391669 0.176150
O O12 0.352800 0.358702 0.807158
O O13 0.134378 0.275731 0.365516
O O14 0.976892 0.256248 0.874121
O O15 0.820099 0.528092 0.351750
O O16 0.821660 0.330271 0.424791
O O17 0.793102 0.364715 0.923189
#
# Coordination Sequence:
#
# PCOD9059413 Si02
#       8
#     2   2   2   2   2   2   2   2
#     4  11  23  41  68 102 139 182 225 283 356 421
#     4  11  25  39  67 103 142 182 228 282 354 429
#     4  11  24  44  68 101 144 185 235 287 355 424
#     4  12  24  46  75 108 141 180 240 298 362 422
#     4  11  27  43  69 107 140 191 237 294 350 432
#     4  12  27  47  75 105 140 188 242 300 355 420
#     4  12  27  47  72 102 150 186 243 291 356 426
#     4  12  27  49  73 104 141 191 239 304 356 412
#
# _framework density 26.207113
#
# number of rings (size 3 to 8) (size 9 to 14) (size 15 to 20)
#    0.000    0.500    3.750    3.750    7.000    1.000 
#    0.000    0.000    0.000    0.000    0.000    0.000 
#    0.000    0.000    0.000    0.000    0.000    0.000 
#
# Total GULP energy -89603.162309 kJ/mol
# GULP energy per Si atom -5600.197644 kJ/mol
# Density = 2.614746 g / cm^3
# Si number density = 26.207113 Si / 1000 Ang^3
#
#
#
# Elastic Constant Matrix: (Units=GPa)
#
#
# Indices 1 2 3 4 5 6 
#
# 1 79.4643 18.2263 16.1324 9.7644 5.7608 -9.4113
# 2 18.2263 119.6091 22.8059 21.2941 17.2980 -1.9990
# 3 16.1324 22.8059 107.6352 13.1218 7.3724 6.1648
# 4 9.7644 21.2941 13.1218 43.3600 -3.7426 3.6525
# 5 5.7608 17.2980 7.3724 -3.7426 37.5102 5.8851
# 6 -9.4113 -1.9990 6.1648 3.6525 5.8851 34.4327
#
#
#
# Elastic Compliance Matrix: (Units=1/GPa)
#
#
# Indices 1 2 3 4 5 6 
#
# 1 0.014247 -0.000891 -0.001704 -0.002882 -0.002496 0.004880
# 2 -0.000891 0.010448 -0.001202 -0.005194 -0.005282 0.002032
# 3 -0.001704 -0.001202 0.010238 -0.002053 -0.001093 -0.001964
# 4 -0.002882 -0.005194 -0.002053 0.027877 0.006782 -0.004838
# 5 -0.002496 -0.005282 -0.001093 0.006782 0.031451 -0.006888
# 6 0.004880 0.002032 -0.001964 -0.004838 -0.006888 0.032536
#
#
# Mechanical properties :
#
#
# Convention : Reuss Voigt Hill
#
# Bulk Modulus (GPa) = 36.57467 46.78197 41.67832
# Shear Modulus (GPa) = 34.84237 39.69683 37.26960
#
# Velocity S-wave (km/s) = 3.65019 3.89618 3.77519
# Velocity P-wave (km/s) = 5.63484 6.17494 5.91107
#
# Compressibility (1/GPa) = 0.02734133
#
# Stress axis : x y z
#
# Youngs Moduli (GPa) = 70.18796 95.71259 97.67216
#
# Poissons Ratio (x) = 0.08524 0.16643
# Poissons Ratio (y) = 0.06251 0.11737
# Poissons Ratio (z) = 0.11960 0.11501
#
# Static dielectric constant tensor:
#      x y z
#    x 1.929460 0.046890 -0.466780 
#    y 0.046890 2.028110 0.041880 
#    z -0.466780 0.041880 1.487460 
# 
# From -- ./inp_files/71499.got.cif
#   From: 2010.05.17/outbox.cif.g08.bks.cpg/sg2_36_cif.got.tgz:71499.got - 2010.06.03 11:33:40.
