data_PCOD9059719
_publ_section_title
;
Structure prediction by ZEFSAII (Michael W. Deem and Ramdas Pophale) SiO2 
 PCOD9059719
Probable space group: P -1
;
_chemical_formula_sum "Si O2"
_cell_formula_units_Z 14
_cell_length_a 19.248063
_cell_length_b 6.489619
_cell_length_c 25.794928
_cell_angle_alpha 142.093289
_cell_angle_beta 18.880058
_cell_angle_gamma 134.744063
_cell_volume 625.679188
_symmetry_space_group_name_H-M "P -1"
_symmetry_group_IT_number 2
_symmetry_cell_setting 'triclinic'
loop_
_space_group_symop_operation_xyz
x,y,z
-x,-y,-z
loop_
_atom_site_type_symbol
_atom_site_label
_atom_site_fract_x
_atom_site_fract_y
_atom_site_fract_z
Si Si1 0.031393 0.891533 0.720964
Si Si2 0.953811 0.167931 0.938556
Si Si3 0.841991 0.186916 0.602855
Si Si4 0.363564 0.724547 0.596735
Si Si5 0.389928 0.403837 0.006147
Si Si6 0.488652 0.542575 0.359221
Si Si7 0.908346 0.966547 0.708853
O O1 0.995385 0.041350 0.718719
O O2 0.258437 0.608314 0.504474
O O3 0.045083 0.139289 0.809485
O O4 0.819664 0.744511 0.858181
O O5 0.690853 0.243409 0.140017
O O6 0.097431 0.841383 0.802801
O O7 0.000000 0.500000 0.000000
O O8 0.593611 0.168400 0.786338
O O9 0.853578 0.589701 0.676208
O O10 0.924346 0.053279 0.461377
O O11 0.000000 0.000000 0.500000
O O12 0.500000 0.500000 0.500000
O O13 0.435915 0.517539 0.451868
O O14 0.435032 0.091163 0.623649
O O15 0.500000 0.500000 0.000000
O O16 0.297295 0.738013 0.103305
#
# Coordination Sequence:
#
# PCOD9059719 Si02
#       7
#     2   2   2   2   2   2   2
#     4  11  24  39  65  97 134 171 224 278 329 391
#     4   9  20  41  65  91 129 173 212 269 327 381
#     4  11  23  42  67  94 126 170 219 271 335 397
#     4   9  18  36  65  91 122 167 214 267 331 389
#     4  12  24  43  65  95 136 175 222 277 332 398
#     4   9  20  39  58  89 129 166 214 272 321 387
#     4  11  24  41  67  95 128 175 223 274 337 392
#
# _framework density 22.375686000000002
#
# number of rings (size 3 to 8) (size 9 to 14) (size 15 to 20)
#    0.000    1.714    2.857    1.286    0.000    6.286 
#    0.000    2.857    0.000    1.714    0.000    0.000 
#    0.000    0.000    0.000    0.000    0.000    0.000 
#
# Total GULP energy -78205.279070 kJ/mol
# GULP energy per Si atom -5586.091362 kJ/mol
# Density = 2.232476 g / cm^3
# Si number density = 22.375686 Si / 1000 Ang^3
#
#
#
# Elastic Constant Matrix: (Units=GPa)
#
#
# Indices 1 2 3 4 5 6 
#
# 1 170.0105 45.9905 83.0141 20.3266 -20.1242 -31.6891
# 2 45.9905 56.5314 41.1971 0.5642 -9.5564 -10.8813
# 3 83.0141 41.1971 238.2797 2.9585 -19.6152 -25.9322
# 4 20.3266 0.5642 2.9585 35.9254 0.1461 -14.6027
# 5 -20.1242 -9.5564 -19.6152 0.1461 39.6854 9.4017
# 6 -31.6891 -10.8813 -25.9322 -14.6027 9.4017 40.9813
#
#
#
# Elastic Compliance Matrix: (Units=1/GPa)
#
#
# Indices 1 2 3 4 5 6 
#
# 1 0.009500 -0.005467 -0.001844 -0.003979 0.001924 0.002867
# 2 -0.005467 0.024178 -0.001985 0.003625 0.001615 0.001857
# 3 -0.001844 -0.001985 0.005428 0.001342 0.000846 0.001765
# 4 -0.003979 0.003625 0.001342 0.034776 -0.003432 0.011914
# 5 0.001924 0.001615 0.000846 -0.003432 0.028237 -0.005249
# 6 0.002867 0.001857 0.001765 0.011914 -0.005249 0.033678
#
#
# Mechanical properties :
#
#
# Convention : Reuss Voigt Hill
#
# Bulk Modulus (GPa) = 48.75355 89.46943 69.11149
# Shear Modulus (GPa) = 31.01193 42.95976 36.98585
#
# Velocity S-wave (km/s) = 3.72689 4.38645 4.07006
# Velocity P-wave (km/s) = 6.35260 8.10719 7.28293
#
# Compressibility (1/GPa) = 0.02051132
#
# Stress axis : x y z
#
# Youngs Moduli (GPa) = 105.26747 41.35939 184.23982
#
# Poissons Ratio (x) = 0.22612 0.33982
# Poissons Ratio (y) = 0.57552 0.36581
# Poissons Ratio (z) = 0.19416 0.08212
#
# Static dielectric constant tensor:
#      x y z
#    x 1.844510 0.075390 0.000500 
#    y 0.075390 1.887670 -0.016060 
#    z 0.000500 -0.016060 1.858590 
# 
# From -- ./inp_files/612722.got.cif
#   From: 2010.05.17/outbox.cif.g08.bks.cpg/sg2_307_cif.got.tgz:612722.got - 2010.06.03 11:33:40.
