data_PCOD9059004
_publ_section_title
;
Structure prediction by ZEFSAII (Michael W. Deem and Ramdas Pophale) SiO2 
 PCOD9059004
Probable space group: P -1
;
_chemical_formula_sum "Si O2"
_cell_formula_units_Z 10
_cell_length_a 14.363119
_cell_length_b 13.526244
_cell_length_c 6.911927
_cell_angle_alpha 120.858835
_cell_angle_beta 76.567151
_cell_angle_gamma 151.141092
_cell_volume 474.030366
_symmetry_space_group_name_H-M "P -1"
_symmetry_group_IT_number 2
_symmetry_cell_setting 'triclinic'
loop_
_space_group_symop_operation_xyz
x,y,z
-x,-y,-z
loop_
_atom_site_type_symbol
_atom_site_label
_atom_site_fract_x
_atom_site_fract_y
_atom_site_fract_z
Si Si1 0.284993 0.528205 0.096750
Si Si2 0.387858 0.191946 0.094892
Si Si3 0.729847 0.730738 0.999767
Si Si4 0.040821 0.411763 0.354293
Si Si5 0.875712 0.679042 0.448480
O O1 0.250631 0.606872 0.310784
O O2 0.523556 0.763615 0.111341
O O3 0.233580 0.365734 0.102638
O O4 0.118586 0.339901 0.802795
O O5 0.612397 0.428289 0.351503
O O6 0.312036 0.240341 0.143756
O O7 0.177032 0.883735 0.940960
O O8 0.500000 0.500000 0.000000
O O9 0.943946 0.026268 0.291938
O O10 0.073482 0.376667 0.502216
O O11 0.000000 0.500000 0.500000
#
# Coordination Sequence:
#
# PCOD9059004 Si02
#       5
#     2   2   2   2   2
#     4   9  20  38  57  85 113 146 181 221 289 327
#     4   8  20  38  55  87 112 138 188 224 276 340
#     4   9  16  34  62  84 116 142 171 229 284 336
#     4  11  23  40  56  78 114 150 193 235 261 317
#     4   9  20  38  56  85 116 138 188 228 269 347
#
# _framework density 21.095694000000002
#
# number of rings (size 3 to 8) (size 9 to 14) (size 15 to 20)
#    1.200    1.600    0.000    0.600    0.000    5.600 
#   10.800    2.000    0.000    0.000    0.000    0.000 
#    0.000    0.000    0.000    0.000    0.000    0.000 
#
# Total GULP energy -55712.774007 kJ/mol
# GULP energy per Si atom -5571.277401 kJ/mol
# Density = 2.104768 g / cm^3
# Si number density = 21.095694 Si / 1000 Ang^3
#
#
#
# Elastic Constant Matrix: (Units=GPa)
#
#
# Indices 1 2 3 4 5 6 
#
# 1 116.5496 18.2031 47.6594 -15.0605 -4.1624 9.4328
# 2 18.2031 59.8397 11.5103 -1.8190 0.1766 12.3455
# 3 47.6594 11.5103 60.2159 -3.2240 18.9701 -0.4275
# 4 -15.0605 -1.8190 -3.2240 30.5454 13.7691 -1.2983
# 5 -4.1624 0.1766 18.9701 13.7691 36.4027 -2.2963
# 6 9.4328 12.3455 -0.4275 -1.2983 -2.2963 22.1748
#
#
#
# Elastic Compliance Matrix: (Units=1/GPa)
#
#
# Indices 1 2 3 4 5 6 
#
# 1 0.015870 -0.000738 -0.015018 0.002133 0.008483 -0.005626
# 2 -0.000738 0.019840 -0.003737 -0.000632 0.001330 -0.010703
# 3 -0.015018 -0.003737 0.036922 0.007004 -0.023135 0.007195
# 4 0.002133 -0.000632 0.007004 0.043432 -0.019827 0.000069
# 5 0.008483 0.001330 -0.023135 -0.019827 0.047927 -0.000993
# 6 -0.005626 -0.010703 0.007195 0.000069 -0.000993 0.053488
#
#
# Mechanical properties :
#
#
# Convention : Reuss Voigt Hill
#
# Bulk Modulus (GPa) = 29.72152 43.48344 36.60248
# Shear Modulus (GPa) = 18.67899 28.44008 23.55953
#
# Velocity S-wave (km/s) = 2.97886 3.67569 3.34547
# Velocity P-wave (km/s) = 5.09421 6.21864 5.68430
#
# Compressibility (1/GPa) = 0.03364566
#
# Stress axis : x y z
#
# Youngs Moduli (GPa) = 63.01039 50.40408 27.08408
#
# Poissons Ratio (x) = 0.03722 0.40675
# Poissons Ratio (y) = 0.04653 0.10121
# Poissons Ratio (z) = 0.94629 0.18835
#
# Static dielectric constant tensor:
#      x y z
#    x 1.749550 0.026510 0.008700 
#    y 0.026510 1.816250 -0.043240 
#    z 0.008700 -0.043240 1.749850 
# 
# From -- ./inp_files/28616.got.cif
#   From: 2010.05.17/outbox.cif.g08.bks.cpg/sg2_15_cif.got.tgz:28616.got - 2010.06.03 11:33:40.
