data_PCOD9059154
_publ_section_title
;
Structure prediction by ZEFSAII (Michael W. Deem and Ramdas Pophale) SiO2 
 PCOD9059154
Probable space group: P -1
;
_chemical_formula_sum "Si O2"
_cell_formula_units_Z 16
_cell_length_a 20.739348
_cell_length_b 10.911716
_cell_length_c 6.312425
_cell_angle_alpha 113.868810
_cell_angle_beta 66.426357
_cell_angle_gamma 147.221479
_cell_volume 702.079605
_symmetry_space_group_name_H-M "P -1"
_symmetry_group_IT_number 2
_symmetry_cell_setting 'triclinic'
loop_
_space_group_symop_operation_xyz
x,y,z
-x,-y,-z
loop_
_atom_site_type_symbol
_atom_site_label
_atom_site_fract_x
_atom_site_fract_y
_atom_site_fract_z
Si Si1 0.858422 0.855993 0.296467
Si Si2 0.852432 0.105521 0.778071
Si Si3 0.451035 0.031796 0.754919
Si Si4 0.603712 0.874129 0.495486
Si Si5 0.631813 0.692491 0.055681
Si Si6 0.221928 0.718562 0.138494
Si Si7 0.615322 0.412878 0.114649
Si Si8 0.985015 0.792277 0.045610
O O1 0.729205 0.588125 0.238205
O O2 0.937289 0.851636 0.267491
O O3 0.853526 0.981959 0.529948
O O4 0.918090 0.001482 0.102373
O O5 0.849647 0.253557 0.802790
O O6 0.956672 0.227797 0.891539
O O7 0.725995 0.898725 0.917705
O O8 0.500000 0.000000 0.500000
O O9 0.436560 0.135298 0.687958
O O10 0.323090 0.831390 0.908145
O O11 0.553455 0.197196 0.917340
O O12 0.647077 0.791997 0.329519
O O13 0.494862 0.701602 0.681720
O O14 0.703764 0.124459 0.640175
O O15 0.654012 0.572457 0.989203
O O16 0.500000 0.500000 0.000000
O O17 0.125841 0.451653 0.097797
#
# Coordination Sequence:
#
# PCOD9059154 Si02
#       8
#     2   2   2   2   2   2   2   2
#     4  11  26  46  70 102 132 181 234 284 338 403
#     4  12  24  46  69 100 138 177 234 282 342 398
#     4  11  26  43  67 105 139 176 221 273 345 412
#     4  11  23  42  66 102 138 171 219 276 342 408
#     4  12  20  40  67 101 136 171 218 280 342 401
#     4  11  26  45  72 101 136 184 228 278 339 411
#     4  11  23  40  69 100 133 177 219 277 344 405
#     4  11  27  48  68  97 138 180 238 281 338 402
#
# _framework density 22.789438000000001
#
# number of rings (size 3 to 8) (size 9 to 14) (size 15 to 20)
#    0.000    0.750    3.750    3.375    3.500    2.500 
#    2.250    0.000    0.000    0.000    0.000    0.000 
#    0.000    0.000    0.000    0.000    0.000    0.000 
#
# Total GULP energy -89336.615751 kJ/mol
# GULP energy per Si atom -5583.538484 kJ/mol
# Density = 2.273757 g / cm^3
# Si number density = 22.789438 Si / 1000 Ang^3
#
#
#
# Elastic Constant Matrix: (Units=GPa)
#
#
# Indices 1 2 3 4 5 6 
#
# 1 65.0675 22.7962 14.6113 13.5929 -17.6186 -1.9034
# 2 22.7962 90.1300 27.5312 25.6402 -6.0594 12.7923
# 3 14.6113 27.5312 108.7939 21.8991 -30.0806 14.7485
# 4 13.5929 25.6402 21.8991 21.3055 -1.6488 4.3392
# 5 -17.6186 -6.0594 -30.0806 -1.6488 36.7090 -0.3289
# 6 -1.9034 12.7923 14.7485 4.3392 -0.3289 32.5270
#
#
#
# Elastic Compliance Matrix: (Units=1/GPa)
#
#
# Indices 1 2 3 4 5 6 
#
# 1 0.021788 -0.001894 0.003688 -0.014946 0.012517 0.002468
# 2 -0.001894 0.017807 0.000968 -0.020082 0.001878 -0.004855
# 3 0.003688 0.000968 0.017136 -0.018893 0.015076 -0.005262
# 4 -0.014946 -0.020082 -0.018893 0.097921 -0.021551 0.002309
# 5 0.012517 0.001878 0.015076 -0.021551 0.044913 -0.003513
# 6 0.002468 -0.004855 -0.005262 0.002309 -0.003513 0.034840
#
#
# Mechanical properties :
#
#
# Convention : Reuss Voigt Hill
#
# Bulk Modulus (GPa) = 16.06320 43.76319 29.91320
# Shear Modulus (GPa) = 20.02941 31.37847 25.70394
#
# Velocity S-wave (km/s) = 2.96782 3.71467 3.36205
# Velocity P-wave (km/s) = 4.33680 6.13541 5.31277
#
# Compressibility (1/GPa) = 0.06225409
#
# Stress axis : x y z
#
# Youngs Moduli (GPa) = 45.89688 56.15856 58.35608
#
# Poissons Ratio (x) = 0.10638 -0.21522
# Poissons Ratio (y) = 0.08694 -0.05648
# Poissons Ratio (z) = -0.16927 -0.05435
#
# Static dielectric constant tensor:
#      x y z
#    x 1.978770 -0.012170 -0.055690 
#    y -0.012170 1.810230 0.037420 
#    z -0.055690 0.037420 1.862710 
# 
# From -- ./inp_files/71283.got.cif
#   From: 2010.05.17/outbox.cif.g08.bks.cpg/sg2_36_cif.got.tgz:71283.got - 2010.06.03 11:33:40.
