data_PCOD9059418
_publ_section_title
;
Structure prediction by ZEFSAII (Michael W. Deem and Ramdas Pophale) SiO2 
 PCOD9059418
Probable space group: P -1
;
_chemical_formula_sum "Si O2"
_cell_formula_units_Z 14
_cell_length_a 9.171765
_cell_length_b 12.895352
_cell_length_c 11.767393
_cell_angle_alpha 44.101714
_cell_angle_beta 37.182000
_cell_angle_gamma 56.151046
_cell_volume 584.980457
_symmetry_space_group_name_H-M "P -1"
_symmetry_group_IT_number 2
_symmetry_cell_setting 'triclinic'
loop_
_space_group_symop_operation_xyz
x,y,z
-x,-y,-z
loop_
_atom_site_type_symbol
_atom_site_label
_atom_site_fract_x
_atom_site_fract_y
_atom_site_fract_z
Si Si1 0.344527 0.887761 0.048579
Si Si2 0.842736 0.017969 0.697060
Si Si3 0.346721 0.403358 0.915908
Si Si4 0.805022 0.584746 0.480288
Si Si5 0.944634 0.541434 0.176304
Si Si6 0.191917 0.849162 0.751679
Si Si7 0.711199 0.923672 0.281438
O O1 0.565026 0.005210 0.846719
O O2 0.237018 0.969139 0.942571
O O3 0.166711 0.861859 0.287771
O O4 0.494633 0.740613 0.051591
O O5 0.000000 0.000000 0.500000
O O6 0.946266 0.883353 0.811400
O O7 0.537458 0.535741 0.724095
O O8 0.242383 0.431197 0.831972
O O9 0.110061 0.406543 0.139972
O O10 0.833847 0.763661 0.327526
O O11 0.000000 0.500000 0.500000
O O12 0.822113 0.528950 0.383734
O O13 0.132862 0.683183 0.960967
O O14 0.424614 0.875505 0.506288
O O15 0.235797 0.970942 0.726536
#
# Coordination Sequence:
#
# PCOD9059418 Si02
#       7
#     2   2   2   2   2   2   2
#     4  11  25  43  73 107 136 184 237 294 348 418
#     4  11  23  41  68 104 141 178 234 293 347 411
#     4  11  26  48  72 110 140 189 240 289 359 425
#     4  12  29  48  70 106 145 191 237 292 360 430
#     4  11  25  48  77  99 147 190 237 296 355 421
#     4  11  23  45  73 105 141 189 234 295 355 418
#     4  11  26  46  73 105 145 184 241 293 353 431
#
# _framework density 23.932424000000001
#
# number of rings (size 3 to 8) (size 9 to 14) (size 15 to 20)
#    0.000    0.857    4.286    1.286    6.000    5.143 
#    0.000    0.000    0.000    0.000    0.000    0.000 
#    0.000    0.000    0.000    0.000    0.000    0.000 
#
# Total GULP energy -78129.007770 kJ/mol
# GULP energy per Si atom -5580.643412 kJ/mol
# Density = 2.387795 g / cm^3
# Si number density = 23.932424 Si / 1000 Ang^3
#
#
#
# Elastic Constant Matrix: (Units=GPa)
#
#
# Indices 1 2 3 4 5 6 
#
# 1 105.7337 51.3249 27.2316 -1.7731 6.2156 -10.6955
# 2 51.3249 154.8916 26.4438 8.8539 27.8210 -26.0719
# 3 27.2316 26.4438 70.3614 20.5499 -0.9211 -6.6582
# 4 -1.7731 8.8539 20.5499 42.3856 7.8114 0.5525
# 5 6.2156 27.8210 -0.9211 7.8114 37.7066 1.5409
# 6 -10.6955 -26.0719 -6.6582 0.5525 1.5409 30.1975
#
#
#
# Elastic Compliance Matrix: (Units=1/GPa)
#
#
# Indices 1 2 3 4 5 6 
#
# 1 0.012388 -0.003396 -0.004498 0.003473 -0.000383 0.000420
# 2 -0.003396 0.010637 -0.002008 -0.000085 -0.007644 0.007930
# 3 -0.004498 -0.002008 0.019874 -0.010302 0.004802 0.000999
# 4 0.003473 -0.000085 -0.010302 0.030046 -0.006932 -0.001311
# 5 -0.000383 -0.007644 0.004802 -0.006932 0.034075 -0.007288
# 6 0.000420 0.007930 0.000999 -0.001311 -0.007288 0.040726
#
#
# Mechanical properties :
#
#
# Convention : Reuss Voigt Hill
#
# Bulk Modulus (GPa) = 43.29980 60.10969 51.70474
# Shear Modulus (GPa) = 28.53104 37.12369 32.82737
#
# Velocity S-wave (km/s) = 3.45650 3.94279 3.70762
# Velocity P-wave (km/s) = 5.83624 6.77483 6.32297
#
# Compressibility (1/GPa) = 0.02309480
#
# Stress axis : x y z
#
# Youngs Moduli (GPa) = 80.72419 94.01288 50.31676
#
# Poissons Ratio (x) = 0.31927 0.22632
# Poissons Ratio (y) = 0.27414 0.10104
# Poissons Ratio (z) = 0.36308 0.18879
#
# Static dielectric constant tensor:
#      x y z
#    x 1.944460 0.048080 -0.019010 
#    y 0.048080 1.967970 0.005160 
#    z -0.019010 0.005160 1.952370 
# 
# From -- ./inp_files/391922.got.cif
#   From: 2010.05.17/outbox.cif.g08.bks.cpg/sg2_196_cif.got.tgz:391922.got - 2010.06.03 11:33:40.
