data_PCOD9059931
_publ_section_title
;
Structure prediction by ZEFSAII (Michael W. Deem and Ramdas Pophale) SiO2 
 PCOD9059931
Probable space group: P -1
;
_chemical_formula_sum "Si O2"
_cell_formula_units_Z 14
_cell_length_a 11.161253
_cell_length_b 11.435671
_cell_length_c 6.444461
_cell_angle_alpha 73.352319
_cell_angle_beta 112.733192
_cell_angle_gamma 64.364675
_cell_volume 573.201789
_symmetry_space_group_name_H-M "P -1"
_symmetry_group_IT_number 2
_symmetry_cell_setting 'triclinic'
loop_
_space_group_symop_operation_xyz
x,y,z
-x,-y,-z
loop_
_atom_site_type_symbol
_atom_site_label
_atom_site_fract_x
_atom_site_fract_y
_atom_site_fract_z
Si Si1 0.475959 0.335222 0.179869
Si Si2 0.239647 0.358686 0.700222
Si Si3 0.292658 0.862643 0.219910
Si Si4 0.003683 0.593633 0.138879
Si Si5 0.319085 0.055330 0.802743
Si Si6 0.262304 0.690447 0.921811
Si Si7 0.094430 0.096719 0.290646
O O1 0.541687 0.230907 0.482369
O O2 0.329775 0.512988 0.058252
O O3 0.407509 0.296236 0.960512
O O4 0.631455 0.316534 0.193245
O O5 0.120606 0.397548 0.789838
O O6 0.228933 0.237490 0.634219
O O7 0.174288 0.499402 0.430024
O O8 0.297946 0.742324 0.134306
O O9 0.142913 0.961769 0.233032
O O10 0.278889 0.988037 0.998418
O O11 0.947360 0.757957 0.942296
O O12 0.000000 0.500000 0.000000
O O13 0.258297 0.022812 0.573575
O O14 0.500000 0.000000 0.000000
O O15 0.065031 0.822655 0.707861
#
# Coordination Sequence:
#
# PCOD9059931 Si02
#       7
#     2   2   2   2   2   2   2
#     4  11  27  48  76 104 147 193 241 304 355 426
#     4  11  24  44  70 106 141 179 237 288 355 430
#     4  12  26  47  71 106 146 198 236 299 362 428
#     4  11  23  42  71 105 140 183 231 290 356 424
#     4  12  27  44  70 109 146 185 235 293 368 437
#     4  11  27  49  72 104 142 194 255 294 352 428
#     4  12  26  45  75 109 145 190 239 304 360 429
#
# _framework density 24.424209999999999
#
# number of rings (size 3 to 8) (size 9 to 14) (size 15 to 20)
#    0.000    0.571    2.857    4.286    4.000   10.286 
#    0.000    0.000    0.000    0.000    0.000    0.000 
#    0.000    0.000    0.000    0.000    0.000    0.000 
#
# Total GULP energy -78259.761408 kJ/mol
# GULP energy per Si atom -5589.982958 kJ/mol
# Density = 2.436862 g / cm^3
# Si number density = 24.424210 Si / 1000 Ang^3
#
#
#
# Elastic Constant Matrix: (Units=GPa)
#
#
# Indices 1 2 3 4 5 6 
#
# 1 58.0900 10.0372 17.9619 3.3274 9.0986 -9.0542
# 2 10.0372 114.6202 5.6530 7.2402 6.6478 -8.4375
# 3 17.9619 5.6530 151.4855 -15.2883 16.0485 16.2602
# 4 3.3274 7.2402 -15.2883 37.9042 7.9358 -2.9711
# 5 9.0986 6.6478 16.0485 7.9358 34.5720 2.2288
# 6 -9.0542 -8.4375 16.2602 -2.9711 2.2288 33.0787
#
#
#
# Elastic Compliance Matrix: (Units=1/GPa)
#
#
# Indices 1 2 3 4 5 6 
#
# 1 0.019964 -0.000798 -0.002786 -0.001370 -0.003929 0.006772
# 2 -0.000798 0.009149 -0.000526 -0.001474 -0.001116 0.002317
# 3 -0.002786 -0.000526 0.008212 0.004080 -0.003635 -0.004322
# 4 -0.001370 -0.001474 0.004080 0.030189 -0.008212 0.000508
# 5 -0.003929 -0.001116 -0.003635 -0.008212 0.033914 -0.002596
# 6 0.006772 0.002317 -0.004322 0.000508 -0.002596 0.035021
#
#
# Mechanical properties :
#
#
# Convention : Reuss Voigt Hill
#
# Bulk Modulus (GPa) = 34.35949 43.49996 38.92972
# Shear Modulus (GPa) = 32.38985 40.48054 36.43520
#
# Velocity S-wave (km/s) = 3.64557 4.07553 3.86653
# Velocity P-wave (km/s) = 5.64079 6.32419 5.99224
#
# Compressibility (1/GPa) = 0.02910404
#
# Stress axis : x y z
#
# Youngs Moduli (GPa) = 50.09128 109.30560 121.77131
#
# Poissons Ratio (x) = 0.08720 0.33929
# Poissons Ratio (y) = 0.03996 0.06406
# Poissons Ratio (z) = 0.13957 0.05750
#
# Static dielectric constant tensor:
#      x y z
#    x 1.962110 -0.075630 0.055190 
#    y -0.075630 1.901810 -0.083380 
#    z 0.055190 -0.083380 1.927070 
# 
# From -- ./inp_files/70011.got.cif
#   From: 2010.05.17/outbox.cif.g08.bks.cpg/sg2_36_cif.got.tgz:70011.got - 2010.06.03 11:33:40.
