data_PCOD9059194
_publ_section_title
;
Structure prediction by ZEFSAII (Michael W. Deem and Ramdas Pophale) SiO2 
 PCOD9059194
Probable space group: P -1
;
_chemical_formula_sum "Si O2"
_cell_formula_units_Z 14
_cell_length_a 16.533862
_cell_length_b 12.532466
_cell_length_c 5.456551
_cell_angle_alpha 63.449641
_cell_angle_beta 127.185741
_cell_angle_gamma 138.940699
_cell_volume 591.577815
_symmetry_space_group_name_H-M "P -1"
_symmetry_group_IT_number 2
_symmetry_cell_setting 'triclinic'
loop_
_space_group_symop_operation_xyz
x,y,z
-x,-y,-z
loop_
_atom_site_type_symbol
_atom_site_label
_atom_site_fract_x
_atom_site_fract_y
_atom_site_fract_z
Si Si1 0.480024 0.685381 0.206019
Si Si2 0.972676 0.276334 0.758612
Si Si3 0.653735 0.595527 0.075092
Si Si4 0.415511 0.049107 0.230849
Si Si5 0.758014 0.473108 0.735912
Si Si6 0.851373 0.282329 0.042997
Si Si7 0.253946 0.089575 0.259603
O O1 0.392533 0.671957 0.277698
O O2 0.640741 0.794291 0.447653
O O3 0.393897 0.500295 0.169470
O O4 0.483137 0.778098 0.891796
O O5 0.941505 0.328219 0.404056
O O6 0.893443 0.086566 0.772188
O O7 0.912369 0.283536 0.895934
O O8 0.134307 0.399317 0.987891
O O9 0.736187 0.561848 0.412704
O O10 0.500000 0.500000 0.000000
O O11 0.742227 0.786094 0.017607
O O12 0.337433 0.054492 0.300114
O O13 0.500000 0.000000 0.500000
O O14 0.290686 0.903518 0.979090
O O15 0.816169 0.393127 0.832345
#
# Coordination Sequence:
#
# PCOD9059194 Si02
#       7
#     2   2   2   2   2   2   2
#     4  12  23  42  71  99 140 181 243 291 359 414
#     4  11  27  49  74 105 147 190 234 295 363 428
#     4  12  25  44  67 102 141 185 241 297 353 417
#     4  11  23  40  70 105 141 181 236 297 357 423
#     4  12  28  43  72 105 138 189 240 291 357 431
#     4  11  25  47  74 105 148 185 235 293 364 427
#     4  11  24  45  67  99 140 189 232 294 356 423
#
# _framework density 23.665524999999999
#
# number of rings (size 3 to 8) (size 9 to 14) (size 15 to 20)
#    0.000    0.571    4.286    3.000    8.000    1.714 
#    0.000    0.714    0.000    0.000    0.000    0.000 
#    0.000    0.000    0.000    0.000    0.000    0.000 
#
# Total GULP energy -78292.735772 kJ/mol
# GULP energy per Si atom -5592.338269 kJ/mol
# Density = 2.361166 g / cm^3
# Si number density = 23.665525 Si / 1000 Ang^3
#
#
#
# Elastic Constant Matrix: (Units=GPa)
#
#
# Indices 1 2 3 4 5 6 
#
# 1 44.1421 24.1656 24.9722 -7.5840 -5.8972 -4.4681
# 2 24.1656 110.3133 26.2000 11.6337 19.9059 0.8144
# 3 24.9722 26.2000 148.8889 7.2724 11.0871 -11.6291
# 4 -7.5840 11.6337 7.2724 48.2935 0.9320 1.9529
# 5 -5.8972 19.9059 11.0871 0.9320 28.5099 -1.6839
# 6 -4.4681 0.8144 -11.6291 1.9529 -1.6839 29.5299
#
#
#
# Elastic Compliance Matrix: (Units=1/GPa)
#
#
# Indices 1 2 3 4 5 6 
#
# 1 0.035531 -0.010415 -0.005478 0.008433 0.016706 0.003901
# 2 -0.010415 0.013965 0.000237 -0.004714 -0.011975 -0.002239
# 3 -0.005478 0.000237 0.008197 -0.002162 -0.004280 0.002292
# 4 0.008433 -0.004714 -0.002162 0.023423 0.005069 -0.000705
# 5 0.016706 -0.011975 -0.004280 0.005069 0.048604 0.003609
# 6 0.003901 -0.002239 0.002292 -0.000705 0.003609 0.035671
#
#
# Mechanical properties :
#
#
# Convention : Reuss Voigt Hill
#
# Bulk Modulus (GPa) = 37.90849 50.44664 44.17757
# Shear Modulus (GPa) = 24.33131 36.46710 30.39920
#
# Velocity S-wave (km/s) = 3.20993 3.92974 3.58793
# Velocity P-wave (km/s) = 5.45815 6.47713 5.98935
#
# Compressibility (1/GPa) = 0.02637931
#
# Stress axis : x y z
#
# Youngs Moduli (GPa) = 28.14476 71.60743 121.99848
#
# Poissons Ratio (x) = 0.74581 0.66829
# Poissons Ratio (y) = 0.29314 -0.02886
# Poissons Ratio (z) = 0.15417 -0.01694
#
# Static dielectric constant tensor:
#      x y z
#    x 1.930210 -0.037880 -0.032780 
#    y -0.037880 1.941760 0.030920 
#    z -0.032780 0.030920 1.921360 
# 
# From -- ./inp_files/65492.got.cif
#   From: 2010.05.17/outbox.cif.g08.bks.cpg/sg2_33_cif.got.tgz:65492.got - 2010.06.03 11:33:40.
