data_PCOD9059439
_publ_section_title
;
Structure prediction by ZEFSAII (Michael W. Deem and Ramdas Pophale) SiO2 
 PCOD9059439
Probable space group: P -1
;
_chemical_formula_sum "Si O2"
_cell_formula_units_Z 14
_cell_length_a 15.390548
_cell_length_b 15.433265
_cell_length_c 9.694223
_cell_angle_alpha 35.117404
_cell_angle_beta 141.100336
_cell_angle_gamma 149.811159
_cell_volume 645.577727
_symmetry_space_group_name_H-M "P -1"
_symmetry_group_IT_number 2
_symmetry_cell_setting 'triclinic'
loop_
_space_group_symop_operation_xyz
x,y,z
-x,-y,-z
loop_
_atom_site_type_symbol
_atom_site_label
_atom_site_fract_x
_atom_site_fract_y
_atom_site_fract_z
Si Si1 0.791521 0.490761 0.594310
Si Si2 0.578167 0.024828 0.414808
Si Si3 0.652465 0.066516 0.992934
Si Si4 0.561549 0.668715 0.746735
Si Si5 0.936425 0.844910 0.839735
Si Si6 0.963627 0.323809 0.598624
Si Si7 0.985854 0.801013 0.655642
O O1 0.767804 0.295777 0.811644
O O2 0.594182 0.425939 0.437036
O O3 0.882262 0.601486 0.418950
O O4 0.909057 0.618503 0.702679
O O5 0.457803 0.039493 0.142955
O O6 0.567710 0.841320 0.596527
O O7 0.500000 0.000000 0.500000
O O8 0.783770 0.211672 0.434037
O O9 0.799506 0.053953 0.247004
O O10 0.500000 0.000000 0.000000
O O11 0.751717 0.759600 0.797568
O O12 0.500000 0.500000 0.000000
O O13 0.906234 0.745358 0.783456
O O14 0.046099 0.068243 0.640192
O O15 0.043580 0.813607 0.118685
O O16 0.000000 0.500000 0.500000
#
# Coordination Sequence:
#
# PCOD9059439 Si02
#       7
#     2   2   2   2   2   2   2
#     4  11  23  41  68  98 129 178 233 279 338 405
#     4  11  25  43  69 100 132 180 226 280 342 401
#     4  11  23  45  66  96 139 177 225 280 342 409
#     4  11  23  43  65 100 139 174 224 283 344 400
#     4  11  25  43  66  95 141 177 223 289 344 408
#     4  12  24  43  70 100 134 178 234 288 338 405
#     4  11  24  43  66 100 135 181 228 277 345 411
#
# _framework density 21.686001999999998
#
# number of rings (size 3 to 8) (size 9 to 14) (size 15 to 20)
#    0.000    0.857    1.429    7.286    2.000    2.857 
#    0.000    0.000    0.000    0.000    0.000    0.000 
#    0.000    0.000    0.000    0.000    0.000    0.000 
#
# Total GULP energy -78284.763750 kJ/mol
# GULP energy per Si atom -5591.768839 kJ/mol
# Density = 2.163664 g / cm^3
# Si number density = 21.686002 Si / 1000 Ang^3
#
#
#
# Elastic Constant Matrix: (Units=GPa)
#
#
# Indices 1 2 3 4 5 6 
#
# 1 108.0687 17.6632 -6.0181 15.5599 -11.2753 -0.1080
# 2 17.6632 98.8180 21.8803 25.0871 1.6959 -11.3076
# 3 -6.0181 21.8803 79.1300 9.0714 -5.1143 -9.5210
# 4 15.5599 25.0871 9.0714 32.4279 5.3089 -5.6789
# 5 -11.2753 1.6959 -5.1143 5.3089 36.4812 4.9718
# 6 -0.1080 -11.3076 -9.5210 -5.6789 4.9718 24.9459
#
#
#
# Elastic Compliance Matrix: (Units=1/GPa)
#
#
# Indices 1 2 3 4 5 6 
#
# 1 0.010925 -0.001166 0.001907 -0.006037 0.004862 -0.002097
# 2 -0.001166 0.013409 -0.002464 -0.008454 -0.000551 0.003318
# 3 0.001907 -0.002464 0.014354 -0.002913 0.002709 0.003167
# 4 -0.006037 -0.008454 -0.002913 0.043789 -0.009184 0.006829
# 5 0.004862 -0.000551 0.002709 -0.009184 0.031692 -0.007602
# 6 -0.002097 0.003318 0.003167 0.006829 -0.007602 0.045860
#
#
# Mechanical properties :
#
#
# Convention : Reuss Voigt Hill
#
# Bulk Modulus (GPa) = 28.37462 39.22971 33.80216
# Shear Modulus (GPa) = 28.53557 35.60374 32.06965
#
# Velocity S-wave (km/s) = 3.63140 4.05629 3.84971
# Velocity P-wave (km/s) = 5.54035 6.32986 5.94822
#
# Compressibility (1/GPa) = 0.03524277
#
# Stress axis : x y z
#
# Youngs Moduli (GPa) = 91.53714 74.57826 69.66798
#
# Poissons Ratio (x) = 0.08694 -0.13287
# Poissons Ratio (y) = 0.10671 0.17163
# Poissons Ratio (z) = -0.17458 0.18373
#
# Static dielectric constant tensor:
#      x y z
#    x 1.844200 0.038730 0.012870 
#    y 0.038730 1.802960 0.000430 
#    z 0.012870 0.000430 1.818990 
# 
# From -- ./inp_files/157477.got.cif
#   From: 2010.05.17/outbox.cif.g08.bks.cpg/sg2_79_cif.got.tgz:157477.got - 2010.06.03 11:33:40.
