data_PCOD9059809
_publ_section_title
;
Structure prediction by ZEFSAII (Michael W. Deem and Ramdas Pophale) SiO2 
 PCOD9059809
Probable space group: P -1
;
_chemical_formula_sum "Si O2"
_cell_formula_units_Z 13
_cell_length_a 6.626860
_cell_length_b 12.696405
_cell_length_c 9.731659
_cell_angle_alpha 72.144764
_cell_angle_beta 57.283370
_cell_angle_gamma 98.342781
_cell_volume 604.314426
_symmetry_space_group_name_H-M "P -1"
_symmetry_group_IT_number 2
_symmetry_cell_setting 'triclinic'
loop_
_space_group_symop_operation_xyz
x,y,z
-x,-y,-z
loop_
_atom_site_type_symbol
_atom_site_label
_atom_site_fract_x
_atom_site_fract_y
_atom_site_fract_z
Si Si1 0.695336 0.470577 0.134803
Si Si2 0.936683 0.292949 0.742659
Si Si3 0.462412 0.326888 0.020813
Si Si4 0.500000 0.500000 0.500000
Si Si5 0.970440 0.086460 0.290408
Si Si6 0.808697 0.108952 0.641934
Si Si7 0.783411 0.055641 0.078675
O O1 0.653950 0.581716 0.032869
O O2 0.594244 0.461487 0.330299
O O3 0.539858 0.356933 0.139502
O O4 0.000000 0.500000 0.000000
O O5 0.217723 0.388865 0.633621
O O6 0.720775 0.346353 0.831666
O O7 0.905700 0.238907 0.622898
O O8 0.863188 0.176806 0.914369
O O9 0.253379 0.193113 0.130671
O O10 0.844759 0.110647 0.465237
O O11 0.798136 0.083885 0.223575
O O12 0.023326 0.964719 0.333870
O O13 0.504745 0.036296 0.816781
O O14 0.000000 0.000000 0.000000
#
# Coordination Sequence:
#
# PCOD9059809 Si02
#       7
#     2   2   2   1   2   2   2
#     4  11  25  50  69 102 140 188 238 295 350 426
#     4  12  24  46  69 105 141 187 240 295 346 429
#     4  11  24  46  74  97 145 187 230 297 364 413
#     4  12  26  46  76 104 138 188 248 288 354 422
#     4  11  23  42  69 103 138 184 226 290 356 417
#     4  11  24  43  67 104 144 176 235 288 349 425
#     4  12  23  43  68  99 140 185 227 282 352 415
#
# _framework density 21.511979
#
# number of rings (size 3 to 8) (size 9 to 14) (size 15 to 20)
#    0.000    0.615    4.615    3.692    0.000    0.615 
#    5.538    0.000    0.000    0.000    0.000    0.000 
#    0.000    0.000    0.000    0.000    0.000    0.000 
#
# Total GULP energy -72516.001162 kJ/mol
# GULP energy per Si atom -5578.153936 kJ/mol
# Density = 2.146302 g / cm^3
# Si number density = 21.511979 Si / 1000 Ang^3
#
#
#
# Elastic Constant Matrix: (Units=GPa)
#
#
# Indices 1 2 3 4 5 6 
#
# 1 67.1258 27.2642 8.5633 3.2207 -6.2163 1.2562
# 2 27.2642 88.2911 9.6018 20.4621 -8.5358 26.2141
# 3 8.5633 9.6018 63.9189 18.6439 -10.7341 3.9957
# 4 3.2207 20.4621 18.6439 42.2422 19.6201 -5.1249
# 5 -6.2163 -8.5358 -10.7341 19.6201 31.6106 -0.1680
# 6 1.2562 26.2141 3.9957 -5.1249 -0.1680 43.1503
#
#
#
# Elastic Compliance Matrix: (Units=1/GPa)
#
#
# Indices 1 2 3 4 5 6 
#
# 1 0.018639 -0.010940 -0.006117 0.011469 -0.008442 0.007999
# 2 -0.010940 0.039386 0.021978 -0.055012 0.049922 -0.031983
# 3 -0.006117 0.021978 0.039004 -0.054064 0.051411 -0.023006
# 4 0.011469 -0.055012 -0.054064 0.132113 -0.112675 0.053345
# 5 -0.008442 0.049922 0.051411 -0.112675 0.130594 -0.047716
# 6 0.007999 -0.031983 -0.023006 0.053345 -0.047716 0.050652
#
#
# Mechanical properties :
#
#
# Convention : Reuss Voigt Hill
#
# Bulk Modulus (GPa) = 9.35703 34.46605 21.91154
# Shear Modulus (GPa) = 11.46339 34.99437 23.22888
#
# Velocity S-wave (km/s) = 2.31093 4.03766 3.28961
# Velocity P-wave (km/s) = 3.38817 6.14764 4.96353
#
# Compressibility (1/GPa) = 0.10687154
#
# Stress axis : x y z
#
# Youngs Moduli (GPa) = 53.64991 25.38978 25.63834
#
# Poissons Ratio (x) = 0.27776 0.15683
# Poissons Ratio (y) = 0.58692 -0.56348
# Poissons Ratio (z) = 0.32817 -0.55801
#
# Static dielectric constant tensor:
#      x y z
#    x 1.757190 -0.002120 0.031540 
#    y -0.002120 1.782280 0.041260 
#    z 0.031540 0.041260 1.780890 
# 
# From -- ./inp_files/28900.got.cif
#   From: 2010.05.17/outbox.cif.g08.bks.cpg/sg2_15_cif.got.tgz:28900.got - 2010.06.03 11:33:40.
