data_PCOD9059566
_publ_section_title
;
Structure prediction by ZEFSAII (Michael W. Deem and Ramdas Pophale) SiO2 
 PCOD9059566
Probable space group: P -1
;
_chemical_formula_sum "Si O2"
_cell_formula_units_Z 12
_cell_length_a 14.928076
_cell_length_b 10.955103
_cell_length_c 9.848874
_cell_angle_alpha 127.145811
_cell_angle_beta 27.703843
_cell_angle_gamma 142.440157
_cell_volume 428.304595
_symmetry_space_group_name_H-M "P -1"
_symmetry_group_IT_number 2
_symmetry_cell_setting 'triclinic'
loop_
_space_group_symop_operation_xyz
x,y,z
-x,-y,-z
loop_
_atom_site_type_symbol
_atom_site_label
_atom_site_fract_x
_atom_site_fract_y
_atom_site_fract_z
Si Si1 0.236448 0.910791 0.080469
Si Si2 0.330756 0.763434 0.625400
Si Si3 0.032658 0.447230 0.272923
Si Si4 0.272999 0.288902 0.248926
Si Si5 0.746497 0.997785 0.426173
Si Si6 0.593979 0.678130 0.598155
O O1 0.137706 0.738022 0.978876
O O2 0.029997 0.811816 0.415221
O O3 0.271382 0.103758 0.107711
O O4 0.531306 0.005342 0.774737
O O5 0.172198 0.612004 0.609000
O O6 0.564584 0.811443 0.429725
O O7 0.500000 0.000000 0.500000
O O8 0.000000 0.500000 0.500000
O O9 0.981092 0.234914 0.215440
O O10 0.330846 0.636307 0.947216
O O11 0.331190 0.337278 0.364338
O O12 0.500000 0.500000 0.000000
O O13 0.812793 0.905889 0.383904
O O14 0.500000 0.500000 0.500000
#
# Coordination Sequence:
#
# PCOD9059566 Si02
#       6
#     2   2   2   2   2   2
#     4   9  21  45  70 100 135 194 235 279 360 420
#     4   8  18  41  69 101 132 183 229 285 349 415
#     4  11  23  41  72 112 138 175 241 296 354 421
#     4  11  25  43  69 102 148 184 231 290 356 427
#     4   9  23  46  72  98 140 187 238 293 342 423
#     4  12  28  46  68 108 146 187 237 297 366 420
#
# _framework density 28.017443
#
# number of rings (size 3 to 8) (size 9 to 14) (size 15 to 20)
#    1.000    1.000    0.000    2.000    0.000   12.000 
#    0.000    0.000    0.000    0.000    0.000    0.000 
#    0.000    0.000    0.000    0.000    0.000    0.000 
#
# Total GULP energy -67180.445112 kJ/mol
# GULP energy per Si atom -5598.370426 kJ/mol
# Density = 2.795367 g / cm^3
# Si number density = 28.017443 Si / 1000 Ang^3
#
#
#
# Elastic Constant Matrix: (Units=GPa)
#
#
# Indices 1 2 3 4 5 6 
#
# 1 146.3898 50.1479 1.7435 -1.4586 27.7028 22.9432
# 2 50.1479 144.0551 15.3176 3.2846 24.1649 0.6715
# 3 1.7435 15.3176 119.9019 5.3621 11.5366 -16.3742
# 4 -1.4586 3.2846 5.3621 44.7494 -3.9224 23.7068
# 5 27.7028 24.1649 11.5366 -3.9224 39.1703 -9.8297
# 6 22.9432 0.6715 -16.3742 23.7068 -9.8297 67.6593
#
#
#
# Elastic Compliance Matrix: (Units=1/GPa)
#
#
# Indices 1 2 3 4 5 6 
#
# 1 0.009671 -0.002322 -0.000045 0.002644 -0.006415 -0.005126
# 2 -0.002322 0.008402 -0.000598 -0.001170 -0.003361 0.000481
# 3 -0.000045 -0.000598 0.009117 -0.002762 -0.001826 0.002930
# 4 0.002644 -0.001170 -0.002762 0.029063 -0.000384 -0.011793
# 5 -0.006415 -0.003361 -0.001826 -0.000384 0.034370 0.006895
# 6 -0.005126 0.000481 0.002930 -0.011793 0.006895 0.022356
#
#
# Mechanical properties :
#
#
# Convention : Reuss Voigt Hill
#
# Bulk Modulus (GPa) = 47.03878 60.52942 53.78410
# Shear Modulus (GPa) = 39.68399 53.19166 46.43783
#
# Velocity S-wave (km/s) = 3.76760 4.36193 4.07561
# Velocity P-wave (km/s) = 5.97929 6.85709 6.43318
#
# Compressibility (1/GPa) = 0.02125905
#
# Stress axis : x y z
#
# Youngs Moduli (GPa) = 103.40447 119.01876 109.69075
#
# Poissons Ratio (x) = 0.27636 0.00493
# Poissons Ratio (y) = 0.24011 0.06561
# Poissons Ratio (z) = 0.00465 0.07119
#
# Static dielectric constant tensor:
#      x y z
#    x 2.409530 0.036360 -0.045840 
#    y 0.036360 2.185900 0.012950 
#    z -0.045840 0.012950 2.178630 
# 
# From -- ./inp_files/463194.got.cif
#   From: 2010.05.17/outbox.cif.g08.bks.cpg/sg2_232_cif.got.tgz:463194.got - 2010.06.03 11:33:40.
