data_PCOD9059058
_publ_section_title
;
Structure prediction by ZEFSAII (Michael W. Deem and Ramdas Pophale) SiO2 
 PCOD9059058
Probable space group: P -1
;
_chemical_formula_sum "Si O2"
_cell_formula_units_Z 14
_cell_length_a 13.072072
_cell_length_b 12.684245
_cell_length_c 9.028791
_cell_angle_alpha 110.292190
_cell_angle_beta 46.360823
_cell_angle_gamma 143.084079
_cell_volume 573.875543
_symmetry_space_group_name_H-M "P -1"
_symmetry_group_IT_number 2
_symmetry_cell_setting 'triclinic'
loop_
_space_group_symop_operation_xyz
x,y,z
-x,-y,-z
loop_
_atom_site_type_symbol
_atom_site_label
_atom_site_fract_x
_atom_site_fract_y
_atom_site_fract_z
Si Si1 0.004879 0.320915 0.952677
Si Si2 0.096430 0.999569 0.761119
Si Si3 0.637786 0.281070 0.376319
Si Si4 0.262776 0.619610 0.338215
Si Si5 0.727883 0.810742 0.612013
Si Si6 0.632408 0.982053 0.940293
Si Si7 0.722189 0.584789 0.985044
O O1 0.781093 0.259138 0.191579
O O2 0.092284 0.314330 0.010400
O O3 0.241501 0.551657 0.778322
O O4 0.899274 0.187386 0.847885
O O5 0.337445 0.077043 0.575468
O O6 0.209457 0.160581 0.608942
O O7 0.844463 0.766791 0.859889
O O8 0.000000 0.000000 0.000000
O O9 0.709540 0.372731 0.511521
O O10 0.282704 0.519002 0.177359
O O11 0.000000 0.500000 0.500000
O O12 0.472862 0.840038 0.172504
O O13 0.625574 0.869790 0.783018
O O14 0.549248 0.599149 0.756200
O O15 0.000000 0.000000 0.500000
O O16 0.500000 0.000000 0.000000
#
# Coordination Sequence:
#
# PCOD9059058 Si02
#       7
#     2   2   2   2   2   2   2
#     4  11  23  42  73 104 141 188 229 299 362 415
#     4  12  29  47  73 102 140 191 245 290 355 430
#     4  11  24  43  68 106 145 181 239 293 356 426
#     4  11  23  40  65 105 141 178 231 292 357 425
#     4  11  28  51  70 103 148 188 239 298 359 437
#     4  11  25  41  72 103 140 186 239 291 363 418
#     4  11  26  47  71 104 141 185 239 291 361 423
#
# _framework density 24.395533
#
# number of rings (size 3 to 8) (size 9 to 14) (size 15 to 20)
#    0.000    0.857    2.857    2.571   16.000    3.429 
#    0.000    0.000    0.000    0.000    0.000    0.000 
#    0.000    0.000    0.000    0.000    0.000    0.000 
#
# Total GULP energy -78304.216654 kJ/mol
# GULP energy per Si atom -5593.158332 kJ/mol
# Density = 2.434001 g / cm^3
# Si number density = 24.395533 Si / 1000 Ang^3
#
#
#
# Elastic Constant Matrix: (Units=GPa)
#
#
# Indices 1 2 3 4 5 6 
#
# 1 49.4262 3.9460 20.2715 -0.8075 4.2649 11.2011
# 2 3.9460 102.0473 36.5315 -16.8032 5.1643 5.4714
# 3 20.2715 36.5315 169.7386 -18.7036 5.6901 -1.6385
# 4 -0.8075 -16.8032 -18.7036 52.5653 14.0477 5.2641
# 5 4.2649 5.1643 5.6901 14.0477 28.0568 2.2693
# 6 11.2011 5.4714 -1.6385 5.2641 2.2693 33.9897
#
#
#
# Elastic Compliance Matrix: (Units=1/GPa)
#
#
# Indices 1 2 3 4 5 6 
#
# 1 0.023421 0.000904 -0.002821 0.001288 -0.003153 -0.007989
# 2 0.000904 0.011519 -0.002019 0.004249 -0.003761 -0.002657
# 3 -0.002821 -0.002019 0.006971 0.002133 -0.001793 0.001380
# 4 0.001288 0.004249 0.002133 0.025227 -0.013718 -0.003997
# 5 -0.003153 -0.003761 -0.001793 -0.013718 0.043985 0.000746
# 6 -0.007989 -0.002657 0.001380 -0.003997 0.000746 0.033117
#
#
# Mechanical properties :
#
#
# Convention : Reuss Voigt Hill
#
# Bulk Modulus (GPa) = 29.37707 49.19000 39.28354
# Shear Modulus (GPa) = 30.58884 40.28657 35.43771
#
# Velocity S-wave (km/s) = 3.54485 4.06814 3.81547
# Velocity P-wave (km/s) = 5.36868 6.50182 5.96223
#
# Compressibility (1/GPa) = 0.03404016
#
# Stress axis : x y z
#
# Youngs Moduli (GPa) = 42.69750 86.80939 143.44681
#
# Poissons Ratio (x) = -0.07850 0.40469
# Poissons Ratio (y) = -0.03861 0.28956
# Poissons Ratio (z) = 0.12046 0.17523
#
# Static dielectric constant tensor:
#      x y z
#    x 2.020610 -0.053070 0.019490 
#    y -0.053070 1.908830 -0.025290 
#    z 0.019490 -0.025290 1.937250 
# 
# From -- ./inp_files/222927.got.cif
#   From: 2010.05.17/outbox.cif.g08.bks.cpg/sg2_112_cif.got.tgz:222927.got - 2010.06.03 11:33:40.
