data_PCOD9059062
_publ_section_title
;
Structure prediction by ZEFSAII (Michael W. Deem and Ramdas Pophale) SiO2 
 PCOD9059062
Probable space group: P -1
;
_chemical_formula_sum "Si O2"
_cell_formula_units_Z 12
_cell_length_a 9.022166
_cell_length_b 8.224514
_cell_length_c 15.891851
_cell_angle_alpha 113.349911
_cell_angle_beta 53.069676
_cell_angle_gamma 71.670497
_cell_volume 569.476223
_symmetry_space_group_name_H-M "P -1"
_symmetry_group_IT_number 2
_symmetry_cell_setting 'triclinic'
loop_
_space_group_symop_operation_xyz
x,y,z
-x,-y,-z
loop_
_atom_site_type_symbol
_atom_site_label
_atom_site_fract_x
_atom_site_fract_y
_atom_site_fract_z
Si Si1 0.812693 0.614023 0.282170
Si Si2 0.814876 0.997216 0.007531
Si Si3 0.312073 0.801919 0.100300
Si Si4 0.667035 0.884006 0.734820
Si Si5 0.726940 0.064325 0.376476
Si Si6 0.764184 0.654976 0.495716
O O1 0.826931 0.790497 0.266498
O O2 0.887831 0.610183 0.352655
O O3 0.997058 0.316425 0.130828
O O4 0.483884 0.794994 0.443104
O O5 0.725906 0.131888 0.972699
O O6 0.528593 0.142097 0.180678
O O7 0.000000 0.000000 0.000000
O O8 0.994373 0.992334 0.278595
O O9 0.433616 0.880225 0.126568
O O10 0.500000 0.500000 0.000000
O O11 0.671550 0.885490 0.632635
O O12 0.988546 0.622912 0.598922
O O13 0.510212 0.265465 0.416328
#
# Coordination Sequence:
#
# PCOD9059062 Si02
#       6
#     2   2   2   2   2   2
#     4   9  20  41  68  84 122 165 201 253 302 365
#     4  12  26  42  63  92 125 169 206 252 310 372
#     4  12  25  39  63  96 128 163 202 260 307 365
#     4  11  23  40  65  91 126 159 211 255 306 362
#     4   9  20  40  66  89 123 163 206 244 317 362
#     4   9  20  40  67  88 118 168 201 255 304 363
#
# _framework density 21.071997
#
# number of rings (size 3 to 8) (size 9 to 14) (size 15 to 20)
#    1.000    0.667    1.667    2.500    2.333    6.667 
#    0.000    4.167    0.000    0.000    0.000    0.000 
#    0.000    0.000    0.000    0.000    0.000    0.000 
#
# Total GULP energy -66849.224690 kJ/mol
# GULP energy per Si atom -5570.768724 kJ/mol
# Density = 2.102404 g / cm^3
# Si number density = 21.071997 Si / 1000 Ang^3
#
#
#
# Elastic Constant Matrix: (Units=GPa)
#
#
# Indices 1 2 3 4 5 6 
#
# 1 130.9707 33.8857 41.4754 0.3746 1.3212 11.8660
# 2 33.8857 54.0091 27.9503 10.9800 4.3403 9.4308
# 3 41.4754 27.9503 63.6489 10.6105 -3.9388 6.2893
# 4 0.3746 10.9800 10.6105 27.6550 1.0285 -6.1078
# 5 1.3212 4.3403 -3.9388 1.0285 42.3418 -4.7687
# 6 11.8660 9.4308 6.2893 -6.1078 -4.7687 18.8910
#
#
#
# Elastic Compliance Matrix: (Units=1/GPa)
#
#
# Indices 1 2 3 4 5 6 
#
# 1 0.010604 -0.004042 -0.005514 0.003170 -0.000728 -0.001966
# 2 -0.004042 0.030605 -0.007509 -0.012463 -0.005161 -0.015572
# 3 -0.005514 -0.007509 0.024154 -0.006824 0.003101 -0.002253
# 4 0.003170 -0.012463 -0.006824 0.048627 0.001920 0.022710
# 5 -0.000728 -0.005161 0.003101 0.001920 0.025429 0.009041
# 6 -0.001966 -0.015572 -0.002253 0.022710 0.009041 0.072319
#
#
# Mechanical properties :
#
#
# Convention : Reuss Voigt Hill
#
# Bulk Modulus (GPa) = 32.01750 50.58351 41.30050
# Shear Modulus (GPa) = 19.51012 27.46536 23.48774
#
# Velocity S-wave (km/s) = 3.04613 3.61419 3.34225
# Velocity P-wave (km/s) = 5.25349 6.44001 5.87677
#
# Compressibility (1/GPa) = 0.03123292
#
# Stress axis : x y z
#
# Youngs Moduli (GPa) = 94.30822 32.67474 41.40169
#
# Poissons Ratio (x) = 0.13207 0.22828
# Poissons Ratio (y) = 0.38118 0.31088
# Poissons Ratio (z) = 0.52000 0.24535
#
# Static dielectric constant tensor:
#      x y z
#    x 1.790000 -0.013830 0.032880 
#    y -0.013830 1.763460 0.012400 
#    z 0.032880 0.012400 1.810260 
# 
# From -- ./inp_files/146124.got.cif
#   From: 2010.05.17/outbox.cif.g08.bks.cpg/sg2_74_cif.got.tgz:146124.got - 2010.06.03 11:33:40.
