data_PCOD9059050
_publ_section_title
;
Structure prediction by ZEFSAII (Michael W. Deem and Ramdas Pophale) SiO2 
 PCOD9059050
Probable space group: P -1
;
_chemical_formula_sum "Si O2"
_cell_formula_units_Z 16
_cell_length_a 13.637002
_cell_length_b 10.692207
_cell_length_c 8.734461
_cell_angle_alpha 119.122642
_cell_angle_beta 100.672239
_cell_angle_gamma 34.904799
_cell_volume 575.373520
_symmetry_space_group_name_H-M "P -1"
_symmetry_group_IT_number 2
_symmetry_cell_setting 'triclinic'
loop_
_space_group_symop_operation_xyz
x,y,z
-x,-y,-z
loop_
_atom_site_type_symbol
_atom_site_label
_atom_site_fract_x
_atom_site_fract_y
_atom_site_fract_z
Si Si1 0.916601 0.731860 0.271366
Si Si2 0.940329 0.971801 0.622006
Si Si3 0.441995 0.528661 0.674470
Si Si4 0.632392 0.662230 0.575091
Si Si5 0.651907 0.538833 0.833633
Si Si6 0.861562 0.973574 0.926023
Si Si7 0.167491 0.472999 0.904205
Si Si8 0.810632 0.724465 0.683560
O O1 0.856795 0.942582 0.477208
O O2 0.985866 0.683112 0.092878
O O3 0.110346 0.441274 0.235981
O O4 0.784537 0.751924 0.245925
O O5 0.857651 0.069464 0.829147
O O6 0.156177 0.663212 0.535086
O O7 0.869483 0.211650 0.681486
O O8 0.500000 0.500000 0.500000
O O9 0.461940 0.333854 0.566400
O O10 0.552034 0.506996 0.799480
O O11 0.230279 0.829155 0.843382
O O12 0.562064 0.724183 0.767761
O O13 0.662293 0.790359 0.617416
O O14 0.675716 0.623777 0.024848
O O15 0.755973 0.952459 0.841694
O O16 0.074525 0.664303 0.846826
O O17 0.000000 0.500000 0.500000
#
# Coordination Sequence:
#
# PCOD9059050 Si02
#       8
#     2   2   2   2   2   2   2   2
#     4   9  19  34  58  94 120 147 193 257 306 351
#     4  11  21  37  65  92 120 155 203 261 306 347
#     4  10  25  42  57  86 129 170 205 241 298 370
#     4  10  20  39  64  92 121 157 206 253 307 357
#     4  11  22  39  59  85 127 169 200 243 296 370
#     4  11  23  39  63  95 122 155 207 256 308 357
#     4  10  20  35  63  91 118 153 204 255 297 354
#     4  10  17  37  64  94 120 147 194 265 309 348
#
# _framework density 27.808022000000001
#
# number of rings (size 3 to 8) (size 9 to 14) (size 15 to 20)
#    0.000    1.750    5.000    1.125    3.500    2.500 
#    0.000    3.750    0.000    1.500    0.000    0.000 
#    0.000    0.000    0.000    0.000    0.000    0.000 
#
# Total GULP energy -89491.892432 kJ/mol
# GULP energy per Si atom -5593.243277 kJ/mol
# Density = 2.774473 g / cm^3
# Si number density = 27.808022 Si / 1000 Ang^3
#
#
#
# Elastic Constant Matrix: (Units=GPa)
#
#
# Indices 1 2 3 4 5 6 
#
# 1 170.9184 13.8351 46.5394 -8.3968 71.7383 -26.9765
# 2 13.8351 47.0354 28.5359 -0.2802 -1.1853 2.0864
# 3 46.5394 28.5359 150.6775 16.3488 39.3531 6.2222
# 4 -8.3968 -0.2802 16.3488 42.6333 8.3366 5.5383
# 5 71.7383 -1.1853 39.3531 8.3366 60.0170 -14.8695
# 6 -26.9765 2.0864 6.2222 5.5383 -14.8695 34.9601
#
#
#
# Elastic Compliance Matrix: (Units=1/GPa)
#
#
# Indices 1 2 3 4 5 6 
#
# 1 0.014148 -0.004902 0.000346 0.005627 -0.017298 0.002899
# 2 -0.004902 0.026780 -0.006309 -0.000508 0.010687 0.000368
# 3 0.000346 -0.006309 0.010195 -0.001748 -0.008050 -0.004318
# 4 0.005627 -0.000508 -0.001748 0.027827 -0.010493 -0.004188
# 5 -0.017298 0.010687 -0.008050 -0.010493 0.046486 0.008881
# 6 0.002899 0.000368 -0.004318 -0.004188 0.008881 0.036029
#
#
# Mechanical properties :
#
#
# Convention : Reuss Voigt Hill
#
# Bulk Modulus (GPa) = 34.02214 60.71691 47.36952
# Shear Modulus (GPa) = 25.90792 46.17015 36.03903
#
# Velocity S-wave (km/s) = 3.05564 4.07912 3.60390
# Velocity P-wave (km/s) = 4.97096 6.63832 5.86420
#
# Compressibility (1/GPa) = 0.02939263
#
# Stress axis : x y z
#
# Youngs Moduli (GPa) = 70.68328 37.34124 98.08709
#
# Poissons Ratio (x) = 0.18306 -0.03395
# Poissons Ratio (y) = 0.34652 0.61881
# Poissons Ratio (z) = -0.02447 0.23558
#
# Static dielectric constant tensor:
#      x y z
#    x 2.285640 -0.153520 -0.102600 
#    y -0.153520 2.234920 0.082130 
#    z -0.102600 0.082130 2.210830 
# 
# From -- ./inp_files/305750.got.cif
#   From: 2010.05.17/outbox.cif.g08.bks.cpg/sg2_153_cif.got.tgz:305750.got - 2010.06.03 11:33:40.
