data_PCOD9059251
_publ_section_title
;
Structure prediction by ZEFSAII (Michael W. Deem and Ramdas Pophale) SiO2 
 PCOD9059251
Probable space group: P -1
;
_chemical_formula_sum "Si O2"
_cell_formula_units_Z 16
_cell_length_a 8.081525
_cell_length_b 5.132324
_cell_length_c 30.471256
_cell_angle_alpha 114.035575
_cell_angle_beta 135.175230
_cell_angle_gamma 85.943949
_cell_volume 765.556459
_symmetry_space_group_name_H-M "P -1"
_symmetry_group_IT_number 2
_symmetry_cell_setting 'triclinic'
loop_
_space_group_symop_operation_xyz
x,y,z
-x,-y,-z
loop_
_atom_site_type_symbol
_atom_site_label
_atom_site_fract_x
_atom_site_fract_y
_atom_site_fract_z
Si Si1 0.752082 0.889925 0.917675
Si Si2 0.685680 0.325049 0.699467
Si Si3 0.072168 0.356995 0.442000
Si Si4 0.465425 0.238061 0.839567
Si Si5 0.418910 0.644184 0.605459
Si Si6 0.785763 0.188696 0.576399
Si Si7 0.434890 0.548910 0.215779
Si Si8 0.921257 0.369450 0.270358
O O1 0.541808 0.601236 0.881196
O O2 0.780686 0.736725 0.865957
O O3 0.638635 0.144733 0.900335
O O4 0.000000 0.000000 0.000000
O O5 0.507986 0.452464 0.644804
O O6 0.628292 0.375542 0.742717
O O7 0.962798 0.506600 0.746438
O O8 0.621819 0.967866 0.655112
O O9 0.295612 0.459109 0.526361
O O10 0.101139 0.638138 0.435086
O O11 0.810720 0.273120 0.411168
O O12 0.093167 0.059312 0.402692
O O13 0.533385 0.194934 0.798102
O O14 0.192174 0.993597 0.777141
O O15 0.852759 0.458654 0.642669
O O16 0.500000 0.000000 0.500000
O O17 0.690664 0.468992 0.252000
#
# Coordination Sequence:
#
# PCOD9059251 Si02
#       8
#     2   2   2   2   2   2   2   2
#     4   9  18  36  67  99 126 161 204 245 295 372
#     4  12  26  39  64  89 124 160 213 256 308 377
#     4  11  23  41  59  79 118 155 207 271 328 381
#     4   9  21  36  63  94 125 164 206 239 315 361
#     4  11  24  40  58  87 114 159 209 266 325 375
#     4  12  25  38  61  84 117 166 216 265 324 371
#     4   9  23  40  63  95 125 164 206 244 317 365
#     4  11  24  41  64  90 127 165 211 269 310 368
#
# _framework density 20.899832
#
# number of rings (size 3 to 8) (size 9 to 14) (size 15 to 20)
#    0.750    0.750    0.000    5.250    8.750    2.000 
#    0.000    0.000    0.000    3.750    0.000    0.000 
#    0.000    0.000    0.000    0.000    0.000    0.000 
#
# Total GULP energy -89227.497942 kJ/mol
# GULP energy per Si atom -5576.718621 kJ/mol
# Density = 2.085226 g / cm^3
# Si number density = 20.899832 Si / 1000 Ang^3
#
#
#
# Elastic Constant Matrix: (Units=GPa)
#
#
# Indices 1 2 3 4 5 6 
#
# 1 83.6476 18.4420 26.6583 3.9866 1.8680 16.3602
# 2 18.4420 114.5955 20.4940 -1.7585 5.5305 12.0571
# 3 26.6583 20.4940 115.7456 -5.2368 9.6048 8.0416
# 4 3.9866 -1.7585 -5.2368 31.3017 3.6415 5.7129
# 5 1.8680 5.5305 9.6048 3.6415 20.4442 2.4550
# 6 16.3602 12.0571 8.0416 5.7129 2.4550 34.1208
#
#
#
# Elastic Compliance Matrix: (Units=1/GPa)
#
#
# Indices 1 2 3 4 5 6 
#
# 1 0.014278 -0.001290 -0.002851 -0.001507 0.001320 -0.005561
# 2 -0.001290 0.009492 -0.000993 0.001221 -0.001892 -0.002570
# 3 -0.002851 -0.000993 0.010024 0.002654 -0.004561 -0.000760
# 4 -0.001507 0.001221 0.002654 0.034479 -0.006907 -0.005610
# 5 0.001320 -0.001892 -0.004561 -0.006907 0.052863 -0.001536
# 6 -0.005561 -0.002570 -0.000760 -0.005610 -0.001536 0.034111
#
#
# Mechanical properties :
#
#
# Convention : Reuss Voigt Hill
#
# Bulk Modulus (GPa) = 42.50668 49.46413 45.98540
# Shear Modulus (GPa) = 28.84239 33.73297 31.28768
#
# Velocity S-wave (km/s) = 3.71891 4.02186 3.87335
# Velocity P-wave (km/s) = 6.23079 6.72947 6.48493
#
# Compressibility (1/GPa) = 0.02352572
#
# Stress axis : x y z
#
# Youngs Moduli (GPa) = 70.03805 105.35314 99.76464
#
# Poissons Ratio (x) = 0.13586 0.28448
# Poissons Ratio (y) = 0.09032 0.09905
# Poissons Ratio (z) = 0.19971 0.10460
#
# Static dielectric constant tensor:
#      x y z
#    x 1.786680 -0.023810 0.010520 
#    y -0.023810 1.788430 -0.008510 
#    z 0.010520 -0.008510 1.774950 
# 
# From -- ./inp_files/622129.got.cif
#   From: 2010.05.17/outbox.cif.g08.bks.cpg/sg2_312_cif.got.tgz:622129.got - 2010.06.03 11:33:40.
