data_PCOD9059877
_publ_section_title
;
Structure prediction by ZEFSAII (Michael W. Deem and Ramdas Pophale) SiO2 
 PCOD9059877
Probable space group: P -1
;
_chemical_formula_sum "Si O2"
_cell_formula_units_Z 12
_cell_length_a 11.793175
_cell_length_b 14.517727
_cell_length_c 6.774563
_cell_angle_alpha 79.275957
_cell_angle_beta 109.460177
_cell_angle_gamma 41.951803
_cell_volume 530.349370
_symmetry_space_group_name_H-M "P -1"
_symmetry_group_IT_number 2
_symmetry_cell_setting 'triclinic'
loop_
_space_group_symop_operation_xyz
x,y,z
-x,-y,-z
loop_
_atom_site_type_symbol
_atom_site_label
_atom_site_fract_x
_atom_site_fract_y
_atom_site_fract_z
Si Si1 0.527841 0.916133 0.741040
Si Si2 0.818986 0.619254 0.531916
Si Si3 0.201192 0.457323 0.068347
Si Si4 0.281795 0.048507 0.924107
Si Si5 0.411726 0.511680 0.142308
Si Si6 0.118588 0.817534 0.174854
O O1 0.627016 0.746529 0.810842
O O2 0.500000 0.000000 0.500000
O O3 0.454576 0.174073 0.775332
O O4 0.808264 0.535815 0.701528
O O5 0.000000 0.500000 0.500000
O O6 0.296650 0.054169 0.695200
O O7 0.942728 0.608511 0.760666
O O8 0.298380 0.488398 0.035622
O O9 0.291908 0.143545 0.994316
O O10 0.073276 0.123283 0.856920
O O11 0.216252 0.706090 0.072317
O O12 0.644728 0.336180 0.487529
O O13 0.500000 0.500000 0.000000
O O14 0.000000 0.000000 0.000000
#
# Coordination Sequence:
#
# PCOD9059877 Si02
#       6
#     2   2   2   2   2   2
#     4  11  24  42  67 108 144 185 234 303 367 434
#     4  11  23  42  70 104 145 188 226 299 375 426
#     4  11  25  44  72 104 145 186 241 300 363 440
#     4  11  25  43  69 107 143 186 242 295 369 437
#     4  11  29  53  76 108 146 201 254 305 371 439
#     4  11  28  52  77 105 150 200 251 311 364 441
#
# _framework density 22.626593
#
# number of rings (size 3 to 8) (size 9 to 14) (size 15 to 20)
#    0.000    1.000    3.333    1.000    7.000    7.333 
#    0.000    0.000    0.000    0.000    0.000    0.000 
#    0.000    0.000    0.000    0.000    0.000    0.000 
#
# Total GULP energy -67136.116724 kJ/mol
# GULP energy per Si atom -5594.676394 kJ/mol
# Density = 2.257509 g / cm^3
# Si number density = 22.626593 Si / 1000 Ang^3
#
#
#
# Elastic Constant Matrix: (Units=GPa)
#
#
# Indices 1 2 3 4 5 6 
#
# 1 208.5949 68.6267 27.1610 -10.4344 -12.2931 -10.5631
# 2 68.6267 135.5901 27.5269 -25.5829 -18.3212 -15.2289
# 3 27.1610 27.5269 75.1510 -16.6423 -11.2754 -12.1893
# 4 -10.4344 -25.5829 -16.6423 35.8425 -2.0996 -4.4618
# 5 -12.2931 -18.3212 -11.2754 -2.0996 42.7555 6.6161
# 6 -10.5631 -15.2289 -12.1893 -4.4618 6.6161 46.6491
#
#
#
# Elastic Compliance Matrix: (Units=1/GPa)
#
#
# Indices 1 2 3 4 5 6 
#
# 1 0.005862 -0.002882 -0.001267 -0.000940 0.000077 -0.000045
# 2 -0.002882 0.011193 -0.000298 0.007621 0.003781 0.003116
# 3 -0.001267 -0.000298 0.016895 0.008012 0.003696 0.004273
# 4 -0.000940 0.007621 0.008012 0.038023 0.005866 0.007174
# 5 0.000077 0.003781 0.003696 0.005866 0.026445 -0.000972
# 6 -0.000045 0.003116 0.004273 0.007174 -0.000972 0.024384
#
#
# Mechanical properties :
#
#
# Convention : Reuss Voigt Hill
#
# Bulk Modulus (GPa) = 39.90811 73.99614 56.95212
# Shear Modulus (GPa) = 35.70204 44.78417 40.24311
#
# Velocity S-wave (km/s) = 3.97656 4.45373 4.22189
# Velocity P-wave (km/s) = 6.22576 7.69557 6.99935
#
# Compressibility (1/GPa) = 0.02505757
#
# Stress axis : x y z
#
# Youngs Moduli (GPa) = 170.58073 89.34021 59.18800
#
# Poissons Ratio (x) = 0.25746 0.07499
# Poissons Ratio (y) = 0.49158 0.01763
# Poissons Ratio (z) = 0.21613 0.02660
#
# Static dielectric constant tensor:
#      x y z
#    x 1.817480 -0.035430 -0.022840 
#    y -0.035430 1.906960 -0.029040 
#    z -0.022840 -0.029040 1.886340 
# 
# From -- ./inp_files/258169.got.cif
#   From: 2010.05.17/outbox.cif.g08.bks.cpg/sg2_130_cif.got.tgz:258169.got - 2010.06.03 11:33:40.
