data_PCOD9059385
_publ_section_title
;
Structure prediction by ZEFSAII (Michael W. Deem and Ramdas Pophale) SiO2 
 PCOD9059385
Probable space group: P -1
;
_chemical_formula_sum "Si O2"
_cell_formula_units_Z 14
_cell_length_a 12.461256
_cell_length_b 8.633693
_cell_length_c 7.230025
_cell_angle_alpha 129.187888
_cell_angle_beta 77.903846
_cell_angle_gamma 88.050270
_cell_volume 575.121156
_symmetry_space_group_name_H-M "P -1"
_symmetry_group_IT_number 2
_symmetry_cell_setting 'triclinic'
loop_
_space_group_symop_operation_xyz
x,y,z
-x,-y,-z
loop_
_atom_site_type_symbol
_atom_site_label
_atom_site_fract_x
_atom_site_fract_y
_atom_site_fract_z
Si Si1 0.113358 0.996103 0.345149
Si Si2 0.318946 0.480655 0.353841
Si Si3 0.720438 0.387938 0.921108
Si Si4 0.771112 0.809168 0.223551
Si Si5 0.108998 0.321681 0.294472
Si Si6 0.399414 0.869779 0.716982
Si Si7 0.540235 0.149608 0.910213
O O1 0.185281 0.101717 0.542208
O O2 0.094341 0.119761 0.255360
O O3 0.182650 0.764370 0.119010
O O4 0.000000 0.000000 0.500000
O O5 0.253444 0.609065 0.302976
O O6 0.218992 0.384984 0.395053
O O7 0.382288 0.638988 0.546115
O O8 0.419136 0.298488 0.108499
O O9 0.712282 0.622211 0.155599
O O10 0.609998 0.294359 0.895811
O O11 0.691271 0.989946 0.274320
O O12 0.865248 0.720440 0.965216
O O13 0.000000 0.500000 0.500000
O O14 0.394195 0.916656 0.972740
O O15 0.514108 0.943282 0.676521
#
# Coordination Sequence:
#
# PCOD9059385 Si02
#       7
#     2   2   2   2   2   2   2
#     4  12  27  48  74 105 136 181 236 285 348 419
#     4  11  23  44  64  99 140 178 228 285 343 406
#     4  11  24  42  69 101 138 178 237 282 338 416
#     4  11  25  48  71 104 144 179 228 292 349 401
#     4  11  26  48  74 103 138 180 235 287 347 419
#     4  11  23  41  67  94 141 181 226 278 347 401
#     4  11  24  41  66 101 139 184 234 279 340 413
#
# _framework density 24.342696
#
# number of rings (size 3 to 8) (size 9 to 14) (size 15 to 20)
#    0.000    0.857    4.286    3.429    4.000    4.571 
#    0.000    0.000    0.000    0.000    0.000    0.000 
#    0.000    0.000    0.000    0.000    0.000    0.000 
#
# Total GULP energy -78241.260244 kJ/mol
# GULP energy per Si atom -5588.661446 kJ/mol
# Density = 2.428729 g / cm^3
# Si number density = 24.342696 Si / 1000 Ang^3
#
#
#
# Elastic Constant Matrix: (Units=GPa)
#
#
# Indices 1 2 3 4 5 6 
#
# 1 76.2346 15.1243 13.8245 15.4765 -14.2735 15.6755
# 2 15.1243 119.3528 8.9536 10.9219 -19.8802 8.5154
# 3 13.8245 8.9536 74.5129 18.8773 -0.9898 0.8034
# 4 15.4765 10.9219 18.8773 36.8487 -1.6451 5.6086
# 5 -14.2735 -19.8802 -0.9898 -1.6451 44.8702 6.4537
# 6 15.6755 8.5154 0.8034 5.6086 6.4537 51.3611
#
#
#
# Elastic Compliance Matrix: (Units=1/GPa)
#
#
# Indices 1 2 3 4 5 6 
#
# 1 0.016614 -0.000198 -0.001653 -0.005028 0.005722 -0.005182
# 2 -0.000198 0.009473 -0.000521 -0.001987 0.004312 -0.001827
# 3 -0.001653 -0.000521 0.015638 -0.007393 -0.000864 0.001262
# 4 -0.005028 -0.001987 -0.007393 0.033812 -0.001178 -0.001564
# 5 0.005722 0.004312 -0.000864 -0.001178 0.026772 -0.005683
# 6 -0.005182 -0.001827 0.001262 -0.001564 -0.005683 0.022220
#
#
# Mechanical properties :
#
#
# Convention : Reuss Voigt Hill
#
# Bulk Modulus (GPa) = 27.04161 38.43388 32.73775
# Shear Modulus (GPa) = 35.31071 42.09587 38.70329
#
# Velocity S-wave (km/s) = 3.81276 4.16300 3.99172
# Velocity P-wave (km/s) = 5.52410 6.23942 5.89263
#
# Compressibility (1/GPa) = 0.03698005
#
# Stress axis : x y z
#
# Youngs Moduli (GPa) = 60.19011 105.56038 63.94820
#
# Poissons Ratio (x) = 0.02095 0.10570
# Poissons Ratio (y) = 0.01195 0.03333
# Poissons Ratio (z) = 0.09948 0.05501
#
# Static dielectric constant tensor:
#      x y z
#    x 1.968410 0.056390 0.015040 
#    y 0.056390 1.984170 -0.009550 
#    z 0.015040 -0.009550 2.001090 
# 
# From -- ./inp_files/206708.got.cif
#   From: 2010.05.17/outbox.cif.g08.bks.cpg/sg2_104_cif.got.tgz:206708.got - 2010.06.03 11:33:40.
