data_PCOD9059722
_publ_section_title
;
Structure prediction by ZEFSAII (Michael W. Deem and Ramdas Pophale) SiO2 
 PCOD9059722
Probable space group: P -1
;
_chemical_formula_sum "Si O2"
_cell_formula_units_Z 14
_cell_length_a 8.290685
_cell_length_b 14.728653
_cell_length_c 11.514814
_cell_angle_alpha 93.673462
_cell_angle_beta 144.642403
_cell_angle_gamma 67.254714
_cell_volume 662.026511
_symmetry_space_group_name_H-M "P -1"
_symmetry_group_IT_number 2
_symmetry_cell_setting 'triclinic'
loop_
_space_group_symop_operation_xyz
x,y,z
-x,-y,-z
loop_
_atom_site_type_symbol
_atom_site_label
_atom_site_fract_x
_atom_site_fract_y
_atom_site_fract_z
Si Si1 0.548732 0.556387 0.426471
Si Si2 0.859443 0.285345 0.975511
Si Si3 0.646182 0.937975 0.895563
Si Si4 0.573877 0.129215 0.010451
Si Si5 0.273815 0.083096 0.476543
Si Si6 0.191122 0.293706 0.405757
Si Si7 0.873535 0.658867 0.384423
O O1 0.500000 0.500000 0.500000
O O2 0.612969 0.650131 0.502149
O O3 0.122800 0.544454 0.455511
O O4 0.217721 0.621040 0.154920
O O5 0.073122 0.165986 0.027106
O O6 0.028681 0.291872 0.190620
O O7 0.486736 0.319164 0.793733
O O8 0.540142 0.892703 0.935859
O O9 0.347944 0.018431 0.635271
O O10 0.728981 0.018590 0.012912
O O11 0.876699 0.143823 0.214707
O O12 0.250195 0.234499 0.761441
O O13 0.387827 0.166759 0.555835
O O14 0.500000 0.000000 0.500000
O O15 0.964445 0.351987 0.393895
#
# Coordination Sequence:
#
# PCOD9059722 Si02
#       7
#     2   2   2   2   2   2   2
#     4  11  27  47  66  96 129 167 217 272 327 381
#     4  11  23  43  70  97 124 172 219 264 321 386
#     4  11  24  41  65  97 137 171 212 264 324 380
#     4  11  24  41  64  96 136 175 208 267 323 376
#     4  12  23  41  64  99 131 173 217 257 316 394
#     4  11  23  42  67  95 126 168 219 263 318 377
#     4  11  23  44  67  94 127 168 221 264 318 384
#
# _framework density 21.147189000000001
#
# number of rings (size 3 to 8) (size 9 to 14) (size 15 to 20)
#    0.000    0.857    4.286    3.000    4.000    4.000 
#    2.571    0.000    0.000    0.000    0.000    0.000 
#    0.000    0.000    0.000    0.000    0.000    0.000 
#
# Total GULP energy -78118.838578 kJ/mol
# GULP energy per Si atom -5579.917041 kJ/mol
# Density = 2.109906 g / cm^3
# Si number density = 21.147189 Si / 1000 Ang^3
#
#
#
# Elastic Constant Matrix: (Units=GPa)
#
#
# Indices 1 2 3 4 5 6 
#
# 1 86.0784 54.1810 42.9138 7.3831 -34.9472 7.0461
# 2 54.1810 113.4225 40.4854 -1.7444 -5.1906 -0.3487
# 3 42.9138 40.4854 97.1200 -2.3921 -33.5636 -3.4892
# 4 7.3831 -1.7444 -2.3921 32.0670 0.9317 -9.6034
# 5 -34.9472 -5.1906 -33.5636 0.9317 43.4522 -10.9297
# 6 7.0461 -0.3487 -3.4892 -9.6034 -10.9297 42.1871
#
#
#
# Elastic Compliance Matrix: (Units=1/GPa)
#
#
# Indices 1 2 3 4 5 6 
#
# 1 0.030049 -0.013368 -0.000310 -0.008732 0.022166 -0.001400
# 2 -0.013368 0.016633 -0.005559 0.003750 -0.013311 -0.000685
# 3 -0.000310 -0.005559 0.017988 0.002421 0.014380 0.005770
# 4 -0.008732 0.003750 0.002421 0.036414 -0.003183 0.009154
# 5 0.022166 -0.013311 0.014380 -0.003183 0.053042 0.010394
# 6 -0.001400 -0.000685 0.005770 0.009154 0.010394 0.029186
#
#
# Mechanical properties :
#
#
# Convention : Reuss Voigt Hill
#
# Bulk Modulus (GPa) = 38.17487 63.53126 50.85307
# Shear Modulus (GPa) = 21.69043 34.14399 27.91721
#
# Velocity S-wave (km/s) = 3.20611 4.02255 3.63731
# Velocity P-wave (km/s) = 5.63886 7.18903 6.46061
#
# Compressibility (1/GPa) = 0.02619524
#
# Stress axis : x y z
#
# Youngs Moduli (GPa) = 33.27920 60.12158 55.59405
#
# Poissons Ratio (x) = 0.80368 0.01724
# Poissons Ratio (y) = 0.44486 0.30907
# Poissons Ratio (z) = 0.01032 0.33424
#
# Static dielectric constant tensor:
#      x y z
#    x 1.780740 0.008500 -0.045440 
#    y 0.008500 1.795560 0.005680 
#    z -0.045440 0.005680 1.809050 
# 
# From -- ./inp_files/397513.got.cif
#   From: 2010.05.17/outbox.cif.g08.bks.cpg/sg2_199_cif.got.tgz:397513.got - 2010.06.03 11:33:40.
