data_PCOD9059459
_publ_section_title
;
Structure prediction by ZEFSAII (Michael W. Deem and Ramdas Pophale) SiO2 
 PCOD9059459
Probable space group: P -1
;
_chemical_formula_sum "Si O2"
_cell_formula_units_Z 14
_cell_length_a 8.731310
_cell_length_b 8.824704
_cell_length_c 11.611032
_cell_angle_alpha 47.705530
_cell_angle_beta 125.647716
_cell_angle_gamma 104.923982
_cell_volume 524.093685
_symmetry_space_group_name_H-M "P -1"
_symmetry_group_IT_number 2
_symmetry_cell_setting 'triclinic'
loop_
_space_group_symop_operation_xyz
x,y,z
-x,-y,-z
loop_
_atom_site_type_symbol
_atom_site_label
_atom_site_fract_x
_atom_site_fract_y
_atom_site_fract_z
Si Si1 0.101160 0.605280 0.672307
Si Si2 0.416492 0.849261 0.707984
Si Si3 0.268042 0.117631 0.737779
Si Si4 0.903598 0.332287 0.099271
Si Si5 0.380049 0.733219 0.142168
Si Si6 0.243062 0.029840 0.307014
Si Si7 0.105999 0.767468 0.210718
O O1 0.316026 0.652985 0.739445
O O2 0.050454 0.682572 0.740638
O O3 0.949362 0.759568 0.445699
O O4 0.044132 0.379424 0.753637
O O5 0.645598 0.833306 0.796444
O O6 0.345272 0.965227 0.738801
O O7 0.334326 0.004665 0.486643
O O8 0.399465 0.288677 0.716845
O O9 0.312666 0.977650 0.944624
O O10 0.021723 0.132031 0.185237
O O11 0.682127 0.379311 0.939379
O O12 0.000000 0.500000 0.000000
O O13 0.255219 0.674676 0.221824
O O14 0.239208 0.815059 0.349561
O O15 0.000000 0.000000 0.000000
#
# Coordination Sequence:
#
# PCOD9059459 Si02
#       7
#     2   2   2   2   2   2   2
#     4  12  25  44  77 104 136 189 252 279 342 430
#     4  11  23  43  71 103 138 185 232 294 342 421
#     4  11  23  43  71 106 138 187 239 292 341 426
#     4  12  22  43  72 101 133 187 237 289 341 422
#     4  11  23  41  69 101 146 178 231 290 361 400
#     4  11  24  44  68  99 150 179 225 291 367 405
#     4  12  25  45  69  99 145 187 224 297 365 412
#
# _framework density 26.712779999999999
#
# number of rings (size 3 to 8) (size 9 to 14) (size 15 to 20)
#    0.000    0.571    7.143    1.286    0.000    1.143 
#    5.143    4.286    0.000    0.000    0.000    0.000 
#    0.000    0.000    0.000    0.000    0.000    0.000 
#
# Total GULP energy -78235.208086 kJ/mol
# GULP energy per Si atom -5588.229149 kJ/mol
# Density = 2.665198 g / cm^3
# Si number density = 26.712780 Si / 1000 Ang^3
#
#
#
# Elastic Constant Matrix: (Units=GPa)
#
#
# Indices 1 2 3 4 5 6 
#
# 1 129.5182 49.0447 33.0280 -9.4839 -3.1259 30.6056
# 2 49.0447 141.3716 30.4381 7.9241 0.6186 38.0252
# 3 33.0280 30.4381 56.4174 12.3425 -8.5865 1.3907
# 4 -9.4839 7.9241 12.3425 48.2805 9.1632 -11.6327
# 5 -3.1259 0.6186 -8.5865 9.1632 39.1380 4.7483
# 6 30.6056 38.0252 1.3907 -11.6327 4.7483 66.0384
#
#
#
# Elastic Compliance Matrix: (Units=1/GPa)
#
#
# Indices 1 2 3 4 5 6 
#
# 1 0.011000 -0.001769 -0.006290 0.003436 -0.000880 -0.003278
# 2 -0.001769 0.010048 -0.003734 -0.002333 0.000070 -0.005303
# 3 -0.006290 -0.003734 0.026143 -0.007974 0.006841 0.002618
# 4 0.003436 -0.002333 -0.007974 0.026640 -0.008307 0.005209
# 5 -0.000880 0.000070 0.006841 -0.008307 0.029331 -0.003349
# 6 -0.003278 -0.005303 0.002618 0.005209 -0.003349 0.020819
#
#
# Mechanical properties :
#
#
# Convention : Reuss Voigt Hill
#
# Bulk Modulus (GPa) = 42.36300 61.36989 51.86645
# Shear Modulus (GPa) = 32.16777 45.01113 38.58945
#
# Velocity S-wave (km/s) = 3.47394 4.10933 3.80492
# Velocity P-wave (km/s) = 5.65545 6.74828 6.22589
#
# Compressibility (1/GPa) = 0.02360550
#
# Stress axis : x y z
#
# Youngs Moduli (GPa) = 90.91098 99.52236 38.25124
#
# Poissons Ratio (x) = 0.17602 0.24061
# Poissons Ratio (y) = 0.16079 0.14282
# Poissons Ratio (z) = 0.57185 0.37159
#
# Static dielectric constant tensor:
#      x y z
#    x 4.791510 -2.465580 5.661170 
#    y -2.465580 4.571880 -5.434830 
#    z 5.661170 -5.434830 14.053000 
# 
# From -- ./inp_files/381123.got.cif
#   From: 2010.05.17/outbox.cif.g08.bks.cpg/sg2_191_cif.got.tgz:381123.got - 2010.06.03 11:33:40.
