data_PCOD9059130
_publ_section_title
;
Structure prediction by ZEFSAII (Michael W. Deem and Ramdas Pophale) SiO2 
 PCOD9059130
Probable space group: P -1
;
_chemical_formula_sum "Si O2"
_cell_formula_units_Z 14
_cell_length_a 8.901217
_cell_length_b 15.595440
_cell_length_c 5.336973
_cell_angle_alpha 73.821760
_cell_angle_beta 101.264580
_cell_angle_gamma 62.888597
_cell_volume 586.608159
_symmetry_space_group_name_H-M "P -1"
_symmetry_group_IT_number 2
_symmetry_cell_setting 'triclinic'
loop_
_space_group_symop_operation_xyz
x,y,z
-x,-y,-z
loop_
_atom_site_type_symbol
_atom_site_label
_atom_site_fract_x
_atom_site_fract_y
_atom_site_fract_z
Si Si1 0.067093 0.532227 0.247711
Si Si2 0.048756 0.053870 0.255732
Si Si3 0.676495 0.441055 0.935381
Si Si4 0.301584 0.740639 0.218764
Si Si5 0.956700 0.293272 0.554390
Si Si6 0.620337 0.096869 0.828583
Si Si7 0.300990 0.085673 0.619317
O O1 0.278531 0.486714 0.280396
O O2 0.142151 0.625495 0.775670
O O3 0.000000 0.500000 0.500000
O O4 0.000000 0.500000 0.000000
O O5 0.188021 0.088181 0.347182
O O6 0.174811 0.965609 0.163281
O O7 0.000000 0.000000 0.500000
O O8 0.862929 0.163580 0.065805
O O9 0.640386 0.365980 0.816602
O O10 0.979077 0.351742 0.755488
O O11 0.500000 0.500000 0.000000
O O12 0.192472 0.738036 0.424828
O O13 0.434827 0.782529 0.254840
O O14 0.151208 0.187583 0.648189
O O15 0.469561 0.096294 0.611102
O O16 0.634027 0.025391 0.127247
#
# Coordination Sequence:
#
# PCOD9059130 Si02
#       7
#     2   2   2   2   2   2   2
#     4  11  24  48  76 105 142 191 242 303 381 442
#     4  12  21  38  66  95 139 192 231 281 352 432
#     4  11  26  47  75 106 141 188 253 314 368 442
#     4  11  23  40  68 100 139 189 242 290 366 435
#     4  11  23  45  72 100 142 190 241 296 371 439
#     4  11  24  40  61 104 139 179 233 289 348 426
#     4  11  23  41  66  97 143 181 229 290 350 428
#
# _framework density 23.866016999999999
#
# number of rings (size 3 to 8) (size 9 to 14) (size 15 to 20)
#    0.000    0.857    5.714    1.714    0.000    3.429 
#    2.571    0.000    0.000    0.000    0.000    0.000 
#    0.000    0.000    0.000    0.000    0.000    0.000 
#
# Total GULP energy -78037.522222 kJ/mol
# GULP energy per Si atom -5574.108730 kJ/mol
# Density = 2.381170 g / cm^3
# Si number density = 23.866017 Si / 1000 Ang^3
#
#
#
# Elastic Constant Matrix: (Units=GPa)
#
#
# Indices 1 2 3 4 5 6 
#
# 1 154.2994 60.5625 21.3119 8.6326 -22.8777 27.0640
# 2 60.5625 95.0631 12.0518 19.0607 -7.4374 24.3063
# 3 21.3119 12.0518 67.8540 -1.2246 -11.8039 10.7051
# 4 8.6326 19.0607 -1.2246 32.8308 6.1038 -6.0189
# 5 -22.8777 -7.4374 -11.8039 6.1038 41.7967 10.4400
# 6 27.0640 24.3063 10.7051 -6.0189 10.4400 44.8162
#
#
#
# Elastic Compliance Matrix: (Units=1/GPa)
#
#
# Indices 1 2 3 4 5 6 
#
# 1 0.010248 -0.003884 -0.000492 -0.002775 0.006655 -0.005887
# 2 -0.003884 0.018904 0.000448 -0.013119 0.006076 -0.011191
# 3 -0.000492 0.000448 0.016744 -0.001685 0.006187 -0.005613
# 4 -0.002775 -0.013119 -0.001685 0.045113 -0.015637 0.018894
# 5 0.006655 0.006076 0.006187 -0.015637 0.037587 -0.019648
# 6 -0.005887 -0.011191 -0.005613 0.018894 -0.019648 0.040394
#
#
# Mechanical properties :
#
#
# Convention : Reuss Voigt Hill
#
# Bulk Modulus (GPa) = 26.28862 56.11877 41.20369
# Shear Modulus (GPa) = 26.38148 38.77477 32.57813
#
# Velocity S-wave (km/s) = 3.32836 4.03511 3.69866
# Velocity P-wave (km/s) = 5.08032 6.72864 5.96172
#
# Compressibility (1/GPa) = 0.03803928
#
# Stress axis : x y z
#
# Youngs Moduli (GPa) = 97.58025 52.89856 59.72288
#
# Poissons Ratio (x) = 0.20546 0.02941
# Poissons Ratio (y) = 0.37900 -0.02676
# Poissons Ratio (z) = 0.04805 -0.02370
#
# Static dielectric constant tensor:
#      x y z
#    x 1.901610 -0.026310 0.044980 
#    y -0.026310 1.970720 0.090940 
#    z 0.044980 0.090940 1.960100 
# 
# From -- ./inp_files/35201.got.cif
#   From: 2010.05.17/outbox.cif.g08.bks.cpg/sg2_18_cif.got.tgz:35201.got - 2010.06.03 11:33:40.
