data_PCOD9059579
_publ_section_title
;
Structure prediction by ZEFSAII (Michael W. Deem and Ramdas Pophale) SiO2 
 PCOD9059579
Probable space group: P -1
;
_chemical_formula_sum "Si O2"
_cell_formula_units_Z 14
_cell_length_a 20.131257
_cell_length_b 9.657140
_cell_length_c 5.046357
_cell_angle_alpha 80.708524
_cell_angle_beta 73.016562
_cell_angle_gamma 35.073034
_cell_volume 533.752112
_symmetry_space_group_name_H-M "P -1"
_symmetry_group_IT_number 2
_symmetry_cell_setting 'triclinic'
loop_
_space_group_symop_operation_xyz
x,y,z
-x,-y,-z
loop_
_atom_site_type_symbol
_atom_site_label
_atom_site_fract_x
_atom_site_fract_y
_atom_site_fract_z
Si Si1 0.922260 0.532527 0.874290
Si Si2 0.477514 0.388206 0.925369
Si Si3 0.738469 0.930823 0.568981
Si Si4 0.176476 0.509827 0.603544
Si Si5 0.782064 0.147175 0.139510
Si Si6 0.438398 0.174543 0.275237
Si Si7 0.061096 0.095556 0.502230
O O1 0.806198 0.806862 0.812783
O O2 0.989061 0.670246 0.398951
O O3 0.876376 0.455158 0.063154
O O4 0.000000 0.500000 0.000000
O O5 0.353048 0.580984 0.850418
O O6 0.595785 0.161166 0.691214
O O7 0.500000 0.500000 0.000000
O O8 0.470101 0.284220 0.191037
O O9 0.785251 0.711069 0.457313
O O10 0.765347 0.023554 0.337416
O O11 0.296073 0.395410 0.424139
O O12 0.064597 0.759553 0.498857
O O13 0.861716 0.095551 0.285940
O O14 0.854529 0.027848 0.815984
O O15 0.500000 0.000000 0.500000
O O16 0.500000 0.000000 0.000000
#
# Coordination Sequence:
#
# PCOD9059579 Si02
#       7
#     2   2   2   2   2   2   2
#     4  11  23  41  73 111 153 196 263 324 378 446
#     4  12  29  51  80 117 161 208 259 324 396 471
#     4  11  25  42  73 113 150 203 259 323 384 449
#     4  11  24  45  79 108 155 197 267 323 383 449
#     4  12  26  45  71 109 161 199 250 314 392 467
#     4  12  29  54  82 115 156 206 266 322 387 464
#     4  11  25  45  69 109 150 205 254 314 385 458
#
# _framework density 26.229402
#
# number of rings (size 3 to 8) (size 9 to 14) (size 15 to 20)
#    0.000    0.571    2.857    3.857   10.000    6.286 
#    0.000    1.429    0.000    0.000    0.000    0.000 
#    0.000    0.000    0.000    0.000    0.000    0.000 
#
# Total GULP energy -78387.644107 kJ/mol
# GULP energy per Si atom -5599.117436 kJ/mol
# Density = 2.616970 g / cm^3
# Si number density = 26.229402 Si / 1000 Ang^3
#
#
#
# Elastic Constant Matrix: (Units=GPa)
#
#
# Indices 1 2 3 4 5 6 
#
# 1 76.0878 38.2943 61.0691 -2.9214 -15.4802 -15.5796
# 2 38.2943 208.7659 81.0555 14.7577 8.1046 -46.6031
# 3 61.0691 81.0555 184.1230 4.3291 0.6021 -31.1906
# 4 -2.9214 14.7577 4.3291 44.7115 -14.5364 -23.2707
# 5 -15.4802 8.1046 0.6021 -14.5364 47.8011 -9.4833
# 6 -15.5796 -46.6031 -31.1906 -23.2707 -9.4833 48.4372
#
#
#
# Elastic Compliance Matrix: (Units=1/GPa)
#
#
# Indices 1 2 3 4 5 6 
#
# 1 0.024648 -0.000894 -0.005966 0.014137 0.015081 0.012970
# 2 -0.000894 0.006818 -0.001811 0.000597 -0.000178 0.005358
# 3 -0.005966 -0.001811 0.008426 -0.000529 -0.001657 0.001186
# 4 0.014137 0.000597 -0.000529 0.048986 0.026008 0.033408
# 5 0.015081 -0.000178 -0.001657 0.026008 0.038453 0.023636
# 6 0.012970 0.005358 0.001186 0.033408 0.023636 0.051414
#
#
# Mechanical properties :
#
#
# Convention : Reuss Voigt Hill
#
# Bulk Modulus (GPa) = 44.34593 92.20160 68.27377
# Shear Modulus (GPa) = 24.55749 47.42715 35.99232
#
# Velocity S-wave (km/s) = 3.06315 4.25687 3.70836
# Velocity P-wave (km/s) = 5.42717 7.70646 6.66497
#
# Compressibility (1/GPa) = 0.02254998
#
# Stress axis : x y z
#
# Youngs Moduli (GPa) = 40.57118 146.67278 118.68394
#
# Poissons Ratio (x) = 0.13118 0.70807
# Poissons Ratio (y) = 0.03628 0.21488
# Poissons Ratio (z) = 0.24205 0.26555
#
# Static dielectric constant tensor:
#      x y z
#    x 2.159430 -0.032810 -0.028540 
#    y -0.032810 1.998080 -0.078370 
#    z -0.028540 -0.078370 2.172250 
# 
# From -- ./inp_files/123406.got.cif
#   From: 2010.05.17/outbox.cif.g08.bks.cpg/sg2_62_cif.got.tgz:123406.got - 2010.06.03 11:33:40.
