data_PCOD9059273
_publ_section_title
;
Structure prediction by ZEFSAII (Michael W. Deem and Ramdas Pophale) SiO2 
 PCOD9059273
Probable space group: P -1
;
_chemical_formula_sum "Si O2"
_cell_formula_units_Z 14
_cell_length_a 8.337627
_cell_length_b 6.862442
_cell_length_c 19.043530
_cell_angle_alpha 109.731159
_cell_angle_beta 135.751509
_cell_angle_gamma 55.035511
_cell_volume 617.983953
_symmetry_space_group_name_H-M "P -1"
_symmetry_group_IT_number 2
_symmetry_cell_setting 'triclinic'
loop_
_space_group_symop_operation_xyz
x,y,z
-x,-y,-z
loop_
_atom_site_type_symbol
_atom_site_label
_atom_site_fract_x
_atom_site_fract_y
_atom_site_fract_z
Si Si1 0.764740 0.738341 0.049937
Si Si2 0.268136 0.642683 0.109488
Si Si3 0.394308 0.792097 0.585723
Si Si4 0.842694 0.450401 0.595238
Si Si5 0.679358 0.220460 0.278018
Si Si6 0.335481 0.234972 0.819735
Si Si7 0.172535 0.242301 0.484397
O O1 0.782354 0.654485 0.126986
O O2 0.000019 0.764865 0.088262
O O3 0.751487 0.537206 0.974163
O O4 0.500000 0.000000 0.000000
O O5 0.495079 0.473181 0.215225
O O6 0.387511 0.783351 0.119943
O O7 0.645228 0.542677 0.609644
O O8 0.154523 0.760530 0.474813
O O9 0.408480 0.790716 0.672381
O O10 0.358375 0.034335 0.570380
O O11 0.703173 0.683747 0.530164
O O12 0.125071 0.374855 0.707968
O O13 0.974644 0.174843 0.374664
O O14 0.651101 0.019697 0.203729
O O15 0.000000 0.500000 0.500000
#
# Coordination Sequence:
#
# PCOD9059273 Si02
#       7
#     2   2   2   2   2   2   2
#     4  11  25  51  74 104 136 172 228 286 346 432
#     4  11  26  48  74 101 139 179 222 285 355 411
#     4  11  24  39  61  97 136 183 229 280 330 400
#     4  11  23  41  63  93 137 181 230 277 338 400
#     4  12  23  42  65 100 136 174 234 279 332 410
#     4  12  24  46  72 101 139 181 225 288 345 405
#     4  12  22  40  63  90 136 183 227 276 335 394
#
# _framework density 22.654308
#
# number of rings (size 3 to 8) (size 9 to 14) (size 15 to 20)
#    0.000    0.571    5.714    3.000    0.000    0.571 
#    7.714    0.000    0.000    0.000    0.000    0.000 
#    0.000    0.000    0.000    0.000    0.000    0.000 
#
# Total GULP energy -78121.924112 kJ/mol
# GULP energy per Si atom -5580.137437 kJ/mol
# Density = 2.260275 g / cm^3
# Si number density = 22.654308 Si / 1000 Ang^3
#
#
#
# Elastic Constant Matrix: (Units=GPa)
#
#
# Indices 1 2 3 4 5 6 
#
# 1 125.4306 29.7526 37.5116 10.8494 0.9969 -5.5121
# 2 29.7526 73.5384 11.6539 5.1707 -1.4337 10.0654
# 3 37.5116 11.6539 72.1980 9.5237 -9.9211 0.9739
# 4 10.8494 5.1707 9.5237 25.7771 6.6949 -4.8041
# 5 0.9969 -1.4337 -9.9211 6.6949 48.6166 4.2037
# 6 -5.5121 10.0654 0.9739 -4.8041 4.2037 37.8757
#
#
#
# Elastic Compliance Matrix: (Units=1/GPa)
#
#
# Indices 1 2 3 4 5 6 
#
# 1 0.010588 -0.003826 -0.004993 -0.000959 -0.001453 0.002726
# 2 -0.003826 0.016115 0.000057 -0.003023 0.001447 -0.005385
# 3 -0.004993 0.000057 0.017966 -0.006282 0.004855 -0.002539
# 4 -0.000959 -0.003023 -0.006282 0.045684 -0.008294 0.007540
# 5 -0.001453 0.001447 0.004855 -0.008294 0.023150 -0.004342
# 6 0.002726 -0.005385 -0.002539 0.007540 -0.004342 0.029733
#
#
# Mechanical properties :
#
#
# Convention : Reuss Voigt Hill
#
# Bulk Modulus (GPa) = 36.84103 47.66702 42.25403
# Shear Modulus (GPa) = 29.44469 35.27047 32.35758
#
# Velocity S-wave (km/s) = 3.60910 3.95004 3.78341
# Velocity P-wave (km/s) = 5.80216 6.47228 6.14636
#
# Compressibility (1/GPa) = 0.02714365
#
# Stress axis : x y z
#
# Youngs Moduli (GPa) = 94.44919 62.05342 55.66069
#
# Poissons Ratio (x) = 0.23744 0.27793
# Poissons Ratio (y) = 0.36139 -0.00317
# Poissons Ratio (z) = 0.47161 -0.00354
#
# Static dielectric constant tensor:
#      x y z
#    x 2.104940 0.100930 0.143490 
#    y 0.100930 1.903200 0.058710 
#    z 0.143490 0.058710 1.971600 
# 
# From -- ./inp_files/315237.got.cif
#   From: 2010.05.17/outbox.cif.g08.bks.cpg/sg2_158_cif.got.tgz:315237.got - 2010.06.03 11:33:40.
