data_PCOD9059968
_publ_section_title
;
Structure prediction by ZEFSAII (Michael W. Deem and Ramdas Pophale) SiO2 
 PCOD9059968
Probable space group: P -1
;
_chemical_formula_sum "Si O2"
_cell_formula_units_Z 14
_cell_length_a 16.046470
_cell_length_b 14.753168
_cell_length_c 9.553576
_cell_angle_alpha 141.850458
_cell_angle_beta 29.916336
_cell_angle_gamma 145.064168
_cell_volume 622.755665
_symmetry_space_group_name_H-M "P -1"
_symmetry_group_IT_number 2
_symmetry_cell_setting 'triclinic'
loop_
_space_group_symop_operation_xyz
x,y,z
-x,-y,-z
loop_
_atom_site_type_symbol
_atom_site_label
_atom_site_fract_x
_atom_site_fract_y
_atom_site_fract_z
Si Si1 0.709769 0.732042 0.864591
Si Si2 0.472970 0.870501 0.501994
Si Si3 0.030871 0.051750 0.676348
Si Si4 0.881816 0.616392 0.724269
Si Si5 0.932418 0.307049 0.192516
Si Si6 0.516824 0.535082 0.350904
Si Si7 0.398315 0.091265 0.339288
O O1 0.816868 0.687112 0.775035
O O2 0.647639 0.609413 0.674401
O O3 0.525166 0.730536 0.198939
O O4 0.839028 0.921524 0.867859
O O5 0.252071 0.786280 0.744537
O O6 0.592938 0.946375 0.556448
O O7 0.500000 0.000000 0.500000
O O8 0.197056 0.036265 0.495798
O O9 0.000000 0.000000 0.500000
O O10 0.070019 0.241097 0.848571
O O11 0.948160 0.486708 0.407678
O O12 0.054266 0.738325 0.718090
O O13 0.705921 0.550089 0.011469
O O14 0.500000 0.500000 0.500000
O O15 0.510494 0.709592 0.556707
O O16 0.500000 0.000000 0.000000
#
# Coordination Sequence:
#
# PCOD9059968 Si02
#       7
#     2   2   2   2   2   2   2
#     4  12  25  45  74 103 139 186 236 293 350 419
#     4  12  24  40  74 103 140 183 242 287 349 418
#     4  12  26  47  71 105 147 184 234 294 358 421
#     4  11  24  45  72 103 140 184 239 292 348 423
#     4  11  23  42  72 101 142 181 235 289 352 414
#     4  12  25  46  73 103 143 184 232 294 358 417
#     4  12  28  49  71 103 146 189 239 291 356 429
#
# _framework density 22.480727000000002
#
# number of rings (size 3 to 8) (size 9 to 14) (size 15 to 20)
#    0.000    0.286    5.714    3.000    4.000    1.143 
#    2.571    1.429    0.000    0.000    0.000    0.000 
#    0.000    0.000    0.000    0.000    0.000    0.000 
#
# Total GULP energy -78088.827000 kJ/mol
# GULP energy per Si atom -5577.773357 kJ/mol
# Density = 2.242956 g / cm^3
# Si number density = 22.480727 Si / 1000 Ang^3
#
#
#
# Elastic Constant Matrix: (Units=GPa)
#
#
# Indices 1 2 3 4 5 6 
#
# 1 196.4749 26.9612 53.9404 15.2086 4.6929 1.1394
# 2 26.9612 61.8148 38.2302 15.0629 4.6488 3.4171
# 3 53.9404 38.2302 127.7674 34.8207 -4.3843 -3.2072
# 4 15.2086 15.0629 34.8207 40.7781 5.3279 1.4877
# 5 4.6929 4.6488 -4.3843 5.3279 45.7070 0.7123
# 6 1.1394 3.4171 -3.2072 1.4877 0.7123 41.1522
#
#
#
# Elastic Compliance Matrix: (Units=1/GPa)
#
#
# Indices 1 2 3 4 5 6 
#
# 1 0.005860 -0.001176 -0.002220 0.000247 -0.000720 -0.000234
# 2 -0.001176 0.020758 -0.005168 -0.002461 -0.002169 -0.001967
# 3 -0.002220 -0.005168 0.012815 -0.008658 0.002965 0.001751
# 4 0.000247 -0.002461 -0.008658 0.033375 -0.004471 -0.001606
# 5 -0.000720 -0.002169 0.002965 -0.004471 0.022975 0.000195
# 6 -0.000234 -0.001967 0.001751 -0.001606 0.000195 0.024661
#
#
# Mechanical properties :
#
#
# Convention : Reuss Voigt Hill
#
# Bulk Modulus (GPa) = 44.83128 69.36895 57.10012
# Shear Modulus (GPa) = 34.48089 43.32250 38.90169
#
# Velocity S-wave (km/s) = 3.92062 4.39463 4.16438
# Velocity P-wave (km/s) = 6.36242 7.52824 6.96975
#
# Compressibility (1/GPa) = 0.02230585
#
# Stress axis : x y z
#
# Youngs Moduli (GPa) = 170.64845 48.17440 78.03144
#
# Poissons Ratio (x) = 0.05666 0.17323
# Poissons Ratio (y) = 0.20069 0.40324
# Poissons Ratio (z) = 0.37884 0.24895
#
# Static dielectric constant tensor:
#      x y z
#    x 1.920120 0.077640 -0.016240 
#    y 0.077640 1.934090 -0.056780 
#    z -0.016240 -0.056780 1.896120 
# 
# From -- ./inp_files/157102.got.cif
#   From: 2010.05.17/outbox.cif.g08.bks.cpg/sg2_79_cif.got.tgz:157102.got - 2010.06.03 11:33:40.
