data_PCOD9059020
_publ_section_title
;
Structure prediction by ZEFSAII (Michael W. Deem and Ramdas Pophale) SiO2 
 PCOD9059020
Probable space group: P -1
;
_chemical_formula_sum "Si O2"
_cell_formula_units_Z 14
_cell_length_a 5.350192
_cell_length_b 18.644702
_cell_length_c 10.966771
_cell_angle_alpha 133.469606
_cell_angle_beta 54.317341
_cell_angle_gamma 111.328644
_cell_volume 643.569531
_symmetry_space_group_name_H-M "P -1"
_symmetry_group_IT_number 2
_symmetry_cell_setting 'triclinic'
loop_
_space_group_symop_operation_xyz
x,y,z
-x,-y,-z
loop_
_atom_site_type_symbol
_atom_site_label
_atom_site_fract_x
_atom_site_fract_y
_atom_site_fract_z
Si Si1 0.639898 0.910919 0.685854
Si Si2 0.764660 0.280017 0.100576
Si Si3 0.462573 0.939508 0.317239
Si Si4 0.687906 0.448754 0.995755
Si Si5 0.858316 0.081141 0.978441
Si Si6 0.938430 0.242728 0.735391
Si Si7 0.208875 0.404599 0.285537
O O1 0.769288 0.805281 0.476313
O O2 0.692907 0.983843 0.643956
O O3 0.803781 0.970056 0.816250
O O4 0.296194 0.906652 0.831209
O O5 0.436569 0.341087 0.239844
O O6 0.979441 0.333926 0.198293
O O7 0.712536 0.169616 0.036385
O O8 0.953952 0.274239 0.910661
O O9 0.290515 0.844529 0.291017
O O10 0.783112 0.906519 0.123499
O O11 0.500000 0.000000 0.500000
O O12 0.791852 0.334499 0.809288
O O13 0.500000 0.500000 0.000000
O O14 0.455059 0.446582 0.171842
O O15 0.000000 0.500000 0.000000
O O16 0.000000 0.500000 0.500000
#
# Coordination Sequence:
#
# PCOD9059020 Si02
#       7
#     2   2   2   2   2   2   2
#     4  11  24  40  61 100 135 178 220 286 335 402
#     4  11  23  43  71 101 135 186 227 284 339 426
#     4  12  22  40  67  95 133 188 228 274 329 416
#     4  11  25  45  69  99 134 175 226 294 345 406
#     4  11  23  40  61  95 144 169 226 276 342 396
#     4  11  23  44  67  97 132 182 235 268 345 412
#     4  11  25  46  73 100 133 176 236 288 352 412
#
# _framework density 21.753672000000002
#
# number of rings (size 3 to 8) (size 9 to 14) (size 15 to 20)
#    0.000    0.857    2.857    5.571    0.000    3.429 
#    0.000    0.000    0.000    0.000    0.000    0.000 
#    0.000    0.000    0.000    0.000    0.000    0.000 
#
# Total GULP energy -78228.828855 kJ/mol
# GULP energy per Si atom -5587.773490 kJ/mol
# Density = 2.170416 g / cm^3
# Si number density = 21.753672 Si / 1000 Ang^3
#
#
#
# Elastic Constant Matrix: (Units=GPa)
#
#
# Indices 1 2 3 4 5 6 
#
# 1 112.6558 34.4881 40.1078 15.1465 -9.3066 2.5938
# 2 34.4881 87.6759 32.1257 7.2188 -12.6082 -12.7327
# 3 40.1078 32.1257 157.7584 6.9681 -20.9212 2.3834
# 4 15.1465 7.2188 6.9681 33.1895 -2.6452 -14.3056
# 5 -9.3066 -12.6082 -20.9212 -2.6452 32.1966 4.0918
# 6 2.5938 -12.7327 2.3834 -14.3056 4.0918 36.9508
#
#
#
# Elastic Compliance Matrix: (Units=1/GPa)
#
#
# Indices 1 2 3 4 5 6 
#
# 1 0.011689 -0.004018 -0.001720 -0.005975 0.000768 -0.004492
# 2 -0.004018 0.014750 -0.001767 0.001740 0.002868 0.005835
# 3 -0.001720 -0.001767 0.007731 -0.000902 0.003986 -0.001778
# 4 -0.005975 0.001740 -0.000902 0.039750 -0.000465 0.016518
# 5 0.000768 0.002868 0.003986 -0.000465 0.035391 -0.003422
# 6 -0.004492 0.005835 -0.001778 0.016518 -0.003422 0.036277
#
#
# Mechanical properties :
#
#
# Convention : Reuss Voigt Hill
#
# Bulk Modulus (GPa) = 52.18933 63.50372 57.84653
# Shear Modulus (GPa) = 29.94269 37.22528 33.58398
#
# Velocity S-wave (km/s) = 3.71407 4.14117 3.93342
# Velocity P-wave (km/s) = 6.51426 7.21951 6.87593
#
# Compressibility (1/GPa) = 0.01916100
#
# Stress axis : x y z
#
# Youngs Moduli (GPa) = 85.54992 67.79657 129.34475
#
# Poissons Ratio (x) = 0.27239 0.22248
# Poissons Ratio (y) = 0.34372 0.22853
# Poissons Ratio (z) = 0.14715 0.11979
#
# Static dielectric constant tensor:
#      x y z
#    x 1.818490 -0.005150 -0.006220 
#    y -0.005150 1.775220 0.010710 
#    z -0.006220 0.010710 1.852320 
# 
# From -- ./inp_files/44986.got.cif
#   From: 2010.05.17/outbox.cif.g08.bks.cpg/sg2_23_cif.got.tgz:44986.got - 2010.06.03 11:33:40.
