data_PCOD9059613
_publ_section_title
;
Structure prediction by ZEFSAII (Michael W. Deem and Ramdas Pophale) SiO2 
 PCOD9059613
Probable space group: P -1
;
_chemical_formula_sum "Si O2"
_cell_formula_units_Z 16
_cell_length_a 13.504974
_cell_length_b 12.981101
_cell_length_c 8.962379
_cell_angle_alpha 44.805826
_cell_angle_beta 134.581911
_cell_angle_gamma 109.277480
_cell_volume 743.203382
_symmetry_space_group_name_H-M "P -1"
_symmetry_group_IT_number 2
_symmetry_cell_setting 'triclinic'
loop_
_space_group_symop_operation_xyz
x,y,z
-x,-y,-z
loop_
_atom_site_type_symbol
_atom_site_label
_atom_site_fract_x
_atom_site_fract_y
_atom_site_fract_z
Si Si1 0.705842 0.675359 0.820687
Si Si2 0.588007 0.658922 0.224279
Si Si3 0.542662 0.143610 0.833668
Si Si4 0.869607 0.145381 0.152609
Si Si5 0.844092 0.478630 0.875746
Si Si6 0.336908 0.117422 0.168542
Si Si7 0.858216 0.092463 0.856255
Si Si8 0.641499 0.401706 0.157132
O O1 0.540839 0.779598 0.484844
O O2 0.781740 0.595021 0.830314
O O3 0.739705 0.792491 0.853700
O O4 0.724143 0.522841 0.092973
O O5 0.526877 0.735437 0.236234
O O6 0.737724 0.527729 0.567651
O O7 0.632094 0.766878 0.039535
O O8 0.446314 0.620385 0.057522
O O9 0.714581 0.115412 0.034687
O O10 0.500000 0.000000 0.000000
O O11 0.863986 0.296210 0.089692
O O12 0.895414 0.152698 0.993612
O O13 0.000000 0.000000 0.500000
O O14 0.000000 0.500000 0.000000
O O15 0.500000 0.000000 0.500000
O O16 0.233726 0.024797 0.094000
O O17 0.746701 0.241483 0.499311
O O18 0.000000 0.000000 0.000000
O O19 0.500000 0.500000 0.000000
#
# Coordination Sequence:
#
# PCOD9059613 Si02
#       8
#     2   2   2   2   2   2   2   2
#     4  11  25  43  77 106 139 188 242 294 357 432
#     4  11  23  41  77  99 139 184 236 298 351 421
#     4  11  24  43  73 105 139 183 245 289 356 427
#     4  12  29  48  72 102 148 192 241 295 364 439
#     4  11  28  48  70 104 148 190 247 294 363 426
#     4  12  23  45  74 110 141 182 241 297 362 440
#     4  12  30  45  72 108 151 187 240 305 375 425
#     4  12  22  45  73 105 140 187 239 299 359 430
#
# _framework density 21.528427000000001
#
# number of rings (size 3 to 8) (size 9 to 14) (size 15 to 20)
#    0.000    0.500    2.500    5.250   10.500    2.000 
#    0.000    1.250    0.000    0.000    0.000    0.000 
#    0.000    0.000    0.000    0.000    0.000    0.000 
#
# Total GULP energy -89240.270449 kJ/mol
# GULP energy per Si atom -5577.516903 kJ/mol
# Density = 2.147943 g / cm^3
# Si number density = 21.528427 Si / 1000 Ang^3
#
#
#
# Elastic Constant Matrix: (Units=GPa)
#
#
# Indices 1 2 3 4 5 6 
#
# 1 83.0908 16.2303 16.6397 -9.1317 24.4870 -14.9364
# 2 16.2303 97.1709 22.7155 0.0868 2.7410 -15.3081
# 3 16.6397 22.7155 112.2563 -19.4163 15.4203 -8.5257
# 4 -9.1317 0.0868 -19.4163 28.4464 -2.1179 -6.1274
# 5 24.4870 2.7410 15.4203 -2.1179 30.2226 3.6917
# 6 -14.9364 -15.3081 -8.5257 -6.1274 3.6917 38.7947
#
#
#
# Elastic Compliance Matrix: (Units=1/GPa)
#
#
# Indices 1 2 3 4 5 6 
#
# 1 0.020109 -0.001689 0.002174 0.008907 -0.017928 0.010667
# 2 -0.001689 0.011557 -0.002219 -0.001348 0.000977 0.003116
# 3 0.002174 -0.002219 0.012084 0.009424 -0.007656 0.004834
# 4 0.008907 -0.001348 0.009424 0.046550 -0.010265 0.013298
# 5 -0.017928 0.000977 -0.007656 -0.010265 0.052522 -0.014819
# 6 0.010667 0.003116 0.004834 0.013298 -0.014819 0.035686
#
#
# Mechanical properties :
#
#
# Convention : Reuss Voigt Hill
#
# Bulk Modulus (GPa) = 24.82459 44.85434 34.83946
# Shear Modulus (GPa) = 25.58835 35.28823 30.43829
#
# Velocity S-wave (km/s) = 3.45133 4.05303 3.76422
# Velocity P-wave (km/s) = 5.23816 6.54086 5.92542
#
# Compressibility (1/GPa) = 0.04028264
#
# Stress axis : x y z
#
# Youngs Moduli (GPa) = 49.72845 86.53115 82.75613
#
# Poissons Ratio (x) = 0.14615 -0.17995
# Poissons Ratio (y) = 0.08399 0.18363
# Poissons Ratio (z) = -0.10813 0.19200
#
# Static dielectric constant tensor:
#      x y z
#    x 1.726740 0.001100 -0.009360 
#    y 0.001100 1.963990 0.494120 
#    z -0.009360 0.494120 2.890540 
# 
# From -- ./inp_files/306617.got.cif
#   From: 2010.05.17/outbox.cif.g08.bks.cpg/sg2_154_cif.got.tgz:306617.got - 2010.06.03 11:33:40.
