data_PCOD9059160
_publ_section_title
;
Structure prediction by ZEFSAII (Michael W. Deem and Ramdas Pophale) SiO2 
 PCOD9059160
Probable space group: P -1
;
_chemical_formula_sum "Si O2"
_cell_formula_units_Z 16
_cell_length_a 8.925797
_cell_length_b 7.703476
_cell_length_c 15.489369
_cell_angle_alpha 83.516737
_cell_angle_beta 43.980117
_cell_angle_gamma 71.729765
_cell_volume 691.963784
_symmetry_space_group_name_H-M "P -1"
_symmetry_group_IT_number 2
_symmetry_cell_setting 'triclinic'
loop_
_space_group_symop_operation_xyz
x,y,z
-x,-y,-z
loop_
_atom_site_type_symbol
_atom_site_label
_atom_site_fract_x
_atom_site_fract_y
_atom_site_fract_z
Si Si1 0.630878 0.715853 0.199641
Si Si2 0.957162 0.907965 0.294329
Si Si3 0.414538 0.940080 0.126997
Si Si4 0.854200 0.981466 0.143204
Si Si5 0.272829 0.807291 0.476075
Si Si6 0.115149 0.306261 0.331118
Si Si7 0.468449 0.366458 0.301203
Si Si8 0.304463 0.381269 0.567502
O O1 0.617299 0.798635 0.105427
O O2 0.826968 0.777786 0.159583
O O3 0.403491 0.844739 0.337651
O O4 0.605720 0.513101 0.225997
O O5 0.941904 0.001209 0.201434
O O6 0.808737 0.775053 0.360009
O O7 0.227551 0.835906 0.202381
O O8 0.839288 0.041708 0.414260
O O9 0.285329 0.132116 0.220181
O O10 0.500000 0.000000 0.000000
O O11 0.622843 0.158009 0.224803
O O12 0.000000 0.000000 0.000000
O O13 0.483380 0.660037 0.451649
O O14 0.058540 0.754782 0.532055
O O15 0.253112 0.411076 0.322684
O O16 0.917641 0.433286 0.341716
O O17 0.387698 0.364127 0.434029
#
# Coordination Sequence:
#
# PCOD9059160 Si02
#       8
#     2   2   2   2   2   2   2   2
#     4  12  25  46  73 105 138 185 237 286 357 416
#     4  11  24  41  71 100 138 193 229 289 357 413
#     4  11  26  48  68  96 143 189 238 289 345 418
#     4  12  26  49  72 100 145 191 237 285 342 409
#     4  11  23  40  69 102 142 180 222 292 355 416
#     4  11  25  41  69 101 140 185 221 295 349 407
#     4  12  26  45  73 107 144 181 230 295 348 423
#     4  12  22  42  66 107 145 171 235 289 358 414
#
# _framework density 23.122596999999999
#
# number of rings (size 3 to 8) (size 9 to 14) (size 15 to 20)
#    0.000    0.500    5.000    3.375    1.750    1.500 
#    2.250    1.250    0.000    0.000    0.000    0.000 
#    0.000    0.000    0.000    0.000    0.000    0.000 
#
# Total GULP energy -89303.155436 kJ/mol
# GULP energy per Si atom -5581.447215 kJ/mol
# Density = 2.306997 g / cm^3
# Si number density = 23.122597 Si / 1000 Ang^3
#
#
#
# Elastic Constant Matrix: (Units=GPa)
#
#
# Indices 1 2 3 4 5 6 
#
# 1 86.7049 19.7261 1.6903 0.7877 -2.8239 12.4751
# 2 19.7261 72.0499 19.6935 -10.2290 2.0343 11.1707
# 3 1.6903 19.6935 74.4579 -16.5287 20.6240 14.2596
# 4 0.7877 -10.2290 -16.5287 29.6614 -8.2979 -7.0510
# 5 -2.8239 2.0343 20.6240 -8.2979 30.2755 -11.6033
# 6 12.4751 11.1707 14.2596 -7.0510 -11.6033 35.9457
#
#
#
# Elastic Compliance Matrix: (Units=1/GPa)
#
#
# Indices 1 2 3 4 5 6 
#
# 1 0.013026 -0.003507 0.001843 -0.002573 -0.002623 -0.005514
# 2 -0.003507 0.016532 -0.003672 0.003958 0.001713 -0.001135
# 3 0.001843 -0.003672 0.023506 0.002424 -0.020689 -0.015026
# 4 -0.002573 0.003958 0.002424 0.043276 0.014219 0.011780
# 5 -0.002623 0.001713 -0.020689 0.014219 0.062788 0.031642
# 6 -0.005514 -0.001135 -0.015026 0.011780 0.031642 0.048572
#
#
# Mechanical properties :
#
#
# Convention : Reuss Voigt Hill
#
# Bulk Modulus (GPa) = 23.58773 35.04803 29.31788
# Shear Modulus (GPa) = 21.50522 31.98338 26.74430
#
# Velocity S-wave (km/s) = 3.05298 3.72319 3.40462
# Velocity P-wave (km/s) = 4.75930 5.80286 5.30679
#
# Compressibility (1/GPa) = 0.04239493
#
# Stress axis : x y z
#
# Youngs Moduli (GPa) = 76.76675 60.48737 42.54240
#
# Poissons Ratio (x) = 0.21210 -0.07842
# Poissons Ratio (y) = 0.26919 0.15620
# Poissons Ratio (z) = -0.14150 0.22209
#
# Static dielectric constant tensor:
#      x y z
#    x 1.958020 0.013920 -0.021660 
#    y 0.013920 1.992840 -0.044140 
#    z -0.021660 -0.044140 1.835230 
# 
# From -- ./inp_files/494790.got.cif
#   From: 2010.05.17/outbox.cif.g08.bks.cpg/sg2_248_cif.got.tgz:494790.got - 2010.06.03 11:33:40.
