data_PCOD9059184
_publ_section_title
;
Structure prediction by ZEFSAII (Michael W. Deem and Ramdas Pophale) SiO2 
 PCOD9059184
Probable space group: P -1
;
_chemical_formula_sum "Si O2"
_cell_formula_units_Z 14
_cell_length_a 8.886631
_cell_length_b 17.673516
_cell_length_c 11.741218
_cell_angle_alpha 29.222092
_cell_angle_beta 40.092143
_cell_angle_gamma 51.410803
_cell_volume 574.099777
_symmetry_space_group_name_H-M "P -1"
_symmetry_group_IT_number 2
_symmetry_cell_setting 'triclinic'
loop_
_space_group_symop_operation_xyz
x,y,z
-x,-y,-z
loop_
_atom_site_type_symbol
_atom_site_label
_atom_site_fract_x
_atom_site_fract_y
_atom_site_fract_z
Si Si1 0.599994 0.617769 0.187746
Si Si2 0.986314 0.300409 0.009205
Si Si3 0.081342 0.877580 0.380417
Si Si4 0.621828 0.001010 0.551182
Si Si5 0.202271 0.818635 0.135586
Si Si6 0.297734 0.623140 0.739120
Si Si7 0.187231 0.223306 0.776801
O O1 0.500000 0.500000 0.500000
O O2 0.373829 0.690140 0.181048
O O3 0.708801 0.521164 0.153661
O O4 0.795474 0.732946 0.994020
O O5 0.859949 0.418874 0.002567
O O6 0.782703 0.156689 0.294191
O O7 0.088811 0.337415 0.776557
O O8 0.096588 0.808971 0.334974
O O9 0.206394 0.769219 0.534642
O O10 0.816680 0.884813 0.568895
O O11 0.198023 0.060367 0.054778
O O12 0.500000 0.000000 0.500000
O O13 0.404936 0.967746 0.807792
O O14 0.002928 0.818419 0.157097
O O15 0.567663 0.687993 0.525121
#
# Coordination Sequence:
#
# PCOD9059184 Si02
#       7
#     2   2   2   2   2   2   2
#     4  12  25  48  67  97 140 188 231 274 325 410
#     4  11  24  45  70  97 137 176 231 281 336 403
#     4  11  23  40  70 100 138 178 225 276 346 400
#     4  11  24  43  69 107 139 166 222 289 349 400
#     4  12  24  44  71 100 145 174 225 285 340 400
#     4  12  25  44  69  99 138 185 232 271 332 408
#     4  11  24  40  68 105 133 177 223 287 347 393
#
# _framework density 24.386005000000001
#
# number of rings (size 3 to 8) (size 9 to 14) (size 15 to 20)
#    0.000    0.571    5.714    3.000    2.000    6.857 
#    0.000    0.714    0.000    0.000    0.000    0.000 
#    0.000    0.000    0.000    0.000    0.000    0.000 
#
# Total GULP energy -78321.872691 kJ/mol
# GULP energy per Si atom -5594.419478 kJ/mol
# Density = 2.433050 g / cm^3
# Si number density = 24.386005 Si / 1000 Ang^3
#
#
#
# Elastic Constant Matrix: (Units=GPa)
#
#
# Indices 1 2 3 4 5 6 
#
# 1 78.2706 34.9679 29.5913 -2.2148 -34.9094 -5.6467
# 2 34.9679 132.1172 1.3250 28.2423 -7.2146 22.5706
# 3 29.5913 1.3250 47.5358 5.4123 -18.3310 1.0467
# 4 -2.2148 28.2423 5.4123 45.6905 8.9841 1.5149
# 5 -34.9094 -7.2146 -18.3310 8.9841 33.0600 7.9204
# 6 -5.6467 22.5706 1.0467 1.5149 7.9204 38.4408
#
#
#
# Elastic Compliance Matrix: (Units=1/GPa)
#
#
# Indices 1 2 3 4 5 6 
#
# 1 0.031580 -0.008554 -0.010928 0.003364 0.023303 0.005025
# 2 -0.008554 0.013790 0.007588 -0.010161 0.003303 -0.009840
# 3 -0.010928 0.007588 0.035044 -0.012026 0.015130 -0.009658
# 4 0.003364 -0.010161 -0.012026 0.032673 -0.016336 0.008866
# 5 0.023303 0.003303 0.015130 -0.016336 0.071523 -0.013021
# 6 0.005025 -0.009840 -0.009658 0.008866 -0.013021 0.035126
#
#
# Mechanical properties :
#
#
# Convention : Reuss Voigt Hill
#
# Bulk Modulus (GPa) = 17.65950 43.29910 30.47930
# Shear Modulus (GPa) = 19.05483 36.24090 27.64787
#
# Velocity S-wave (km/s) = 2.79836 3.85922 3.37079
# Velocity P-wave (km/s) = 4.20695 6.13616 5.26074
#
# Compressibility (1/GPa) = 0.05662674
#
# Stress axis : x y z
#
# Youngs Moduli (GPa) = 31.66564 72.51396 28.53535
#
# Poissons Ratio (x) = 0.62027 0.31183
# Poissons Ratio (y) = 0.27086 -0.21652
# Poissons Ratio (z) = 0.34604 -0.55022
#
# Static dielectric constant tensor:
#      x y z
#    x 1.856310 -0.010670 0.016690 
#    y -0.010670 2.009940 -0.055790 
#    z 0.016690 -0.055790 2.035000 
# 
# From -- ./inp_files/257270.got.cif
#   From: 2010.05.17/outbox.cif.g08.bks.cpg/sg2_129_cif.got.tgz:257270.got - 2010.06.03 11:33:40.
