data_PCOD9059379
_publ_section_title
;
Structure prediction by ZEFSAII (Michael W. Deem and Ramdas Pophale) SiO2 
 PCOD9059379
Probable space group: P -1
;
_chemical_formula_sum "Si O2"
_cell_formula_units_Z 16
_cell_length_a 9.144879
_cell_length_b 19.101849
_cell_length_c 7.953631
_cell_angle_alpha 70.702625
_cell_angle_beta 130.282237
_cell_angle_gamma 72.005825
_cell_volume 688.144478
_symmetry_space_group_name_H-M "P -1"
_symmetry_group_IT_number 2
_symmetry_cell_setting 'triclinic'
loop_
_space_group_symop_operation_xyz
x,y,z
-x,-y,-z
loop_
_atom_site_type_symbol
_atom_site_label
_atom_site_fract_x
_atom_site_fract_y
_atom_site_fract_z
Si Si1 0.777910 0.501898 0.903403
Si Si2 0.342808 0.829768 0.381446
Si Si3 0.746796 0.516903 0.270933
Si Si4 0.164007 0.666079 0.350175
Si Si5 0.258383 0.745059 0.648616
Si Si6 0.208292 0.080907 0.621964
Si Si7 0.120273 0.265772 0.248903
Si Si8 0.245682 0.015102 0.339566
O O1 0.458380 0.608322 0.530750
O O2 0.750855 0.502328 0.085099
O O3 0.000000 0.500000 0.000000
O O4 0.883632 0.391815 0.012213
O O5 0.444516 0.742360 0.664276
O O6 0.585136 0.776122 0.471413
O O7 0.297622 0.920853 0.368525
O O8 0.057009 0.880069 0.047884
O O9 0.788101 0.431278 0.475142
O O10 0.000000 0.500000 0.500000
O O11 0.460604 0.640618 0.998698
O O12 0.105167 0.730158 0.423031
O O13 0.924829 0.739042 0.977493
O O14 0.043695 0.861180 0.482849
O O15 0.135854 0.184271 0.421596
O O16 0.218301 0.025127 0.512712
O O17 0.500000 0.000000 0.000000
O O18 0.500000 0.000000 0.500000
#
# Coordination Sequence:
#
# PCOD9059379 Si02
#       8
#     2   2   2   2   2   2   2   2
#     4  11  23  41  67 106 143 177 234 291 346 427
#     4  11  25  44  74 100 133 186 241 276 351 425
#     4  11  23  43  66 100 143 184 227 288 353 425
#     4  11  23  44  72  95 145 189 224 294 355 417
#     4  11  24  43  66 104 137 181 234 278 356 420
#     4  12  27  44  70 101 142 183 235 293 352 412
#     4  12  24  43  71 104 131 187 237 280 353 422
#     4  11  24  49  71  95 140 184 232 300 345 403
#
# _framework density 23.25093
#
# number of rings (size 3 to 8) (size 9 to 14) (size 15 to 20)
#    0.000    0.750    1.250    7.875    3.500    2.500 
#    2.250    0.000    0.000    0.000    0.000    0.000 
#    0.000    0.000    0.000    0.000    0.000    0.000 
#
# Total GULP energy -89518.566565 kJ/mol
# GULP energy per Si atom -5594.910410 kJ/mol
# Density = 2.319801 g / cm^3
# Si number density = 23.250930 Si / 1000 Ang^3
#
#
#
# Elastic Constant Matrix: (Units=GPa)
#
#
# Indices 1 2 3 4 5 6 
#
# 1 67.2877 -9.5476 15.8077 6.8000 14.0687 13.1319
# 2 -9.5476 75.5127 28.2952 13.1291 10.3759 -11.2855
# 3 15.8077 28.2952 112.7242 14.5707 3.8534 -4.7483
# 4 6.8000 13.1291 14.5707 29.6779 7.2026 6.6513
# 5 14.0687 10.3759 3.8534 7.2026 37.8769 -8.4039
# 6 13.1319 -11.2855 -4.7483 6.6513 -8.4039 40.9971
#
#
#
# Elastic Compliance Matrix: (Units=1/GPa)
#
#
# Indices 1 2 3 4 5 6 
#
# 1 0.019917 0.004232 -0.003773 -0.000520 -0.009753 -0.007567
# 2 0.004232 0.017382 -0.003840 -0.006530 -0.003985 0.003227
# 3 -0.003773 -0.003840 0.010904 -0.004030 0.002692 0.002620
# 4 -0.000520 -0.006530 -0.004030 0.043082 -0.008189 -0.010766
# 5 -0.009753 -0.003985 0.002692 -0.008189 0.034795 0.010800
# 6 -0.007567 0.003227 0.002620 -0.010766 0.010800 0.031968
#
#
# Mechanical properties :
#
#
# Convention : Reuss Voigt Hill
#
# Bulk Modulus (GPa) = 24.13181 36.07058 30.10119
# Shear Modulus (GPa) = 27.99166 36.44165 32.21666
#
# Velocity S-wave (km/s) = 3.47348 3.96323 3.72641
# Velocity P-wave (km/s) = 5.14666 6.04072 5.61152
#
# Compressibility (1/GPa) = 0.04143908
#
# Stress axis : x y z
#
# Youngs Moduli (GPa) = 50.20832 57.53052 91.71254
#
# Poissons Ratio (x) = -0.24346 0.34607
# Poissons Ratio (y) = -0.21248 0.35221
# Poissons Ratio (z) = 0.18945 0.22094
#
# Static dielectric constant tensor:
#      x y z
#    x 1.896200 -0.014100 0.018110 
#    y -0.014100 1.910230 0.011510 
#    z 0.018110 0.011510 1.918500 
# 
# From -- ./inp_files/223503.got.cif
#   From: 2010.05.17/outbox.cif.g08.bks.cpg/sg2_112_cif.got.tgz:223503.got - 2010.06.03 11:33:40.
