data_PCOD9059796
_publ_section_title
;
Structure prediction by ZEFSAII (Michael W. Deem and Ramdas Pophale) SiO2 
 PCOD9059796
Probable space group: P -1
;
_chemical_formula_sum "Si O2"
_cell_formula_units_Z 14
_cell_length_a 9.075630
_cell_length_b 11.846914
_cell_length_c 8.785635
_cell_angle_alpha 104.350710
_cell_angle_beta 115.123433
_cell_angle_gamma 41.762374
_cell_volume 565.910110
_symmetry_space_group_name_H-M "P -1"
_symmetry_group_IT_number 2
_symmetry_cell_setting 'triclinic'
loop_
_space_group_symop_operation_xyz
x,y,z
-x,-y,-z
loop_
_atom_site_type_symbol
_atom_site_label
_atom_site_fract_x
_atom_site_fract_y
_atom_site_fract_z
Si Si1 0.897185 0.156292 0.907504
Si Si2 0.141237 0.636574 0.782188
Si Si3 0.243007 0.430395 0.031582
Si Si4 0.566436 0.693544 0.386832
Si Si5 0.292743 0.517906 0.375727
Si Si6 0.637400 0.034271 0.147740
Si Si7 0.203541 0.182617 0.573503
O O1 0.702236 0.195176 0.730880
O O2 0.804038 0.291135 0.047644
O O3 0.108635 0.090148 0.868360
O O4 0.000000 0.000000 0.000000
O O5 0.309372 0.492772 0.679110
O O6 0.903822 0.792429 0.632920
O O7 0.166909 0.511278 0.859947
O O8 0.284701 0.516589 0.190389
O O9 0.474423 0.229441 0.091134
O O10 0.000000 0.500000 0.000000
O O11 0.630743 0.647900 0.577291
O O12 0.657693 0.767423 0.379321
O O13 0.500000 0.500000 0.500000
O O14 0.027174 0.677162 0.373856
O O15 0.661398 0.985575 0.321834
O O16 0.500000 0.000000 0.000000
#
# Coordination Sequence:
#
# PCOD9059796 Si02
#       7
#     2   2   2   2   2   2   2
#     4  12  26  44  68 102 141 181 227 285 344 401
#     4  11  23  43  71 102 136 181 229 277 337 407
#     4  12  24  44  72 100 131 180 232 278 339 414
#     4  11  23  43  69 100 137 182 231 282 338 409
#     4  11  23  42  69 100 136 180 232 285 339 406
#     4  12  26  45  69 102 141 179 225 285 345 406
#     4  11  24  45  71 104 139 177 227 286 343 403
#
# _framework density 24.738907999999999
#
# number of rings (size 3 to 8) (size 9 to 14) (size 15 to 20)
#    0.000    0.571    0.000   10.714    0.000    4.571 
#    0.000    6.429    0.000    1.714    0.000    0.000 
#    0.000    0.000    0.000    0.000    0.000    0.000 
#
# Total GULP energy -78103.931218 kJ/mol
# GULP energy per Si atom -5578.852230 kJ/mol
# Density = 2.468260 g / cm^3
# Si number density = 24.738908 Si / 1000 Ang^3
#
#
#
# Elastic Constant Matrix: (Units=GPa)
#
#
# Indices 1 2 3 4 5 6 
#
# 1 139.9316 26.3563 35.6071 -12.0861 -0.9301 5.3752
# 2 26.3563 96.5572 14.7790 -20.6091 -11.6703 3.5657
# 3 35.6071 14.7790 136.3787 -31.1667 -13.7366 6.6102
# 4 -12.0861 -20.6091 -31.1667 47.7440 13.2048 -6.9116
# 5 -0.9301 -11.6703 -13.7366 13.2048 51.6261 -17.2155
# 6 5.3752 3.5657 6.6102 -6.9116 -17.2155 27.2905
#
#
#
# Elastic Compliance Matrix: (Units=1/GPa)
#
#
# Indices 1 2 3 4 5 6 
#
# 1 0.008079 -0.002004 -0.001938 0.000055 -0.001418 -0.001740
# 2 -0.002004 0.012014 0.000409 0.004557 0.002005 0.001145
# 3 -0.001938 0.000409 0.009125 0.005345 0.001193 0.000224
# 4 0.000055 0.004557 0.005345 0.027854 -0.003739 0.002795
# 5 -0.001418 0.002005 0.001193 -0.003739 0.026170 0.015290
# 6 -0.001740 0.001145 0.000224 0.002795 0.015290 0.047135
#
#
# Mechanical properties :
#
#
# Convention : Reuss Voigt Hill
#
# Bulk Modulus (GPa) = 45.14261 58.48360 51.81311
# Shear Modulus (GPa) = 34.52406 45.07379 39.79892
#
# Velocity S-wave (km/s) = 3.73974 4.27310 4.01528
# Velocity P-wave (km/s) = 6.07740 6.93091 6.51814
#
# Compressibility (1/GPa) = 0.02215202
#
# Stress axis : x y z
#
# Youngs Moduli (GPa) = 123.77550 83.23937 109.58864
#
# Poissons Ratio (x) = 0.16681 0.21239
# Poissons Ratio (y) = 0.24804 -0.04484
# Poissons Ratio (z) = 0.23988 -0.03406
#
# Static dielectric constant tensor:
#      x y z
#    x 2.326340 0.098030 -0.645230 
#    y 0.098030 2.092830 -0.016490 
#    z -0.645230 -0.016490 3.078240 
# 
# From -- ./inp_files/188754.got.cif
#   From: 2010.05.17/outbox.cif.g08.bks.cpg/sg2_95_cif.got.tgz:188754.got - 2010.06.03 11:33:40.
