data_PCOD9059704
_publ_section_title
;
Structure prediction by ZEFSAII (Michael W. Deem and Ramdas Pophale) SiO2 
 PCOD9059704
Probable space group: P -1
;
_chemical_formula_sum "Si O2"
_cell_formula_units_Z 16
_cell_length_a 4.980785
_cell_length_b 6.694214
_cell_length_c 23.677000
_cell_angle_alpha 119.060828
_cell_angle_beta 98.197001
_cell_angle_gamma 85.315175
_cell_volume 682.940661
_symmetry_space_group_name_H-M "P -1"
_symmetry_group_IT_number 2
_symmetry_cell_setting 'triclinic'
loop_
_space_group_symop_operation_xyz
x,y,z
-x,-y,-z
loop_
_atom_site_type_symbol
_atom_site_label
_atom_site_fract_x
_atom_site_fract_y
_atom_site_fract_z
Si Si1 0.517343 0.766217 0.932716
Si Si2 0.060148 0.887827 0.312158
Si Si3 0.722641 0.007900 0.459740
Si Si4 0.956521 0.498706 0.065152
Si Si5 0.519488 0.419810 0.666467
Si Si6 0.159365 0.936172 0.193859
Si Si7 0.436843 0.811991 0.626547
Si Si8 0.645961 0.216996 0.200482
O O1 0.828123 0.683184 0.927911
O O2 0.407289 0.784344 0.868184
O O3 0.339382 0.577978 0.934404
O O4 0.500000 0.000000 0.000000
O O5 0.266646 0.088879 0.362165
O O6 0.762707 0.001860 0.322925
O O7 0.179083 0.682047 0.325931
O O8 0.135222 0.837200 0.242471
O O9 0.695021 0.216674 0.443184
O O10 0.500000 0.000000 0.500000
O O11 0.663417 0.788117 0.388867
O O12 0.000000 0.000000 0.500000
O O13 0.039977 0.745556 0.123471
O O14 0.000000 0.500000 0.000000
O O15 0.486728 0.603139 0.640974
O O16 0.425247 0.544991 0.738254
O O17 0.451373 0.025385 0.196117
O O18 0.955630 0.151992 0.213535
#
# Coordination Sequence:
#
# PCOD9059704 Si02
#       8
#     2   2   2   2   2   2   2   2
#     4  12  25  45  68 101 141 186 241 290 352 432
#     4  11  23  42  67 104 139 177 231 292 352 421
#     4  11  26  46  69 103 140 184 234 292 355 434
#     4  12  25  43  66  96 135 189 233 294 362 412
#     4  11  25  45  75 101 142 188 234 297 360 422
#     4  12  23  43  67 100 143 177 234 299 358 425
#     4  11  24  45  70 104 138 179 235 285 355 425
#     4  12  25  43  70 106 137 187 239 294 362 423
#
# _framework density 23.428094000000002
#
# number of rings (size 3 to 8) (size 9 to 14) (size 15 to 20)
#    0.000    0.500    2.500    6.000    0.000    9.000 
#    0.000    0.000    0.000    0.000    0.000    0.000 
#    0.000    0.000    0.000    0.000    0.000    0.000 
#
# Total GULP energy -89550.170256 kJ/mol
# GULP energy per Si atom -5596.885641 kJ/mol
# Density = 2.337477 g / cm^3
# Si number density = 23.428094 Si / 1000 Ang^3
#
#
#
# Elastic Constant Matrix: (Units=GPa)
#
#
# Indices 1 2 3 4 5 6 
#
# 1 84.5836 17.3997 15.8423 -9.1170 -1.9773 -2.6414
# 2 17.3997 129.9700 36.6222 -30.6681 -2.7205 -16.1613
# 3 15.8423 36.6222 103.3106 -29.1339 7.3303 12.6700
# 4 -9.1170 -30.6681 -29.1339 60.5756 3.2859 3.4750
# 5 -1.9773 -2.7205 7.3303 3.2859 34.1687 -3.2943
# 6 -2.6414 -16.1613 12.6700 3.4750 -3.2943 38.1709
#
#
#
# Elastic Compliance Matrix: (Units=1/GPa)
#
#
# Indices 1 2 3 4 5 6 
#
# 1 0.012432 -0.000932 -0.001641 0.000492 0.001052 0.001056
# 2 -0.000932 0.010162 -0.003380 0.002987 0.001698 0.005235
# 3 -0.001641 -0.003380 0.013812 0.005332 -0.004515 -0.007004
# 4 0.000492 0.002987 0.005332 0.020982 -0.003151 -0.002653
# 5 0.001052 0.001698 -0.004515 -0.003151 0.031243 0.005274
# 6 0.001056 0.005235 -0.007004 -0.002653 0.005274 0.031509
#
#
# Mechanical properties :
#
#
# Convention : Reuss Voigt Hill
#
# Bulk Modulus (GPa) = 40.81577 50.84362 45.82969
# Shear Modulus (GPa) = 35.65973 43.11636 39.38805
#
# Velocity S-wave (km/s) = 3.90563 4.29461 4.10473
# Velocity P-wave (km/s) = 6.14802 6.80740 6.48609
#
# Compressibility (1/GPa) = 0.02450034
#
# Stress axis : x y z
#
# Youngs Moduli (GPa) = 80.43453 98.40180 72.39987
#
# Poissons Ratio (x) = 0.09175 0.11883
# Poissons Ratio (y) = 0.07500 0.24468
# Poissons Ratio (z) = 0.13202 0.33256
#
# Static dielectric constant tensor:
#      x y z
#    x 1.863550 0.004870 -0.025290 
#    y 0.004870 1.948070 -0.012350 
#    z -0.025290 -0.012350 1.887970 
# 
# From -- ./inp_files/603444.got.cif
#   From: 2010.05.17/outbox.cif.g08.bks.cpg/sg2_302_cif.got.tgz:603444.got - 2010.06.03 11:33:40.
