data_PCOD9059136
_publ_section_title
;
Structure prediction by ZEFSAII (Michael W. Deem and Ramdas Pophale) SiO2 
 PCOD9059136
Probable space group: P -1
;
_chemical_formula_sum "Si O2"
_cell_formula_units_Z 14
_cell_length_a 18.818530
_cell_length_b 9.067927
_cell_length_c 9.321279
_cell_angle_alpha 49.122108
_cell_angle_beta 132.267985
_cell_angle_gamma 149.403245
_cell_volume 586.965839
_symmetry_space_group_name_H-M "P -1"
_symmetry_group_IT_number 2
_symmetry_cell_setting 'triclinic'
loop_
_space_group_symop_operation_xyz
x,y,z
-x,-y,-z
loop_
_atom_site_type_symbol
_atom_site_label
_atom_site_fract_x
_atom_site_fract_y
_atom_site_fract_z
Si Si1 0.917032 0.349814 0.834504
Si Si2 0.552581 0.713362 0.068561
Si Si3 0.926203 0.759277 0.433494
Si Si4 0.205249 0.662522 0.920237
Si Si5 0.650695 0.816294 0.673042
Si Si6 0.348835 0.766124 0.746623
Si Si7 0.126298 0.133076 0.204359
O O1 0.033371 0.442972 0.819927
O O2 0.884466 0.506108 0.625105
O O3 0.763346 0.008111 0.838674
O O4 0.000000 0.500000 0.000000
O O5 0.484483 0.828611 0.902144
O O6 0.500000 0.500000 0.000000
O O7 0.492612 0.509265 0.257351
O O8 0.721062 0.031258 0.108998
O O9 0.772145 0.565916 0.273716
O O10 0.000000 0.000000 0.500000
O O11 0.040942 0.917209 0.360727
O O12 0.280884 0.728507 0.830239
O O13 0.204638 0.459822 0.138211
O O14 0.747813 0.822625 0.701750
O O15 0.623399 0.987897 0.457153
O O16 0.000000 0.000000 0.000000
#
# Coordination Sequence:
#
# PCOD9059136 Si02
#       7
#     2   2   2   2   2   2   2
#     4  11  23  40  68 104 141 181 235 293 356 418
#     4  12  28  48  70  99 145 190 233 298 362 413
#     4  11  24  39  69 109 143 179 232 297 359 411
#     4  12  24  43  74 103 140 188 239 285 349 435
#     4  11  24  45  72  97 140 187 234 296 351 415
#     4  11  25  47  69 104 139 182 250 282 347 443
#     4  12  21  42  74 104 142 184 233 295 355 415
#
# _framework density 23.851472000000001
#
# number of rings (size 3 to 8) (size 9 to 14) (size 15 to 20)
#    0.000    0.571    4.286    3.000    4.000    4.571 
#    2.571    0.000    0.000    0.000    0.000    0.000 
#    0.000    0.000    0.000    0.000    0.000    0.000 
#
# Total GULP energy -78173.719466 kJ/mol
# GULP energy per Si atom -5583.837105 kJ/mol
# Density = 2.379718 g / cm^3
# Si number density = 23.851472 Si / 1000 Ang^3
#
#
#
# Elastic Constant Matrix: (Units=GPa)
#
#
# Indices 1 2 3 4 5 6 
#
# 1 45.8600 1.6788 0.0895 2.9510 -3.8132 -2.8571
# 2 1.6788 128.1016 17.1023 -19.1300 -2.8410 -2.5591
# 3 0.0895 17.1023 61.3469 -12.4139 -5.1642 2.3440
# 4 2.9510 -19.1300 -12.4139 33.4771 -9.7933 -8.9123
# 5 -3.8132 -2.8410 -5.1642 -9.7933 34.2156 -5.1324
# 6 -2.8571 -2.5591 2.3440 -8.9123 -5.1324 34.6345
#
#
#
# Elastic Compliance Matrix: (Units=1/GPa)
#
#
# Indices 1 2 3 4 5 6 
#
# 1 0.022203 -0.000333 0.000013 -0.000899 0.002483 0.001943
# 2 -0.000333 0.009017 -0.001109 0.006310 0.002762 0.002747
# 3 0.000013 -0.001109 0.018671 0.008267 0.005329 0.001573
# 4 -0.000899 0.006310 0.008267 0.045222 0.016707 0.013945
# 5 0.002483 0.002762 0.005329 0.016707 0.036789 0.009799
# 6 0.001943 0.002747 0.001573 0.013945 0.009799 0.034170
#
#
# Mechanical properties :
#
#
# Convention : Reuss Voigt Hill
#
# Bulk Modulus (GPa) = 21.26114 30.33884 25.79999
# Shear Modulus (GPa) = 27.08453 34.89462 30.98957
#
# Velocity S-wave (km/s) = 3.37345 3.82906 3.60845
# Velocity P-wave (km/s) = 4.90987 5.68300 5.31052
#
# Compressibility (1/GPa) = 0.04703416
#
# Stress axis : x y z
#
# Youngs Moduli (GPa) = 45.03900 110.89908 53.55850
#
# Poissons Ratio (x) = 0.03695 -0.00071
# Poissons Ratio (y) = 0.01500 0.05939
# Poissons Ratio (z) = -0.00060 0.12296
#
# Static dielectric constant tensor:
#      x y z
#    x 1.946000 -0.071140 0.006570 
#    y -0.071140 1.445210 0.017930 
#    z 0.006570 0.017930 1.976890 
# 
# From -- ./inp_files/189727.got.cif
#   From: 2010.05.17/outbox.cif.g08.bks.cpg/sg2_95_cif.got.tgz:189727.got - 2010.06.03 11:33:40.
