data_PCOD9059332
_publ_section_title
;
Structure prediction by ZEFSAII (Michael W. Deem and Ramdas Pophale) SiO2 
 PCOD9059332
Probable space group: P -1
;
_chemical_formula_sum "Si O2"
_cell_formula_units_Z 14
_cell_length_a 9.826083
_cell_length_b 13.724004
_cell_length_c 8.825932
_cell_angle_alpha 73.661034
_cell_angle_beta 136.135889
_cell_angle_gamma 123.480876
_cell_volume 673.802318
_symmetry_space_group_name_H-M "P -1"
_symmetry_group_IT_number 2
_symmetry_cell_setting 'triclinic'
loop_
_space_group_symop_operation_xyz
x,y,z
-x,-y,-z
loop_
_atom_site_type_symbol
_atom_site_label
_atom_site_fract_x
_atom_site_fract_y
_atom_site_fract_z
Si Si1 0.417283 0.700699 0.095663
Si Si2 0.641292 0.918167 0.706591
Si Si3 0.015310 0.482477 0.342417
Si Si4 0.885758 0.723848 0.441967
Si Si5 0.763103 0.268008 0.748590
Si Si6 0.941698 0.818364 0.109896
Si Si7 0.590664 0.096226 0.163371
O O1 0.654911 0.711573 0.325725
O O2 0.299519 0.720775 0.136614
O O3 0.469079 0.805601 0.976489
O O4 0.231139 0.580212 0.913594
O O5 0.449464 0.839883 0.463836
O O6 0.527045 0.943090 0.749412
O O7 0.745411 0.838524 0.879227
O O8 0.846703 0.044920 0.754616
O O9 0.101798 0.389705 0.446790
O O10 0.172643 0.609982 0.336904
O O11 0.000000 0.500000 0.500000
O O12 0.877819 0.741306 0.246147
O O13 0.132492 0.838152 0.635390
O O14 0.969832 0.243147 0.908715
O O15 0.500000 0.000000 0.000000
#
# Coordination Sequence:
#
# PCOD9059332 Si02
#       7
#     2   2   2   2   2   2   2
#     4  11  26  42  65  99 133 167 215 270 327 377
#     4  11  24  41  66  99 128 171 222 262 317 395
#     4  11  24  45  69  95 127 171 224 264 318 392
#     4  11  24  43  67  96 133 172 215 264 327 381
#     4  12  24  44  69  95 131 170 215 272 324 376
#     4  11  23  41  69  95 131 172 217 261 326 382
#     4  11  23  41  65  97 135 171 218 261 316 391
#
# _framework density 20.777607
#
# number of rings (size 3 to 8) (size 9 to 14) (size 15 to 20)
#    0.000    0.857    4.286    2.571    2.000    7.429 
#    0.000    0.000    0.000    0.000    0.000    0.000 
#    0.000    0.000    0.000    0.000    0.000    0.000 
#
# Total GULP energy -78262.220707 kJ/mol
# GULP energy per Si atom -5590.158622 kJ/mol
# Density = 2.073032 g / cm^3
# Si number density = 20.777607 Si / 1000 Ang^3
#
#
#
# Elastic Constant Matrix: (Units=GPa)
#
#
# Indices 1 2 3 4 5 6 
#
# 1 102.3884 20.9074 36.8796 0.7684 1.1031 -18.9059
# 2 20.9074 90.6276 22.7191 -11.7776 4.7527 9.8639
# 3 36.8796 22.7191 96.8019 -3.2088 12.1786 -22.3866
# 4 0.7684 -11.7776 -3.2088 35.2213 -12.0339 -9.0030
# 5 1.1031 4.7527 12.1786 -12.0339 37.1405 -9.2553
# 6 -18.9059 9.8639 -22.3866 -9.0030 -9.2553 23.4414
#
#
#
# Elastic Compliance Matrix: (Units=1/GPa)
#
#
# Indices 1 2 3 4 5 6 
#
# 1 0.013930 -0.004400 -0.001210 0.004156 0.005838 0.015832
# 2 -0.004400 0.015432 -0.005492 -0.001499 -0.004971 -0.017825
# 3 -0.001210 -0.005492 0.016687 0.005626 0.002143 0.020278
# 4 0.004156 -0.001499 0.005626 0.044519 0.021340 0.034880
# 5 0.005838 -0.004971 0.002143 0.021340 0.041976 0.033616
# 6 0.015832 -0.017825 0.020278 0.034880 0.033616 0.108964
#
#
# Mechanical properties :
#
#
# Convention : Reuss Voigt Hill
#
# Bulk Modulus (GPa) = 41.93696 50.09226 46.01461
# Shear Modulus (GPa) = 18.40533 33.11477 25.76005
#
# Velocity S-wave (km/s) = 2.97951 3.99654 3.52490
# Velocity P-wave (km/s) = 5.66253 6.74222 6.22582
#
# Compressibility (1/GPa) = 0.02384532
#
# Stress axis : x y z
#
# Youngs Moduli (GPa) = 71.78653 64.80052 59.92778
#
# Poissons Ratio (x) = 0.28509 0.07251
# Poissons Ratio (y) = 0.31583 0.32914
# Poissons Ratio (z) = 0.08686 0.35591
#
# Static dielectric constant tensor:
#      x y z
#    x 1.808770 0.046340 -0.081920 
#    y 0.046340 1.784410 -0.047460 
#    z -0.081920 -0.047460 1.873000 
# 
# From -- ./inp_files/178452.got.cif
#   From: 2010.05.17/outbox.cif.g08.bks.cpg/sg2_90_cif.got.tgz:178452.got - 2010.06.03 11:33:40.
