data_PCOD9059737
_publ_section_title
;
Structure prediction by ZEFSAII (Michael W. Deem and Ramdas Pophale) SiO2 
 PCOD9059737
Probable space group: P -1
;
_chemical_formula_sum "Si O2"
_cell_formula_units_Z 16
_cell_length_a 15.887994
_cell_length_b 5.770678
_cell_length_c 8.293688
_cell_angle_alpha 101.863593
_cell_angle_beta 124.759066
_cell_angle_gamma 93.514388
_cell_volume 596.111157
_symmetry_space_group_name_H-M "P -1"
_symmetry_group_IT_number 2
_symmetry_cell_setting 'triclinic'
loop_
_space_group_symop_operation_xyz
x,y,z
-x,-y,-z
loop_
_atom_site_type_symbol
_atom_site_label
_atom_site_fract_x
_atom_site_fract_y
_atom_site_fract_z
Si Si1 0.438277 0.581928 0.757843
Si Si2 0.707152 0.226860 0.608696
Si Si3 0.073825 0.567762 0.745968
Si Si4 0.564935 0.207602 0.719586
Si Si5 0.834150 0.857727 0.066470
Si Si6 0.751483 0.811124 0.428050
Si Si7 0.099833 0.350780 0.215826
Si Si8 0.353928 0.077272 0.968002
O O1 0.388295 0.742990 0.604433
O O2 0.491879 0.394899 0.692820
O O3 0.334844 0.439011 0.716241
O O4 0.541526 0.752196 0.969597
O O5 0.674443 0.293917 0.757491
O O6 0.812013 0.406279 0.688547
O O7 0.720354 0.955242 0.567881
O O8 0.130768 0.342451 0.806271
O O9 0.000000 0.500000 0.500000
O O10 0.007655 0.582769 0.840272
O O11 0.133934 0.849655 0.826834
O O12 0.500000 0.000000 0.500000
O O13 0.601170 0.124765 0.919369
O O14 0.707588 0.809733 0.943449
O O15 0.887482 0.814833 0.947454
O O16 0.862442 0.766351 0.596214
O O17 0.731749 0.967572 0.275291
#
# Coordination Sequence:
#
# PCOD9059737 Si02
#       8
#     2   2   2   2   2   2   2   2
#     4  11  23  42  67  97 144 193 252 299 374 437
#     4  11  24  42  70 102 142 195 248 301 379 439
#     4  12  29  54  83 116 155 193 250 320 390 459
#     4  12  23  41  65  95 141 193 244 305 361 440
#     4  12  29  50  81 118 149 203 254 309 388 457
#     4  11  25  44  68 104 146 196 247 308 380 443
#     4  11  27  47  80 106 151 192 253 314 374 461
#     4  12  27  42  70 102 151 192 251 313 376 450
#
# _framework density 26.840630999999998
#
# number of rings (size 3 to 8) (size 9 to 14) (size 15 to 20)
#    0.000    0.500    2.500    4.125   10.500    4.000 
#    0.000    0.000    0.000    0.000    0.000    0.000 
#    0.000    0.000    0.000    0.000    0.000    0.000 
#
# Total GULP energy -89495.513600 kJ/mol
# GULP energy per Si atom -5593.469600 kJ/mol
# Density = 2.677954 g / cm^3
# Si number density = 26.840631 Si / 1000 Ang^3
#
#
#
# Elastic Constant Matrix: (Units=GPa)
#
#
# Indices 1 2 3 4 5 6 
#
# 1 112.5608 29.6092 -6.0825 4.9121 -1.2930 -17.1947
# 2 29.6092 123.9236 45.0080 -2.9076 13.2882 -25.1890
# 3 -6.0825 45.0080 89.2363 -11.5525 0.5669 -3.0407
# 4 4.9121 -2.9076 -11.5525 49.3327 -6.8463 5.0875
# 5 -1.2930 13.2882 0.5669 -6.8463 36.3418 -5.9632
# 6 -17.1947 -25.1890 -3.0407 5.0875 -5.9632 47.9443
#
#
#
# Elastic Compliance Matrix: (Units=1/GPa)
#
#
# Indices 1 2 3 4 5 6 
#
# 1 0.010201 -0.002889 0.002136 -0.000718 0.001671 0.002560
# 2 -0.002889 0.012497 -0.006513 -0.001560 -0.004081 0.004774
# 3 0.002136 -0.006513 0.015008 0.003458 0.002588 -0.001749
# 4 -0.000718 -0.001560 0.003458 0.021915 0.004182 -0.002663
# 5 0.001671 -0.004081 0.002588 0.004182 0.030131 0.001923
# 6 0.002560 0.004774 -0.001749 -0.002663 0.001923 0.024695
#
#
# Mechanical properties :
#
#
# Convention : Reuss Voigt Hill
#
# Bulk Modulus (GPa) = 43.15120 51.42112 47.28616
# Shear Modulus (GPa) = 36.57551 43.86948 40.22250
#
# Velocity S-wave (km/s) = 3.69547 4.04721 3.87533
# Velocity P-wave (km/s) = 5.85836 6.40620 6.13840
#
# Compressibility (1/GPa) = 0.02317433
#
# Stress axis : x y z
#
# Youngs Moduli (GPa) = 98.02947 80.02150 66.62943
#
# Poissons Ratio (x) = 0.23116 -0.14232
# Poissons Ratio (y) = 0.28318 0.43397
# Poissons Ratio (z) = -0.20939 0.52119
#
# Static dielectric constant tensor:
#      x y z
#    x 2.098190 0.064810 -0.066660 
#    y 0.064810 2.123230 0.006510 
#    z -0.066660 0.006510 2.133050 
# 
# From -- ./inp_files/37963.got.cif
#   From: 2010.05.17/outbox.cif.g08.bks.cpg/sg2_19_cif.got.tgz:37963.got - 2010.06.03 11:33:40.
