data_PCOD9059256
_publ_section_title
;
Structure prediction by ZEFSAII (Michael W. Deem and Ramdas Pophale) SiO2 
 PCOD9059256
Probable space group: P -1
;
_chemical_formula_sum "Si O2"
_cell_formula_units_Z 14
_cell_length_a 5.086372
_cell_length_b 24.800195
_cell_length_c 8.979771
_cell_angle_alpha 48.903484
_cell_angle_beta 59.240082
_cell_angle_gamma 82.545018
_cell_volume 695.271892
_symmetry_space_group_name_H-M "P -1"
_symmetry_group_IT_number 2
_symmetry_cell_setting 'triclinic'
loop_
_space_group_symop_operation_xyz
x,y,z
-x,-y,-z
loop_
_atom_site_type_symbol
_atom_site_label
_atom_site_fract_x
_atom_site_fract_y
_atom_site_fract_z
Si Si1 0.505576 0.423761 0.719147
Si Si2 0.966522 0.334012 0.822171
Si Si3 0.029783 0.708547 0.429151
Si Si4 0.215946 0.449067 0.070381
Si Si5 0.997365 0.084363 0.855680
Si Si6 0.485297 0.836785 0.223434
Si Si7 0.477198 0.224628 0.383362
O O1 0.500000 0.500000 0.500000
O O2 0.833673 0.403358 0.687797
O O3 0.268593 0.360570 0.796950
O O4 0.358782 0.425927 0.920809
O O5 0.038818 0.299498 0.710817
O O6 0.683589 0.273834 0.104933
O O7 0.368999 0.772413 0.250239
O O8 0.999400 0.626458 0.649112
O O9 0.754683 0.733383 0.549627
O O10 0.500000 0.500000 0.000000
O O11 0.000000 0.500000 0.000000
O O12 0.661928 0.097874 0.896570
O O13 0.151130 0.123395 0.897527
O O14 0.247573 0.140128 0.565750
O O15 0.000000 0.000000 0.000000
O O16 0.322714 0.792082 0.503510
#
# Coordination Sequence:
#
# PCOD9059256 Si02
#       7
#     2   2   2   2   2   2   2
#     4  12  25  43  58  88 122 153 210 258 309 361
#     4  12  25  39  65  85 121 159 203 259 297 364
#     4  11  23  41  61  87 122 158 209 249 310 356
#     4  12  25  39  62  84 117 159 201 254 310 354
#     4   9  18  34  63  95 121 157 199 240 302 360
#     4   9  20  34  62  86 122 157 198 243 294 361
#     4   9  22  39  61  91 120 159 202 248 299 361
#
# _framework density 20.136005999999998
#
# number of rings (size 3 to 8) (size 9 to 14) (size 15 to 20)
#    0.857    0.571    1.429    4.286    6.000    0.000 
#    0.000    0.000    0.000    4.286    0.000    0.000 
#    0.000    0.000    0.000    0.000    0.000    0.000 
#
# Total GULP energy -78079.692359 kJ/mol
# GULP energy per Si atom -5577.120883 kJ/mol
# Density = 2.009018 g / cm^3
# Si number density = 20.136006 Si / 1000 Ang^3
#
#
#
# Elastic Constant Matrix: (Units=GPa)
#
#
# Indices 1 2 3 4 5 6 
#
# 1 116.0033 19.4775 -1.0826 -7.4976 19.5471 1.8572
# 2 19.4775 82.7088 39.6769 -4.1994 11.2901 12.4163
# 3 -1.0826 39.6769 64.6751 -5.7801 15.7402 -2.0530
# 4 -7.4976 -4.1994 -5.7801 39.0898 -4.0636 11.8410
# 5 19.5471 11.2901 15.7402 -4.0636 24.4265 -6.3693
# 6 1.8572 12.4163 -2.0530 11.8410 -6.3693 35.4932
#
#
#
# Elastic Compliance Matrix: (Units=1/GPa)
#
#
# Indices 1 2 3 4 5 6 
#
# 1 0.011151 -0.003105 0.004822 0.001945 -0.010740 -0.001795
# 2 -0.003105 0.020248 -0.012358 0.002256 -0.000758 -0.008524
# 3 0.004822 -0.012358 0.026867 0.001272 -0.014574 0.002585
# 4 0.001945 0.002256 0.001272 0.029553 -0.001350 -0.010919
# 5 -0.010740 -0.000758 -0.014574 -0.001350 0.062069 0.011573
# 6 -0.001795 -0.008524 0.002585 -0.010919 0.011573 0.037119
#
#
# Mechanical properties :
#
#
# Convention : Reuss Voigt Hill
#
# Bulk Modulus (GPa) = 27.03890 42.17009 34.60450
# Shear Modulus (GPa) = 22.66381 33.48957 28.07669
#
# Velocity S-wave (km/s) = 3.35854 4.08262 3.73815
# Velocity P-wave (km/s) = 5.33826 6.57357 5.98786
#
# Compressibility (1/GPa) = 0.03698375
#
# Stress axis : x y z
#
# Youngs Moduli (GPa) = 89.67778 49.38787 37.22069
#
# Poissons Ratio (x) = 0.15335 -0.17949
# Poissons Ratio (y) = 0.27846 0.45998
# Poissons Ratio (z) = -0.43245 0.61035
#
# Static dielectric constant tensor:
#      x y z
#    x 1.529060 -0.089480 0.135830 
#    y -0.089480 1.683640 0.032170 
#    z 0.135830 0.032170 1.639390 
# 
# From -- ./inp_files/142528.got.cif
#   From: 2010.05.17/outbox.cif.g08.bks.cpg/sg2_72_cif.got.tgz:142528.got - 2010.06.03 11:33:40.
