data_PCOD9059391
_publ_section_title
;
Structure prediction by ZEFSAII (Michael W. Deem and Ramdas Pophale) SiO2 
 PCOD9059391
Probable space group: P -1
;
_chemical_formula_sum "Si O2"
_cell_formula_units_Z 14
_cell_length_a 8.074881
_cell_length_b 6.523312
_cell_length_c 20.536652
_cell_angle_alpha 82.416544
_cell_angle_beta 47.133699
_cell_angle_gamma 54.188864
_cell_volume 574.957685
_symmetry_space_group_name_H-M "P -1"
_symmetry_group_IT_number 2
_symmetry_cell_setting 'triclinic'
loop_
_space_group_symop_operation_xyz
x,y,z
-x,-y,-z
loop_
_atom_site_type_symbol
_atom_site_label
_atom_site_fract_x
_atom_site_fract_y
_atom_site_fract_z
Si Si1 0.518341 0.309210 0.635216
Si Si2 0.039291 0.647473 0.539821
Si Si3 0.028548 0.271162 0.152460
Si Si4 0.796272 0.187075 0.796958
Si Si5 0.926766 0.301819 0.035456
Si Si6 0.865636 0.310546 0.909331
Si Si7 0.203771 0.233971 0.614703
O O1 0.643050 0.427053 0.555915
O O2 0.327583 0.511453 0.738823
O O3 0.312963 0.285248 0.647450
O O4 0.796391 0.984918 0.593632
O O5 0.014121 0.525670 0.615266
O O6 0.000000 0.500000 0.500000
O O7 0.075873 0.152880 0.071794
O O8 0.104967 0.462615 0.116963
O O9 0.212085 0.050059 0.172327
O O10 0.447011 0.483002 0.869902
O O11 0.965798 0.153459 0.820253
O O12 0.007927 0.151267 0.685872
O O13 0.016862 0.160393 0.945384
O O14 0.000000 0.500000 0.000000
O O15 0.500000 0.500000 0.000000
O O16 0.500000 0.000000 0.500000
#
# Coordination Sequence:
#
# PCOD9059391 Si02
#       7
#     2   2   2   2   2   2   2
#     4  11  25  43  66 100 131 181 223 277 335 398
#     4  11  25  44  68  95 138 174 227 281 327 396
#     4  11  23  41  67  97 136 170 221 273 334 401
#     4  11  24  41  68  97 137 176 220 278 332 400
#     4   9  22  41  66  96 130 171 223 272 335 399
#     4   9  20  43  63  95 131 168 223 269 333 396
#     4  12  24  43  69  97 136 181 224 269 341 402
#
# _framework density 24.349620999999999
#
# number of rings (size 3 to 8) (size 9 to 14) (size 15 to 20)
#    0.000    1.429    2.857    1.286    2.000    6.857 
#    0.000    2.857    0.000    0.000    0.000    0.000 
#    0.000    0.000    0.000    0.000    0.000    0.000 
#
# Total GULP energy -78198.987622 kJ/mol
# GULP energy per Si atom -5585.641973 kJ/mol
# Density = 2.429420 g / cm^3
# Si number density = 24.349621 Si / 1000 Ang^3
#
#
#
# Elastic Constant Matrix: (Units=GPa)
#
#
# Indices 1 2 3 4 5 6 
#
# 1 35.1711 -15.0509 13.3031 -2.9906 1.4426 0.0642
# 2 -15.0509 70.6160 25.4081 -10.8770 3.6494 -17.8331
# 3 13.3031 25.4081 120.5106 -23.3952 0.7974 -12.8914
# 4 -2.9906 -10.8770 -23.3952 48.5953 2.6626 14.8373
# 5 1.4426 3.6494 0.7974 2.6626 24.0680 -0.3519
# 6 0.0642 -17.8331 -12.8914 14.8373 -0.3519 38.3385
#
#
#
# Elastic Compliance Matrix: (Units=1/GPa)
#
#
# Indices 1 2 3 4 5 6 
#
# 1 0.035308 0.010535 -0.005582 0.001302 -0.003637 0.002427
# 2 0.010535 0.020220 -0.004415 0.000952 -0.003547 0.007502
# 3 -0.005582 -0.004415 0.010574 0.003724 0.000243 0.000072
# 4 0.001302 0.000952 0.003724 0.025328 -0.003267 -0.008139
# 5 -0.003637 -0.003547 0.000243 -0.003267 0.042659 0.000094
# 6 0.002427 0.007502 0.000072 -0.008139 0.000094 0.032744
#
#
# Mechanical properties :
#
#
# Convention : Reuss Voigt Hill
#
# Bulk Modulus (GPa) = 14.88603 30.40202 22.64403
# Shear Modulus (GPa) = 26.57455 35.70952 31.14204
#
# Velocity S-wave (km/s) = 3.30718 3.83369 3.58013
# Velocity P-wave (km/s) = 4.55082 5.66648 5.13901
#
# Compressibility (1/GPa) = 0.06717706
#
# Stress axis : x y z
#
# Youngs Moduli (GPa) = 28.32237 49.45692 94.57023
#
# Poissons Ratio (x) = -0.52105 0.52793
# Poissons Ratio (y) = -0.29839 0.41755
# Poissons Ratio (z) = 0.15811 0.21836
#
# Static dielectric constant tensor:
#      x y z
#    x 1.909880 0.132080 0.045800 
#    y 0.132080 1.868240 -0.013350 
#    z 0.045800 -0.013350 1.933490 
# 
# From -- ./inp_files/484107.got.cif
#   From: 2010.05.17/outbox.cif.g08.bks.cpg/sg2_243_cif.got.tgz:484107.got - 2010.06.03 11:33:40.
