data_PCOD9059152
_publ_section_title
;
Structure prediction by ZEFSAII (Michael W. Deem and Ramdas Pophale) SiO2 
 PCOD9059152
Probable space group: P -1
;
_chemical_formula_sum "Si O2"
_cell_formula_units_Z 16
_cell_length_a 9.607796
_cell_length_b 24.181621
_cell_length_c 7.826960
_cell_angle_alpha 126.140921
_cell_angle_beta 60.511182
_cell_angle_gamma 153.240280
_cell_volume 658.245873
_symmetry_space_group_name_H-M "P -1"
_symmetry_group_IT_number 2
_symmetry_cell_setting 'triclinic'
loop_
_space_group_symop_operation_xyz
x,y,z
-x,-y,-z
loop_
_atom_site_type_symbol
_atom_site_label
_atom_site_fract_x
_atom_site_fract_y
_atom_site_fract_z
Si Si1 0.549944 0.669492 0.105075
Si Si2 0.478334 0.885495 0.262702
Si Si3 0.835025 0.160643 0.075969
Si Si4 0.625968 0.231157 0.214490
Si Si5 0.517025 0.198198 0.587274
Si Si6 0.259041 0.474297 0.620955
Si Si7 0.948756 0.174322 0.420201
Si Si8 0.613560 0.381634 0.507540
O O1 0.537361 0.745439 0.212583
O O2 0.388401 0.598651 0.256753
O O3 0.376250 0.562084 0.870182
O O4 0.912541 0.783234 0.092451
O O5 0.609838 0.905689 0.398960
O O6 0.144255 0.796001 0.348955
O O7 0.671242 0.018462 0.312688
O O8 0.487547 0.829048 0.015411
O O9 0.814418 0.230783 0.146969
O O10 0.968663 0.205402 0.269152
O O11 0.500000 0.000000 0.000000
O O12 0.409389 0.153647 0.374245
O O13 0.746292 0.353544 0.355280
O O14 0.892223 0.326894 0.597572
O O15 0.500000 0.500000 0.500000
O O16 0.276130 0.524180 0.527763
O O17 0.248858 0.245044 0.430658
#
# Coordination Sequence:
#
# PCOD9059152 Si02
#       8
#     2   2   2   2   2   2   2   2
#     4  11  26  45  70 101 141 181 229 287 349 411
#     4  11  23  40  68  99 135 183 229 278 346 402
#     4  12  23  44  70 103 142 185 231 286 344 409
#     4  11  24  42  67 100 138 178 226 287 334 410
#     4  11  25  44  69 103 141 182 232 287 347 405
#     4  12  25  46  74 102 139 181 232 292 339 413
#     4  11  23  42  68 100 141 179 234 282 340 419
#     4  11  26  45  69 104 138 179 232 279 351 416
#
# _framework density 24.307027000000001
#
# number of rings (size 3 to 8) (size 9 to 14) (size 15 to 20)
#    0.000    0.750    3.750    3.375    1.750    5.000 
#    0.000    2.500    0.000    0.000    0.000    0.000 
#    0.000    0.000    0.000    0.000    0.000    0.000 
#
# Total GULP energy -89480.987080 kJ/mol
# GULP energy per Si atom -5592.561693 kJ/mol
# Density = 2.425170 g / cm^3
# Si number density = 24.307027 Si / 1000 Ang^3
#
#
#
# Elastic Constant Matrix: (Units=GPa)
#
#
# Indices 1 2 3 4 5 6 
#
# 1 160.5150 42.1437 37.6536 -13.8899 -17.4130 -23.1722
# 2 42.1437 89.8348 25.2849 -16.1382 -3.9452 -7.0757
# 3 37.6536 25.2849 138.0623 -17.7629 -14.0011 -3.4154
# 4 -13.8899 -16.1382 -17.7629 16.1115 -2.2847 6.7131
# 5 -17.4130 -3.9452 -14.0011 -2.2847 47.8441 -5.9898
# 6 -23.1722 -7.0757 -3.4154 6.7131 -5.9898 55.5547
#
#
#
# Elastic Compliance Matrix: (Units=1/GPa)
#
#
# Indices 1 2 3 4 5 6 
#
# 1 0.008149 -0.002754 -0.001058 0.002254 0.002916 0.003025
# 2 -0.002754 0.014709 -0.000299 0.012421 0.000625 -0.000727
# 3 -0.001058 -0.000299 0.009046 0.009457 0.002591 -0.000787
# 4 0.002254 0.012421 0.009457 0.090947 0.008077 -0.007016
# 5 0.002916 0.000625 0.002591 0.008077 0.023535 0.003017
# 6 0.003025 -0.000727 -0.000787 -0.007016 0.003017 0.020294
#
#
# Mechanical properties :
#
#
# Convention : Reuss Voigt Hill
#
# Bulk Modulus (GPa) = 42.22470 66.50849 54.36660
# Shear Modulus (GPa) = 27.35265 42.79074 35.07169
#
# Velocity S-wave (km/s) = 3.35819 4.20030 3.80262
# Velocity P-wave (km/s) = 5.69611 7.13754 6.45717
#
# Compressibility (1/GPa) = 0.02368282
#
# Stress axis : x y z
#
# Youngs Moduli (GPa) = 122.71123 67.98398 110.54130
#
# Poissons Ratio (x) = 0.18724 0.11691
# Poissons Ratio (y) = 0.33796 0.03308
# Poissons Ratio (z) = 0.12979 0.02035
#
# Static dielectric constant tensor:
#      x y z
#    x 1.914190 0.017600 0.010170 
#    y 0.017600 1.957400 0.025620 
#    z 0.010170 0.025620 1.954360 
# 
# From -- ./inp_files/226464.got.cif
#   From: 2010.05.17/outbox.cif.g08.bks.cpg/sg2_114_cif.got.tgz:226464.got - 2010.06.03 11:33:40.
