data_PCOD9059156
_publ_section_title
;
Structure prediction by ZEFSAII (Michael W. Deem and Ramdas Pophale) SiO2 
 PCOD9059156
Probable space group: P -1
;
_chemical_formula_sum "Si O2"
_cell_formula_units_Z 12
_cell_length_a 9.499959
_cell_length_b 12.900218
_cell_length_c 7.982903
_cell_angle_alpha 48.886766
_cell_angle_beta 64.176747
_cell_angle_gamma 47.251147
_cell_volume 541.159078
_symmetry_space_group_name_H-M "P -1"
_symmetry_group_IT_number 2
_symmetry_cell_setting 'triclinic'
loop_
_space_group_symop_operation_xyz
x,y,z
-x,-y,-z
loop_
_atom_site_type_symbol
_atom_site_label
_atom_site_fract_x
_atom_site_fract_y
_atom_site_fract_z
Si Si1 0.139313 0.212943 0.237041
Si Si2 0.813376 0.539537 0.460562
Si Si3 0.772403 0.521710 0.116701
Si Si4 0.707867 0.044606 0.294980
Si Si5 0.472344 0.088208 0.682426
Si Si6 0.616901 0.384514 0.902405
O O1 0.927807 0.343756 0.134230
O O2 0.135588 0.116562 0.504628
O O3 0.316643 0.059949 0.200703
O O4 0.210869 0.331441 0.115141
O O5 0.844507 0.491361 0.301947
O O6 0.650264 0.740076 0.338094
O O7 0.736209 0.444587 0.694731
O O8 0.000000 0.500000 0.500000
O O9 0.557484 0.578632 0.163272
O O10 0.528810 0.127948 0.430682
O O11 0.648348 0.984951 0.228823
O O12 0.741329 0.185954 0.089392
O O13 0.500000 0.500000 0.000000
#
# Coordination Sequence:
#
# PCOD9059156 Si02
#       6
#     2   2   2   2   2   2
#     4   9  19  38  71  92 127 174 218 259 329 395
#     4  12  27  41  66 103 134 172 218 281 330 385
#     4  11  23  40  69 100 135 167 226 270 327 387
#     4   9  17  38  66  92 125 172 218 261 316 392
#     4   9  17  38  64  92 129 167 212 259 332 382
#     4  12  23  43  69  96 134 177 221 265 331 395
#
# _framework density 22.174626
#
# number of rings (size 3 to 8) (size 9 to 14) (size 15 to 20)
#    1.000    0.667    3.333    1.500    4.667    0.667 
#    0.000    6.667    0.000    0.000    0.000    0.000 
#    0.000    0.000    0.000    0.000    0.000    0.000 
#
# Total GULP energy -66958.026545 kJ/mol
# GULP energy per Si atom -5579.835545 kJ/mol
# Density = 2.212416 g / cm^3
# Si number density = 22.174626 Si / 1000 Ang^3
#
#
#
# Elastic Constant Matrix: (Units=GPa)
#
#
# Indices 1 2 3 4 5 6 
#
# 1 80.7725 8.2307 49.6906 -7.5346 -14.7408 -8.3041
# 2 8.2307 90.7701 39.2302 -31.6625 -4.9285 -11.6716
# 3 49.6906 39.2302 143.0919 -29.4047 -21.9712 -0.3235
# 4 -7.5346 -31.6625 -29.4047 41.2321 0.9550 12.2010
# 5 -14.7408 -4.9285 -21.9712 0.9550 35.6247 -5.4620
# 6 -8.3041 -11.6716 -0.3235 12.2010 -5.4620 33.4334
#
#
#
# Elastic Compliance Matrix: (Units=1/GPa)
#
#
# Indices 1 2 3 4 5 6 
#
# 1 0.017265 0.001394 -0.006081 -0.002058 0.004595 0.006218
# 2 0.001394 0.015817 -0.002611 0.009774 0.001274 0.002484
# 3 -0.006081 -0.002611 0.011641 0.006298 0.003515 -0.004033
# 4 -0.002058 0.009774 0.006298 0.039103 0.001644 -0.011039
# 5 0.004595 0.001274 0.003515 0.001644 0.033261 0.006454
# 6 0.006218 0.002484 -0.004033 -0.011039 0.006454 0.037365
#
#
# Mechanical properties :
#
#
# Convention : Reuss Voigt Hill
#
# Bulk Modulus (GPa) = 33.19267 56.54861 44.87064
# Shear Modulus (GPa) = 27.91902 36.55691 32.23797
#
# Velocity S-wave (km/s) = 3.55216 4.06469 3.81704
# Velocity P-wave (km/s) = 5.64137 6.89825 6.30123
#
# Compressibility (1/GPa) = 0.03012714
#
# Stress axis : x y z
#
# Youngs Moduli (GPa) = 57.91989 63.22413 85.90594
#
# Poissons Ratio (x) = -0.08812 0.52239
# Poissons Ratio (y) = -0.08073 0.22427
# Poissons Ratio (z) = 0.35221 0.16505
#
# Static dielectric constant tensor:
#      x y z
#    x 1.835770 -0.010080 0.035670 
#    y -0.010080 1.870470 -0.008560 
#    z 0.035670 -0.008560 1.809460 
# 
# From -- ./inp_files/183992.got.cif
#   From: 2010.05.17/outbox.cif.g08.bks.cpg/sg2_92_cif.got.tgz:183992.got - 2010.06.03 11:33:40.
