data_PCOD9059726
_publ_section_title
;
Structure prediction by ZEFSAII (Michael W. Deem and Ramdas Pophale) SiO2 
 PCOD9059726
Probable space group: P -1
;
_chemical_formula_sum "Si O2"
_cell_formula_units_Z 16
_cell_length_a 16.451630
_cell_length_b 15.608221
_cell_length_c 11.351030
_cell_angle_alpha 137.215850
_cell_angle_beta 120.480320
_cell_angle_gamma 25.629017
_cell_volume 728.434964
_symmetry_space_group_name_H-M "P -1"
_symmetry_group_IT_number 2
_symmetry_cell_setting 'triclinic'
loop_
_space_group_symop_operation_xyz
x,y,z
-x,-y,-z
loop_
_atom_site_type_symbol
_atom_site_label
_atom_site_fract_x
_atom_site_fract_y
_atom_site_fract_z
Si Si1 0.395644 0.862156 0.034048
Si Si2 0.040832 0.211960 0.515275
Si Si3 0.231029 0.571031 0.805859
Si Si4 0.878700 0.278883 0.690142
Si Si5 0.657549 0.780959 0.645494
Si Si6 0.246948 0.833533 0.068834
Si Si7 0.198065 0.251911 0.801335
Si Si8 0.974621 0.311535 0.017004
O O1 0.627663 0.574607 0.847545
O O2 0.199358 0.062110 0.001237
O O3 0.384096 0.776402 0.045976
O O4 0.352826 0.059994 0.237992
O O5 0.897672 0.311297 0.606445
O O6 0.872132 0.494716 0.594013
O O7 0.197025 0.115480 0.606857
O O8 0.177919 0.955047 0.272336
O O9 0.335125 0.327548 0.566469
O O10 0.334931 0.583905 0.879710
O O11 0.986187 0.882178 0.884907
O O12 0.185865 0.583250 0.918272
O O13 0.003112 0.215760 0.813436
O O14 0.000000 0.000000 0.500000
O O15 0.431650 0.017042 0.785751
O O16 0.000000 0.500000 0.000000
O O17 0.141880 0.415355 0.818960
#
# Coordination Sequence:
#
# PCOD9059726 Si02
#       8
#     2   2   2   2   2   2   2   2
#     4  11  24  43  72  99 131 175 219 276 329 390
#     4  11  24  42  70  96 133 176 220 271 329 394
#     4   9  21  41  67  94 133 174 216 274 327 393
#     4  12  27  45  66  98 137 175 221 270 331 394
#     4  11  24  41  70 100 130 171 222 274 334 381
#     4   9  21  43  66  97 131 174 225 263 330 398
#     4  12  24  40  62  99 135 169 219 273 329 391
#     4  11  23  42  67  95 136 167 220 274 327 386
#
# _framework density 21.964898999999999
#
# number of rings (size 3 to 8) (size 9 to 14) (size 15 to 20)
#    0.000    1.250    3.750    0.750    3.500    6.500 
#    0.000    1.875    0.000    0.000    0.000    0.000 
#    0.000    0.000    0.000    0.000    0.000    0.000 
#
# Total GULP energy -89459.975221 kJ/mol
# GULP energy per Si atom -5591.248451 kJ/mol
# Density = 2.191491 g / cm^3
# Si number density = 21.964899 Si / 1000 Ang^3
#
#
#
# Elastic Constant Matrix: (Units=GPa)
#
#
# Indices 1 2 3 4 5 6 
#
# 1 168.1558 27.8883 81.6277 -7.4490 13.2437 1.4689
# 2 27.8883 74.1332 21.8659 6.0949 -3.8303 -11.9861
# 3 81.6277 21.8659 108.8203 -3.0819 16.5985 3.3594
# 4 -7.4490 6.0949 -3.0819 27.4765 5.7335 -2.1094
# 5 13.2437 -3.8303 16.5985 5.7335 35.0778 -3.5588
# 6 1.4689 -11.9861 3.3594 -2.1094 -3.5588 34.2128
#
#
#
# Elastic Compliance Matrix: (Units=1/GPa)
#
#
# Indices 1 2 3 4 5 6 
#
# 1 0.009701 -0.002056 -0.006588 0.002570 -0.001236 -0.000460
# 2 -0.002056 0.016966 -0.003080 -0.005334 0.005627 0.006591
# 3 -0.006588 -0.003080 0.015783 0.001675 -0.005881 -0.002854
# 4 0.002570 -0.005334 0.001675 0.040293 -0.008992 -0.000595
# 5 -0.001236 0.005627 -0.005881 -0.008992 0.034412 0.005627
# 6 -0.000460 0.006591 -0.002854 -0.000595 0.005627 0.032387
#
#
# Mechanical properties :
#
#
# Convention : Reuss Voigt Hill
#
# Bulk Modulus (GPa) = 52.62571 68.20813 60.41692
# Shear Modulus (GPa) = 27.88246 34.00190 30.94218
#
# Velocity S-wave (km/s) = 3.56674 3.93875 3.75735
# Velocity P-wave (km/s) = 6.40103 7.19761 6.81098
#
# Compressibility (1/GPa) = 0.01900212
#
# Stress axis : x y z
#
# Youngs Moduli (GPa) = 103.07957 58.94178 63.35967
#
# Poissons Ratio (x) = 0.12117 0.41744
# Poissons Ratio (y) = 0.21191 0.19513
# Poissons Ratio (z) = 0.67913 0.18153
#
# Static dielectric constant tensor:
#      x y z
#    x 1.822430 -0.023830 0.024940 
#    y -0.023830 1.830320 -0.002320 
#    z 0.024940 -0.002320 1.806430 
# 
# From -- ./inp_files/455960.got.cif
#   From: 2010.05.17/outbox.cif.g08.bks.cpg/sg2_228_cif.got.tgz:455960.got - 2010.06.03 11:33:40.
