data_PCOD9059464
_publ_section_title
;
Structure prediction by ZEFSAII (Michael W. Deem and Ramdas Pophale) SiO2 
 PCOD9059464
Probable space group: P -1
;
_chemical_formula_sum "Si O2"
_cell_formula_units_Z 14
_cell_length_a 16.904747
_cell_length_b 13.819063
_cell_length_c 6.313676
_cell_angle_alpha 48.214695
_cell_angle_beta 60.924626
_cell_angle_gamma 32.633003
_cell_volume 582.596497
_symmetry_space_group_name_H-M "P -1"
_symmetry_group_IT_number 2
_symmetry_cell_setting 'triclinic'
loop_
_space_group_symop_operation_xyz
x,y,z
-x,-y,-z
loop_
_atom_site_type_symbol
_atom_site_label
_atom_site_fract_x
_atom_site_fract_y
_atom_site_fract_z
Si Si1 0.649709 0.350101 0.653424
Si Si2 0.268504 0.379028 0.330035
Si Si3 0.502159 0.716623 0.548765
Si Si4 0.137699 0.795635 0.757974
Si Si5 0.608910 0.785720 0.029415
Si Si6 0.809255 0.026254 0.254279
Si Si7 0.922818 0.478091 0.279520
O O1 0.500000 0.500000 0.500000
O O2 0.593819 0.480286 0.752639
O O3 0.737679 0.333430 0.394695
O O4 0.759695 0.114656 0.948120
O O5 0.400445 0.300891 0.403549
O O6 0.355572 0.220939 0.247598
O O7 0.166781 0.391609 0.572895
O O8 0.156250 0.626580 0.057935
O O9 0.334456 0.881962 0.591251
O O10 0.519755 0.755000 0.233338
O O11 0.154517 0.882101 0.797988
O O12 0.000000 0.000000 0.500000
O O13 0.778824 0.584781 0.188209
O O14 0.500000 0.000000 0.000000
O O15 0.950429 0.771625 0.471482
O O16 0.000000 0.500000 0.000000
#
# Coordination Sequence:
#
# PCOD9059464 Si02
#       7
#     2   2   2   2   2   2   2
#     4  12  23  41  68 109 149 193 243 297 367 444
#     4  11  24  45  72 104 143 188 244 311 370 431
#     4  11  23  41  69 103 144 187 244 300 363 442
#     4  12  24  39  68 108 152 194 236 297 379 443
#     4  11  25  48  75 102 139 191 255 307 363 440
#     4  12  25  42  70 110 155 193 239 304 369 436
#     4  11  27  49  71 105 147 196 251 302 365 441
#
# _framework density 24.030353999999999
#
# number of rings (size 3 to 8) (size 9 to 14) (size 15 to 20)
#    0.000    0.571    4.286    3.857    2.000    4.000 
#    0.000    2.857    0.000    0.000    0.000    0.000 
#    0.000    0.000    0.000    0.000    0.000    0.000 
#
# Total GULP energy -78060.252661 kJ/mol
# GULP energy per Si atom -5575.732333 kJ/mol
# Density = 2.397566 g / cm^3
# Si number density = 24.030354 Si / 1000 Ang^3
#
#
#
# Elastic Constant Matrix: (Units=GPa)
#
#
# Indices 1 2 3 4 5 6 
#
# 1 57.6999 23.5436 25.3970 -5.9538 11.2546 -8.0340
# 2 23.5436 108.2298 46.4589 8.0746 0.0550 2.8732
# 3 25.3970 46.4589 137.5626 6.8109 -0.7766 -6.4110
# 4 -5.9538 8.0746 6.8109 67.4751 -19.0750 -0.9158
# 5 11.2546 0.0550 -0.7766 -19.0750 39.7023 1.5320
# 6 -8.0340 2.8732 -6.4110 -0.9158 1.5320 35.9697
#
#
#
# Elastic Compliance Matrix: (Units=1/GPa)
#
#
# Indices 1 2 3 4 5 6 
#
# 1 0.022043 -0.003885 -0.002608 0.001050 -0.005985 0.005051
# 2 -0.003885 0.011647 -0.003262 -0.001302 0.000490 -0.002433
# 3 -0.002608 -0.003262 0.008941 -0.000555 0.000605 0.001232
# 4 0.001050 -0.001302 -0.000555 0.017403 0.008041 0.000340
# 5 -0.005985 0.000490 0.000605 0.008041 0.030850 -0.002377
# 6 0.005051 -0.002433 0.001232 0.000340 -0.002377 0.029453
#
#
# Mechanical properties :
#
#
# Convention : Reuss Voigt Hill
#
# Bulk Modulus (GPa) = 43.25241 54.92126 49.08683
# Shear Modulus (GPa) = 33.88597 42.50229 38.19413
#
# Velocity S-wave (km/s) = 3.75925 4.21014 3.99107
# Velocity P-wave (km/s) = 6.07295 6.82190 6.45829
#
# Compressibility (1/GPa) = 0.02312010
#
# Stress axis : x y z
#
# Youngs Moduli (GPa) = 45.36578 85.86217 111.84476
#
# Poissons Ratio (x) = 0.33357 0.29168
# Poissons Ratio (y) = 0.17624 0.36487
# Poissons Ratio (z) = 0.11831 0.28011
#
# Static dielectric constant tensor:
#      x y z
#    x 2.070060 0.145130 -0.054750 
#    y 0.145130 2.002980 -0.082380 
#    z -0.054750 -0.082380 2.111480 
# 
# From -- ./inp_files/28263.got.cif
#   From: 2010.05.17/outbox.cif.g08.bks.cpg/sg2_15_cif.got.tgz:28263.got - 2010.06.03 11:33:40.
