data_PCOD9059291
_publ_section_title
;
Structure prediction by ZEFSAII (Michael W. Deem and Ramdas Pophale) SiO2 
 PCOD9059291
Probable space group: P -1
;
_chemical_formula_sum "Si O2"
_cell_formula_units_Z 14
_cell_length_a 9.098376
_cell_length_b 8.246073
_cell_length_c 11.539276
_cell_angle_alpha 80.338058
_cell_angle_beta 128.304061
_cell_angle_gamma 112.041285
_cell_volume 627.222563
_symmetry_space_group_name_H-M "P -1"
_symmetry_group_IT_number 2
_symmetry_cell_setting 'triclinic'
loop_
_space_group_symop_operation_xyz
x,y,z
-x,-y,-z
loop_
_atom_site_type_symbol
_atom_site_label
_atom_site_fract_x
_atom_site_fract_y
_atom_site_fract_z
Si Si1 0.501186 0.674042 0.537423
Si Si2 0.677059 0.029809 0.994760
Si Si3 0.730444 0.280995 0.401772
Si Si4 0.118104 0.235288 0.956178
Si Si5 0.952264 0.516391 0.281604
Si Si6 0.643754 0.089365 0.730396
Si Si7 0.092959 0.283886 0.210014
O O1 0.500000 0.500000 0.500000
O O2 0.396163 0.610626 0.616906
O O3 0.401328 0.785424 0.400216
O O4 0.733093 0.782646 0.654579
O O5 0.729130 0.868588 0.980232
O O6 0.880657 0.137308 0.143684
O O7 0.500000 0.000000 0.000000
O O8 0.642481 0.143354 0.857220
O O9 0.814302 0.351103 0.309235
O O10 0.919201 0.340969 0.576285
O O11 0.556541 0.088841 0.350093
O O12 0.161954 0.391024 0.866679
O O13 0.881699 0.112047 0.832894
O O14 0.123111 0.304311 0.082653
O O15 0.082023 0.446550 0.262336
#
# Coordination Sequence:
#
# PCOD9059291 Si02
#       7
#     2   2   2   2   2   2   2
#     4  12  23  41  68 105 133 178 229 277 338 411
#     4  11  25  45  67 102 137 176 233 287 344 404
#     4  11  23  41  64  97 145 170 228 274 347 392
#     4  11  23  45  73  97 132 186 232 279 340 408
#     4  11  24  42  65 103 141 180 217 291 337 402
#     4  11  23  44  70  97 134 186 224 278 337 417
#     4  11  23  43  69 101 137 175 235 276 339 415
#
# _framework density 22.320625
#
# number of rings (size 3 to 8) (size 9 to 14) (size 15 to 20)
#    0.000    0.857    2.857    5.143    2.000    2.286 
#    0.000    6.429    0.000    0.000    0.000    0.000 
#    0.000    0.000    0.000    0.000    0.000    0.000 
#
# Total GULP energy -77971.581318 kJ/mol
# GULP energy per Si atom -5569.398666 kJ/mol
# Density = 2.226982 g / cm^3
# Si number density = 22.320625 Si / 1000 Ang^3
#
#
#
# Elastic Constant Matrix: (Units=GPa)
#
#
# Indices 1 2 3 4 5 6 
#
# 1 146.3718 44.4890 81.7901 -7.6154 -16.0198 15.3976
# 2 44.4890 59.7118 24.0778 -2.7101 -16.5439 9.3820
# 3 81.7901 24.0778 98.0897 -11.6351 3.7159 3.4572
# 4 -7.6154 -2.7101 -11.6351 34.3031 2.7891 -2.0341
# 5 -16.0198 -16.5439 3.7159 2.7891 34.6888 3.3599
# 6 15.3976 9.3820 3.4572 -2.0341 3.3599 29.5282
#
#
#
# Elastic Compliance Matrix: (Units=1/GPa)
#
#
# Indices 1 2 3 4 5 6 
#
# 1 0.017328 -0.003946 -0.013814 -0.002273 0.008488 -0.007287
# 2 -0.003946 0.025143 -0.003220 -0.001311 0.011290 -0.006929
# 3 -0.013814 -0.003220 0.023399 0.005987 -0.011602 0.007220
# 4 -0.002273 -0.001311 0.005987 0.031211 -0.005178 0.003640
# 5 0.008488 0.011290 -0.011602 -0.005178 0.040922 -0.011668
# 6 -0.007287 -0.006929 0.007220 0.003640 -0.011668 0.040600
#
#
# Mechanical properties :
#
#
# Convention : Reuss Voigt Hill
#
# Bulk Modulus (GPa) = 41.82568 67.20966 54.51767
# Shear Modulus (GPa) = 21.87857 29.95844 25.91851
#
# Velocity S-wave (km/s) = 3.13420 3.66756 3.41132
# Velocity P-wave (km/s) = 5.64596 6.93621 6.32408
#
# Compressibility (1/GPa) = 0.02390876
#
# Stress axis : x y z
#
# Youngs Moduli (GPa) = 57.71088 39.77213 42.73700
#
# Poissons Ratio (x) = 0.15696 0.59037
# Poissons Ratio (y) = 0.22775 0.13762
# Poissons Ratio (z) = 0.79722 0.12807
#
# Static dielectric constant tensor:
#      x y z
#    x 1.837370 -0.009900 0.020040 
#    y -0.009900 1.911390 0.088320 
#    z 0.020040 0.088320 1.927790 
# 
# From -- ./inp_files/378941.got.cif
#   From: 2010.05.17/outbox.cif.g08.bks.cpg/sg2_190_cif.got.tgz:378941.got - 2010.06.03 11:33:40.
