data_PCOD9059162
_publ_section_title
;
Structure prediction by ZEFSAII (Michael W. Deem and Ramdas Pophale) SiO2 
 PCOD9059162
Probable space group: P -1
;
_chemical_formula_sum "Si O2"
_cell_formula_units_Z 16
_cell_length_a 26.133362
_cell_length_b 9.183432
_cell_length_c 8.349380
_cell_angle_alpha 103.444853
_cell_angle_beta 139.416026
_cell_angle_gamma 44.804249
_cell_volume 683.431619
_symmetry_space_group_name_H-M "P -1"
_symmetry_group_IT_number 2
_symmetry_cell_setting 'triclinic'
loop_
_space_group_symop_operation_xyz
x,y,z
-x,-y,-z
loop_
_atom_site_type_symbol
_atom_site_label
_atom_site_fract_x
_atom_site_fract_y
_atom_site_fract_z
Si Si1 0.693270 0.766910 0.068755
Si Si2 0.793867 0.698086 0.941294
Si Si3 0.653194 0.339260 0.330654
Si Si4 0.137346 0.812420 0.664001
Si Si5 0.589263 0.788162 0.307649
Si Si6 0.939807 0.440938 0.774779
Si Si7 0.796048 0.028040 0.927427
Si Si8 0.063179 0.128975 0.295388
O O1 0.753986 0.500603 0.157286
O O2 0.774740 0.716990 0.397988
O O3 0.744491 0.751048 0.018577
O O4 0.523063 0.046751 0.768704
O O5 0.713060 0.703029 0.641642
O O6 0.753786 0.928542 0.849551
O O7 0.967171 0.393415 0.246373
O O8 0.640981 0.537608 0.326343
O O9 0.713879 0.213213 0.620718
O O10 0.773912 0.086606 0.426433
O O11 0.500000 0.500000 0.000000
O O12 0.076583 0.956528 0.383862
O O13 0.217986 0.829329 0.929777
O O14 0.000000 0.000000 0.500000
O O15 0.500000 0.000000 0.000000
O O16 0.000000 0.500000 0.000000
O O17 0.975941 0.266669 0.956045
O O18 0.034695 0.248648 0.796303
#
# Coordination Sequence:
#
# PCOD9059162 Si02
#       8
#     2   2   2   2   2   2   2   2
#     4  12  27  46  73 103 148 188 242 296 364 426
#     4  12  25  45  73 106 143 190 240 295 362 435
#     4  11  27  47  72 105 145 190 240 296 355 425
#     4  12  24  46  69 108 146 182 236 303 359 426
#     4  12  27  47  72 104 146 194 242 292 363 431
#     4  11  23  40  69 104 136 183 237 294 347 422
#     4  11  25  44  71 103 144 183 238 293 358 424
#     4  11  25  42  75 101 146 181 245 288 363 410
#
# _framework density 23.411269000000001
#
# number of rings (size 3 to 8) (size 9 to 14) (size 15 to 20)
#    0.000    0.500    3.750    3.375    5.250    2.000 
#    0.000    1.875    0.000    0.000    0.000    0.000 
#    0.000    0.000    0.000    0.000    0.000    0.000 
#
# Total GULP energy -89617.906993 kJ/mol
# GULP energy per Si atom -5601.119187 kJ/mol
# Density = 2.335798 g / cm^3
# Si number density = 23.411269 Si / 1000 Ang^3
#
#
#
# Elastic Constant Matrix: (Units=GPa)
#
#
# Indices 1 2 3 4 5 6 
#
# 1 169.0809 41.9586 39.8969 -3.6333 -14.3735 9.5818
# 2 41.9586 114.4323 29.3884 6.1163 16.6339 13.8536
# 3 39.8969 29.3884 97.1910 3.3249 18.4075 3.1111
# 4 -3.6333 6.1163 3.3249 36.4854 2.0459 4.6259
# 5 -14.3735 16.6339 18.4075 2.0459 36.3253 -9.4218
# 6 9.5818 13.8536 3.1111 4.6259 -9.4218 45.1424
#
#
#
# Elastic Compliance Matrix: (Units=1/GPa)
#
#
# Indices 1 2 3 4 5 6 
#
# 1 0.008121 -0.003151 -0.003709 0.001204 0.006667 0.000767
# 2 -0.003151 0.011717 -0.000686 -0.001264 -0.007302 -0.004274
# 3 -0.003709 -0.000686 0.013705 -0.000821 -0.008475 -0.001631
# 4 0.001204 -0.001264 -0.000821 0.028229 -0.000867 -0.002885
# 5 0.006667 -0.007302 -0.008475 -0.000867 0.040432 0.009937
# 6 0.000767 -0.004274 -0.001631 -0.002885 0.009937 0.025783
#
#
# Mechanical properties :
#
#
# Convention : Reuss Voigt Hill
#
# Bulk Modulus (GPa) = 54.20447 67.02134 60.61291
# Shear Modulus (GPa) = 33.50545 41.55462 37.53004
#
# Velocity S-wave (km/s) = 3.78718 4.21763 4.00819
# Velocity P-wave (km/s) = 6.50593 7.23932 6.88240
#
# Compressibility (1/GPa) = 0.01844866
#
# Stress axis : x y z
#
# Youngs Moduli (GPa) = 123.14116 85.34616 72.96843
#
# Poissons Ratio (x) = 0.26896 0.27065
# Poissons Ratio (y) = 0.38807 0.05008
# Poissons Ratio (z) = 0.45675 0.05857
#
# Static dielectric constant tensor:
#      x y z
#    x 1.878120 -0.001540 0.011470 
#    y -0.001540 1.885330 0.016060 
#    z 0.011470 0.016060 1.896700 
# 
# From -- ./inp_files/352281.got.cif
#   From: 2010.05.17/outbox.cif.g08.bks.cpg/sg2_177_cif.got.tgz:352281.got - 2010.06.03 11:33:40.
