data_PCOD9059609
_publ_section_title
;
Structure prediction by ZEFSAII (Michael W. Deem and Ramdas Pophale) SiO2 
 PCOD9059609
Probable space group: P -1
;
_chemical_formula_sum "Si O2"
_cell_formula_units_Z 16
_cell_length_a 15.919262
_cell_length_b 11.157338
_cell_length_c 19.815736
_cell_angle_alpha 134.414646
_cell_angle_beta 157.859768
_cell_angle_gamma 35.319007
_cell_volume 741.156744
_symmetry_space_group_name_H-M "P -1"
_symmetry_group_IT_number 2
_symmetry_cell_setting 'triclinic'
loop_
_space_group_symop_operation_xyz
x,y,z
-x,-y,-z
loop_
_atom_site_type_symbol
_atom_site_label
_atom_site_fract_x
_atom_site_fract_y
_atom_site_fract_z
Si Si1 0.856888 0.092699 0.357177
Si Si2 0.165817 0.689845 0.330782
Si Si3 0.582092 0.620106 0.061379
Si Si4 0.753659 0.586952 0.022890
Si Si5 0.047843 0.109118 0.018181
Si Si6 0.677513 0.857883 0.434171
Si Si7 0.932042 0.429284 0.510218
Si Si8 0.035118 0.956558 0.219045
O O1 0.828764 0.306191 0.415740
O O2 0.530673 0.197524 0.137160
O O3 0.000000 0.000000 0.500000
O O4 0.062516 0.901566 0.380835
O O5 0.500000 0.500000 0.500000
O O6 0.094218 0.761135 0.227581
O O7 0.997325 0.613410 0.207699
O O8 0.699799 0.551270 0.045971
O O9 0.812070 0.614515 0.273126
O O10 0.500000 0.500000 0.000000
O O11 0.282648 0.848921 0.918740
O O12 0.864758 0.364305 0.984277
O O13 0.381533 0.002336 0.231429
O O14 0.977574 0.053585 0.874047
O O15 0.000000 0.000000 0.000000
O O16 0.936600 0.695717 0.512194
O O17 0.695791 0.684222 0.426584
O O18 0.750968 0.995061 0.580794
#
# Coordination Sequence:
#
# PCOD9059609 Si02
#       8
#     2   2   2   2   2   2   2   2
#     4  12  27  47  73 110 148 197 254 315 377 448
#     4  12  28  51  77 105 150 202 259 314 378 450
#     4  12  23  45  78 111 145 202 243 312 383 456
#     4  12  28  49  73 114 152 193 259 317 374 459
#     4  12  28  47  72 109 155 193 250 314 389 450
#     4  11  23  44  71 109 141 194 246 308 369 453
#     4  11  23  41  76 105 146 189 254 300 375 449
#     4  12  25  47  76 104 150 198 255 305 381 452
#
# _framework density 21.587875
#
# number of rings (size 3 to 8) (size 9 to 14) (size 15 to 20)
#    0.000    0.250    5.000    3.375    5.250    1.000 
#    4.500    0.000    0.000    0.000    0.000    0.000 
#    0.000    0.000    0.000    0.000    0.000    0.000 
#
# Total GULP energy -89397.361599 kJ/mol
# GULP energy per Si atom -5587.335100 kJ/mol
# Density = 2.153874 g / cm^3
# Si number density = 21.587875 Si / 1000 Ang^3
#
#
#
# Elastic Constant Matrix: (Units=GPa)
#
#
# Indices 1 2 3 4 5 6 
#
# 1 101.8583 16.8343 43.3480 4.3498 -6.0091 4.2768
# 2 16.8343 72.2350 36.3763 -10.3820 11.1235 -0.9390
# 3 43.3480 36.3763 111.2631 -9.7553 -9.5620 -6.8741
# 4 4.3498 -10.3820 -9.7553 44.7059 -6.4129 -8.2813
# 5 -6.0091 11.1235 -9.5620 -6.4129 30.2558 2.3393
# 6 4.2768 -0.9390 -6.8741 -8.2813 2.3393 29.4754
#
#
#
# Elastic Compliance Matrix: (Units=1/GPa)
#
#
# Indices 1 2 3 4 5 6 
#
# 1 0.012451 -0.001059 -0.004942 -0.003132 0.000942 -0.003948
# 2 -0.001059 0.018916 -0.006323 0.001953 -0.008790 0.000528
# 3 -0.004942 -0.006323 0.014124 0.003806 0.006275 0.004381
# 4 -0.003132 0.001953 0.003806 0.026194 0.004766 0.008385
# 5 0.000942 -0.008790 0.006275 0.004766 0.039522 -0.000751
# 6 -0.003948 0.000528 0.004381 0.008385 -0.000751 0.037953
#
#
# Mechanical properties :
#
#
# Convention : Reuss Voigt Hill
#
# Bulk Modulus (GPa) = 47.98095 53.16374 50.57235
# Shear Modulus (GPa) = 27.66145 33.47394 30.56769
#
# Velocity S-wave (km/s) = 3.58347 3.94203 3.76701
# Velocity P-wave (km/s) = 6.27661 6.73792 6.51135
#
# Compressibility (1/GPa) = 0.02084160
#
# Stress axis : x y z
#
# Youngs Moduli (GPa) = 80.31528 52.86524 70.80106
#
# Poissons Ratio (x) = 0.05601 0.34990
# Poissons Ratio (y) = 0.08509 0.44769
# Poissons Ratio (z) = 0.39692 0.33428
#
# Static dielectric constant tensor:
#      x y z
#    x 1.817740 -0.019350 0.034220 
#    y -0.019350 1.788390 -0.002150 
#    z 0.034220 -0.002150 1.672340 
# 
# From -- ./inp_files/600101.got.cif
#   From: 2010.05.17/outbox.cif.g08.bks.cpg/sg2_301_cif.got.tgz:600101.got - 2010.06.03 11:33:40.
