data_PCOD9059638
_publ_section_title
;
Structure prediction by ZEFSAII (Michael W. Deem and Ramdas Pophale) SiO2 
 PCOD9059638
Probable space group: P -1
;
_chemical_formula_sum "Si O2"
_cell_formula_units_Z 16
_cell_length_a 24.277631
_cell_length_b 12.140175
_cell_length_c 6.689153
_cell_angle_alpha 128.896765
_cell_angle_beta 120.090062
_cell_angle_gamma 27.099875
_cell_volume 689.689917
_symmetry_space_group_name_H-M "P -1"
_symmetry_group_IT_number 2
_symmetry_cell_setting 'triclinic'
loop_
_space_group_symop_operation_xyz
x,y,z
-x,-y,-z
loop_
_atom_site_type_symbol
_atom_site_label
_atom_site_fract_x
_atom_site_fract_y
_atom_site_fract_z
Si Si1 0.009084 0.379429 0.068510
Si Si2 0.894725 0.285545 0.248104
Si Si3 0.150496 0.329710 0.523523
Si Si4 0.454980 0.887090 0.957553
Si Si5 0.585634 0.247155 0.597841
Si Si6 0.838489 0.187449 0.367201
Si Si7 0.699361 0.578672 0.908014
Si Si8 0.408817 0.475624 0.865735
O O1 0.101892 0.279069 0.277501
O O2 0.886385 0.597600 0.226724
O O3 0.000000 0.500000 0.000000
O O4 0.064189 0.123355 0.821411
O O5 0.914424 0.415154 0.411867
O O6 0.884637 0.238393 0.394129
O O7 0.768558 0.497608 0.139144
O O8 0.000000 0.000000 0.000000
O O9 0.295301 0.060543 0.453940
O O10 0.428512 0.786239 0.689175
O O11 0.580020 0.712794 0.892361
O O12 0.486412 0.815550 0.166377
O O13 0.349030 0.197765 0.057868
O O14 0.466906 0.431512 0.721407
O O15 0.614500 0.354916 0.823268
O O16 0.796143 0.305559 0.645838
O O17 0.714752 0.369840 0.237044
#
# Coordination Sequence:
#
# PCOD9059638 Si02
#       8
#     2   2   2   2   2   2   2   2
#     4  11  27  47  73  99 136 179 230 286 338 401
#     4  12  26  46  70  98 142 180 227 285 336 407
#     4  11  25  47  70 103 135 180 227 282 345 399
#     4  11  23  42  64  98 135 176 223 273 341 399
#     4  11  23  43  66 100 137 171 233 278 336 406
#     4  12  25  45  69 102 138 178 227 282 345 403
#     4  11  26  40  67  99 133 177 224 275 339 406
#     4  11  24  41  68 100 134 179 222 282 341 397
#
# _framework density 23.198830999999998
#
# number of rings (size 3 to 8) (size 9 to 14) (size 15 to 20)
#    0.000    0.750    6.250    0.375    3.500    4.000 
#    0.000    0.000    0.000    0.000    0.000    0.000 
#    0.000    0.000    0.000    0.000    0.000    0.000 
#
# Total GULP energy -89535.669980 kJ/mol
# GULP energy per Si atom -5595.979374 kJ/mol
# Density = 2.314603 g / cm^3
# Si number density = 23.198831 Si / 1000 Ang^3
#
#
#
# Elastic Constant Matrix: (Units=GPa)
#
#
# Indices 1 2 3 4 5 6 
#
# 1 79.2100 4.5617 16.1065 5.1955 -1.7952 8.5782
# 2 4.5617 77.4066 12.8725 2.1201 1.8027 9.2585
# 3 16.1065 12.8725 76.1876 7.4038 6.9880 1.9232
# 4 5.1955 2.1201 7.4038 36.8729 -0.2621 -0.1121
# 5 -1.7952 1.8027 6.9880 -0.2621 33.7106 -4.5094
# 6 8.5782 9.2585 1.9232 -0.1121 -4.5094 39.8125
#
#
#
# Elastic Compliance Matrix: (Units=1/GPa)
#
#
# Indices 1 2 3 4 5 6 
#
# 1 0.013587 -0.000005 -0.002756 -0.001362 0.000924 -0.002693
# 2 -0.000005 0.013678 -0.002128 -0.000373 -0.000716 -0.003159
# 3 -0.002756 -0.002128 0.014586 -0.002440 -0.003072 0.000029
# 4 -0.001362 -0.000373 -0.002440 0.027831 0.000758 0.000662
# 5 0.000924 -0.000716 -0.003072 0.000758 0.030878 0.003615
# 6 -0.002693 -0.003159 0.000029 0.000662 0.003615 0.026843
#
#
# Mechanical properties :
#
#
# Convention : Reuss Voigt Hill
#
# Bulk Modulus (GPa) = 31.17891 33.32060 32.24976
# Shear Modulus (GPa) = 33.81324 35.36343 34.58833
#
# Velocity S-wave (km/s) = 3.82192 3.90854 3.86547
# Velocity P-wave (km/s) = 5.73978 5.89603 5.81843
#
# Compressibility (1/GPa) = 0.03207296
#
# Stress axis : x y z
#
# Youngs Moduli (GPa) = 73.59837 73.11135 68.55982
#
# Poissons Ratio (x) = 0.00033 0.18895
# Poissons Ratio (y) = 0.00034 0.14592
# Poissons Ratio (z) = 0.20284 0.15560
#
# Static dielectric constant tensor:
#      x y z
#    x 1.871610 0.030650 0.028450 
#    y 0.030650 1.874370 -0.017960 
#    z 0.028450 -0.017960 1.854800 
# 
# From -- ./inp_files/68677.got.cif
#   From: 2010.05.17/outbox.cif.g08.bks.cpg/sg2_35_cif.got.tgz:68677.got - 2010.06.03 11:33:40.
