data_PCOD9059188
_publ_section_title
;
Structure prediction by ZEFSAII (Michael W. Deem and Ramdas Pophale) SiO2 
 PCOD9059188
Probable space group: P -1
;
_chemical_formula_sum "Si O2"
_cell_formula_units_Z 16
_cell_length_a 9.134635
_cell_length_b 8.005989
_cell_length_c 24.395955
_cell_angle_alpha 73.441785
_cell_angle_beta 35.275429
_cell_angle_gamma 98.048645
_cell_volume 730.271040
_symmetry_space_group_name_H-M "P -1"
_symmetry_group_IT_number 2
_symmetry_cell_setting 'triclinic'
loop_
_space_group_symop_operation_xyz
x,y,z
-x,-y,-z
loop_
_atom_site_type_symbol
_atom_site_label
_atom_site_fract_x
_atom_site_fract_y
_atom_site_fract_z
Si Si1 0.599812 0.497626 0.531896
Si Si2 0.344447 0.692234 0.909984
Si Si3 0.693888 0.291235 0.353806
Si Si4 0.898918 0.134885 0.492034
Si Si5 0.247787 0.433753 0.255451
Si Si6 0.398990 0.111050 0.709073
Si Si7 0.399413 0.802888 0.242101
Si Si8 0.847965 0.558802 0.899895
O O1 0.500000 0.500000 0.500000
O O2 0.532971 0.644611 0.571271
O O3 0.377164 0.250449 0.656204
O O4 0.991241 0.616111 0.396619
O O5 0.587862 0.642769 0.823671
O O6 0.498982 0.950492 0.823800
O O7 0.241989 0.626442 0.010471
O O8 0.000000 0.500000 0.000000
O O9 0.896433 0.324620 0.342592
O O10 0.985053 0.448855 0.204053
O O11 0.431350 0.034467 0.431040
O O12 0.770648 0.197595 0.574093
O O13 0.189281 0.332263 0.343875
O O14 0.000000 0.000000 0.500000
O O15 0.456085 0.705958 0.180777
O O16 0.409601 0.172112 0.763430
O O17 0.117844 0.828310 0.814651
O O18 0.500000 0.500000 0.000000
#
# Coordination Sequence:
#
# PCOD9059188 Si02
#       8
#     2   2   2   2   2   2   2   2
#     4  12  24  42  69 108 143 174 232 293 358 418
#     4  12  27  50  71 103 141 187 246 288 348 423
#     4  11  24  43  68 103 138 190 231 284 361 415
#     4  11  23  40  70 103 137 183 232 291 357 415
#     4  12  25  45  72 101 143 186 236 292 355 420
#     4  11  24  44  68 102 143 179 227 299 355 410
#     4  12  26  46  74 105 143 187 232 299 354 421
#     4  11  25  47  71  94 140 188 235 291 345 416
#
# _framework density 21.909670999999999
#
# number of rings (size 3 to 8) (size 9 to 14) (size 15 to 20)
#    0.000    0.500    5.000    3.000    5.250    1.500 
#    2.250    1.250    0.000    0.000    0.000    0.000 
#    0.000    0.000    0.000    0.000    0.000    0.000 
#
# Total GULP energy -89415.155630 kJ/mol
# GULP energy per Si atom -5588.447227 kJ/mol
# Density = 2.185980 g / cm^3
# Si number density = 21.909671 Si / 1000 Ang^3
#
#
#
# Elastic Constant Matrix: (Units=GPa)
#
#
# Indices 1 2 3 4 5 6 
#
# 1 106.4674 17.4941 13.5341 -12.1307 21.7516 4.4235
# 2 17.4941 85.0076 11.4876 -9.0510 18.2449 3.5699
# 3 13.5341 11.4876 70.1102 -6.9012 23.2740 -2.8323
# 4 -12.1307 -9.0510 -6.9012 30.4725 2.3430 1.8006
# 5 21.7516 18.2449 23.2740 2.3430 31.8519 1.4457
# 6 4.4235 3.5699 -2.8323 1.8006 1.4457 33.6047
#
#
#
# Elastic Compliance Matrix: (Units=1/GPa)
#
#
# Indices 1 2 3 4 5 6 
#
# 1 0.011879 0.000103 0.001387 0.005889 -0.009556 -0.001362
# 2 0.000103 0.014232 0.001274 0.005363 -0.009489 -0.001297
# 3 0.001387 0.001274 0.020151 0.006696 -0.016973 0.001752
# 4 0.005889 0.005363 0.006696 0.039541 -0.014792 -0.002263
# 5 -0.009556 -0.009489 -0.016973 -0.014792 0.056884 -0.000819
# 6 -0.001362 -0.001297 0.001752 -0.002263 -0.000819 0.030379
#
#
# Mechanical properties :
#
#
# Convention : Reuss Voigt Hill
#
# Bulk Modulus (GPa) = 19.30878 38.51298 28.91088
# Shear Modulus (GPa) = 27.05586 33.79046 30.42316
#
# Velocity S-wave (km/s) = 3.51790 3.93143 3.73040
# Velocity P-wave (km/s) = 5.03318 6.18259 5.63725
#
# Compressibility (1/GPa) = 0.05178992
#
# Stress axis : x y z
#
# Youngs Moduli (GPa) = 84.18065 70.26207 49.62513
#
# Poissons Ratio (x) = -0.00725 -0.06882
# Poissons Ratio (y) = -0.00868 -0.06320
# Poissons Ratio (z) = -0.11675 -0.08949
#
# Static dielectric constant tensor:
#      x y z
#    x 1.759900 -0.008900 -0.033380 
#    y -0.008900 1.850360 -0.016040 
#    z -0.033380 -0.016040 1.763160 
# 
# From -- ./inp_files/382776.got.cif
#   From: 2010.05.17/outbox.cif.g08.bks.cpg/sg2_192_cif.got.tgz:382776.got - 2010.06.03 11:33:40.
