data_PCOD9059692
_publ_section_title
;
Structure prediction by ZEFSAII (Michael W. Deem and Ramdas Pophale) SiO2 
 PCOD9059692
Probable space group: P -1
;
_chemical_formula_sum "Si O2"
_cell_formula_units_Z 13
_cell_length_a 9.149683
_cell_length_b 11.913209
_cell_length_c 10.105967
_cell_angle_alpha 89.376699
_cell_angle_beta 70.705796
_cell_angle_gamma 38.233019
_cell_volume 582.210515
_symmetry_space_group_name_H-M "P -1"
_symmetry_group_IT_number 2
_symmetry_cell_setting 'triclinic'
loop_
_space_group_symop_operation_xyz
x,y,z
-x,-y,-z
loop_
_atom_site_type_symbol
_atom_site_label
_atom_site_fract_x
_atom_site_fract_y
_atom_site_fract_z
Si Si1 0.354785 0.691938 0.323193
Si Si2 0.903153 0.134145 0.331197
Si Si3 0.645989 0.090980 0.257098
Si Si4 0.000000 0.500000 0.500000
Si Si5 0.769640 0.551820 0.018892
Si Si6 0.011303 0.703707 0.300069
Si Si7 0.679528 0.004372 0.956050
O O1 0.322295 0.706512 0.490547
O O2 0.645591 0.554754 0.177247
O O3 0.246192 0.641332 0.295272
O O4 0.138630 0.917005 0.334606
O O5 0.773186 0.134994 0.256606
O O6 0.060661 0.144601 0.219186
O O7 0.317674 0.299219 0.348845
O O8 0.755724 0.939401 0.338496
O O9 0.755528 0.981980 0.084954
O O10 0.058066 0.355470 0.580873
O O11 0.520690 0.774344 0.030457
O O12 0.000000 0.500000 0.000000
O O13 0.884705 0.407568 0.868569
O O14 0.500000 0.000000 0.000000
#
# Coordination Sequence:
#
# PCOD9059692 Si02
#       7
#     2   2   2   1   2   2   2
#     4   9  21  41  68  98 135 182 228 277 337 403
#     4   9  21  41  68  98 135 182 228 277 337 403
#     4  11  24  45  70  98 139 182 221 281 344 400
#     4  12  26  44  70 106 134 172 236 284 332 414
#     4  11  23  42  67 101 141 180 229 281 338 407
#     4  11  24  45  70  98 139 182 221 281 344 400
#     4  11  23  42  67 101 141 180 229 281 338 407
#
# _framework density 22.328693000000001
#
# number of rings (size 3 to 8) (size 9 to 14) (size 15 to 20)
#    0.000    1.538    1.538    2.308    4.308    0.000 
#    5.538    0.769    0.000    0.000    0.000    0.000 
#    0.000    0.000    0.000    0.000    0.000    0.000 
#
# Total GULP energy -72453.832151 kJ/mol
# GULP energy per Si atom -5573.371704 kJ/mol
# Density = 2.227787 g / cm^3
# Si number density = 22.328693 Si / 1000 Ang^3
#
#
#
# Elastic Constant Matrix: (Units=GPa)
#
#
# Indices 1 2 3 4 5 6 
#
# 1 105.2202 -5.1664 104.6672 -16.1836 11.5240 9.4968
# 2 -5.1664 84.4896 -19.3731 -19.2472 -14.7297 11.3929
# 3 104.6672 -19.3731 124.7460 -23.1695 -32.9445 5.0149
# 4 -16.1836 -19.2472 -23.1695 25.9872 1.3538 -0.0193
# 5 11.5240 -14.7297 -32.9445 1.3538 35.3092 -2.8983
# 6 9.4968 11.3929 5.0149 -0.0193 -2.8983 16.6118
#
#
#
# Elastic Compliance Matrix: (Units=1/GPa)
#
#
# Indices 1 2 3 4 5 6 
#
# 1 -0.007039 0.013699 0.018537 0.021037 0.023946 -0.006764
# 2 0.013699 0.013854 -0.008910 0.011292 -0.008765 -0.016159
# 3 0.018537 -0.008910 -0.017295 -0.009131 -0.025865 -0.003788
# 4 0.021037 0.011292 -0.009131 0.052533 -0.014285 -0.019445
# 5 0.023946 -0.008765 -0.025865 -0.014285 -0.006824 -0.001077
# 6 -0.006764 -0.016159 -0.003788 -0.019445 -0.001077 0.076081
#
#
# Mechanical properties :
#
#
# Convention : Reuss Voigt Hill
#
# Bulk Modulus (GPa) = 27.64724 52.74568 40.19646
# Shear Modulus (GPa) = 65.17559 31.20352 48.18956
#
# Velocity S-wave (km/s) = 5.40856 3.74232 4.65067
# Velocity P-wave (km/s) = 7.17023 6.50745 6.84687
#
# Compressibility (1/GPa) = 0.03616997
#
# Stress axis : x y z
#
# Youngs Moduli (GPa) = -142.06048 72.18383 -57.82075
#
# Poissons Ratio (x) = -0.98885 1.07181
# Poissons Ratio (y) = 1.94609 -0.51521
# Poissons Ratio (z) = 2.63334 0.64319
#
# Static dielectric constant tensor:
#      x y z
#    x 1.792200 -0.012350 -0.018020 
#    y -0.012350 1.867450 0.000160 
#    z -0.018020 0.000160 1.804980 
# 
# From -- ./inp_files/187383.got.cif
#   From: 2010.05.17/outbox.cif.g08.bks.cpg/sg2_94_cif.got.tgz:187383.got - 2010.06.03 11:33:40.
