data_PCOD9059836
_publ_section_title
;
Structure prediction by ZEFSAII (Michael W. Deem and Ramdas Pophale) SiO2 
 PCOD9059836
Probable space group: P -1
;
_chemical_formula_sum "Si O2"
_cell_formula_units_Z 15
_cell_length_a 11.212463
_cell_length_b 12.357098
_cell_length_c 6.486092
_cell_angle_alpha 55.538309
_cell_angle_beta 80.789256
_cell_angle_gamma 78.411434
_cell_volume 724.655613
_symmetry_space_group_name_H-M "P -1"
_symmetry_group_IT_number 2
_symmetry_cell_setting 'triclinic'
loop_
_space_group_symop_operation_xyz
x,y,z
-x,-y,-z
loop_
_atom_site_type_symbol
_atom_site_label
_atom_site_fract_x
_atom_site_fract_y
_atom_site_fract_z
Si Si1 0.555184 0.454180 0.819298
Si Si2 0.362662 0.813423 0.717858
Si Si3 0.710955 0.844006 0.903547
Si Si4 0.500000 0.000000 0.500000
Si Si5 0.759062 0.026247 0.074878
Si Si6 0.935808 0.894721 0.500019
Si Si7 0.306015 0.451605 0.647493
Si Si8 0.182947 0.741301 0.488770
O O1 0.435267 0.459332 0.711217
O O2 0.657493 0.535587 0.615327
O O3 0.500000 0.500000 0.000000
O O4 0.614879 0.305832 0.003940
O O5 0.338913 0.942385 0.741522
O O6 0.260213 0.784579 0.617581
O O7 0.474986 0.863212 0.519861
O O8 0.825594 0.859949 0.707457
O O9 0.589351 0.900441 0.751947
O O10 0.726561 0.689924 0.129104
O O11 0.719868 0.931635 0.012259
O O12 0.878067 0.960488 0.235519
O O13 0.786645 0.160355 0.809608
O O14 0.041012 0.775931 0.545063
O O15 0.000000 0.000000 0.500000
O O16 0.221697 0.587076 0.590385
#
# Coordination Sequence:
#
# PCOD9059836 Si02
#       8
#     2   2   2   1   2   2   2   2
#     4  11  23  42  69  96 141 181 224 275 340 424
#     4  12  23  41  70 104 130 184 229 284 347 406
#     4  12  27  44  68 107 143 180 229 288 346 409
#     4  12  22  44  64 102 146 170 224 288 344 404
#     4  12  23  44  70 101 132 182 233 284 344 405
#     4  12  24  45  72 101 134 182 239 290 341 403
#     4  11  26  43  66 104 138 184 227 276 354 415
#     4  12  24  44  73  98 135 182 239 281 339 420
#
# _framework density 20.699490000000001
#
# number of rings (size 3 to 8) (size 9 to 14) (size 15 to 20)
#    0.000    0.267    9.333    0.400    0.000    3.200 
#    0.000    0.667    0.000    0.000    0.000    0.000 
#    0.000    0.000    0.000    0.000    0.000    0.000 
#
# Total GULP energy -83503.280334 kJ/mol
# GULP energy per Si atom -5566.885356 kJ/mol
# Density = 2.065238 g / cm^3
# Si number density = 20.699490 Si / 1000 Ang^3
#
#
#
# Elastic Constant Matrix: (Units=GPa)
#
#
# Indices 1 2 3 4 5 6 
#
# 1 92.8535 52.7700 39.1448 -8.2348 12.1185 -15.0686
# 2 52.7700 123.9146 110.5185 -15.8609 7.0111 9.4638
# 3 39.1448 110.5185 -34.9686 -6.7721 -26.9826 -119.9185
# 4 -8.2348 -15.8609 -6.7721 41.1960 5.9520 10.5952
# 5 12.1185 7.0111 -26.9826 5.9520 36.9646 -22.8351
# 6 -15.0686 9.4638 -119.9185 10.5952 -22.8351 -49.9288
#
#
#
# Elastic Compliance Matrix: (Units=1/GPa)
#
#
# Indices 1 2 3 4 5 6 
#
# 1 0.015304 -0.004119 -0.002515 0.000962 -0.004448 0.002879
# 2 -0.004119 0.011741 -0.003122 0.000272 0.002816 0.009737
# 3 -0.002515 -0.003122 0.006492 0.003227 -0.002706 -0.013504
# 4 0.000962 0.000272 0.003227 0.025825 -0.002900 -0.001182
# 5 -0.004448 0.002816 -0.002706 -0.002900 0.024376 -0.003389
# 6 0.002879 0.009737 -0.013504 -0.001182 -0.003389 0.014681
#
#
# Mechanical properties :
#
#
# Convention : Reuss Voigt Hill
#
# Bulk Modulus (GPa) = 71.30411 65.18515 68.24463
# Shear Modulus (GPa) = 40.78110 4.27076 22.52593
#
# Velocity S-wave (km/s) = 4.44345 1.43795 3.30242
# Velocity P-wave (km/s) = 7.80050 5.85803 6.89798
#
# Compressibility (1/GPa) = 0.01402444
#
# Stress axis : x y z
#
# Youngs Moduli (GPa) = 65.34213 85.17290 154.02730
#
# Poissons Ratio (x) = 0.35087 0.38736
# Poissons Ratio (y) = 0.26917 0.48089
# Poissons Ratio (z) = 0.16433 0.26592
#
# Static dielectric constant tensor:
#      x y z
#    x 1.603310 -0.163730 0.012920 
#    y -0.163730 1.858480 0.156910 
#    z 0.012920 0.156910 1.763810 
# 
# From -- ./inp_files/68511.got.cif
#   From: 2010.05.17/outbox.cif.g08.bks.cpg/sg2_35_cif.got.tgz:68511.got - 2010.06.03 11:33:40.
