data_PCOD9059222
_publ_section_title
;
Structure prediction by ZEFSAII (Michael W. Deem and Ramdas Pophale) SiO2 
 PCOD9059222
Probable space group: P -1
;
_chemical_formula_sum "Si O2"
_cell_formula_units_Z 16
_cell_length_a 5.450985
_cell_length_b 11.990439
_cell_length_c 11.852588
_cell_angle_alpha 110.343236
_cell_angle_beta 118.871711
_cell_angle_gamma 97.357218
_cell_volume 593.332950
_symmetry_space_group_name_H-M "P -1"
_symmetry_group_IT_number 2
_symmetry_cell_setting 'triclinic'
loop_
_space_group_symop_operation_xyz
x,y,z
-x,-y,-z
loop_
_atom_site_type_symbol
_atom_site_label
_atom_site_fract_x
_atom_site_fract_y
_atom_site_fract_z
Si Si1 0.630621 0.090890 0.167663
Si Si2 0.335573 0.666778 0.548802
Si Si3 0.793082 0.628119 0.103808
Si Si4 0.342182 0.734779 0.958492
Si Si5 0.730869 0.543749 0.711402
Si Si6 0.267125 0.072257 0.310978
Si Si7 0.229366 0.301930 0.621296
Si Si8 0.378066 0.822305 0.241702
O O1 0.713636 0.222608 0.162801
O O2 0.394750 0.083205 0.212586
O O3 0.930400 0.063725 0.254022
O O4 0.500000 0.000000 0.000000
O O5 0.570325 0.643288 0.679017
O O6 0.212017 0.529350 0.411739
O O7 0.528753 0.785142 0.553693
O O8 0.050084 0.707045 0.524493
O O9 0.855332 0.668866 0.261518
O O10 0.132736 0.679057 0.153263
O O11 0.500000 0.500000 0.000000
O O12 0.651040 0.710429 0.023496
O O13 0.042990 0.610845 0.867174
O O14 0.383831 0.827831 0.108301
O O15 0.492826 0.429802 0.686362
O O16 0.304548 0.942115 0.313316
O O17 0.328365 0.183104 0.632773
#
# Coordination Sequence:
#
# PCOD9059222 Si02
#       8
#     2   2   2   2   2   2   2   2
#     4  12  25  46  73 112 146 190 238 303 371 435
#     4  11  26  45  71 101 143 193 244 300 357 438
#     4  11  23  41  68 102 141 188 239 304 363 434
#     4  11  23  40  72 104 140 184 240 305 372 426
#     4  11  24  46  69 107 137 190 247 301 365 429
#     4  12  28  46  75 109 151 193 243 300 371 438
#     4  11  24  43  68  98 140 193 239 307 351 436
#     4  11  25  44  69 106 145 186 244 296 373 438
#
# _framework density 26.966313
#
# number of rings (size 3 to 8) (size 9 to 14) (size 15 to 20)
#    0.000    0.750    2.500    4.500    5.250    4.500 
#    0.000    2.500    0.000    0.000    0.000    0.000 
#    0.000    0.000    0.000    0.000    0.000    0.000 
#
# Total GULP energy -89370.504748 kJ/mol
# GULP energy per Si atom -5585.656547 kJ/mol
# Density = 2.690494 g / cm^3
# Si number density = 26.966313 Si / 1000 Ang^3
#
#
#
# Elastic Constant Matrix: (Units=GPa)
#
#
# Indices 1 2 3 4 5 6 
#
# 1 86.9458 28.3575 24.2269 -14.5625 2.6215 -15.5166
# 2 28.3575 118.0443 33.9177 -10.7392 14.3187 -24.6664
# 3 24.2269 33.9177 100.0210 -10.8653 16.7867 -22.6572
# 4 -14.5625 -10.7392 -10.8653 54.7472 -0.2577 9.2962
# 5 2.6215 14.3187 16.7867 -0.2577 55.2145 -10.8790
# 6 -15.5166 -24.6664 -22.6572 9.2962 -10.8790 56.6260
#
#
#
# Elastic Compliance Matrix: (Units=1/GPa)
#
#
# Indices 1 2 3 4 5 6 
#
# 1 0.013465 -0.002183 -0.002017 0.002469 0.000886 0.001696
# 2 -0.002183 0.010387 -0.002075 0.000575 -0.001419 0.002729
# 3 -0.002017 -0.002075 0.012373 0.001019 -0.002565 0.002834
# 4 0.002469 0.000575 0.001019 0.019582 -0.000889 -0.002051
# 5 0.000886 -0.001419 -0.002565 -0.000889 0.019711 0.002531
# 6 0.001696 0.002729 0.002834 -0.002051 0.002531 0.021270
#
#
# Mechanical properties :
#
#
# Convention : Reuss Voigt Hill
#
# Bulk Modulus (GPa) = 42.23963 53.11284 47.67623
# Shear Modulus (GPa) = 42.65097 47.88480 45.26789
#
# Velocity S-wave (km/s) = 3.98130 4.21851 4.10162
# Velocity P-wave (km/s) = 6.06895 6.59291 6.33635
#
# Compressibility (1/GPa) = 0.02367445
#
# Stress axis : x y z
#
# Youngs Moduli (GPa) = 74.26531 96.27730 80.81994
#
# Poissons Ratio (x) = 0.21022 0.16304
# Poissons Ratio (y) = 0.16216 0.16766
# Poissons Ratio (z) = 0.14982 0.19973
#
# Static dielectric constant tensor:
#      x y z
#    x 2.172180 -0.035370 -0.047960 
#    y -0.035370 2.269970 0.055760 
#    z -0.047960 0.055760 2.087690 
# 
# From -- ./inp_files/363836.got.cif
#   From: 2010.05.17/outbox.cif.g08.bks.cpg/sg2_182_cif.got.tgz:363836.got - 2010.06.03 11:33:40.
