data_PCOD9059425
_publ_section_title
;
Structure prediction by ZEFSAII (Michael W. Deem and Ramdas Pophale) SiO2 
 PCOD9059425
Probable space group: P -1
;
_chemical_formula_sum "Si O2"
_cell_formula_units_Z 16
_cell_length_a 12.371019
_cell_length_b 5.396518
_cell_length_c 11.788028
_cell_angle_alpha 92.954948
_cell_angle_beta 60.664911
_cell_angle_gamma 98.188161
_cell_volume 678.914262
_symmetry_space_group_name_H-M "P -1"
_symmetry_group_IT_number 2
_symmetry_cell_setting 'triclinic'
loop_
_space_group_symop_operation_xyz
x,y,z
-x,-y,-z
loop_
_atom_site_type_symbol
_atom_site_label
_atom_site_fract_x
_atom_site_fract_y
_atom_site_fract_z
Si Si1 0.142726 0.092935 0.388377
Si Si2 0.281829 0.643025 0.400039
Si Si3 0.314696 0.694367 0.651966
Si Si4 0.451792 0.490039 0.762023
Si Si5 0.565379 0.270099 0.006635
Si Si6 0.171045 0.843532 0.139848
Si Si7 0.235912 0.069631 0.864952
Si Si8 0.058614 0.380284 0.858993
O O1 0.222856 0.882360 0.391021
O O2 0.155725 0.057893 0.244541
O O3 0.196938 0.374866 0.408409
O O4 0.000000 0.000000 0.500000
O O5 0.304507 0.686681 0.523582
O O6 0.421616 0.622789 0.284629
O O7 0.425494 0.565767 0.648982
O O8 0.182864 0.551259 0.760196
O O9 0.315705 0.955192 0.723262
O O10 0.450862 0.726507 0.849171
O O11 0.327632 0.313968 0.861254
O O12 0.500000 0.500000 0.000000
O O13 0.709473 0.291408 0.895279
O O14 0.500000 0.000000 0.000000
O O15 0.040340 0.665385 0.192209
O O16 0.197224 0.930267 0.998337
O O17 0.111272 0.130928 0.868161
O O18 0.000000 0.500000 0.000000
#
# Coordination Sequence:
#
# PCOD9059425 Si02
#       8
#     2   2   2   2   2   2   2   2
#     4  12  30  52  73 108 147 201 250 299 360 438
#     4  12  29  50  77 105 147 202 247 298 364 439
#     4  11  25  45  73 105 148 187 242 308 365 438
#     4  11  25  46  71 112 145 186 248 294 377 435
#     4  12  25  44  68 101 144 185 232 297 351 425
#     4  12  24  46  75 105 145 193 242 303 371 438
#     4  11  24  43  73 111 144 187 236 315 372 430
#     4  11  23  41  68 113 144 184 243 303 378 432
#
# _framework density 23.567039999999999
#
# number of rings (size 3 to 8) (size 9 to 14) (size 15 to 20)
#    0.000    0.500    2.500    4.875    7.000    2.500 
#    0.000    0.000    0.000    0.000    0.000    0.000 
#    0.000    0.000    0.000    0.000    0.000    0.000 
#
# Total GULP energy -89506.913727 kJ/mol
# GULP energy per Si atom -5594.182108 kJ/mol
# Density = 2.351340 g / cm^3
# Si number density = 23.567040 Si / 1000 Ang^3
#
#
#
# Elastic Constant Matrix: (Units=GPa)
#
#
# Indices 1 2 3 4 5 6 
#
# 1 138.9148 37.4639 13.3791 9.5783 -12.3846 -0.0934
# 2 37.4639 98.2854 4.2491 17.0340 10.1256 6.9752
# 3 13.3791 4.2491 94.7567 24.4996 12.6941 4.6422
# 4 9.5783 17.0340 24.4996 26.2966 7.4835 1.7929
# 5 -12.3846 10.1256 12.6941 7.4835 45.9522 14.6118
# 6 -0.0934 6.9752 4.6422 1.7929 14.6118 36.1311
#
#
#
# Elastic Compliance Matrix: (Units=1/GPa)
#
#
# Indices 1 2 3 4 5 6 
#
# 1 0.008648 -0.003468 -0.001371 -0.000660 0.003781 -0.000628
# 2 -0.003468 0.013310 0.002637 -0.008953 -0.002698 -0.001382
# 3 -0.001371 0.002637 0.014639 -0.014095 -0.002479 -0.000691
# 4 -0.000660 -0.008953 -0.014095 0.058340 -0.004609 0.002507
# 5 0.003781 -0.002698 -0.002479 -0.004609 0.028079 -0.010277
# 6 -0.000628 -0.001382 -0.000691 0.002507 -0.010277 0.032063
#
#
# Mechanical properties :
#
#
# Convention : Reuss Voigt Hill
#
# Bulk Modulus (GPa) = 31.06193 49.12679 40.09436
# Shear Modulus (GPa) = 29.37500 40.13363 34.75431
#
# Velocity S-wave (km/s) = 3.53433 4.13117 3.84435
# Velocity P-wave (km/s) = 5.46481 6.60653 6.06261
#
# Compressibility (1/GPa) = 0.03219375
#
# Stress axis : x y z
#
# Youngs Moduli (GPa) = 115.63354 75.13137 68.31152
#
# Poissons Ratio (x) = 0.26053 0.09363
# Poissons Ratio (y) = 0.40098 -0.18013
# Poissons Ratio (z) = 0.15849 -0.19811
#
# Static dielectric constant tensor:
#      x y z
#    x 1.885270 -0.035840 0.061660 
#    y -0.035840 2.006240 0.113470 
#    z 0.061660 0.113470 1.944930 
# 
# From -- ./inp_files/410445.got.cif
#   From: 2010.05.17/outbox.cif.g08.bks.cpg/sg2_206_cif.got.tgz:410445.got - 2010.06.03 11:33:40.
