data_PCOD9059505
_publ_section_title
;
Structure prediction by ZEFSAII (Michael W. Deem and Ramdas Pophale) SiO2 
 PCOD9059505
Probable space group: P -1
;
_chemical_formula_sum "Si O2"
_cell_formula_units_Z 16
_cell_length_a 8.525791
_cell_length_b 9.770588
_cell_length_c 15.531622
_cell_angle_alpha 142.741491
_cell_angle_beta 104.553241
_cell_angle_gamma 69.265453
_cell_volume 731.494273
_symmetry_space_group_name_H-M "P -1"
_symmetry_group_IT_number 2
_symmetry_cell_setting 'triclinic'
loop_
_space_group_symop_operation_xyz
x,y,z
-x,-y,-z
loop_
_atom_site_type_symbol
_atom_site_label
_atom_site_fract_x
_atom_site_fract_y
_atom_site_fract_z
Si Si1 0.426204 0.671912 0.656926
Si Si2 0.025247 0.757959 0.632534
Si Si3 0.788910 0.256845 0.067961
Si Si4 0.141465 0.433485 0.913834
Si Si5 0.433479 0.197264 0.958562
Si Si6 0.076603 0.254620 0.206505
Si Si7 0.047688 0.897516 0.361484
Si Si8 0.314560 0.462300 0.238615
O O1 0.500000 0.500000 0.500000
O O2 0.223872 0.738021 0.658701
O O3 0.514043 0.541996 0.690246
O O4 0.472732 0.923883 0.799156
O O5 0.000000 0.500000 0.500000
O O6 0.920128 0.846959 0.748520
O O7 0.955268 0.910022 0.615568
O O8 0.860999 0.352106 0.041207
O O9 0.881442 0.361267 0.208664
O O10 0.592964 0.299171 0.047109
O O11 0.846781 0.979593 0.954253
O O12 0.315778 0.338407 0.938821
O O13 0.092542 0.232393 0.751463
O O14 0.000000 0.500000 0.000000
O O15 0.341253 0.255812 0.067717
O O16 0.186427 0.427085 0.278996
O O17 0.223462 0.699432 0.295310
O O18 0.000000 0.000000 0.500000
#
# Coordination Sequence:
#
# PCOD9059505 Si02
#       8
#     2   2   2   2   2   2   2   2
#     4  12  26  46  69 105 145 191 237 301 368 433
#     4  12  27  46  73 102 141 190 244 291 366 441
#     4  11  24  39  68 105 145 177 243 297 362 420
#     4  12  23  45  71 103 143 190 243 302 364 433
#     4  12  25  43  72 106 145 191 240 305 363 430
#     4  11  23  41  70 103 138 185 235 299 350 431
#     4  12  25  46  74 104 144 189 238 298 366 429
#     4  12  25  47  75 106 143 191 246 294 371 429
#
# _framework density 21.873035999999999
#
# number of rings (size 3 to 8) (size 9 to 14) (size 15 to 20)
#    0.000    0.250    5.000    4.500    3.500    0.000 
#    0.000    0.625    0.000    0.000    0.000    0.000 
#    0.000    0.000    0.000    0.000    0.000    0.000 
#
# Total GULP energy -89324.544538 kJ/mol
# GULP energy per Si atom -5582.784034 kJ/mol
# Density = 2.182325 g / cm^3
# Si number density = 21.873036 Si / 1000 Ang^3
#
#
#
# Elastic Constant Matrix: (Units=GPa)
#
#
# Indices 1 2 3 4 5 6 
#
# 1 68.9405 44.9853 8.2550 -0.1579 8.4480 8.2127
# 2 44.9853 177.0193 32.9996 -2.6827 8.0211 2.3122
# 3 8.2550 32.9996 104.3641 -12.3814 0.6122 10.9357
# 4 -0.1579 -2.6827 -12.3814 36.5649 -0.1605 2.3308
# 5 8.4480 8.0211 0.6122 -0.1605 25.4728 -4.4346
# 6 8.2127 2.3122 10.9357 2.3308 -4.4346 51.3934
#
#
#
# Elastic Compliance Matrix: (Units=1/GPa)
#
#
# Indices 1 2 3 4 5 6 
#
# 1 0.018411 -0.004458 0.000333 0.000050 -0.005279 -0.003270
# 2 -0.004458 0.007172 -0.002020 -0.000229 -0.000597 0.000779
# 3 0.000333 -0.002020 0.010892 0.003697 -0.000141 -0.002460
# 4 0.000050 -0.000229 0.003697 0.028717 -0.000219 -0.002106
# 5 -0.005279 -0.000597 -0.000141 -0.000219 0.041988 0.004533
# 6 -0.003270 0.000779 -0.002460 -0.002106 0.004533 0.020955
#
#
# Mechanical properties :
#
#
# Convention : Reuss Voigt Hill
#
# Bulk Modulus (GPa) = 41.35053 58.08932 49.71993
# Shear Modulus (GPa) = 33.67288 40.29180 36.98234
#
# Velocity S-wave (km/s) = 3.92786 4.29660 4.11636
# Velocity P-wave (km/s) = 6.28623 7.15748 6.73595
#
# Compressibility (1/GPa) = 0.02418349
#
# Stress axis : x y z
#
# Youngs Moduli (GPa) = 54.31539 139.42931 91.81401
#
# Poissons Ratio (x) = 0.62159 -0.03057
# Poissons Ratio (y) = 0.24214 0.18551
# Poissons Ratio (z) = -0.01809 0.28171
#
# Static dielectric constant tensor:
#      x y z
#    x 1.878160 -0.017390 -0.041820 
#    y -0.017390 1.818880 -0.094790 
#    z -0.041820 -0.094790 2.010970 
# 
# From -- ./inp_files/494562.got.cif
#   From: 2010.05.17/outbox.cif.g08.bks.cpg/sg2_248_cif.got.tgz:494562.got - 2010.06.03 11:33:40.
