data_PCOD9059851
_publ_section_title
;
Structure prediction by ZEFSAII (Michael W. Deem and Ramdas Pophale) SiO2 
 PCOD9059851
Probable space group: P -1
;
_chemical_formula_sum "Si O2"
_cell_formula_units_Z 16
_cell_length_a 12.173224
_cell_length_b 8.110148
_cell_length_c 9.535976
_cell_angle_alpha 76.366994
_cell_angle_beta 85.199479
_cell_angle_gamma 55.016186
_cell_volume 748.048157
_symmetry_space_group_name_H-M "P -1"
_symmetry_group_IT_number 2
_symmetry_cell_setting 'triclinic'
loop_
_space_group_symop_operation_xyz
x,y,z
-x,-y,-z
loop_
_atom_site_type_symbol
_atom_site_label
_atom_site_fract_x
_atom_site_fract_y
_atom_site_fract_z
Si Si1 0.741105 0.465593 0.222101
Si Si2 0.137268 0.333556 0.437795
Si Si3 0.642513 0.441183 0.940080
Si Si4 0.411226 0.267901 0.373979
Si Si5 0.157053 0.909038 0.513232
Si Si6 0.017569 0.378706 0.160814
Si Si7 0.766433 0.089667 0.788639
Si Si8 0.509482 0.158519 0.667263
O O1 0.771356 0.262619 0.339807
O O2 0.614930 0.670573 0.262193
O O3 0.874723 0.458878 0.225933
O O4 0.714818 0.461614 0.060846
O O5 0.273001 0.320102 0.450407
O O6 0.104583 0.395208 0.265613
O O7 0.000000 0.500000 0.500000
O O8 0.165315 0.106068 0.494508
O O9 0.616503 0.581019 0.779585
O O10 0.731034 0.213592 0.910121
O O11 0.500000 0.500000 0.000000
O O12 0.499667 0.259269 0.495838
O O13 0.484316 0.042864 0.338820
O O14 0.216120 0.811689 0.372772
O O15 0.000000 0.000000 0.500000
O O16 0.098005 0.136282 0.167744
O O17 0.000000 0.500000 0.000000
O O18 0.642039 0.081269 0.757604
#
# Coordination Sequence:
#
# PCOD9059851 Si02
#       8
#     2   2   2   2   2   2   2   2
#     4  12  25  42  71 100 132 179 226 273 339 400
#     4  11  23  42  70 100 131 171 225 282 331 394
#     4  12  28  43  66 102 139 180 227 275 337 405
#     4  11  25  44  67 103 135 175 228 277 340 403
#     4  11  23  45  71 100 133 173 229 280 336 399
#     4  11  24  44  66  96 136 176 217 269 342 399
#     4  11  24  47  70  97 137 177 223 286 333 393
#     4  11  24  45  73  98 130 179 226 281 336 395
#
# _framework density 21.388998000000001
#
# number of rings (size 3 to 8) (size 9 to 14) (size 15 to 20)
#    0.000    0.750    6.250    2.250    3.500    4.000 
#    0.000    0.000    0.000    0.000    0.000    0.000 
#    0.000    0.000    0.000    0.000    0.000    0.000 
#
# Total GULP energy -89454.057886 kJ/mol
# GULP energy per Si atom -5590.878618 kJ/mol
# Density = 2.134032 g / cm^3
# Si number density = 21.388998 Si / 1000 Ang^3
#
#
#
# Elastic Constant Matrix: (Units=GPa)
#
#
# Indices 1 2 3 4 5 6 
#
# 1 53.6186 3.4611 -12.1862 0.7391 -9.8568 -12.9848
# 2 3.4611 91.5070 20.1175 21.7222 -13.8898 -22.6537
# 3 -12.1862 20.1175 88.1930 3.0975 -7.1407 7.2562
# 4 0.7391 21.7222 3.0975 46.3270 4.1856 -2.1806
# 5 -9.8568 -13.8898 -7.1407 4.1856 36.8720 4.2563
# 6 -12.9848 -22.6537 7.2562 -2.1806 4.2563 27.2412
#
#
#
# Elastic Compliance Matrix: (Units=1/GPa)
#
#
# Indices 1 2 3 4 5 6 
#
# 1 0.023018 0.003038 0.002123 -0.001975 0.006577 0.011747
# 2 0.003038 0.018821 -0.004462 -0.008338 0.006060 0.016674
# 3 0.002123 -0.004462 0.013338 0.000665 0.002149 -0.006534
# 4 -0.001975 -0.008338 0.000665 0.025775 -0.005881 -0.005070
# 5 0.006577 0.006060 0.002149 -0.005881 0.031999 0.002131
# 6 0.011747 0.016674 -0.006534 -0.005070 0.002131 0.057176
#
#
# Mechanical properties :
#
#
# Convention : Reuss Voigt Hill
#
# Bulk Modulus (GPa) = 17.67583 28.45592 23.06587
# Shear Modulus (GPa) = 26.65432 36.88310 31.76871
#
# Velocity S-wave (km/s) = 3.53394 4.15709 3.85812
# Velocity P-wave (km/s) = 4.99335 6.03115 5.53662
#
# Compressibility (1/GPa) = 0.05657444
#
# Stress axis : x y z
#
# Youngs Moduli (GPa) = 43.44504 53.13231 74.97331
#
# Poissons Ratio (x) = -0.16140 -0.15916
# Poissons Ratio (y) = -0.13198 0.33452
# Poissons Ratio (z) = -0.09223 0.23707
#
# Static dielectric constant tensor:
#      x y z
#    x 1.795730 0.011060 -0.004940 
#    y 0.011060 1.777620 -0.014670 
#    z -0.004940 -0.014670 1.768360 
# 
# From -- ./inp_files/243543.got.cif
#   From: 2010.05.17/outbox.cif.g08.bks.cpg/sg2_122_cif.got.tgz:243543.got - 2010.06.03 11:33:40.
