data_PCOD9059982
_publ_section_title
;
Structure prediction by ZEFSAII (Michael W. Deem and Ramdas Pophale) SiO2 
 PCOD9059982
Probable space group: P -1
;
_chemical_formula_sum "Si O2"
_cell_formula_units_Z 14
_cell_length_a 9.304589
_cell_length_b 9.003448
_cell_length_c 8.879316
_cell_angle_alpha 53.704703
_cell_angle_beta 107.660321
_cell_angle_gamma 105.406952
_cell_volume 567.670803
_symmetry_space_group_name_H-M "P -1"
_symmetry_group_IT_number 2
_symmetry_cell_setting 'triclinic'
loop_
_space_group_symop_operation_xyz
x,y,z
-x,-y,-z
loop_
_atom_site_type_symbol
_atom_site_label
_atom_site_fract_x
_atom_site_fract_y
_atom_site_fract_z
Si Si1 0.613201 0.874516 0.686980
Si Si2 0.195394 0.921185 0.112075
Si Si3 0.231275 0.145381 0.554286
Si Si4 0.621604 0.753385 0.180395
Si Si5 0.718283 0.238950 0.042292
Si Si6 0.043352 0.710338 0.447718
Si Si7 0.676740 0.400462 0.218589
O O1 0.735942 0.834759 0.624374
O O2 0.495277 0.696866 0.794969
O O3 0.500000 0.000000 0.500000
O O4 0.680811 0.992729 0.778023
O O5 0.061786 0.850907 0.226180
O O6 0.195243 0.751218 0.095268
O O7 0.243505 0.085574 0.910486
O O8 0.364357 0.263601 0.624418
O O9 0.076581 0.220381 0.514889
O O10 0.244556 0.931805 0.735823
O O11 0.664696 0.582046 0.202176
O O12 0.455995 0.795559 0.051074
O O13 0.738796 0.410777 0.060845
O O14 0.206124 0.706513 0.582400
O O15 0.000000 0.500000 0.500000
#
# Coordination Sequence:
#
# PCOD9059982 Si02
#       7
#     2   2   2   2   2   2   2
#     4  12  21  41  73 109 129 182 234 289 339 402
#     4  11  24  43  74  95 142 182 232 279 348 410
#     4  11  24  44  73  98 141 186 231 280 348 408
#     4  11  23  43  68 107 142 176 227 298 342 403
#     4  11  23  42  72 107 133 183 231 288 347 403
#     4  12  27  50  67 103 142 186 231 285 339 420
#     4  12  25  43  73 105 147 171 235 291 341 408
#
# _framework density 24.662184
#
# number of rings (size 3 to 8) (size 9 to 14) (size 15 to 20)
#    0.000    0.571    5.714    3.000    0.000    6.286 
#    0.000    0.714    0.000    0.000    0.000    0.000 
#    0.000    0.000    0.000    0.000    0.000    0.000 
#
# Total GULP energy -78091.148767 kJ/mol
# GULP energy per Si atom -5577.939198 kJ/mol
# Density = 2.460605 g / cm^3
# Si number density = 24.662184 Si / 1000 Ang^3
#
#
#
# Elastic Constant Matrix: (Units=GPa)
#
#
# Indices 1 2 3 4 5 6 
#
# 1 94.8451 -12.7258 9.7979 3.0943 -6.6470 -28.0067
# 2 -12.7258 101.1092 7.0658 31.7284 -9.4508 -22.5427
# 3 9.7979 7.0658 41.6259 24.5894 -10.4333 -10.8559
# 4 3.0943 31.7284 24.5894 45.3121 -14.4625 -7.9618
# 5 -6.6470 -9.4508 -10.4333 -14.4625 33.8758 6.5573
# 6 -28.0067 -22.5427 -10.8559 -7.9618 6.5573 42.5459
#
#
#
# Elastic Compliance Matrix: (Units=1/GPa)
#
#
# Indices 1 2 3 4 5 6 
#
# 1 0.015028 0.005555 0.000629 -0.002730 0.001144 0.012309
# 2 0.005555 0.017259 0.007349 -0.014443 -0.000325 0.012024
# 3 0.000629 0.007349 0.040240 -0.024637 0.002185 0.009628
# 4 -0.002730 -0.014443 -0.024637 0.047360 0.009686 -0.008366
# 5 0.001144 -0.000325 0.002185 0.009686 0.034933 -0.002433
# 6 0.012309 0.012024 0.009628 -0.008366 -0.002433 0.039244
#
#
# Mechanical properties :
#
#
# Convention : Reuss Voigt Hill
#
# Bulk Modulus (GPa) = 10.04075 27.31733 18.67904
# Shear Modulus (GPa) = 24.97576 39.90958 32.44267
#
# Velocity S-wave (km/s) = 3.18577 4.02711 3.63089
# Velocity P-wave (km/s) = 4.19670 5.72050 5.01680
#
# Compressibility (1/GPa) = 0.09959418
#
# Stress axis : x y z
#
# Youngs Moduli (GPa) = 66.54275 57.94188 24.85073
#
# Poissons Ratio (x) = -0.32189 -0.01563
# Poissons Ratio (y) = -0.36967 -0.18263
# Poissons Ratio (z) = -0.04187 -0.42582
#
# Static dielectric constant tensor:
#      x y z
#    x 1.871600 0.062970 0.096010 
#    y 0.062970 1.947880 -0.147130 
#    z 0.096010 -0.147130 1.954160 
# 
# From -- ./inp_files/156983.got.cif
#   From: 2010.05.17/outbox.cif.g08.bks.cpg/sg2_79_cif.got.tgz:156983.got - 2010.06.03 11:33:40.
