data_PCOD9059912
_publ_section_title
;
Structure prediction by ZEFSAII (Michael W. Deem and Ramdas Pophale) SiO2 
 PCOD9059912
Probable space group: P -1
;
_chemical_formula_sum "Si O2"
_cell_formula_units_Z 16
_cell_length_a 14.843176
_cell_length_b 8.667258
_cell_length_c 10.197389
_cell_angle_alpha 68.208187
_cell_angle_beta 75.505321
_cell_angle_gamma 126.761038
_cell_volume 753.789374
_symmetry_space_group_name_H-M "P -1"
_symmetry_group_IT_number 2
_symmetry_cell_setting 'triclinic'
loop_
_space_group_symop_operation_xyz
x,y,z
-x,-y,-z
loop_
_atom_site_type_symbol
_atom_site_label
_atom_site_fract_x
_atom_site_fract_y
_atom_site_fract_z
Si Si1 0.345118 0.394636 0.941867
Si Si2 0.968363 0.445068 0.307669
Si Si3 0.787246 0.987330 0.326744
Si Si4 0.317282 0.516651 0.410441
Si Si5 0.505204 0.199460 0.475997
Si Si6 0.787983 0.289730 0.664995
Si Si7 0.510559 0.279725 0.973259
Si Si8 0.077826 0.933356 0.023102
O O1 0.412804 0.589164 0.735504
O O2 0.441065 0.362921 0.939842
O O3 0.363805 0.526513 0.025284
O O4 0.185641 0.117178 0.046677
O O5 0.857064 0.282284 0.521832
O O6 0.124507 0.624926 0.260397
O O7 0.971266 0.635713 0.190221
O O8 0.919806 0.253615 0.272581
O O9 0.743582 0.753359 0.483863
O O10 0.651572 0.928599 0.404359
O O11 0.830118 0.001709 0.157467
O O12 0.403187 0.656541 0.470151
O O13 0.199184 0.499424 0.444072
O O14 0.424506 0.692680 0.194321
O O15 0.500000 0.000000 0.500000
O O16 0.620983 0.008499 0.830299
O O17 0.000000 0.000000 0.000000
#
# Coordination Sequence:
#
# PCOD9059912 Si02
#       8
#     2   2   2   2   2   2   2   2
#     4  11  23  43  70 101 134 181 221 285 348 401
#     4  11  26  45  66  94 138 189 227 279 334 407
#     4  12  25  44  70 100 139 175 234 285 341 408
#     4  12  24  42  71 102 135 173 226 294 344 404
#     4  12  25  44  74 103 138 177 227 290 352 402
#     4  11  25  45  66  96 138 180 229 277 345 408
#     4  11  23  42  71 102 138 170 226 287 348 405
#     4  12  26  46  70  98 141 185 234 279 337 412
#
# _framework density 21.226089999999999
#
# number of rings (size 3 to 8) (size 9 to 14) (size 15 to 20)
#    0.000    0.500    3.750    4.875    3.500    1.500 
#    0.000    0.000    0.000    0.000    0.000    0.000 
#    0.000    0.000    0.000    0.000    0.000    0.000 
#
# Total GULP energy -89537.832129 kJ/mol
# GULP energy per Si atom -5596.114508 kJ/mol
# Density = 2.117778 g / cm^3
# Si number density = 21.226090 Si / 1000 Ang^3
#
#
#
# Elastic Constant Matrix: (Units=GPa)
#
#
# Indices 1 2 3 4 5 6 
#
# 1 26.0732 49.4244 -7.9108 39.7760 -20.7847 -3.7892
# 2 49.4244 150.5231 30.2541 -6.7081 26.5468 -6.2432
# 3 -7.9108 30.2541 67.9265 3.7014 5.3474 -7.3860
# 4 39.7760 -6.7081 3.7014 12.4231 23.5626 1.0724
# 5 -20.7847 26.5468 5.3474 23.5626 -5.9504 14.1565
# 6 -3.7892 -6.2432 -7.3860 1.0724 14.1565 26.7422
#
#
#
# Elastic Compliance Matrix: (Units=1/GPa)
#
#
# Indices 1 2 3 4 5 6 
#
# 1 0.024966 -0.001925 0.010560 -0.006160 -0.042411 0.028703
# 2 -0.001925 0.006357 -0.003885 -0.003702 0.007796 -0.003840
# 3 0.010560 -0.003885 0.021452 -0.006471 -0.019673 0.017188
# 4 -0.006160 -0.003702 -0.006471 0.025944 0.040302 -0.025899
# 5 -0.042411 0.007796 -0.019673 0.040302 0.057553 -0.041705
# 6 0.028703 -0.003840 0.017188 -0.025899 -0.041705 0.068428
#
#
# Mechanical properties :
#
#
# Convention : Reuss Voigt Hill
#
# Bulk Modulus (GPa) = 16.05734 43.11760 29.58747
# Shear Modulus (GPa) = 23.15267 18.15999 20.65633
#
# Velocity S-wave (km/s) = 3.30626 2.92815 3.12293
# Velocity P-wave (km/s) = 4.70706 5.63824 5.19356
#
# Compressibility (1/GPa) = 0.06227681
#
# Stress axis : x y z
#
# Youngs Moduli (GPa) = 40.05399 157.30345 46.61501
#
# Poissons Ratio (x) = 0.30274 -0.49226
# Poissons Ratio (y) = 0.07709 0.18110
# Poissons Ratio (z) = -0.42298 0.61114
#
# Static dielectric constant tensor:
#      x y z
#    x 1.780420 -0.019030 -0.013150 
#    y -0.019030 1.762310 -0.003460 
#    z -0.013150 -0.003460 1.763810 
# 
# From -- ./inp_files/297805.got.cif
#   From: 2010.05.17/outbox.cif.g08.bks.cpg/sg2_149_cif.got.tgz:297805.got - 2010.06.03 11:33:40.
