data_PCOD9059757
_publ_section_title
;
Structure prediction by ZEFSAII (Michael W. Deem and Ramdas Pophale) SiO2 
 PCOD9059757
Probable space group: P -1
;
_chemical_formula_sum "Si O2"
_cell_formula_units_Z 15
_cell_length_a 14.242549
_cell_length_b 8.779558
_cell_length_c 7.227517
_cell_angle_alpha 71.458971
_cell_angle_beta 88.423048
_cell_angle_gamma 46.581526
_cell_volume 597.944831
_symmetry_space_group_name_H-M "P -1"
_symmetry_group_IT_number 2
_symmetry_cell_setting 'triclinic'
loop_
_space_group_symop_operation_xyz
x,y,z
-x,-y,-z
loop_
_atom_site_type_symbol
_atom_site_label
_atom_site_fract_x
_atom_site_fract_y
_atom_site_fract_z
Si Si1 0.500000 0.000000 0.000000
Si Si2 0.204389 0.278183 0.998946
Si Si3 0.821555 0.150924 0.493017
Si Si4 0.955886 0.328325 0.402930
Si Si5 0.834291 0.500629 0.722384
Si Si6 0.466675 0.394478 0.791921
Si Si7 0.653642 0.446914 0.866838
Si Si8 0.119300 0.028674 0.024276
O O1 0.665077 0.796993 0.067263
O O2 0.494620 0.831601 0.185357
O O3 0.072823 0.525623 0.825183
O O4 0.201575 0.317089 0.201724
O O5 0.190352 0.113369 0.003904
O O6 0.885554 0.243354 0.400306
O O7 0.665355 0.367658 0.382615
O O8 0.862714 0.072627 0.735492
O O9 0.890765 0.912944 0.482913
O O10 0.882290 0.493340 0.520644
O O11 0.706139 0.537856 0.719651
O O12 0.966702 0.242774 0.888918
O O13 0.575393 0.404033 0.778231
O O14 0.436429 0.396969 0.012451
O O15 0.790096 0.193304 0.027277
#
# Coordination Sequence:
#
# PCOD9059757 Si02
#       8
#     1   2   2   2   2   2   2   2
#     4  12  22  46  72  92 148 194 218 294 352 412
#     4  12  26  49  68 105 146 192 228 288 363 415
#     4  11  23  43  70 108 135 184 238 292 345 422
#     4  11  24  43  74 104 141 184 235 290 356 413
#     4  12  24  45  72 104 143 182 238 294 347 422
#     4  11  24  44  72  99 144 190 237 285 353 425
#     4  11  23  42  68 105 132 189 238 287 346 413
#     4  12  25  43  74 101 146 182 233 299 353 410
#
# _framework density 25.085927000000002
#
# number of rings (size 3 to 8) (size 9 to 14) (size 15 to 20)
#    0.000    0.533    6.667    1.600    1.867    1.067 
#    4.800    0.667    0.000    0.000    0.000    0.000 
#    0.000    0.000    0.000    0.000    0.000    0.000 
#
# Total GULP energy -83721.950682 kJ/mol
# GULP energy per Si atom -5581.463379 kJ/mol
# Density = 2.502883 g / cm^3
# Si number density = 25.085927 Si / 1000 Ang^3
#
#
#
# Elastic Constant Matrix: (Units=GPa)
#
#
# Indices 1 2 3 4 5 6 
#
# 1 143.7951 -5.7398 9.6097 -7.6733 -7.2705 -4.9959
# 2 -5.7398 42.1878 7.7872 0.3111 3.1927 -4.0664
# 3 9.6097 7.7872 68.6593 1.8579 -1.2239 3.7055
# 4 -7.6733 0.3111 1.8579 43.8629 -7.5123 -0.1677
# 5 -7.2705 3.1927 -1.2239 -7.5123 30.5419 -11.1878
# 6 -4.9959 -4.0664 3.7055 -0.1677 -11.1878 36.4833
#
#
#
# Elastic Compliance Matrix: (Units=1/GPa)
#
#
# Indices 1 2 3 4 5 6 
#
# 1 0.007405 0.001226 -0.001291 0.001833 0.002824 0.002156
# 2 0.001226 0.024834 -0.003164 -0.000058 -0.001411 0.002824
# 3 -0.001291 -0.003164 0.015241 -0.000926 -0.000401 -0.002205
# 4 0.001833 -0.000058 -0.000926 0.024439 0.007415 0.002725
# 5 0.002824 -0.001411 -0.000401 0.007415 0.039970 0.012561
# 6 0.002156 0.002824 -0.002205 0.002725 0.012561 0.032108
#
#
# Mechanical properties :
#
#
# Convention : Reuss Voigt Hill
#
# Bulk Modulus (GPa) = 24.37704 30.88402 27.63053
# Shear Modulus (GPa) = 30.46365 38.37664 34.42014
#
# Velocity S-wave (km/s) = 3.48856 3.91552 3.70819
# Velocity P-wave (km/s) = 5.09561 5.72536 5.41964
#
# Compressibility (1/GPa) = 0.04102221
#
# Stress axis : x y z
#
# Youngs Moduli (GPa) = 135.04235 40.26751 65.61178
#
# Poissons Ratio (x) = -0.04939 0.08472
# Poissons Ratio (y) = -0.16562 0.20761
# Poissons Ratio (z) = 0.17436 0.12742
#
# Static dielectric constant tensor:
#      x y z
#    x 1.997530 0.011620 0.007550 
#    y 0.011620 2.169540 0.026140 
#    z 0.007550 0.026140 1.985920 
# 
# From -- ./inp_files/291865.got.cif
#   From: 2010.05.17/outbox.cif.g08.bks.cpg/sg2_146_cif.got.tgz:291865.got - 2010.06.03 11:33:40.
