data_PCOD9059725
_publ_section_title
;
Structure prediction by ZEFSAII (Michael W. Deem and Ramdas Pophale) SiO2 
 PCOD9059725
Probable space group: P -1
;
_chemical_formula_sum "Si O2"
_cell_formula_units_Z 16
_cell_length_a 15.076357
_cell_length_b 15.167214
_cell_length_c 8.832281
_cell_angle_alpha 129.532377
_cell_angle_beta 50.042549
_cell_angle_gamma 150.083550
_cell_volume 755.056807
_symmetry_space_group_name_H-M "P -1"
_symmetry_group_IT_number 2
_symmetry_cell_setting 'triclinic'
loop_
_space_group_symop_operation_xyz
x,y,z
-x,-y,-z
loop_
_atom_site_type_symbol
_atom_site_label
_atom_site_fract_x
_atom_site_fract_y
_atom_site_fract_z
Si Si1 0.393140 0.022185 0.221306
Si Si2 0.876808 0.507774 0.577989
Si Si3 0.963189 0.007376 0.263053
Si Si4 0.596852 0.712271 0.486467
Si Si5 0.476292 0.108390 0.578617
Si Si6 0.924697 0.120527 0.136741
Si Si7 0.985218 0.612028 0.216269
Si Si8 0.772697 0.656380 0.449149
O O1 0.182866 0.822848 0.232763
O O2 0.418214 0.171976 0.296678
O O3 0.455580 0.080251 0.390105
O O4 0.500000 0.000000 0.000000
O O5 0.662492 0.320718 0.635208
O O6 0.000000 0.500000 0.500000
O O7 0.953829 0.674340 0.767773
O O8 0.916313 0.550763 0.400158
O O9 0.744837 0.839185 0.331730
O O10 0.003013 0.108422 0.179211
O O11 0.060919 0.152353 0.444853
O O12 0.042739 0.940767 0.103174
O O13 0.688303 0.683582 0.457237
O O14 0.398455 0.512682 0.442680
O O15 0.500000 0.000000 0.500000
O O16 0.288063 0.013928 0.750620
O O17 0.853536 0.595503 0.246610
O O18 0.000000 0.500000 0.000000
#
# Coordination Sequence:
#
# PCOD9059725 Si02
#       8
#     2   2   2   2   2   2   2   2
#     4  12  24  43  68  99 133 172 220 273 332 393
#     4  12  23  43  68  95 134 172 215 275 327 390
#     4  11  23  42  68  88 137 171 212 268 318 390
#     4  11  23  42  67  95 132 171 216 269 326 389
#     4  12  23  43  68  95 134 172 215 275 327 390
#     4  11  24  42  64 100 124 175 219 258 330 390
#     4  12  24  43  68  99 133 172 220 273 332 393
#     4  11  23  42  67  95 132 171 216 269 326 389
#
# _framework density 21.190459000000001
#
# number of rings (size 3 to 8) (size 9 to 14) (size 15 to 20)
#    0.000    0.500    6.250    2.625    0.000    3.000 
#    0.000    5.000    0.000    0.000    0.000    0.000 
#    0.000    0.000    0.000    0.000    0.000    0.000 
#
# Total GULP energy -89329.819062 kJ/mol
# GULP energy per Si atom -5583.113691 kJ/mol
# Density = 2.114223 g / cm^3
# Si number density = 21.190459 Si / 1000 Ang^3
#
#
#
# Elastic Constant Matrix: (Units=GPa)
#
#
# Indices 1 2 3 4 5 6 
#
# 1 107.9304 25.0574 33.2676 12.2130 -37.5234 -5.2472
# 2 25.0574 155.2982 38.2500 11.4180 -21.4966 11.4488
# 3 33.2676 38.2500 107.7978 12.8788 -49.8070 0.5805
# 4 12.2130 11.4180 12.8788 27.9129 -5.1388 -10.9004
# 5 -37.5234 -21.4966 -49.8070 -5.1388 36.1158 3.3976
# 6 -5.2472 11.4488 0.5805 -10.9004 3.3976 36.8474
#
#
#
# Elastic Compliance Matrix: (Units=1/GPa)
#
#
# Indices 1 2 3 4 5 6 
#
# 1 0.017883 -0.000246 0.009991 -0.007602 0.031383 -0.002677
# 2 -0.000246 0.007629 -0.000767 -0.003548 0.003073 -0.003726
# 3 0.009991 -0.000767 0.033294 -0.012278 0.054802 -0.007548
# 4 -0.007602 -0.003548 -0.012278 0.048795 -0.021564 0.016637
# 5 0.031383 0.003073 0.054802 -0.021564 0.136164 -0.016283
# 6 -0.002677 -0.003726 -0.007548 0.016637 -0.016283 0.034457
#
#
# Mechanical properties :
#
#
# Convention : Reuss Voigt Hill
#
# Bulk Modulus (GPa) = 13.02741 62.68626 37.85683
# Shear Modulus (GPa) = 17.49142 38.47199 27.98170
#
# Velocity S-wave (km/s) = 2.87616 4.26553 3.63779
# Velocity P-wave (km/s) = 4.14619 7.34208 5.96226
#
# Compressibility (1/GPa) = 0.07676121
#
# Stress axis : x y z
#
# Youngs Moduli (GPa) = 55.91765 131.08165 30.03552
#
# Poissons Ratio (x) = 0.03225 -0.30008
# Poissons Ratio (y) = 0.01376 0.02305
# Poissons Ratio (z) = -0.55867 0.10059
#
# Static dielectric constant tensor:
#      x y z
#    x 1.787770 -0.039680 -0.032890 
#    y -0.039680 1.798190 0.059080 
#    z -0.032890 0.059080 2.020480 
# 
# From -- ./inp_files/315816.got.cif
#   From: 2010.05.17/outbox.cif.g08.bks.cpg/sg2_158_cif.got.tgz:315816.got - 2010.06.03 11:33:40.
