data_PCOD9059615
_publ_section_title
;
Structure prediction by ZEFSAII (Michael W. Deem and Ramdas Pophale) SiO2 
 PCOD9059615
Probable space group: P -1
;
_chemical_formula_sum "Si O2"
_cell_formula_units_Z 16
_cell_length_a 12.927856
_cell_length_b 7.755318
_cell_length_c 15.940453
_cell_angle_alpha 131.515148
_cell_angle_beta 147.839720
_cell_angle_gamma 47.786559
_cell_volume 611.887039
_symmetry_space_group_name_H-M "P -1"
_symmetry_group_IT_number 2
_symmetry_cell_setting 'triclinic'
loop_
_space_group_symop_operation_xyz
x,y,z
-x,-y,-z
loop_
_atom_site_type_symbol
_atom_site_label
_atom_site_fract_x
_atom_site_fract_y
_atom_site_fract_z
Si Si1 0.858653 0.050240 0.644956
Si Si2 0.836516 0.755604 0.979715
Si Si3 0.219545 0.454540 0.828983
Si Si4 0.206399 0.672643 0.705718
Si Si5 0.216786 0.630090 0.455190
Si Si6 0.229041 0.893720 0.094884
Si Si7 0.414370 0.915515 0.809505
Si Si8 0.411257 0.252516 0.582220
O O1 0.780182 0.284797 0.610412
O O2 0.697250 0.956404 0.554098
O O3 0.976224 0.836273 0.594095
O O4 0.032683 0.085061 0.836985
O O5 0.643491 0.754853 0.902632
O O6 0.000000 0.500000 0.000000
O O7 0.002154 0.408820 0.686514
O O8 0.379240 0.195649 0.861142
O O9 0.771095 0.440694 0.223462
O O10 0.255535 0.651041 0.981685
O O11 0.332090 0.856750 0.823434
O O12 0.280398 0.461563 0.621671
O O13 0.274794 0.829370 0.617211
O O14 0.379889 0.384969 0.514586
O O15 0.263853 0.104705 0.127837
O O16 0.373483 0.832353 0.253818
O O17 0.000000 0.000000 0.000000
#
# Coordination Sequence:
#
# PCOD9059615 Si02
#       8
#     2   2   2   2   2   2   2   2
#     4  12  24  48  76 113 151 200 251 316 388 453
#     4  12  30  54  76 110 157 203 263 318 378 459
#     4  12  24  48  77 117 156 194 256 321 382 458
#     4  11  23  41  79 113 154 194 245 318 384 450
#     4  11  24  43  77 118 151 199 247 313 392 456
#     4  12  30  53  78 110 153 210 258 317 382 452
#     4  11  27  46  77 117 153 202 253 316 390 454
#     4  11  26  47  76 110 155 198 254 317 381 462
#
# _framework density 26.148614999999999
#
# number of rings (size 3 to 8) (size 9 to 14) (size 15 to 20)
#    0.000    0.500    3.750    3.000   10.500    1.500 
#    2.250    2.500    0.000    0.000    0.000    0.000 
#    0.000    0.000    0.000    0.000    0.000    0.000 
#
# Total GULP energy -89798.487987 kJ/mol
# GULP energy per Si atom -5612.405499 kJ/mol
# Density = 2.608910 g / cm^3
# Si number density = 26.148615 Si / 1000 Ang^3
#
#
#
# Elastic Constant Matrix: (Units=GPa)
#
#
# Indices 1 2 3 4 5 6 
#
# 1 119.6001 55.8038 19.2927 -0.1989 0.0616 50.2826
# 2 55.8038 184.8536 35.8914 -9.7599 3.7789 16.2949
# 3 19.2927 35.8914 96.4144 -18.4104 -1.8283 15.5068
# 4 -0.1989 -9.7599 -18.4104 37.9639 6.5902 -11.2908
# 5 0.0616 3.7789 -1.8283 6.5902 34.7226 -1.4965
# 6 50.2826 16.2949 15.5068 -11.2908 -1.4965 57.7237
#
#
#
# Elastic Compliance Matrix: (Units=1/GPa)
#
#
# Indices 1 2 3 4 5 6 
#
# 1 0.016000 -0.003805 -0.000592 -0.005405 0.000788 -0.013741
# 2 -0.003805 0.006832 -0.001832 0.001680 -0.001058 0.002179
# 3 -0.000592 -0.001832 0.012362 0.005172 -0.000186 -0.001281
# 4 -0.005405 0.001680 0.005172 0.032973 -0.005765 0.009145
# 5 0.000788 -0.001058 -0.000186 -0.005765 0.029968 -0.000689
# 6 -0.013741 0.002179 -0.001281 0.009145 -0.000689 0.030793
#
#
# Mechanical properties :
#
#
# Convention : Reuss Voigt Hill
#
# Bulk Modulus (GPa) = 43.98283 69.20487 56.59385
# Shear Modulus (GPa) = 33.56467 45.40739 39.48603
#
# Velocity S-wave (km/s) = 3.58664 4.17167 3.89017
# Velocity P-wave (km/s) = 5.83171 7.05175 6.47055
#
# Compressibility (1/GPa) = 0.02273615
#
# Stress axis : x y z
#
# Youngs Moduli (GPa) = 62.50093 146.36338 80.88999
#
# Poissons Ratio (x) = 0.55695 0.04790
# Poissons Ratio (y) = 0.23783 0.14817
# Poissons Ratio (z) = 0.03701 0.26810
#
# Static dielectric constant tensor:
#      x y z
#    x 2.122000 -0.012290 -0.013520 
#    y -0.012290 2.056570 0.035560 
#    z -0.013520 0.035560 2.066680 
# 
# From -- ./inp_files/613205.got.cif
#   From: 2010.05.17/outbox.cif.g08.bks.cpg/sg2_307_cif.got.tgz:613205.got - 2010.06.03 11:33:40.
