data_PCOD9059898
_publ_section_title
;
Structure prediction by ZEFSAII (Michael W. Deem and Ramdas Pophale) SiO2 
 PCOD9059898
Probable space group: P -1
;
_chemical_formula_sum "Si O2"
_cell_formula_units_Z 16
_cell_length_a 15.788825
_cell_length_b 23.816455
_cell_length_c 5.801954
_cell_angle_alpha 88.894448
_cell_angle_beta 88.252104
_cell_angle_gamma 17.185750
_cell_volume 643.978968
_symmetry_space_group_name_H-M "P -1"
_symmetry_group_IT_number 2
_symmetry_cell_setting 'triclinic'
loop_
_space_group_symop_operation_xyz
x,y,z
-x,-y,-z
loop_
_atom_site_type_symbol
_atom_site_label
_atom_site_fract_x
_atom_site_fract_y
_atom_site_fract_z
Si Si1 0.544258 0.414193 0.137048
Si Si2 0.603109 0.742965 0.112668
Si Si3 0.947791 0.907594 0.545512
Si Si4 0.965120 0.723370 0.048012
Si Si5 0.385209 0.961116 0.748791
Si Si6 0.274849 0.450462 0.706718
Si Si7 0.154839 0.305798 0.639456
Si Si8 0.866728 0.124660 0.809525
O O1 0.248222 0.567256 0.169896
O O2 0.735209 0.299251 0.358801
O O3 0.500000 0.500000 0.000000
O O4 0.738281 0.255871 0.960229
O O5 0.731094 0.599619 0.117462
O O6 0.788922 0.669965 0.248605
O O7 0.293567 0.936223 0.249708
O O8 0.548492 0.806245 0.868100
O O9 0.865847 0.906737 0.394249
O O10 0.933492 0.972562 0.386721
O O11 0.746635 0.913679 0.059875
O O12 0.826749 0.758301 0.186451
O O13 0.082248 0.623566 0.807430
O O14 0.606400 0.850829 0.568393
O O15 0.598544 0.266371 0.693151
O O16 0.150352 0.506406 0.475525
O O17 0.000000 0.000000 0.000000
#
# Coordination Sequence:
#
# PCOD9059898 Si02
#       8
#     2   2   2   2   2   2   2   2
#     4  11  24  42  67 100 137 175 219 272 330 397
#     4  11  25  45  68  95 131 176 224 273 330 396
#     4  11  23  42  70  98 135 179 222 270 332 397
#     4  11  25  43  66  97 133 169 216 274 332 391
#     4  11  25  45  68  95 131 176 224 273 330 396
#     4  11  25  43  66  97 133 169 216 274 332 391
#     4  11  25  42  68  96 127 173 224 274 330 393
#     4  11  24  42  67 100 137 175 219 272 330 397
#
# _framework density 24.845531000000001
#
# number of rings (size 3 to 8) (size 9 to 14) (size 15 to 20)
#    0.000    1.000    0.000    6.000    0.000   16.000 
#    0.000    0.000    0.000    0.000    0.000    0.000 
#    0.000    0.000    0.000    0.000    0.000    0.000 
#
# Total GULP energy -89711.278279 kJ/mol
# GULP energy per Si atom -5606.954892 kJ/mol
# Density = 2.478898 g / cm^3
# Si number density = 24.845531 Si / 1000 Ang^3
#
#
#
# Elastic Constant Matrix: (Units=GPa)
#
#
# Indices 1 2 3 4 5 6 
#
# 1 129.4824 49.8520 17.9174 -6.9791 5.0891 -9.2063
# 2 49.8520 72.3035 23.9254 -6.8035 11.2184 -14.3752
# 3 17.9174 23.9254 50.7417 -7.1441 -6.8089 -15.1073
# 4 -6.9791 -6.8035 -7.1441 46.3279 -11.8928 9.6175
# 5 5.0891 11.2184 -6.8089 -11.8928 50.8979 -2.4248
# 6 -9.2063 -14.3752 -15.1073 9.6175 -2.4248 66.0571
#
#
#
# Elastic Compliance Matrix: (Units=1/GPa)
#
#
# Indices 1 2 3 4 5 6 
#
# 1 0.010555 -0.007313 -0.000155 0.000719 0.000693 -0.000235
# 2 -0.007313 0.022842 -0.008481 -0.000882 -0.005552 0.001937
# 3 -0.000155 -0.008481 0.026283 0.003637 0.006434 0.003850
# 4 0.000719 -0.000882 0.003637 0.024236 0.006150 -0.002563
# 5 0.000693 -0.005552 0.006434 0.006150 0.023114 0.000313
# 6 -0.000235 0.001937 0.003850 -0.002563 0.000313 0.016792
#
#
# Mechanical properties :
#
#
# Convention : Reuss Voigt Hill
#
# Bulk Modulus (GPa) = 35.99276 48.43527 42.21402
# Shear Modulus (GPa) = 30.30671 43.37876 36.84274
#
# Velocity S-wave (km/s) = 3.49636 4.18298 3.85499
# Velocity P-wave (km/s) = 5.55135 6.54726 6.06976
#
# Compressibility (1/GPa) = 0.02778336
#
# Stress axis : x y z
#
# Youngs Moduli (GPa) = 94.74431 43.77834 38.04746
#
# Poissons Ratio (x) = 0.32013 0.00589
# Poissons Ratio (y) = 0.69283 0.32268
# Poissons Ratio (z) = 0.01467 0.37128
#
# Static dielectric constant tensor:
#      x y z
#    x 1.926210 -0.016800 0.014580 
#    y -0.016800 1.966830 0.023570 
#    z 0.014580 0.023570 1.922400 
# 
# From -- ./inp_files/101051.got.cif
#   From: 2010.05.17/outbox.cif.g08.bks.cpg/sg2_51_cif.got.tgz:101051.got - 2010.06.03 11:33:40.
