data_PCOD9059030
_publ_section_title
;
Structure prediction by ZEFSAII (Michael W. Deem and Ramdas Pophale) SiO2 
 PCOD9059030
Probable space group: P -1
;
_chemical_formula_sum "Si O2"
_cell_formula_units_Z 14
_cell_length_a 12.273568
_cell_length_b 22.546626
_cell_length_c 8.831902
_cell_angle_alpha 39.278860
_cell_angle_beta 31.116190
_cell_angle_gamma 29.760915
_cell_volume 622.380798
_symmetry_space_group_name_H-M "P -1"
_symmetry_group_IT_number 2
_symmetry_cell_setting 'triclinic'
loop_
_space_group_symop_operation_xyz
x,y,z
-x,-y,-z
loop_
_atom_site_type_symbol
_atom_site_label
_atom_site_fract_x
_atom_site_fract_y
_atom_site_fract_z
Si Si1 0.791696 0.423467 0.726846
Si Si2 0.664310 0.168979 0.690607
Si Si3 0.284053 0.716981 0.153801
Si Si4 0.890552 0.508531 0.945343
Si Si5 0.900947 0.090635 0.251365
Si Si6 0.109059 0.247899 0.211469
Si Si7 0.022390 0.215275 0.071921
O O1 0.767049 0.360045 0.739002
O O2 0.909794 0.489869 0.406248
O O3 0.500000 0.500000 0.000000
O O4 0.993447 0.319793 0.812723
O O5 0.698605 0.123798 0.564597
O O6 0.733470 0.258593 0.401790
O O7 0.383537 0.219980 0.997423
O O8 0.906389 0.050723 0.726229
O O9 0.048659 0.775290 0.442787
O O10 0.582868 0.626749 0.047659
O O11 0.243027 0.819385 0.894678
O O12 0.000000 0.500000 0.000000
O O13 0.914730 0.390517 0.124681
O O14 0.082917 0.120548 0.060222
O O15 0.189245 0.174957 0.104848
#
# Coordination Sequence:
#
# PCOD9059030 Si02
#       7
#     2   2   2   2   2   2   2
#     4  11  23  40  63  90 121 164 210 256 300 370
#     4   9  20  42  68  89 128 158 208 253 309 360
#     4  11  25  42  61  93 127 162 209 251 311 368
#     4  12  27  40  62  90 130 166 199 260 309 364
#     4   8  20  45  64  90 128 158 204 264 298 363
#     4  12  24  37  66  92 124 170 202 251 314 366
#     4   9  21  37  63  93 122 155 207 254 301 366
#
# _framework density 22.494268000000002
#
# number of rings (size 3 to 8) (size 9 to 14) (size 15 to 20)
#    0.857    0.857    1.429    2.143    6.000    2.286 
#    0.000    0.714    0.000    0.000    0.000    0.000 
#    0.000    0.000    0.000    0.000    0.000    0.000 
#
# Total GULP energy -78072.686869 kJ/mol
# GULP energy per Si atom -5576.620491 kJ/mol
# Density = 2.244307 g / cm^3
# Si number density = 22.494268 Si / 1000 Ang^3
#
#
#
# Elastic Constant Matrix: (Units=GPa)
#
#
# Indices 1 2 3 4 5 6 
#
# 1 75.1777 13.3470 0.1085 -2.0189 7.0174 -8.3378
# 2 13.3470 76.6168 43.1040 -13.5412 5.8379 -20.3572
# 3 0.1085 43.1040 105.7457 2.4098 1.5530 -19.6927
# 4 -2.0189 -13.5412 2.4098 33.8171 -6.7940 -0.2520
# 5 7.0174 5.8379 1.5530 -6.7940 17.7201 -1.9209
# 6 -8.3378 -20.3572 -19.6927 -0.2520 -1.9209 24.6394
#
#
#
# Elastic Compliance Matrix: (Units=1/GPa)
#
#
# Indices 1 2 3 4 5 6 
#
# 1 0.014608 -0.002274 0.001772 -0.001180 -0.005203 0.004063
# 2 -0.002274 0.022314 -0.007043 0.009189 -0.001004 0.012053
# 3 0.001772 -0.007043 0.013430 -0.003709 -0.000390 0.005446
# 4 -0.001180 0.009189 -0.003709 0.035924 0.012139 0.005542
# 5 -0.005203 -0.001004 -0.000390 0.012139 0.063750 0.002193
# 6 0.004063 0.012053 0.005446 0.005542 0.002193 0.056498
#
#
# Mechanical properties :
#
#
# Convention : Reuss Voigt Hill
#
# Bulk Modulus (GPa) = 28.36059 41.18435 34.77247
# Shear Modulus (GPa) = 21.42530 28.63404 25.02967
#
# Velocity S-wave (km/s) = 3.08957 3.57171 3.33935
# Velocity P-wave (km/s) = 5.03613 5.94626 5.51002
#
# Compressibility (1/GPa) = 0.03526020
#
# Stress axis : x y z
#
# Youngs Moduli (GPa) = 68.45764 44.81580 74.45880
#
# Poissons Ratio (x) = 0.10192 -0.13193
# Poissons Ratio (y) = 0.15569 0.52443
# Poissons Ratio (z) = -0.12130 0.31565
#
# Static dielectric constant tensor:
#      x y z
#    x 1.903590 0.020770 -0.000290 
#    y 0.020770 1.835230 0.018370 
#    z -0.000290 0.018370 1.814590 
# 
# From -- ./inp_files/221398.got.cif
#   From: 2010.05.17/outbox.cif.g08.bks.cpg/sg2_111_cif.got.tgz:221398.got - 2010.06.03 11:33:40.
