data_PCOD9059195
_publ_section_title
;
Structure prediction by ZEFSAII (Michael W. Deem and Ramdas Pophale) SiO2 
 PCOD9059195
Probable space group: P -1
;
_chemical_formula_sum "Si O2"
_cell_formula_units_Z 16
_cell_length_a 5.485117
_cell_length_b 13.506702
_cell_length_c 11.513012
_cell_angle_alpha 122.168154
_cell_angle_beta 92.922117
_cell_angle_gamma 69.134292
_cell_volume 664.216312
_symmetry_space_group_name_H-M "P -1"
_symmetry_group_IT_number 2
_symmetry_cell_setting 'triclinic'
loop_
_space_group_symop_operation_xyz
x,y,z
-x,-y,-z
loop_
_atom_site_type_symbol
_atom_site_label
_atom_site_fract_x
_atom_site_fract_y
_atom_site_fract_z
Si Si1 0.567109 0.322596 0.326578
Si Si2 0.746101 0.780355 0.048986
Si Si3 0.511406 0.347828 0.604359
Si Si4 0.210445 0.973390 0.883934
Si Si5 0.241872 0.926472 0.236657
Si Si6 0.918711 0.239867 0.716334
Si Si7 0.382066 0.112196 0.476290
Si Si8 0.991537 0.411055 0.264163
O O1 0.603985 0.358652 0.482917
O O2 0.610806 0.175538 0.210804
O O3 0.793118 0.350418 0.277693
O O4 0.255681 0.396745 0.333101
O O5 0.445278 0.808391 0.096173
O O6 0.911935 0.758947 0.162345
O O7 0.703747 0.906471 0.047899
O O8 0.894276 0.661319 0.898031
O O9 0.675907 0.358274 0.728551
O O10 0.523369 0.205498 0.514249
O O11 0.208974 0.444849 0.669601
O O12 0.036753 0.001492 0.781388
O O13 0.000000 0.000000 0.000000
O O14 0.193515 0.865716 0.315150
O O15 0.362295 0.032912 0.315455
O O16 0.106414 0.194467 0.581601
O O17 0.500000 0.000000 0.500000
#
# Coordination Sequence:
#
# PCOD9059195 Si02
#       8
#     2   2   2   2   2   2   2   2
#     4  12  28  50  75 108 145 196 250 306 356 429
#     4  11  24  44  72 105 150 187 239 305 362 447
#     4  12  28  46  75 102 144 197 242 301 368 430
#     4  11  23  40  70 105 141 188 235 298 371 422
#     4  11  23  41  69 107 146 179 238 304 370 435
#     4  11  24  43  71 109 141 186 240 299 375 434
#     4  12  23  42  68 108 138 179 234 301 363 430
#     4  12  30  51  73 105 151 196 251 299 355 437
#
# _framework density 24.088536999999999
#
# number of rings (size 3 to 8) (size 9 to 14) (size 15 to 20)
#    0.000    0.500    3.750    3.375   10.500    1.500 
#    0.000    2.500    0.000    0.000    0.000    0.000 
#    0.000    0.000    0.000    0.000    0.000    0.000 
#
# Total GULP energy -89342.922784 kJ/mol
# GULP energy per Si atom -5583.932674 kJ/mol
# Density = 2.403371 g / cm^3
# Si number density = 24.088537 Si / 1000 Ang^3
#
#
#
# Elastic Constant Matrix: (Units=GPa)
#
#
# Indices 1 2 3 4 5 6 
#
# 1 85.6025 30.0678 13.5457 -7.6354 -9.2343 -9.9291
# 2 30.0678 107.4720 30.0777 1.5725 -1.3353 -31.0409
# 3 13.5457 30.0777 89.7847 3.5568 -13.2721 8.2480
# 4 -7.6354 1.5725 3.5568 27.5182 3.2480 -3.8239
# 5 -9.2343 -1.3353 -13.2721 3.2480 32.6695 1.0534
# 6 -9.9291 -31.0409 8.2480 -3.8239 1.0534 24.4521
#
#
#
# Elastic Compliance Matrix: (Units=1/GPa)
#
#
# Indices 1 2 3 4 5 6 
#
# 1 0.013861 -0.002573 -0.001302 0.004303 0.002748 0.003355
# 2 -0.002573 0.022090 -0.010946 0.004513 -0.005740 0.031643
# 3 -0.001302 -0.010946 0.018440 -0.006112 0.007991 -0.021944
# 4 0.004303 0.004513 -0.006112 0.040986 -0.005679 0.016192
# 5 0.002748 -0.005740 0.007991 -0.005679 0.035326 -0.011277
# 6 0.003355 0.031643 -0.021944 0.016192 -0.011277 0.092848
#
#
# Mechanical properties :
#
#
# Convention : Reuss Voigt Hill
#
# Bulk Modulus (GPa) = 40.40500 47.80463 44.10481
# Shear Modulus (GPa) = 19.12455 30.87250 24.99852
#
# Velocity S-wave (km/s) = 2.82073 3.58386 3.22495
# Velocity P-wave (km/s) = 5.23628 6.08391 5.67594
#
# Compressibility (1/GPa) = 0.02474942
#
# Stress axis : x y z
#
# Youngs Moduli (GPa) = 72.14363 45.26921 54.22896
#
# Poissons Ratio (x) = 0.11650 0.07059
# Poissons Ratio (y) = 0.18566 0.59359
# Poissons Ratio (z) = 0.09390 0.49552
#
# Static dielectric constant tensor:
#      x y z
#    x 2.015560 0.034690 0.042960 
#    y 0.034690 1.990260 -0.096220 
#    z 0.042960 -0.096220 1.867260 
# 
# From -- ./inp_files/70442.got.cif
#   From: 2010.05.17/outbox.cif.g08.bks.cpg/sg2_36_cif.got.tgz:70442.got - 2010.06.03 11:33:40.
