data_PCOD9059083
_publ_section_title
;
Structure prediction by ZEFSAII (Michael W. Deem and Ramdas Pophale) SiO2 
 PCOD9059083
Probable space group: P -1
;
_chemical_formula_sum "Si O2"
_cell_formula_units_Z 16
_cell_length_a 18.093332
_cell_length_b 10.537938
_cell_length_c 9.796245
_cell_angle_alpha 134.666427
_cell_angle_beta 35.570040
_cell_angle_gamma 146.389452
_cell_volume 599.530890
_symmetry_space_group_name_H-M "P -1"
_symmetry_group_IT_number 2
_symmetry_cell_setting 'triclinic'
loop_
_space_group_symop_operation_xyz
x,y,z
-x,-y,-z
loop_
_atom_site_type_symbol
_atom_site_label
_atom_site_fract_x
_atom_site_fract_y
_atom_site_fract_z
Si Si1 0.217398 0.720803 0.717654
Si Si2 0.128663 0.382902 0.814677
Si Si3 0.624902 0.617482 0.082680
Si Si4 0.528806 0.336128 0.404887
Si Si5 0.927015 0.043532 0.515099
Si Si6 0.364938 0.126652 0.994303
Si Si7 0.243596 0.827895 0.454963
Si Si8 0.087672 0.336876 0.245545
O O1 0.176708 0.495121 0.675379
O O2 0.280254 0.789372 0.522367
O O3 0.343086 0.929103 0.789884
O O4 0.044908 0.677451 0.945119
O O5 0.285393 0.566642 0.810331
O O6 0.117707 0.160643 0.670544
O O7 0.527058 0.350972 0.989107
O O8 0.782764 0.704914 0.999265
O O9 0.513050 0.650689 0.364023
O O10 0.675069 0.758082 0.973548
O O11 0.500000 0.500000 0.500000
O O12 0.397869 0.074088 0.356674
O O13 0.770284 0.000736 0.780941
O O14 0.000000 0.000000 0.500000
O O15 0.035212 0.270810 0.434327
O O16 0.180438 0.606346 0.293775
O O17 0.081918 0.809953 0.690617
#
# Coordination Sequence:
#
# PCOD9059083 Si02
#       8
#     2   2   2   2   2   2   2   2
#     4  11  24  43  69 104 136 179 225 280 342 402
#     4  11  25  41  67 106 137 177 224 282 339 399
#     4  11  24  43  67 102 135 182 228 278 343 401
#     4  12  27  47  68 102 138 181 228 285 341 403
#     4  12  20  41  69  97 136 178 226 273 335 400
#     4  11  23  40  66 104 138 173 229 277 337 406
#     4  11  27  47  66  99 137 181 229 279 348 402
#     4  11  26  46  69  96 138 185 225 281 338 416
#
# _framework density 26.687532000000001
#
# number of rings (size 3 to 8) (size 9 to 14) (size 15 to 20)
#    0.000    0.750    5.000    1.500    5.250    1.000 
#    0.000    0.625    0.000    0.000    0.000    0.000 
#    0.000    0.000    0.000    0.000    0.000    0.000 
#
# Total GULP energy -89663.118267 kJ/mol
# GULP energy per Si atom -5603.944892 kJ/mol
# Density = 2.662679 g / cm^3
# Si number density = 26.687532 Si / 1000 Ang^3
#
#
#
# Elastic Constant Matrix: (Units=GPa)
#
#
# Indices 1 2 3 4 5 6 
#
# 1 88.0384 25.9748 17.9465 -10.1613 -5.5249 -2.6795
# 2 25.9748 166.3007 17.6356 4.4781 -0.7699 9.8881
# 3 17.9465 17.6356 86.9013 -6.4940 -5.0825 12.8386
# 4 -10.1613 4.4781 -6.4940 27.8873 2.5317 -2.9934
# 5 -5.5249 -0.7699 -5.0825 2.5317 35.2995 -15.5411
# 6 -2.6795 9.8881 12.8386 -2.9934 -15.5411 46.1608
#
#
#
# Elastic Compliance Matrix: (Units=1/GPa)
#
#
# Indices 1 2 3 4 5 6 
#
# 1 0.013255 -0.002130 -0.002247 0.004732 0.002718 0.003072
# 2 -0.002130 0.006594 -0.000854 -0.002137 -0.000930 -0.001750
# 3 -0.002247 -0.000854 0.012787 0.001944 -0.000183 -0.003439
# 4 0.004732 -0.002137 0.001944 0.038708 -0.000719 0.002460
# 5 0.002718 -0.000930 -0.000183 -0.000719 0.033951 0.011791
# 6 0.003072 -0.001750 -0.003439 0.002460 0.011791 0.027303
#
#
# Mechanical properties :
#
#
# Convention : Reuss Voigt Hill
#
# Bulk Modulus (GPa) = 45.09369 51.59493 48.34431
# Shear Modulus (GPa) = 33.23382 40.51509 36.87446
#
# Velocity S-wave (km/s) = 3.53270 3.90054 3.72117
# Velocity P-wave (km/s) = 5.79427 6.29767 6.05120
#
# Compressibility (1/GPa) = 0.02217605
#
# Stress axis : x y z
#
# Youngs Moduli (GPa) = 75.44236 151.66023 78.20306
#
# Poissons Ratio (x) = 0.32298 0.17569
# Poissons Ratio (y) = 0.16066 0.06677
# Poissons Ratio (z) = 0.16949 0.12949
#
# Static dielectric constant tensor:
#      x y z
#    x 2.089450 0.029720 0.030350 
#    y 0.029720 2.077920 -0.008250 
#    z 0.030350 -0.008250 2.094670 
# 
# From -- ./inp_files/345388.got.cif
#   From: 2010.05.17/outbox.cif.g08.bks.cpg/sg2_173_cif.got.tgz:345388.got - 2010.06.03 11:33:40.
