data_PCOD9059706
_publ_section_title
;
Structure prediction by ZEFSAII (Michael W. Deem and Ramdas Pophale) SiO2 
 PCOD9059706
Probable space group: P -1
;
_chemical_formula_sum "Si O2"
_cell_formula_units_Z 16
_cell_length_a 21.223049
_cell_length_b 7.251466
_cell_length_c 8.012226
_cell_angle_alpha 106.103993
_cell_angle_beta 116.831544
_cell_angle_gamma 38.687968
_cell_volume 681.545980
_symmetry_space_group_name_H-M "P -1"
_symmetry_group_IT_number 2
_symmetry_cell_setting 'triclinic'
loop_
_space_group_symop_operation_xyz
x,y,z
-x,-y,-z
loop_
_atom_site_type_symbol
_atom_site_label
_atom_site_fract_x
_atom_site_fract_y
_atom_site_fract_z
Si Si1 0.671317 0.169568 0.640683
Si Si2 0.022209 0.666205 0.639377
Si Si3 0.771835 0.315328 0.901314
Si Si4 0.487303 0.800938 0.391768
Si Si5 0.250655 0.241042 0.633689
Si Si6 0.420262 0.024219 0.010916
Si Si7 0.172153 0.661835 0.387375
Si Si8 0.988358 0.298833 0.965842
O O1 0.420218 0.512090 0.480807
O O2 0.754099 0.930716 0.536952
O O3 0.727999 0.191134 0.844892
O O4 0.892166 0.390085 0.776763
O O5 0.139326 0.483900 0.662999
O O6 0.027253 0.677399 0.848088
O O7 0.000000 0.500000 0.500000
O O8 0.919094 0.013083 0.557069
O O9 0.685296 0.638144 0.960608
O O10 0.774632 0.350857 0.714011
O O11 0.899089 0.044737 0.034401
O O12 0.482141 0.804119 0.186356
O O13 0.379029 0.915789 0.357644
O O14 0.500000 0.000000 0.500000
O O15 0.254837 0.420882 0.567302
O O16 0.362012 0.996991 0.810015
O O17 0.500000 0.000000 0.000000
O O18 0.000000 0.500000 0.000000
#
# Coordination Sequence:
#
# PCOD9059706 Si02
#       8
#     2   2   2   2   2   2   2   2
#     4  11  25  44  77 100 131 188 243 275 350 430
#     4  11  23  42  67 104 143 173 229 298 354 414
#     4  11  23  44  71 101 132 187 242 273 347 430
#     4  11  24  50  73  94 138 186 236 297 342 414
#     4  12  25  42  66 107 138 179 231 286 360 409
#     4  12  27  44  68 103 144 182 233 297 356 399
#     4  11  23  44  72  95 144 192 226 286 351 430
#     4  11  23  43  69 101 138 186 235 282 344 437
#
# _framework density 23.476040000000001
#
# number of rings (size 3 to 8) (size 9 to 14) (size 15 to 20)
#    0.000    0.750    1.250    7.875    3.500    2.500 
#    2.250    0.000    0.000    0.000    0.000    0.000 
#    0.000    0.000    0.000    0.000    0.000    0.000 
#
# Total GULP energy -89558.413427 kJ/mol
# GULP energy per Si atom -5597.400839 kJ/mol
# Density = 2.342261 g / cm^3
# Si number density = 23.476040 Si / 1000 Ang^3
#
#
#
# Elastic Constant Matrix: (Units=GPa)
#
#
# Indices 1 2 3 4 5 6 
#
# 1 123.9565 27.5226 17.7274 -3.5363 2.2425 1.0800
# 2 27.5226 56.7008 -9.0164 13.9985 -0.1935 -6.2239
# 3 17.7274 -9.0164 75.2701 -9.3572 7.0289 9.0489
# 4 -3.5363 13.9985 -9.3572 26.8540 10.6068 5.7662
# 5 2.2425 -0.1935 7.0289 10.6068 35.9626 4.6616
# 6 1.0800 -6.2239 9.0489 5.7662 4.6616 44.1284
#
#
#
# Elastic Compliance Matrix: (Units=1/GPa)
#
#
# Indices 1 2 3 4 5 6 
#
# 1 0.010015 -0.006532 -0.002271 0.004763 -0.001469 -0.001168
# 2 -0.006532 0.025738 0.001512 -0.016634 0.004485 0.005180
# 3 -0.002271 0.001512 0.015683 0.006882 -0.004508 -0.003370
# 4 0.004763 -0.016634 0.006882 0.057935 -0.017576 -0.009587
# 5 -0.001469 0.004485 -0.004508 -0.017576 0.033948 0.000303
# 6 -0.001168 0.005180 -0.003370 -0.009587 0.000303 0.025332
#
#
# Mechanical properties :
#
#
# Convention : Reuss Voigt Hill
#
# Bulk Modulus (GPa) = 27.13396 36.48828 31.81112
# Shear Modulus (GPa) = 25.57304 36.03526 30.80415
#
# Velocity S-wave (km/s) = 3.30407 3.92213 3.62629
# Velocity P-wave (km/s) = 5.11264 6.00727 5.57792
#
# Compressibility (1/GPa) = 0.03685418
#
# Stress axis : x y z
#
# Youngs Moduli (GPa) = 99.84921 38.85329 63.76235
#
# Poissons Ratio (x) = 0.25378 0.14483
# Poissons Ratio (y) = 0.65219 -0.09642
# Poissons Ratio (z) = 0.22680 -0.05875
#
# Static dielectric constant tensor:
#      x y z
#    x 1.898310 0.009910 0.001090 
#    y 0.009910 1.893520 -0.009710 
#    z 0.001090 -0.009710 1.886740 
# 
# From -- ./inp_files/351832.got.cif
#   From: 2010.05.17/outbox.cif.g08.bks.cpg/sg2_176_cif.got.tgz:351832.got - 2010.06.03 11:33:40.
