data_PCOD9059110
_publ_section_title
;
Structure prediction by ZEFSAII (Michael W. Deem and Ramdas Pophale) SiO2 
 PCOD9059110
Probable space group: P -1
;
_chemical_formula_sum "Si O2"
_cell_formula_units_Z 16
_cell_length_a 14.433760
_cell_length_b 14.551479
_cell_length_c 13.976573
_cell_angle_alpha 21.463263
_cell_angle_beta 138.225304
_cell_angle_gamma 141.059969
_cell_volume 672.025831
_symmetry_space_group_name_H-M "P -1"
_symmetry_group_IT_number 2
_symmetry_cell_setting 'triclinic'
loop_
_space_group_symop_operation_xyz
x,y,z
-x,-y,-z
loop_
_atom_site_type_symbol
_atom_site_label
_atom_site_fract_x
_atom_site_fract_y
_atom_site_fract_z
Si Si1 0.506078 0.267474 0.800282
Si Si2 0.818917 0.000142 0.131059
Si Si3 0.619197 0.872426 0.564884
Si Si4 0.635681 0.522624 0.150227
Si Si5 0.158291 0.708548 0.537779
Si Si6 0.715731 0.399562 0.006580
Si Si7 0.968208 0.592295 0.687602
Si Si8 0.858090 0.035904 0.905290
O O1 0.500000 0.500000 0.500000
O O2 0.353119 0.177780 0.829407
O O3 0.649725 0.369616 0.878854
O O4 0.500000 0.000000 0.000000
O O5 0.906698 0.836847 0.415147
O O6 0.876530 0.051161 0.017187
O O7 0.848276 0.301965 0.896784
O O8 0.449071 0.723572 0.606735
O O9 0.724551 0.019412 0.592438
O O10 0.628820 0.120367 0.263657
O O11 0.683643 0.655933 0.777937
O O12 0.758502 0.501963 0.190641
O O13 0.500000 0.500000 0.000000
O O14 0.711105 0.785861 0.013379
O O15 0.020976 0.627290 0.582027
O O16 0.147038 0.725635 0.398054
O O17 0.885104 0.409884 0.140823
O O18 0.000000 0.000000 0.000000
#
# Coordination Sequence:
#
# PCOD9059110 Si02
#       8
#     2   2   2   2   2   2   2   2
#     4  12  28  54  81 110 144 180 236 312 380 435
#     4  12  27  46  74 108 146 192 244 298 362 427
#     4  11  23  40  67 102 141 191 250 291 342 414
#     4  12  24  38  59  91 137 196 258 295 332 403
#     4  11  24  38  64  96 148 196 238 289 339 407
#     4  11  25  47  77 104 141 189 235 300 369 435
#     4  11  24  46  71 104 149 191 238 287 353 438
#     4  12  26  41  63 101 149 197 239 286 352 415
#
# _framework density 23.808610999999999
#
# number of rings (size 3 to 8) (size 9 to 14) (size 15 to 20)
#    0.000    0.500    2.500    6.375    5.250    1.000 
#    0.000    3.750    0.000    0.000    0.000    0.000 
#    0.000    0.000    0.000    0.000    0.000    0.000 
#
# Total GULP energy -89420.544812 kJ/mol
# GULP energy per Si atom -5588.784051 kJ/mol
# Density = 2.375442 g / cm^3
# Si number density = 23.808611 Si / 1000 Ang^3
#
#
#
# Elastic Constant Matrix: (Units=GPa)
#
#
# Indices 1 2 3 4 5 6 
#
# 1 49.8206 10.7241 13.8389 4.5317 -3.9113 2.0025
# 2 10.7241 105.5528 46.0605 -5.4052 -16.5496 -6.5531
# 3 13.8389 46.0605 147.5917 -4.3816 -9.3131 -15.8934
# 4 4.5317 -5.4052 -4.3816 45.4355 5.2677 -8.1755
# 5 -3.9113 -16.5496 -9.3131 5.2677 40.2248 -6.2321
# 6 2.0025 -6.5531 -15.8934 -8.1755 -6.2321 37.2379
#
#
#
# Elastic Compliance Matrix: (Units=1/GPa)
#
#
# Indices 1 2 3 4 5 6 
#
# 1 0.021386 -0.001537 -0.001847 -0.003100 0.001004 -0.002722
# 2 -0.001537 0.011772 -0.003045 0.001104 0.004121 0.001787
# 3 -0.001847 -0.003045 0.008372 0.001162 0.000903 0.003543
# 4 -0.003100 0.001104 0.001162 0.023811 -0.001800 0.005783
# 5 0.001004 0.004121 0.000903 -0.001800 0.027925 0.005335
# 6 -0.002722 0.001787 0.003543 0.005783 0.005335 0.030990
#
#
# Mechanical properties :
#
#
# Convention : Reuss Voigt Hill
#
# Bulk Modulus (GPa) = 34.87665 49.35689 42.11677
# Shear Modulus (GPa) = 34.08977 40.06910 37.07943
#
# Velocity S-wave (km/s) = 3.78805 4.10685 3.95067
# Velocity P-wave (km/s) = 5.81490 6.57753 6.20794
#
# Compressibility (1/GPa) = 0.02867247
#
# Stress axis : x y z
#
# Youngs Moduli (GPa) = 46.75915 84.94512 119.44874
#
# Poissons Ratio (x) = 0.13056 0.22067
# Poissons Ratio (y) = 0.07187 0.36366
# Poissons Ratio (z) = 0.08638 0.25862
#
# Static dielectric constant tensor:
#      x y z
#    x 1.977880 0.058500 0.049640 
#    y 0.058500 2.124230 0.248400 
#    z 0.049640 0.248400 2.324520 
# 
# From -- ./inp_files/534025.got.cif
#   From: 2010.05.17/outbox.cif.g08.bks.cpg/sg2_268_cif.got.tgz:534025.got - 2010.06.03 11:33:40.
