data_PCOD9059365
_publ_section_title
;
Structure prediction by ZEFSAII (Michael W. Deem and Ramdas Pophale) SiO2 
 PCOD9059365
Probable space group: P -1
;
_chemical_formula_sum "Si O2"
_cell_formula_units_Z 16
_cell_length_a 19.731320
_cell_length_b 12.281947
_cell_length_c 22.636980
_cell_angle_alpha 147.673924
_cell_angle_beta 161.271476
_cell_angle_gamma 23.187921
_cell_volume 679.267644
_symmetry_space_group_name_H-M "P -1"
_symmetry_group_IT_number 2
_symmetry_cell_setting 'triclinic'
loop_
_space_group_symop_operation_xyz
x,y,z
-x,-y,-z
loop_
_atom_site_type_symbol
_atom_site_label
_atom_site_fract_x
_atom_site_fract_y
_atom_site_fract_z
Si Si1 0.855907 0.034637 0.155473
Si Si2 0.616765 0.944307 0.231575
Si Si3 0.144522 0.459972 0.298392
Si Si4 0.437522 0.257439 0.106994
Si Si5 0.301811 0.741923 0.282977
Si Si6 0.775055 0.355679 0.348437
Si Si7 0.691631 0.571688 0.704757
Si Si8 0.755267 0.022300 0.778733
O O1 0.064717 0.938308 0.228192
O O2 0.997421 0.734390 0.162672
O O3 0.857978 0.207805 0.285640
O O4 0.526654 0.182839 0.938188
O O5 0.595977 0.034959 0.188874
O O6 0.434568 0.215698 0.248639
O O7 0.945038 0.747137 0.433964
O O8 0.364056 0.479409 0.517047
O O9 0.296297 0.313772 0.293487
O O10 0.166152 0.257000 0.266793
O O11 0.805213 0.712346 0.115001
O O12 0.255730 0.555304 0.128661
O O13 0.632711 0.264498 0.227032
O O14 0.268537 0.925621 0.287005
O O15 0.543073 0.692432 0.308921
O O16 0.500000 0.500000 0.500000
O O17 0.000000 0.000000 0.000000
#
# Coordination Sequence:
#
# PCOD9059365 Si02
#       8
#     2   2   2   2   2   2   2   2
#     4  12  24  42  68 105 139 173 227 284 342 403
#     4  12  23  40  68 103 142 180 224 270 361 398
#     4  12  22  42  75  99 130 184 233 271 337 402
#     4  11  23  41  67 100 141 176 223 284 337 410
#     4  11  23  42  72  99 128 180 230 275 331 404
#     4  11  26  44  63 101 143 176 222 292 334 396
#     4  12  21  41  73 103 140 179 221 283 336 413
#     4  11  25  50  72  91 137 184 236 278 328 408
#
# _framework density 23.554779
#
# number of rings (size 3 to 8) (size 9 to 14) (size 15 to 20)
#    0.000    0.500    7.500    1.875    0.000    2.500 
#    2.250    3.125    0.000    0.000    0.000    0.000 
#    0.000    0.000    0.000    0.000    0.000    0.000 
#
# Total GULP energy -89576.090286 kJ/mol
# GULP energy per Si atom -5598.505643 kJ/mol
# Density = 2.350117 g / cm^3
# Si number density = 23.554779 Si / 1000 Ang^3
#
#
#
# Elastic Constant Matrix: (Units=GPa)
#
#
# Indices 1 2 3 4 5 6 
#
# 1 124.5978 7.8267 19.5336 4.9612 -21.4627 -26.6513
# 2 7.8267 31.9618 5.3214 -6.6675 -16.0854 -10.8964
# 3 19.5336 5.3214 174.4366 -11.5638 -12.5260 -1.6333
# 4 4.9612 -6.6675 -11.5638 29.8721 -0.6735 1.0786
# 5 -21.4627 -16.0854 -12.5260 -0.6735 30.5537 0.8929
# 6 -26.6513 -10.8964 -1.6333 1.0786 0.8929 33.5400
#
#
#
# Elastic Compliance Matrix: (Units=1/GPa)
#
#
# Indices 1 2 3 4 5 6 
#
# 1 0.012185 0.006577 -0.000706 -0.000988 0.011374 0.011513
# 2 0.006577 0.057197 0.001024 0.012040 0.034759 0.022546
# 3 -0.000706 0.001024 0.006154 0.002790 0.002630 -0.000088
# 4 -0.000988 0.012040 0.002790 0.037511 0.007561 0.001855
# 5 0.011374 0.034759 0.002630 0.007561 0.059719 0.018625
# 6 0.011513 0.022546 -0.000088 0.001855 0.018625 0.045729
#
#
# Mechanical properties :
#
#
# Convention : Reuss Voigt Hill
#
# Bulk Modulus (GPa) = 11.19507 44.03994 27.61750
# Shear Modulus (GPa) = 21.32384 38.68080 30.00232
#
# Velocity S-wave (km/s) = 3.01206 4.05676 3.57280
# Velocity P-wave (km/s) = 4.10607 6.37812 5.36378
#
# Compressibility (1/GPa) = 0.08932506
#
# Stress axis : x y z
#
# Youngs Moduli (GPa) = 82.07027 17.48339 162.50721
#
# Poissons Ratio (x) = -0.11499 0.11474
# Poissons Ratio (y) = -0.53978 -0.16638
# Poissons Ratio (z) = 0.05795 -0.01790
#
# Static dielectric constant tensor:
#      x y z
#    x 1.867660 -0.012960 0.019590 
#    y -0.012960 1.866050 -0.038250 
#    z 0.019590 -0.038250 1.973060 
# 
# From -- ./inp_files/455831.got.cif
#   From: 2010.05.17/outbox.cif.g08.bks.cpg/sg2_228_cif.got.tgz:455831.got - 2010.06.03 11:33:40.
