data_PCOD9059524
_publ_section_title
;
Structure prediction by ZEFSAII (Michael W. Deem and Ramdas Pophale) SiO2 
 PCOD9059524
Probable space group: P -1
;
_chemical_formula_sum "Si O2"
_cell_formula_units_Z 14
_cell_length_a 9.292986
_cell_length_b 15.244143
_cell_length_c 9.086036
_cell_angle_alpha 121.911725
_cell_angle_beta 118.376890
_cell_angle_gamma 34.939822
_cell_volume 623.430222
_symmetry_space_group_name_H-M "P -1"
_symmetry_group_IT_number 2
_symmetry_cell_setting 'triclinic'
loop_
_space_group_symop_operation_xyz
x,y,z
-x,-y,-z
loop_
_atom_site_type_symbol
_atom_site_label
_atom_site_fract_x
_atom_site_fract_y
_atom_site_fract_z
Si Si1 0.302909 0.568996 0.303198
Si Si2 0.575224 0.287584 0.362240
Si Si3 0.195864 0.642077 0.995797
Si Si4 0.776410 0.714577 0.687319
Si Si5 0.436395 0.980703 0.226665
Si Si6 0.861490 0.750313 0.464854
Si Si7 0.900395 0.991339 0.089368
O O1 0.517979 0.380949 0.268459
O O2 0.391866 0.643830 0.432375
O O3 0.159461 0.626072 0.132619
O O4 0.126315 0.634309 0.415396
O O5 0.347162 0.321508 0.323568
O O6 0.825800 0.102031 0.284374
O O7 0.083512 0.809904 0.061861
O O8 0.500000 0.500000 0.000000
O O9 0.026671 0.645814 0.818296
O O10 0.831631 0.674575 0.503905
O O11 0.557823 0.909854 0.750573
O O12 0.665181 0.838986 0.314629
O O13 0.210761 0.113806 0.352553
O O14 0.359626 0.935620 0.029135
O O15 0.000000 0.000000 0.000000
#
# Coordination Sequence:
#
# PCOD9059524 Si02
#       7
#     2   2   2   2   2   2   2
#     4  11  26  44  66  94 143 177 220 289 332 397
#     4  11  26  43  68  99 134 180 234 272 341 387
#     4  11  26  45  69 101 139 175 220 280 346 396
#     4   9  22  43  70  97 133 174 226 275 329 411
#     4   8  19  38  67  97 133 167 221 276 330 395
#     4   9  19  41  69  94 137 174 215 271 348 388
#     4  11  23  41  70  99 138 178 223 277 333 407
#
# _framework density 22.456403999999999
#
# number of rings (size 3 to 8) (size 9 to 14) (size 15 to 20)
#    0.857    1.143    0.000    1.714    8.000    4.000 
#    2.571    0.000    0.000    0.000    0.000    0.000 
#    0.000    0.000    0.000    0.000    0.000    0.000 
#
# Total GULP energy -78104.245038 kJ/mol
# GULP energy per Si atom -5578.874646 kJ/mol
# Density = 2.240529 g / cm^3
# Si number density = 22.456404 Si / 1000 Ang^3
#
#
#
# Elastic Constant Matrix: (Units=GPa)
#
#
# Indices 1 2 3 4 5 6 
#
# 1 104.3232 45.0220 29.4175 4.6913 -2.6816 13.0450
# 2 45.0220 108.3239 42.3566 -12.5336 11.9298 2.6379
# 3 29.4175 42.3566 59.8132 -16.4255 0.1512 5.5857
# 4 4.6913 -12.5336 -16.4255 42.6003 -2.6075 -5.7215
# 5 -2.6816 11.9298 0.1512 -2.6075 22.5122 4.6652
# 6 13.0450 2.6379 5.5857 -5.7215 4.6652 23.2787
#
#
#
# Elastic Compliance Matrix: (Units=1/GPa)
#
#
# Indices 1 2 3 4 5 6 
#
# 1 0.014712 -0.005678 -0.003924 -0.005678 0.006051 -0.009268
# 2 -0.005678 0.016183 -0.008581 0.002261 -0.010177 0.006002
# 3 -0.003924 -0.008581 0.027246 0.008423 0.005364 -0.002371
# 4 -0.005678 0.002261 0.008423 0.029085 -0.000241 0.008102
# 5 0.006051 -0.010177 0.005364 -0.000241 0.053432 -0.014292
# 6 -0.009268 0.006002 -0.002371 0.008102 -0.014292 0.052895
#
#
# Mechanical properties :
#
#
# Convention : Reuss Voigt Hill
#
# Bulk Modulus (GPa) = 45.92435 56.22805 51.07620
# Shear Modulus (GPa) = 21.08107 28.05585 24.56846
#
# Velocity S-wave (km/s) = 3.06724 3.53845 3.31123
# Velocity P-wave (km/s) = 5.74793 6.46431 6.11662
#
# Compressibility (1/GPa) = 0.02177494
#
# Stress axis : x y z
#
# Youngs Moduli (GPa) = 67.97042 61.79251 36.70209
#
# Poissons Ratio (x) = 0.35086 0.14402
# Poissons Ratio (y) = 0.38594 0.31495
# Poissons Ratio (z) = 0.26672 0.53026
#
# Static dielectric constant tensor:
#      x y z
#    x 1.872910 0.004530 -0.003910 
#    y 0.004530 1.862640 0.034720 
#    z -0.003910 0.034720 1.827190 
# 
# From -- ./inp_files/203186.got.cif
#   From: 2010.05.17/outbox.cif.g08.bks.cpg/sg2_102_cif.got.tgz:203186.got - 2010.06.03 11:33:40.
