data_PCOD9059450
_publ_section_title
;
Structure prediction by ZEFSAII (Michael W. Deem and Ramdas Pophale) SiO2 
 PCOD9059450
Probable space group: P -1
;
_chemical_formula_sum "Si O2"
_cell_formula_units_Z 16
_cell_length_a 18.860746
_cell_length_b 9.244721
_cell_length_c 8.482499
_cell_angle_alpha 63.832665
_cell_angle_beta 85.378740
_cell_angle_gamma 40.528476
_cell_volume 776.058018
_symmetry_space_group_name_H-M "P -1"
_symmetry_group_IT_number 2
_symmetry_cell_setting 'triclinic'
loop_
_space_group_symop_operation_xyz
x,y,z
-x,-y,-z
loop_
_atom_site_type_symbol
_atom_site_label
_atom_site_fract_x
_atom_site_fract_y
_atom_site_fract_z
Si Si1 0.319048 0.401430 0.600709
Si Si2 0.920763 0.187284 0.071180
Si Si3 0.867032 0.046972 0.431692
Si Si4 0.540361 0.244291 0.655485
Si Si5 0.293718 0.112323 0.914664
Si Si6 0.147725 0.247585 0.574639
Si Si7 0.961043 0.408756 0.131015
Si Si8 0.728057 0.704873 0.661612
O O1 0.205528 0.709343 0.547634
O O2 0.428828 0.324166 0.636625
O O3 0.331269 0.217337 0.790963
O O4 0.310152 0.344217 0.452156
O O5 0.909732 0.080110 0.264555
O O6 0.993774 0.206420 0.108822
O O7 0.789640 0.479690 0.890095
O O8 0.000000 0.000000 0.000000
O O9 0.801394 0.011232 0.386764
O O10 0.978187 0.756223 0.638944
O O11 0.500000 0.500000 0.500000
O O12 0.630180 0.998913 0.625658
O O13 0.600521 0.144465 0.867316
O O14 0.229480 0.132123 0.772241
O O15 0.181427 0.334539 0.945761
O O16 0.174407 0.350225 0.406460
O O17 0.000000 0.500000 0.500000
O O18 0.000000 0.500000 0.000000
#
# Coordination Sequence:
#
# PCOD9059450 Si02
#       8
#     2   2   2   2   2   2   2   2
#     4  11  25  46  73  97 140 185 236 293 348 416
#     4  12  25  39  66 106 143 180 228 280 351 430
#     4  12  24  42  67 104 141 184 233 283 353 428
#     4  12  26  47  73 100 135 185 245 297 345 404
#     4  11  25  45  68  99 135 188 227 284 358 415
#     4  11  23  41  69 100 144 185 227 283 355 427
#     4  12  25  41  68  96 146 184 228 284 356 422
#     4  11  24  46  67 105 140 183 235 290 350 417
#
# _framework density 20.617014999999999
#
# number of rings (size 3 to 8) (size 9 to 14) (size 15 to 20)
#    0.000    0.500    3.750    4.125    5.250    1.000 
#    0.000    6.875    0.000    0.000    0.000    0.000 
#    0.000    0.000    0.000    0.000    0.000    0.000 
#
# Total GULP energy -89249.573202 kJ/mol
# GULP energy per Si atom -5578.098325 kJ/mol
# Density = 2.057009 g / cm^3
# Si number density = 20.617015 Si / 1000 Ang^3
#
#
#
# Elastic Constant Matrix: (Units=GPa)
#
#
# Indices 1 2 3 4 5 6 
#
# 1 154.2900 34.3154 81.7898 0.8268 -6.5467 12.1996
# 2 34.3154 54.2337 14.2684 -8.5257 -5.2192 14.5099
# 3 81.7898 14.2684 161.4224 -13.9568 -16.4667 4.3393
# 4 0.8268 -8.5257 -13.9568 24.5240 1.0237 0.8402
# 5 -6.5467 -5.2192 -16.4667 1.0237 24.3671 6.6320
# 6 12.1996 14.5099 4.3393 0.8402 6.6320 48.8600
#
#
#
# Elastic Compliance Matrix: (Units=1/GPa)
#
#
# Indices 1 2 3 4 5 6 
#
# 1 0.010852 -0.006517 -0.005635 -0.005755 -0.002075 0.000107
# 2 -0.006517 0.026283 0.002891 0.010953 0.007450 -0.007634
# 3 -0.005635 0.002891 0.010012 0.006688 0.005933 -0.001261
# 4 -0.005755 0.010953 0.006688 0.048535 0.004323 -0.003831
# 5 -0.002075 0.007450 0.005933 0.004323 0.048315 -0.008854
# 6 0.000107 -0.007634 -0.001261 -0.003831 -0.008854 0.024087
#
#
# Mechanical properties :
#
#
# Convention : Reuss Voigt Hill
#
# Bulk Modulus (GPa) = 34.93389 70.07703 52.50546
# Shear Modulus (GPa) = 25.49112 35.52171 30.50641
#
# Velocity S-wave (km/s) = 3.52008 4.15532 3.85082
# Velocity P-wave (km/s) = 5.78811 7.55553 6.73009
#
# Compressibility (1/GPa) = 0.02862550
#
# Stress axis : x y z
#
# Youngs Moduli (GPa) = 92.14868 38.04751 99.88210
#
# Poissons Ratio (x) = 0.24796 0.56280
# Poissons Ratio (y) = 0.60054 -0.28876
# Poissons Ratio (z) = 0.51923 -0.11000
#
# Static dielectric constant tensor:
#      x y z
#    x 1.811380 0.161420 0.066830 
#    y 0.161420 2.016380 -0.000990 
#    z 0.066830 -0.000990 1.719800 
# 
# From -- ./inp_files/328560.got.cif
#   From: 2010.05.17/outbox.cif.g08.bks.cpg/sg2_165_cif.got.tgz:328560.got - 2010.06.03 11:33:40.
