data_PCOD9059019
_publ_section_title
;
Structure prediction by ZEFSAII (Michael W. Deem and Ramdas Pophale) SiO2 
 PCOD9059019
Probable space group: P -1
;
_chemical_formula_sum "Si O2"
_cell_formula_units_Z 16
_cell_length_a 18.402415
_cell_length_b 10.441700
_cell_length_c 5.618083
_cell_angle_alpha 68.087189
_cell_angle_beta 99.817082
_cell_angle_gamma 58.257681
_cell_volume 754.064715
_symmetry_space_group_name_H-M "P -1"
_symmetry_group_IT_number 2
_symmetry_cell_setting 'triclinic'
loop_
_space_group_symop_operation_xyz
x,y,z
-x,-y,-z
loop_
_atom_site_type_symbol
_atom_site_label
_atom_site_fract_x
_atom_site_fract_y
_atom_site_fract_z
Si Si1 0.754820 0.708204 0.152573
Si Si2 0.624978 0.478704 0.658694
Si Si3 0.597765 0.787452 0.685492
Si Si4 0.821739 0.372295 0.683638
Si Si5 0.457215 0.657391 0.056345
Si Si6 0.958647 0.490555 0.232223
Si Si7 0.929738 0.211142 0.363485
Si Si8 0.406921 0.019788 0.844318
O O1 0.808966 0.549095 0.487780
O O2 0.841607 0.651857 0.072377
O O3 0.676101 0.914265 0.055575
O O4 0.676080 0.700055 0.996128
O O5 0.588519 0.641655 0.705779
O O6 0.721074 0.415401 0.633482
O O7 0.540269 0.572521 0.356567
O O8 0.631407 0.322264 0.895696
O O9 0.645220 0.813084 0.477513
O O10 0.500000 0.000000 0.500000
O O11 0.873095 0.253957 0.552610
O O12 0.870472 0.299142 0.021463
O O13 0.500000 0.500000 0.000000
O O14 0.434513 0.843564 0.857333
O O15 0.977696 0.302998 0.366776
O O16 0.000000 0.500000 0.500000
O O17 0.000000 0.500000 0.000000
O O18 0.000000 0.000000 0.500000
O O19 0.500000 0.000000 0.000000
#
# Coordination Sequence:
#
# PCOD9059019 Si02
#       8
#     2   2   2   2   2   2   2   2
#     4  11  24  41  71 100 135 181 240 284 339 423
#     4  11  23  40  61  95 136 183 227 279 349 402
#     4  12  22  37  71  98 133 183 239 285 333 408
#     4  11  23  43  76 104 133 181 237 286 345 421
#     4  11  25  40  61  92 146 184 225 283 347 401
#     4  11  25  46  72 102 142 184 225 291 363 414
#     4  11  25  48  77 105 134 176 233 290 351 429
#     4  12  22  42  65 100 134 182 240 283 335 413
#
# _framework density 21.218336000000001
#
# number of rings (size 3 to 8) (size 9 to 14) (size 15 to 20)
#    0.000    0.750    3.750    4.125    5.250    1.000 
#    4.500    0.000    0.000    0.000    0.000    0.000 
#    0.000    0.000    0.000    0.000    0.000    0.000 
#
# Total GULP energy -89105.446005 kJ/mol
# GULP energy per Si atom -5569.090375 kJ/mol
# Density = 2.117004 g / cm^3
# Si number density = 21.218336 Si / 1000 Ang^3
#
#
#
# Elastic Constant Matrix: (Units=GPa)
#
#
# Indices 1 2 3 4 5 6 
#
# 1 146.3749 72.1202 29.8735 2.9390 -16.3770 -11.8432
# 2 72.1202 163.1741 30.0004 9.1018 -0.9155 -6.1894
# 3 29.8735 30.0004 88.3237 18.0040 2.8004 6.9074
# 4 2.9390 9.1018 18.0040 34.7528 5.2263 -6.5535
# 5 -16.3770 -0.9155 2.8004 5.2263 33.1567 0.2634
# 6 -11.8432 -6.1894 6.9074 -6.5535 0.2634 49.8907
#
#
#
# Elastic Compliance Matrix: (Units=1/GPa)
#
#
# Indices 1 2 3 4 5 6 
#
# 1 0.009998 -0.003882 -0.002665 0.001278 0.004836 0.002403
# 2 -0.003882 0.008117 -0.001222 -0.000921 -0.001446 0.000141
# 3 -0.002665 -0.001222 0.014499 -0.007470 -0.001367 -0.003766
# 4 0.001278 -0.000921 -0.007470 0.034506 -0.004248 0.005778
# 5 0.004836 -0.001446 -0.001367 -0.004248 0.033290 0.000424
# 6 0.002403 0.000141 -0.003766 0.005778 0.000424 0.021910
#
#
# Mechanical properties :
#
#
# Convention : Reuss Voigt Hill
#
# Bulk Modulus (GPa) = 58.55685 73.54009 66.04847
# Shear Modulus (GPa) = 34.83092 41.28527 38.05810
#
# Velocity S-wave (km/s) = 4.05600 4.41583 4.23974
# Velocity P-wave (km/s) = 7.04216 7.79317 7.42716
#
# Compressibility (1/GPa) = 0.01707742
#
# Stress axis : x y z
#
# Youngs Moduli (GPa) = 100.01835 123.19130 68.97087
#
# Poissons Ratio (x) = 0.47824 0.18379
# Poissons Ratio (y) = 0.38828 0.08426
# Poissons Ratio (z) = 0.26652 0.15051
#
# Static dielectric constant tensor:
#      x y z
#    x 1.845720 -0.068040 -0.067220 
#    y -0.068040 1.822550 0.107910 
#    z -0.067220 0.107910 1.858990 
# 
# From -- ./inp_files/106545.got.cif
#   From: 2010.05.17/outbox.cif.g08.bks.cpg/sg2_54_cif.got.tgz:106545.got - 2010.06.03 11:33:40.
