data_PCOD9059493
_publ_section_title
;
Structure prediction by ZEFSAII (Michael W. Deem and Ramdas Pophale) SiO2 
 PCOD9059493
Probable space group: P -1
;
_chemical_formula_sum "Si O2"
_cell_formula_units_Z 16
_cell_length_a 8.383137
_cell_length_b 27.746160
_cell_length_c 27.841457
_cell_angle_alpha 10.111657
_cell_angle_beta 40.293184
_cell_angle_gamma 39.827831
_cell_volume 726.907667
_symmetry_space_group_name_H-M "P -1"
_symmetry_group_IT_number 2
_symmetry_cell_setting 'triclinic'
loop_
_space_group_symop_operation_xyz
x,y,z
-x,-y,-z
loop_
_atom_site_type_symbol
_atom_site_label
_atom_site_fract_x
_atom_site_fract_y
_atom_site_fract_z
Si Si1 0.234785 0.165338 0.145542
Si Si2 0.004468 0.524974 0.359526
Si Si3 0.775849 0.968111 0.828646
Si Si4 0.712190 0.814583 0.531018
Si Si5 0.505020 0.632509 0.659225
Si Si6 0.627211 0.521734 0.368229
Si Si7 0.314195 0.666831 0.916441
Si Si8 0.091416 0.896173 0.133450
O O1 0.937326 0.177131 0.203479
O O2 0.305205 0.142180 0.095605
O O3 0.395084 0.909065 0.385592
O O4 0.303235 0.431918 0.894707
O O5 0.778779 0.443345 0.459179
O O6 0.065119 0.311073 0.599435
O O7 0.243022 0.507739 0.287405
O O8 0.918958 0.830490 0.099933
O O9 0.601708 0.237896 0.624890
O O10 0.038251 0.080713 0.649546
O O11 0.787784 0.714599 0.111395
O O12 0.564764 0.707350 0.626139
O O13 0.575572 0.089449 0.319725
O O14 0.767051 0.559967 0.805383
O O15 0.363982 0.713728 0.246916
O O16 0.500000 0.500000 0.000000
O O17 0.000000 0.000000 0.000000
#
# Coordination Sequence:
#
# PCOD9059493 Si02
#       8
#     2   2   2   2   2   2   2   2
#     4  11  25  41  67 102 140 168 221 276 333 383
#     4  12  26  45  66  93 133 180 223 277 350 400
#     4  11  23  41  70 100 126 178 227 277 329 408
#     4  11  23  44  71 104 137 174 228 270 324 403
#     4  12  25  42  69 102 138 169 225 288 336 381
#     4  12  24  43  71  92 131 174 235 274 348 401
#     4  11  24  47  73 101 140 185 220 259 326 409
#     4  12  28  45  63  95 135 175 228 286 343 412
#
# _framework density 22.011047000000001
#
# number of rings (size 3 to 8) (size 9 to 14) (size 15 to 20)
#    0.000    0.500    1.250    8.250    7.000    0.000 
#    0.000    3.750    0.000    0.000    0.000    0.000 
#    0.000    0.000    0.000    0.000    0.000    0.000 
#
# Total GULP energy -89601.059286 kJ/mol
# GULP energy per Si atom -5600.066205 kJ/mol
# Density = 2.196095 g / cm^3
# Si number density = 22.011047 Si / 1000 Ang^3
#
#
#
# Elastic Constant Matrix: (Units=GPa)
#
#
# Indices 1 2 3 4 5 6 
#
# 1 104.2264 38.5676 12.9063 -12.5284 -2.3324 14.0462
# 2 38.5676 96.6988 3.8072 -31.6635 -3.5598 11.7899
# 3 12.9063 3.8072 87.5626 -13.0033 -5.8082 21.5787
# 4 -12.5284 -31.6635 -13.0033 40.4589 10.1741 -6.2364
# 5 -2.3324 -3.5598 -5.8082 10.1741 43.3215 -8.6599
# 6 14.0462 11.7899 21.5787 -6.2364 -8.6599 20.8281
#
#
#
# Elastic Compliance Matrix: (Units=1/GPa)
#
#
# Indices 1 2 3 4 5 6 
#
# 1 0.011895 -0.004163 -0.000231 -0.000347 -0.000825 -0.005873
# 2 -0.004163 0.016792 0.003452 0.012490 -0.002859 -0.007723
# 3 -0.000231 0.003452 0.016474 0.005752 -0.002506 -0.018186
# 4 -0.000347 0.012490 0.005752 0.037491 -0.008005 -0.004898
# 5 -0.000825 -0.002859 -0.002506 -0.008005 0.027073 0.013630
# 6 -0.005873 -0.007723 -0.018186 -0.004898 0.013630 0.079386
#
#
# Mechanical properties :
#
#
# Convention : Reuss Voigt Hill
#
# Bulk Modulus (GPa) = 23.10726 44.33891 33.72309
# Shear Modulus (GPa) = 24.34039 36.46882 30.40461
#
# Velocity S-wave (km/s) = 3.32900 4.07485 3.72066
# Velocity P-wave (km/s) = 5.02963 6.50591 5.81481
#
# Compressibility (1/GPa) = 0.04327644
#
# Stress axis : x y z
#
# Youngs Moduli (GPa) = 84.06988 59.55168 60.70212
#
# Poissons Ratio (x) = 0.24791 0.01404
# Poissons Ratio (y) = 0.34998 -0.20954
# Poissons Ratio (z) = 0.01944 -0.20557
#
# Static dielectric constant tensor:
#      x y z
#    x 1.794120 0.014410 -0.015560 
#    y 0.014410 1.840900 0.017940 
#    z -0.015560 0.017940 1.779540 
# 
# From -- ./inp_files/606815.got.cif
#   From: 2010.05.17/outbox.cif.g08.bks.cpg/sg2_304_cif.got.tgz:606815.got - 2010.06.03 11:33:40.
