data_PCOD9059069
_publ_section_title
;
Structure prediction by ZEFSAII (Michael W. Deem and Ramdas Pophale) SiO2 
 PCOD9059069
Probable space group: P -1
;
_chemical_formula_sum "Si O2"
_cell_formula_units_Z 13
_cell_length_a 11.847308
_cell_length_b 10.099346
_cell_length_c 14.195102
_cell_angle_alpha 135.265632
_cell_angle_beta 151.732336
_cell_angle_gamma 36.979644
_cell_volume 483.715163
_symmetry_space_group_name_H-M "P -1"
_symmetry_group_IT_number 2
_symmetry_cell_setting 'triclinic'
loop_
_space_group_symop_operation_xyz
x,y,z
-x,-y,-z
loop_
_atom_site_type_symbol
_atom_site_label
_atom_site_fract_x
_atom_site_fract_y
_atom_site_fract_z
Si Si1 0.944504 0.266518 0.996853
Si Si2 0.253293 0.070612 0.781710
Si Si3 0.385860 0.599595 0.682949
Si Si4 0.791889 0.838319 0.416969
Si Si5 0.164892 0.745910 0.286513
Si Si6 0.185352 0.123080 0.294665
Si Si7 0.000000 0.500000 0.500000
O O1 0.648300 0.500337 0.896703
O O2 0.535748 0.443589 0.625357
O O3 0.891931 0.064801 0.858920
O O4 0.139876 0.227875 0.208924
O O5 0.300458 0.119390 0.736361
O O6 0.978708 0.264386 0.728855
O O7 0.246736 0.845925 0.666281
O O8 0.500000 0.000000 0.000000
O O9 0.119381 0.615496 0.547768
O O10 0.032771 0.248491 0.942122
O O11 0.681229 0.714306 0.333261
O O12 0.807042 0.040956 0.571306
O O13 0.000197 0.315670 0.329038
O O14 0.500000 0.000000 0.500000
#
# Coordination Sequence:
#
# PCOD9059069 Si02
#       7
#     2   2   2   2   2   2   1
#     4   9  21  44  65  95 135 170 230 270 333 400
#     4  11  25  39  62  99 131 162 218 280 326 400
#     4   9  20  43  65  89 124 168 214 266 331 389
#     4  11  23  40  65  96 130 168 225 268 323 405
#     4   9  20  44  64  91 124 176 213 269 346 378
#     4  11  23  42  64  98 136 179 223 276 321 407
#     4  12  24  40  68 100 130 176 222 268 338 380
#
# _framework density 26.875319999999999
#
# number of rings (size 3 to 8) (size 9 to 14) (size 15 to 20)
#    0.923    0.923    1.538    2.769    2.154    4.308 
#    2.769    2.308    0.000    0.000    0.000    0.000 
#    0.000    0.000    0.000    0.000    0.000    0.000 
#
# Total GULP energy -72447.854454 kJ/mol
# GULP energy per Si atom -5572.911881 kJ/mol
# Density = 2.681415 g / cm^3
# Si number density = 26.875320 Si / 1000 Ang^3
#
#
#
# Elastic Constant Matrix: (Units=GPa)
#
#
# Indices 1 2 3 4 5 6 
#
# 1 99.4208 55.0462 42.3027 2.0157 -37.8902 -11.4289
# 2 55.0462 131.7795 39.3293 -14.0631 -19.0707 -19.4477
# 3 42.3027 39.3293 129.0905 -28.2938 -45.5311 -10.1194
# 4 2.0157 -14.0631 -28.2938 44.3373 6.7486 -13.1177
# 5 -37.8902 -19.0707 -45.5311 6.7486 52.7496 -5.2986
# 6 -11.4289 -19.4477 -10.1194 -13.1177 -5.2986 59.4375
#
#
#
# Elastic Compliance Matrix: (Units=1/GPa)
#
#
# Indices 1 2 3 4 5 6 
#
# 1 0.018196 -0.006024 -0.001458 -0.004916 0.010376 0.001120
# 2 -0.006024 0.011087 -0.000482 0.004615 -0.000992 0.003317
# 3 -0.001458 -0.000482 0.014481 0.009005 0.010624 0.004962
# 4 -0.004916 0.004615 0.009005 0.032381 0.002721 0.009487
# 5 0.010376 -0.000992 0.010624 0.002721 0.035603 0.007254
# 6 0.001120 0.003317 0.004962 0.009487 0.007254 0.021710
#
#
# Mechanical properties :
#
#
# Convention : Reuss Voigt Hill
#
# Bulk Modulus (GPa) = 35.92278 70.40525 53.16402
# Shear Modulus (GPa) = 31.51284 46.21239 38.86261
#
# Velocity S-wave (km/s) = 3.42798 4.15120 3.80680
# Velocity P-wave (km/s) = 5.39106 7.01644 6.25675
#
# Compressibility (1/GPa) = 0.02783749
#
# Stress axis : x y z
#
# Youngs Moduli (GPa) = 54.95593 90.19527 69.05533
#
# Poissons Ratio (x) = 0.54330 0.10067
# Poissons Ratio (y) = 0.33103 0.03329
# Poissons Ratio (z) = 0.08012 0.04348
#
# Static dielectric constant tensor:
#      x y z
#    x 2.394880 0.065680 0.028030 
#    y 0.065680 2.175090 -0.024700 
#    z 0.028030 -0.024700 2.242720 
# 
# From -- ./inp_files/531341.got.cif
#   From: 2010.05.17/outbox.cif.g08.bks.cpg/sg2_266_cif.got.tgz:531341.got - 2010.06.03 11:33:40.
