data_PCOD9059837
_publ_section_title
;
Structure prediction by ZEFSAII (Michael W. Deem and Ramdas Pophale) SiO2 
 PCOD9059837
Probable space group: P -1
;
_chemical_formula_sum "Si O2"
_cell_formula_units_Z 10
_cell_length_a 9.832600
_cell_length_b 8.716653
_cell_length_c 9.762562
_cell_angle_alpha 55.101227
_cell_angle_beta 70.285114
_cell_angle_gamma 108.277466
_cell_volume 487.499036
_symmetry_space_group_name_H-M "P -1"
_symmetry_group_IT_number 2
_symmetry_cell_setting 'triclinic'
loop_
_space_group_symop_operation_xyz
x,y,z
-x,-y,-z
loop_
_atom_site_type_symbol
_atom_site_label
_atom_site_fract_x
_atom_site_fract_y
_atom_site_fract_z
Si Si1 0.522307 0.300709 0.122022
Si Si2 0.733747 0.247867 0.593501
Si Si3 0.485475 0.655393 0.583016
Si Si4 0.819333 0.353088 0.816857
Si Si5 0.216219 0.110035 0.858081
O O1 0.507770 0.260507 0.310191
O O2 0.362806 0.036604 0.239413
O O3 0.500000 0.500000 0.000000
O O4 0.720446 0.394854 0.943624
O O5 0.619621 0.289793 0.511510
O O6 0.731684 0.317381 0.714886
O O7 0.954058 0.425604 0.382959
O O8 0.357918 0.359070 0.772639
O O9 0.692929 0.795854 0.373217
O O10 0.781184 0.103511 0.990894
O O11 0.000000 0.000000 0.000000
#
# Coordination Sequence:
#
# PCOD9059837 Si02
#       5
#     2   2   2   2   2
#     4  12  27  43  65  95 135 171 211 271 323 374
#     4  11  24  44  68  96 129 171 221 260 317 389
#     4  11  25  41  69  99 128 168 219 263 320 390
#     4  11  25  43  68  95 131 172 214 265 320 381
#     4  11  23  42  69  97 127 169 214 265 323 380
#
# _framework density 20.512858999999999
#
# number of rings (size 3 to 8) (size 9 to 14) (size 15 to 20)
#    0.000    0.800    4.000    2.400    5.600    3.200 
#    0.000    0.000    0.000    0.000    0.000    0.000 
#    0.000    0.000    0.000    0.000    0.000    0.000 
#
# Total GULP energy -55968.428803 kJ/mol
# GULP energy per Si atom -5596.842880 kJ/mol
# Density = 2.046617 g / cm^3
# Si number density = 20.512859 Si / 1000 Ang^3
#
#
#
# Elastic Constant Matrix: (Units=GPa)
#
#
# Indices 1 2 3 4 5 6 
#
# 1 108.5146 32.2105 52.0791 11.5844 -7.1946 -16.1584
# 2 32.2105 50.2202 22.9877 27.0475 -21.8296 -14.2203
# 3 52.0791 22.9877 96.9977 15.4118 -31.9584 -3.3831
# 4 11.5844 27.0475 15.4118 54.5303 -11.0329 7.1001
# 5 -7.1946 -21.8296 -31.9584 -11.0329 45.0623 -3.5595
# 6 -16.1584 -14.2203 -3.3831 7.1001 -3.5595 31.3267
#
#
#
# Elastic Compliance Matrix: (Units=1/GPa)
#
#
# Indices 1 2 3 4 5 6 
#
# 1 0.016310 -0.011520 -0.009419 0.003055 -0.008872 0.000466
# 2 -0.011520 0.060230 0.006541 -0.027786 0.027666 0.031547
# 3 -0.009419 0.006541 0.019390 -0.004129 0.014627 0.002803
# 4 0.003055 -0.027786 -0.004129 0.033371 -0.009319 -0.020105
# 5 -0.008872 0.027666 0.014627 -0.009319 0.043583 0.016626
# 6 0.000466 0.031547 0.002803 -0.020105 0.016626 0.053231
#
#
# Mechanical properties :
#
#
# Convention : Reuss Voigt Hill
#
# Bulk Modulus (GPa) = 14.89534 52.25411 33.57473
# Shear Modulus (GPa) = 18.03181 36.08086 27.05633
#
# Velocity S-wave (km/s) = 2.96809 4.19852 3.63574
# Velocity P-wave (km/s) = 4.36157 7.00233 5.83335
#
# Compressibility (1/GPa) = 0.06713509
#
# Stress axis : x y z
#
# Youngs Moduli (GPa) = 61.31075 16.60298 51.57410
#
# Poissons Ratio (x) = 0.19126 0.48580
# Poissons Ratio (y) = 0.70627 -0.33737
# Poissons Ratio (z) = 0.57751 -0.10861
#
# Static dielectric constant tensor:
#      x y z
#    x 1.722430 -0.005440 0.008190 
#    y -0.005440 1.700510 0.002230 
#    z 0.008190 0.002230 1.746210 
# 
# From -- ./inp_files/144062.got.cif
#   From: 2010.05.17/outbox.cif.g08.bks.cpg/sg2_73_cif.got.tgz:144062.got - 2010.06.03 11:33:40.
