data_PCOD9059550
_publ_section_title
;
Structure prediction by ZEFSAII (Michael W. Deem and Ramdas Pophale) SiO2 
 PCOD9059550
Probable space group: P -1
;
_chemical_formula_sum "Si O2"
_cell_formula_units_Z 16
_cell_length_a 11.459913
_cell_length_b 9.147888
_cell_length_c 9.354061
_cell_angle_alpha 76.217090
_cell_angle_beta 137.007186
_cell_angle_gamma 89.154911
_cell_volume 622.428522
_symmetry_space_group_name_H-M "P -1"
_symmetry_group_IT_number 2
_symmetry_cell_setting 'triclinic'
loop_
_space_group_symop_operation_xyz
x,y,z
-x,-y,-z
loop_
_atom_site_type_symbol
_atom_site_label
_atom_site_fract_x
_atom_site_fract_y
_atom_site_fract_z
Si Si1 0.319575 0.920961 0.466246
Si Si2 0.240303 0.640277 0.333156
Si Si3 0.180587 0.365777 0.535964
Si Si4 0.955442 0.909447 0.615342
Si Si5 0.760606 0.551206 0.123735
Si Si6 0.669716 0.324254 0.906803
Si Si7 0.170853 0.168213 0.026158
Si Si8 0.565758 0.020247 0.894546
O O1 0.139074 0.961289 0.385929
O O2 0.273193 0.047655 0.267361
O O3 0.355512 0.746106 0.480766
O O4 0.458423 0.951788 0.696594
O O5 0.238956 0.484998 0.454296
O O6 0.311142 0.601124 0.245893
O O7 0.036450 0.758467 0.130346
O O8 0.178705 0.195563 0.517221
O O9 0.276383 0.368832 0.773149
O O10 0.965958 0.443949 0.346455
O O11 0.000000 0.000000 0.500000
O O12 0.132113 0.789326 0.860920
O O13 0.639853 0.446106 0.982159
O O14 0.765621 0.677486 0.978027
O O15 0.551845 0.203938 0.821707
O O16 0.230775 0.074801 0.951016
O O17 0.500000 0.000000 0.000000
#
# Coordination Sequence:
#
# PCOD9059550 Si02
#       8
#     2   2   2   2   2   2   2   2
#     4  12  25  41  67  99 132 180 222 276 332 390
#     4  11  23  41  72 102 135 168 219 282 333 396
#     4   9  22  38  63 102 137 166 214 275 343 387
#     4  11  24  38  71 102 131 170 227 278 329 395
#     4   9  22  39  67  95 137 172 212 276 332 395
#     4  11  23  44  66 100 131 174 221 275 338 390
#     4  11  23  45  68  99 132 173 221 277 333 396
#     4  12  28  45  64  93 139 180 229 275 326 397
#
# _framework density 25.705763000000001
#
# number of rings (size 3 to 8) (size 9 to 14) (size 15 to 20)
#    0.000    1.250    2.500    2.250   14.000    1.500 
#    0.000    2.500    0.000    0.000    0.000    0.000 
#    0.000    0.000    0.000    0.000    0.000    0.000 
#
# Total GULP energy -89586.795761 kJ/mol
# GULP energy per Si atom -5599.174735 kJ/mol
# Density = 2.564726 g / cm^3
# Si number density = 25.705763 Si / 1000 Ang^3
#
#
#
# Elastic Constant Matrix: (Units=GPa)
#
#
# Indices 1 2 3 4 5 6 
#
# 1 106.6268 9.4312 51.1725 -3.3799 -24.5598 7.6156
# 2 9.4312 122.3607 54.7188 32.9407 -8.6166 9.3557
# 3 51.1725 54.7188 122.4630 15.2855 -8.6630 16.9709
# 4 -3.3799 32.9407 15.2855 40.0869 -0.0530 4.1465
# 5 -24.5598 -8.6166 -8.6630 -0.0530 52.2791 -4.5320
# 6 7.6156 9.3557 16.9709 4.1465 -4.5320 51.0182
#
#
#
# Elastic Compliance Matrix: (Units=1/GPa)
#
#
# Indices 1 2 3 4 5 6 
#
# 1 0.013613 0.001530 -0.006271 0.002280 0.005618 0.000087
# 2 0.001530 0.012754 -0.005154 -0.008384 0.001959 0.000002
# 3 -0.006271 -0.005154 0.013476 -0.001159 -0.001795 -0.002667
# 4 0.002280 -0.008384 -0.001159 0.032584 -0.000567 -0.001116
# 5 0.005618 0.001959 -0.001795 -0.000567 0.021913 0.001392
# 6 0.000087 0.000002 -0.002667 -0.001116 0.001392 0.020689
#
#
# Mechanical properties :
#
#
# Convention : Reuss Voigt Hill
#
# Bulk Modulus (GPa) = 49.86470 64.67728 57.27099
# Shear Modulus (GPa) = 35.33499 44.41871 39.87685
#
# Velocity S-wave (km/s) = 3.71157 4.16139 3.94290
# Velocity P-wave (km/s) = 6.14883 6.95017 6.56174
#
# Compressibility (1/GPa) = 0.02005427
#
# Stress axis : x y z
#
# Youngs Moduli (GPa) = 73.45921 78.40663 74.20439
#
# Poissons Ratio (x) = -0.12000 0.46537
# Poissons Ratio (y) = -0.11243 0.38242
# Poissons Ratio (z) = 0.46069 0.40407
#
# Static dielectric constant tensor:
#      x y z
#    x 2.064200 -0.009670 0.113590 
#    y -0.009670 1.994790 0.001630 
#    z 0.113590 0.001630 2.047820 
# 
# From -- ./inp_files/243725.got.cif
#   From: 2010.05.17/outbox.cif.g08.bks.cpg/sg2_122_cif.got.tgz:243725.got - 2010.06.03 11:33:40.
