data_PCOD9059293
_publ_section_title
;
Structure prediction by ZEFSAII (Michael W. Deem and Ramdas Pophale) SiO2 
 PCOD9059293
Probable space group: P -1
;
_chemical_formula_sum "Si O2"
_cell_formula_units_Z 16
_cell_length_a 14.610460
_cell_length_b 6.151414
_cell_length_c 14.808713
_cell_angle_alpha 83.304896
_cell_angle_beta 57.369872
_cell_angle_gamma 47.713514
_cell_volume 761.708623
_symmetry_space_group_name_H-M "P -1"
_symmetry_group_IT_number 2
_symmetry_cell_setting 'triclinic'
loop_
_space_group_symop_operation_xyz
x,y,z
-x,-y,-z
loop_
_atom_site_type_symbol
_atom_site_label
_atom_site_fract_x
_atom_site_fract_y
_atom_site_fract_z
Si Si1 0.142381 0.269751 0.311521
Si Si2 0.640765 0.557811 0.484815
Si Si3 0.853656 0.610280 0.321823
Si Si4 0.341523 0.747300 0.680797
Si Si5 0.925035 0.930692 0.477710
Si Si6 0.479985 0.767467 0.055227
Si Si7 0.938955 0.372222 0.086921
Si Si8 0.748086 0.345012 0.083354
O O1 0.150786 0.135886 0.410079
O O2 0.003200 0.369823 0.319139
O O3 0.068378 0.614523 0.359232
O O4 0.305676 0.021592 0.181932
O O5 0.701180 0.717048 0.441756
O O6 0.481806 0.719335 0.611881
O O7 0.613843 0.511743 0.399065
O O8 0.787187 0.221965 0.472700
O O9 0.888678 0.458999 0.212915
O O10 0.808866 0.921856 0.304095
O O11 0.302126 0.729802 0.802023
O O12 0.000000 0.000000 0.500000
O O13 0.615477 0.548039 0.069170
O O14 0.500000 0.500000 0.000000
O O15 0.500000 0.000000 0.000000
O O16 0.791842 0.510062 0.098063
O O17 0.000000 0.500000 0.000000
O O18 0.085783 0.989232 0.026125
#
# Coordination Sequence:
#
# PCOD9059293 Si02
#       8
#     2   2   2   2   2   2   2   2
#     4  11  26  44  71 102 140 194 245 303 364 442
#     4  11  23  41  64  98 135 176 226 288 361 429
#     4  12  22  41  68  99 134 178 237 291 362 433
#     4  11  23  41  65  97 141 170 223 291 361 425
#     4  11  23  44  69  99 139 188 243 297 360 439
#     4  12  31  52  77 111 152 201 251 307 371 442
#     4  11  24  41  73 101 136 182 238 302 365 435
#     4  11  25  46  69 103 140 186 238 300 368 436
#
# _framework density 21.005407000000002
#
# number of rings (size 3 to 8) (size 9 to 14) (size 15 to 20)
#    0.000    0.750    5.000    1.875    5.250    1.000 
#    2.250    0.000    0.000    0.000    0.000    0.000 
#    0.000    0.000    0.000    0.000    0.000    0.000 
#
# Total GULP energy -89247.266238 kJ/mol
# GULP energy per Si atom -5577.954140 kJ/mol
# Density = 2.095760 g / cm^3
# Si number density = 21.005407 Si / 1000 Ang^3
#
#
#
# Elastic Constant Matrix: (Units=GPa)
#
#
# Indices 1 2 3 4 5 6 
#
# 1 136.7589 32.4215 38.4235 -0.4295 1.8800 -13.2969
# 2 32.4215 96.2782 24.1422 -6.9711 3.5669 -11.6616
# 3 38.4235 24.1422 100.2998 8.8589 -6.0738 9.6322
# 4 -0.4295 -6.9711 8.8589 34.4632 0.4953 1.1871
# 5 1.8800 3.5669 -6.0738 0.4953 33.9198 -0.0672
# 6 -13.2969 -11.6616 9.6322 1.1871 -0.0672 30.7630
#
#
#
# Elastic Compliance Matrix: (Units=1/GPa)
#
#
# Indices 1 2 3 4 5 6 
#
# 1 0.009167 -0.001533 -0.003691 0.000612 -0.001008 0.004511
# 2 -0.001533 0.012660 -0.003347 0.003255 -0.001883 0.005054
# 3 -0.003691 -0.003347 0.013384 -0.003969 0.002997 -0.006895
# 4 0.000612 0.003255 -0.003969 0.030671 -0.001532 0.001554
# 5 -0.001008 -0.001883 0.002997 -0.001532 0.030290 -0.001963
# 6 0.004511 0.005054 -0.006895 0.001554 -0.001963 0.038467
#
#
# Mechanical properties :
#
#
# Convention : Reuss Voigt Hill
#
# Bulk Modulus (GPa) = 55.34496 58.14571 56.74533
# Shear Modulus (GPa) = 31.68485 35.71918 33.70202
#
# Velocity S-wave (km/s) = 3.88804 4.12816 4.00990
# Velocity P-wave (km/s) = 6.82356 7.10378 6.96508
#
# Compressibility (1/GPa) = 0.01806849
#
# Stress axis : x y z
#
# Youngs Moduli (GPa) = 109.08658 78.99024 74.71709
#
# Poissons Ratio (x) = 0.12113 0.27578
# Poissons Ratio (y) = 0.16728 0.25006
# Poissons Ratio (z) = 0.40263 0.26436
#
# Static dielectric constant tensor:
#      x y z
#    x 1.785000 0.092870 0.001760 
#    y 0.092870 1.827730 0.010480 
#    z 0.001760 0.010480 1.732810 
# 
# From -- ./inp_files/69334.got.cif
#   From: 2010.05.17/outbox.cif.g08.bks.cpg/sg2_35_cif.got.tgz:69334.got - 2010.06.03 11:33:40.
