data_PCOD9059762
_publ_section_title
;
Structure prediction by ZEFSAII (Michael W. Deem and Ramdas Pophale) SiO2 
 PCOD9059762
Probable space group: P -1
;
_chemical_formula_sum "Si O2"
_cell_formula_units_Z 14
_cell_length_a 5.022220
_cell_length_b 7.315495
_cell_length_c 22.714016
_cell_angle_alpha 127.057739
_cell_angle_beta 90.034763
_cell_angle_gamma 114.279328
_cell_volume 570.574865
_symmetry_space_group_name_H-M "P -1"
_symmetry_group_IT_number 2
_symmetry_cell_setting 'triclinic'
loop_
_space_group_symop_operation_xyz
x,y,z
-x,-y,-z
loop_
_atom_site_type_symbol
_atom_site_label
_atom_site_fract_x
_atom_site_fract_y
_atom_site_fract_z
Si Si1 0.558474 0.457569 0.156889
Si Si2 0.853196 0.647494 0.358878
Si Si3 0.324473 0.618970 0.989719
Si Si4 0.129821 0.833275 0.863468
Si Si5 0.768815 0.980382 0.327627
Si Si6 0.283656 0.551940 0.551257
Si Si7 0.153284 0.309544 0.284303
O O1 0.689499 0.467694 0.094092
O O2 0.789610 0.399007 0.182813
O O3 0.581891 0.718207 0.236200
O O4 0.187542 0.244350 0.117525
O O5 0.876214 0.891107 0.368762
O O6 0.820536 0.638259 0.428131
O O7 0.111088 0.566867 0.332136
O O8 0.508863 0.402461 0.293481
O O9 0.500000 0.500000 0.000000
O O10 0.000000 0.500000 0.000000
O O11 0.561851 0.933754 0.060175
O O12 0.058519 0.879247 0.805526
O O13 0.592503 0.140592 0.370326
O O14 0.045523 0.180889 0.323077
O O15 0.500000 0.500000 0.500000
O O16 0.000000 0.500000 0.500000
#
# Coordination Sequence:
#
# PCOD9059762 Si02
#       7
#     2   2   2   2   2   2   2
#     4  12  25  44  71 106 140 200 254 307 378 442
#     4  11  24  45  70 106 143 185 246 298 367 438
#     4  12  26  45  68 104 150 199 251 306 378 440
#     4  12  23  44  69 103 148 191 255 316 363 439
#     4  11  25  45  76 103 145 195 245 303 376 441
#     4  11  26  47  72 109 148 190 240 303 370 451
#     4  11  23  42  68 106 143 185 248 306 356 438
#
# _framework density 24.536659
#
# number of rings (size 3 to 8) (size 9 to 14) (size 15 to 20)
#    0.000    0.571    2.857    5.143    0.000    9.143 
#    0.000    0.000    0.000    0.000    0.000    0.000 
#    0.000    0.000    0.000    0.000    0.000    0.000 
#
# Total GULP energy -78312.046787 kJ/mol
# GULP energy per Si atom -5593.717628 kJ/mol
# Density = 2.448081 g / cm^3
# Si number density = 24.536659 Si / 1000 Ang^3
#
#
#
# Elastic Constant Matrix: (Units=GPa)
#
#
# Indices 1 2 3 4 5 6 
#
# 1 170.9939 65.6927 45.8623 -18.5723 -3.7448 17.0528
# 2 65.6927 156.6494 53.1029 -40.6359 -6.7738 -12.0183
# 3 45.8623 53.1029 125.0080 -33.9493 -12.8154 -0.0972
# 4 -18.5723 -40.6359 -33.9493 53.5702 -1.0336 0.0051
# 5 -3.7448 -6.7738 -12.8154 -1.0336 41.0022 -7.6580
# 6 17.0528 -12.0183 -0.0972 0.0051 -7.6580 50.7211
#
#
#
# Elastic Compliance Matrix: (Units=1/GPa)
#
#
# Indices 1 2 3 4 5 6 
#
# 1 0.007809 -0.003200 -0.001871 -0.000927 -0.001087 -0.003552
# 2 -0.003200 0.010017 -0.001359 0.005662 0.001774 0.003714
# 3 -0.001871 -0.001359 0.011076 0.005405 0.003359 0.000835
# 4 -0.000927 0.005662 0.005405 0.026135 0.003611 0.002206
# 5 -0.001087 0.001774 0.003359 0.003611 0.026622 0.004811
# 6 -0.003552 0.003714 0.000835 0.002206 0.004811 0.022518
#
#
# Mechanical properties :
#
#
# Convention : Reuss Voigt Hill
#
# Bulk Modulus (GPa) = 62.34020 86.88523 74.61272
# Shear Modulus (GPa) = 40.85482 48.25826 44.55654
#
# Velocity S-wave (km/s) = 4.08493 4.43965 4.26598
# Velocity P-wave (km/s) = 6.90732 7.85926 7.39861
#
# Compressibility (1/GPa) = 0.01604101
#
# Stress axis : x y z
#
# Youngs Moduli (GPa) = 128.05138 99.83332 90.28605
#
# Poissons Ratio (x) = 0.31951 0.16897
# Poissons Ratio (y) = 0.40983 0.12266
# Poissons Ratio (z) = 0.23964 0.13563
#
# Static dielectric constant tensor:
#      x y z
#    x 1.917250 -0.073190 -0.249820 
#    y -0.073190 2.070590 0.404310 
#    z -0.249820 0.404310 3.714840 
# 
# From -- ./inp_files/603864.got.cif
#   From: 2010.05.17/outbox.cif.g08.bks.cpg/sg2_302_cif.got.tgz:603864.got - 2010.06.03 11:33:40.
