data_PCOD9059393
_publ_section_title
;
Structure prediction by ZEFSAII (Michael W. Deem and Ramdas Pophale) SiO2 
 PCOD9059393
Probable space group: P -1
;
_chemical_formula_sum "Si O2"
_cell_formula_units_Z 16
_cell_length_a 21.038454
_cell_length_b 9.444205
_cell_length_c 11.772008
_cell_angle_alpha 104.580997
_cell_angle_beta 137.417083
_cell_angle_gamma 41.001544
_cell_volume 756.872093
_symmetry_space_group_name_H-M "P -1"
_symmetry_group_IT_number 2
_symmetry_cell_setting 'triclinic'
loop_
_space_group_symop_operation_xyz
x,y,z
-x,-y,-z
loop_
_atom_site_type_symbol
_atom_site_label
_atom_site_fract_x
_atom_site_fract_y
_atom_site_fract_z
Si Si1 0.738388 0.583711 0.928875
Si Si2 0.077862 0.190168 0.449258
Si Si3 0.352489 0.597083 0.580992
Si Si4 0.225011 0.993403 0.061270
Si Si5 0.283508 0.233674 0.279878
Si Si6 0.351957 0.270829 0.607885
Si Si7 0.695460 0.327798 0.723932
Si Si8 0.949763 0.435442 0.579578
O O1 0.824723 0.540482 0.919595
O O2 0.662941 0.529244 0.778218
O O3 0.567408 0.918752 0.815477
O O4 0.896855 0.358218 0.186914
O O5 0.042382 0.251856 0.548710
O O6 0.084473 0.345426 0.438754
O O7 0.257909 0.851274 0.581786
O O8 0.573749 0.326732 0.792836
O O9 0.342693 0.452893 0.599326
O O10 0.251929 0.725762 0.349976
O O11 0.166998 0.949015 0.067427
O O12 0.265143 0.087868 0.202906
O O13 0.088654 0.213230 0.822133
O O14 0.243063 0.331681 0.374869
O O15 0.500000 0.000000 0.500000
O O16 0.247579 0.374574 0.607910
O O17 0.500000 0.500000 0.500000
#
# Coordination Sequence:
#
# PCOD9059393 Si02
#       8
#     2   2   2   2   2   2   2   2
#     4  11  21  43  66  93 131 170 196 256 326 373
#     4  11  27  45  63  89 127 167 221 265 300 366
#     4  11  22  41  66  95 127 164 205 260 320 371
#     4  11  22  42  65  94 132 166 200 257 322 373
#     4  10  17  37  67  93 122 163 199 246 319 391
#     4  11  22  39  69  94 125 165 207 256 320 380
#     4  10  22  37  66 103 131 156 204 258 315 386
#     4  11  27  46  61  91 125 169 222 261 302 369
#
# _framework density 21.139634000000001
#
# number of rings (size 3 to 8) (size 9 to 14) (size 15 to 20)
#    0.000    1.250    5.000    2.250    7.000    3.500 
#    0.000    0.000    0.000    0.000    0.000    0.000 
#    0.000    0.000    0.000    0.000    0.000    0.000 
#
# Total GULP energy -89435.231127 kJ/mol
# GULP energy per Si atom -5589.701945 kJ/mol
# Density = 2.109152 g / cm^3
# Si number density = 21.139634 Si / 1000 Ang^3
#
#
#
# Elastic Constant Matrix: (Units=GPa)
#
#
# Indices 1 2 3 4 5 6 
#
# 1 108.3979 41.7663 5.7211 -10.0718 -1.3328 0.8484
# 2 41.7663 133.8499 11.4986 -9.4564 7.9894 2.8864
# 3 5.7211 11.4986 31.5079 -7.0825 -2.9510 -3.9321
# 4 -10.0718 -9.4564 -7.0825 23.4883 3.7782 4.0945
# 5 -1.3328 7.9894 -2.9510 3.7782 16.9699 -2.1812
# 6 0.8484 2.8864 -3.9321 4.0945 -2.1812 30.9605
#
#
#
# Elastic Compliance Matrix: (Units=1/GPa)
#
#
# Indices 1 2 3 4 5 6 
#
# 1 0.010784 -0.003241 0.000044 0.003117 0.001650 -0.000284
# 2 -0.003241 0.009340 -0.003006 0.002777 -0.006044 -0.001957
# 3 0.000044 -0.003006 0.035713 0.007804 0.006436 0.004236
# 4 0.003117 0.002777 0.007804 0.050481 -0.011827 -0.006863
# 5 0.001650 -0.006044 0.006436 -0.011827 0.066632 0.007594
# 6 -0.000284 -0.001957 0.004236 -0.006863 0.007594 0.034470
#
#
# Mechanical properties :
#
#
# Convention : Reuss Voigt Hill
#
# Bulk Modulus (GPa) = 23.02495 43.52530 33.27512
# Shear Modulus (GPa) = 21.34009 28.60173 24.97091
#
# Velocity S-wave (km/s) = 3.18068 3.68229 3.44064
# Velocity P-wave (km/s) = 4.94009 6.22199 5.61772
#
# Compressibility (1/GPa) = 0.04343115
#
# Stress axis : x y z
#
# Youngs Moduli (GPa) = 92.73191 107.06877 28.00128
#
# Poissons Ratio (x) = 0.34700 -0.00124
# Poissons Ratio (y) = 0.30054 0.08417
# Poissons Ratio (z) = -0.00412 0.32185
#
# Static dielectric constant tensor:
#      x y z
#    x 1.778820 -0.001960 -0.006290 
#    y -0.001960 1.754930 -0.040540 
#    z -0.006290 -0.040540 1.813140 
# 
# From -- ./inp_files/329499.got.cif
#   From: 2010.05.17/outbox.cif.g08.bks.cpg/sg2_165_cif.got.tgz:329499.got - 2010.06.03 11:33:40.
