data_PCOD9059854
_publ_section_title
;
Structure prediction by ZEFSAII (Michael W. Deem and Ramdas Pophale) SiO2 
 PCOD9059854
Probable space group: P -1
;
_chemical_formula_sum "Si O2"
_cell_formula_units_Z 14
_cell_length_a 24.708583
_cell_length_b 5.013987
_cell_length_c 5.484636
_cell_angle_alpha 95.066798
_cell_angle_beta 64.361116
_cell_angle_gamma 119.698083
_cell_volume 525.178522
_symmetry_space_group_name_H-M "P -1"
_symmetry_group_IT_number 2
_symmetry_cell_setting 'triclinic'
loop_
_space_group_symop_operation_xyz
x,y,z
-x,-y,-z
loop_
_atom_site_type_symbol
_atom_site_label
_atom_site_fract_x
_atom_site_fract_y
_atom_site_fract_z
Si Si1 0.544488 0.342611 0.824378
Si Si2 0.945930 0.638812 0.263434
Si Si3 0.798917 0.202883 0.549411
Si Si4 0.919754 0.891344 0.827856
Si Si5 0.226343 0.378670 0.702035
Si Si6 0.368517 0.795987 0.693076
Si Si7 0.660423 0.748681 0.981013
O O1 0.568089 0.243719 0.524541
O O2 0.500000 0.500000 0.000000
O O3 0.619462 0.615336 0.799823
O O4 0.500000 0.000000 0.000000
O O5 0.879603 0.304605 0.434938
O O6 0.936099 0.837337 0.516652
O O7 0.936077 0.728379 0.014365
O O8 0.026809 0.747991 0.168734
O O9 0.798005 0.498957 0.470192
O O10 0.771218 0.928787 0.383480
O O11 0.739324 0.036719 0.852922
O O12 0.836633 0.737776 0.992748
O O13 0.303336 0.658849 0.627950
O O14 0.338288 0.548919 0.949230
O O15 0.384123 0.131555 0.772828
#
# Coordination Sequence:
#
# PCOD9059854 Si02
#       7
#     2   2   2   2   2   2   2
#     4  12  28  48  72 102 143 180 225 288 360 430
#     4   9  19  38  63  97 139 186 239 297 359 424
#     4  11  23  42  70 100 137 182 233 288 353 421
#     4   9  19  38  63  97 139 186 239 297 359 424
#     4  11  23  42  70 100 137 182 233 288 353 421
#     4  12  26  45  74 104 138 182 236 290 349 425
#     4  12  26  45  74 104 138 182 236 290 349 425
#
# _framework density 26.657601
#
# number of rings (size 3 to 8) (size 9 to 14) (size 15 to 20)
#    0.000    1.143    1.429    4.286    2.000    6.286 
#    0.000    0.000    0.000   16.286    0.000    0.000 
#    0.000    0.000    0.000    0.000    0.000    0.000 
#
# Total GULP energy -78091.651398 kJ/mol
# GULP energy per Si atom -5577.975100 kJ/mol
# Density = 2.659693 g / cm^3
# Si number density = 26.657601 Si / 1000 Ang^3
#
#
#
# Elastic Constant Matrix: (Units=GPa)
#
#
# Indices 1 2 3 4 5 6 
#
# 1 77.3194 40.8956 37.3364 8.5296 -16.8099 -5.0099
# 2 40.8956 117.5444 17.8245 -1.4734 -10.2625 14.1584
# 3 37.3364 17.8245 95.0661 0.4344 -18.9947 -6.7991
# 4 8.5296 -1.4734 0.4344 47.2263 6.4092 -10.5577
# 5 -16.8099 -10.2625 -18.9947 6.4092 34.7669 2.9456
# 6 -5.0099 14.1584 -6.7991 -10.5577 2.9456 46.4365
#
#
#
# Elastic Compliance Matrix: (Units=1/GPa)
#
#
# Indices 1 2 3 4 5 6 
#
# 1 0.020782 -0.006154 -0.005704 -0.004233 0.005730 0.001957
# 2 -0.006154 0.011166 0.000169 0.000480 0.000661 -0.003976
# 3 -0.005704 0.000169 0.013726 0.000549 0.004590 0.001177
# 4 -0.004233 0.000480 0.000549 0.024026 -0.006488 0.005351
# 5 0.005730 0.000661 0.004590 -0.006488 0.035657 -0.002648
# 6 0.001957 -0.003976 0.001177 0.005351 -0.002648 0.024515
#
#
# Mechanical properties :
#
#
# Convention : Reuss Voigt Hill
#
# Bulk Modulus (GPa) = 44.85111 53.56032 49.20572
# Shear Modulus (GPa) = 31.11725 38.61083 34.86404
#
# Velocity S-wave (km/s) = 3.42027 3.80991 3.62034
# Velocity P-wave (km/s) = 5.69729 6.28406 5.99786
#
# Compressibility (1/GPa) = 0.02229599
#
# Stress axis : x y z
#
# Youngs Moduli (GPa) = 48.11786 89.56060 72.85275
#
# Poissons Ratio (x) = 0.55117 0.41555
# Poissons Ratio (y) = 0.29612 -0.01231
# Poissons Ratio (z) = 0.27446 -0.01513
#
# Static dielectric constant tensor:
#      x y z
#    x 2.374370 0.109570 -0.041860 
#    y 0.109570 2.058200 -0.012400 
#    z -0.041860 -0.012400 2.226770 
# 
# From -- ./inp_files/125573.got.cif
#   From: 2010.05.17/outbox.cif.g08.bks.cpg/sg2_63_cif.got.tgz:125573.got - 2010.06.03 11:33:40.
