data_PCOD9059601
_publ_section_title
;
Structure prediction by ZEFSAII (Michael W. Deem and Ramdas Pophale) SiO2 
 PCOD9059601
Probable space group: P -1
;
_chemical_formula_sum "Si O2"
_cell_formula_units_Z 16
_cell_length_a 5.919848
_cell_length_b 9.260212
_cell_length_c 18.220174
_cell_angle_alpha 75.990962
_cell_angle_beta 51.005701
_cell_angle_gamma 78.626869
_cell_volume 751.862328
_symmetry_space_group_name_H-M "P -1"
_symmetry_group_IT_number 2
_symmetry_cell_setting 'triclinic'
loop_
_space_group_symop_operation_xyz
x,y,z
-x,-y,-z
loop_
_atom_site_type_symbol
_atom_site_label
_atom_site_fract_x
_atom_site_fract_y
_atom_site_fract_z
Si Si1 0.668980 0.379929 0.531822
Si Si2 0.241319 0.922268 0.516647
Si Si3 0.242404 0.794954 0.080486
Si Si4 0.181656 0.640451 0.964893
Si Si5 0.881495 0.238781 0.296001
Si Si6 0.341033 0.427037 0.353922
Si Si7 0.270640 0.502901 0.194153
Si Si8 0.894347 0.873389 0.889207
O O1 0.500000 0.500000 0.500000
O O2 0.599884 0.213235 0.545490
O O3 0.605936 0.435231 0.619938
O O4 0.009393 0.392234 0.442739
O O5 0.067408 0.848485 0.628228
O O6 0.500000 0.000000 0.500000
O O7 0.000000 0.000000 0.500000
O O8 0.233909 0.676050 0.162070
O O9 0.095063 0.954565 0.111726
O O10 0.104149 0.714741 0.049159
O O11 0.574322 0.823654 0.984603
O O12 0.510219 0.573201 0.901053
O O13 0.122663 0.767942 0.900905
O O14 0.000000 0.500000 0.000000
O O15 0.539661 0.277851 0.348873
O O16 0.994134 0.404880 0.257453
O O17 0.035887 0.154312 0.206839
O O18 0.390891 0.473929 0.254557
#
# Coordination Sequence:
#
# PCOD9059601 Si02
#       8
#     2   2   2   2   2   2   2   2
#     4  11  23  46  75 100 136 186 235 300 358 434
#     4  12  28  48  75 108 151 191 239 303 384 447
#     4  11  25  42  63 105 135 183 230 296 352 418
#     4  12  22  40  68  97 136 192 236 286 352 429
#     4  12  24  46  70 103 138 193 239 297 355 448
#     4  11  23  41  75 102 137 178 252 295 359 426
#     4  12  23  40  72  99 138 180 251 288 349 433
#     4  11  24  44  67  95 148 180 227 293 362 414
#
# _framework density 21.280494000000001
#
# number of rings (size 3 to 8) (size 9 to 14) (size 15 to 20)
#    0.000    0.500    6.250    2.250    1.750    1.000 
#    2.250    0.000    0.000    0.000    0.000    0.000 
#    0.000    0.000    0.000    0.000    0.000    0.000 
#
# Total GULP energy -89405.570712 kJ/mol
# GULP energy per Si atom -5587.848170 kJ/mol
# Density = 2.123206 g / cm^3
# Si number density = 21.280494 Si / 1000 Ang^3
#
#
#
# Elastic Constant Matrix: (Units=GPa)
#
#
# Indices 1 2 3 4 5 6 
#
# 1 92.3180 56.8963 28.3212 -2.3653 11.6843 -0.2517
# 2 56.8963 163.4152 37.1728 2.7706 13.7333 5.3217
# 3 28.3212 37.1728 79.4621 -0.5450 19.1962 -6.4290
# 4 -2.3653 2.7706 -0.5450 29.6313 1.8326 12.4840
# 5 11.6843 13.7333 19.1962 1.8326 49.0379 2.1856
# 6 -0.2517 5.3217 -6.4290 12.4840 2.1856 42.6314
#
#
#
# Elastic Compliance Matrix: (Units=1/GPa)
#
#
# Indices 1 2 3 4 5 6 
#
# 1 0.014588 -0.004343 -0.002890 0.001693 -0.001181 -0.000243
# 2 -0.004343 0.008237 -0.002340 -0.000634 -0.000278 -0.001207
# 3 -0.002890 -0.002340 0.016198 -0.000745 -0.005111 0.003198
# 4 0.001693 -0.000634 -0.000745 0.038755 -0.000877 -0.011327
# 5 -0.001181 -0.000278 -0.005111 -0.000877 0.022859 -0.001658
# 6 -0.000243 -0.001207 0.003198 -0.011327 -0.001658 0.027490
#
#
# Mechanical properties :
#
#
# Convention : Reuss Voigt Hill
#
# Bulk Modulus (GPa) = 50.31299 64.44176 57.37737
# Shear Modulus (GPa) = 32.48853 38.44712 35.46783
#
# Velocity S-wave (km/s) = 3.91152 4.25512 4.08693
# Velocity P-wave (km/s) = 6.64033 7.38168 7.02080
#
# Compressibility (1/GPa) = 0.01987558
#
# Stress axis : x y z
#
# Youngs Moduli (GPa) = 68.55135 121.39877 61.73612
#
# Poissons Ratio (x) = 0.52724 0.17844
# Poissons Ratio (y) = 0.29772 0.14448
# Poissons Ratio (z) = 0.19814 0.28410
#
# Static dielectric constant tensor:
#      x y z
#    x 1.818340 0.048040 -0.008000 
#    y 0.048040 1.771910 -0.047250 
#    z -0.008000 -0.047250 1.785680 
# 
# From -- ./inp_files/89864.got.cif
#   From: 2010.05.17/outbox.cif.g08.bks.cpg/sg2_45_cif.got.tgz:89864.got - 2010.06.03 11:33:40.
