data_PCOD9059922
_publ_section_title
;
Structure prediction by ZEFSAII (Michael W. Deem and Ramdas Pophale) SiO2 
 PCOD9059922
Probable space group: P -1
;
_chemical_formula_sum "Si O2"
_cell_formula_units_Z 12
_cell_length_a 5.343386
_cell_length_b 15.383276
_cell_length_c 15.151737
_cell_angle_alpha 153.093687
_cell_angle_beta 117.474313
_cell_angle_gamma 63.295639
_cell_volume 497.801882
_symmetry_space_group_name_H-M "P -1"
_symmetry_group_IT_number 2
_symmetry_cell_setting 'triclinic'
loop_
_space_group_symop_operation_xyz
x,y,z
-x,-y,-z
loop_
_atom_site_type_symbol
_atom_site_label
_atom_site_fract_x
_atom_site_fract_y
_atom_site_fract_z
Si Si1 0.421219 0.237087 0.029232
Si Si2 0.940991 0.673343 0.218486
Si Si3 0.545001 0.058143 0.657236
Si Si4 0.582716 0.176550 0.436394
Si Si5 0.330931 0.523223 0.584749
Si Si6 0.207267 0.609406 0.929490
O O1 0.373264 0.018687 0.793969
O O2 0.621926 0.271656 0.176128
O O3 0.578845 0.344636 0.072285
O O4 0.122554 0.352344 0.112707
O O5 0.768736 0.837122 0.280651
O O6 0.745892 0.584786 0.182488
O O7 0.180744 0.757133 0.395295
O O8 0.000000 0.500000 0.000000
O O9 0.500000 0.000000 0.500000
O O10 0.642815 0.894473 0.594327
O O11 0.752663 0.220853 0.842074
O O12 0.463858 0.353278 0.517438
O O13 0.500000 0.500000 0.500000
O O14 0.000000 0.500000 0.500000
#
# Coordination Sequence:
#
# PCOD9059922 Si02
#       6
#     2   2   2   2   2   2
#     4  11  25  49  75 109 146 193 247 308 385 438
#     4  12  23  42  72 112 156 207 250 294 366 453
#     4  11  24  38  66 111 153 201 252 292 367 449
#     4  11  26  46  76 107 158 195 244 319 365 443
#     4  12  29  51  81 109 140 192 255 318 391 446
#     4  11  23  42  71 103 153 197 238 301 354 440
#
# _framework density 24.105974
#
# number of rings (size 3 to 8) (size 9 to 14) (size 15 to 20)
#    0.000    0.667    1.667    6.000    2.333    4.000 
#    0.000    0.000    0.000    0.000    0.000    0.000 
#    0.000    0.000    0.000    0.000    0.000    0.000 
#
# Total GULP energy -66966.796356 kJ/mol
# GULP energy per Si atom -5580.566363 kJ/mol
# Density = 2.405111 g / cm^3
# Si number density = 24.105974 Si / 1000 Ang^3
#
#
#
# Elastic Constant Matrix: (Units=GPa)
#
#
# Indices 1 2 3 4 5 6 
#
# 1 103.8296 38.1346 42.9043 -10.3709 5.1867 -2.0184
# 2 38.1346 110.8044 57.2062 0.8653 3.5523 0.3025
# 3 42.9043 57.2062 183.0999 -24.2796 5.9312 1.7596
# 4 -10.3709 0.8653 -24.2796 49.8803 0.3906 10.5533
# 5 5.1867 3.5523 5.9312 0.3906 51.0801 -10.7280
# 6 -2.0184 0.3025 1.7596 10.5533 -10.7280 31.7373
#
#
#
# Elastic Compliance Matrix: (Units=1/GPa)
#
#
# Indices 1 2 3 4 5 6 
#
# 1 0.011640 -0.003245 -0.001452 0.001778 -0.000804 -0.000011
# 2 -0.003245 0.011866 -0.003309 -0.002655 0.000071 0.000771
# 3 -0.001452 -0.003309 0.007389 0.003793 -0.000940 -0.002049
# 4 0.001778 -0.002655 0.003793 0.024229 -0.002507 -0.008976
# 5 -0.000804 0.000071 -0.000940 -0.002507 0.021482 0.008095
# 6 -0.000011 0.000771 -0.002049 -0.008976 0.008095 0.037335
#
#
# Mechanical properties :
#
#
# Convention : Reuss Voigt Hill
#
# Bulk Modulus (GPa) = 67.18405 74.91378 71.04892
# Shear Modulus (GPa) = 37.06071 43.83878 40.44975
#
# Velocity S-wave (km/s) = 3.92523 4.26911 4.10078
# Velocity P-wave (km/s) = 6.96233 7.44612 7.20829
#
# Compressibility (1/GPa) = 0.01488448
#
# Stress axis : x y z
#
# Youngs Moduli (GPa) = 85.90773 84.27267 135.34420
#
# Poissons Ratio (x) = 0.27344 0.19650
# Poissons Ratio (y) = 0.27874 0.44783
# Poissons Ratio (z) = 0.12473 0.27884
#
# Static dielectric constant tensor:
#      x y z
#    x 2.180780 -0.111450 -0.110690 
#    y -0.111450 1.931260 0.033130 
#    z -0.110690 0.033130 2.046160 
# 
# From -- ./inp_files/103024.got.cif
#   From: 2010.05.17/outbox.cif.g08.bks.cpg/sg2_52_cif.got.tgz:103024.got - 2010.06.03 11:33:40.
