data_PCOD9059981
_publ_section_title
;
Structure prediction by ZEFSAII (Michael W. Deem and Ramdas Pophale) SiO2 
 PCOD9059981
Probable space group: P -1
;
_chemical_formula_sum "Si O2"
_cell_formula_units_Z 16
_cell_length_a 9.127795
_cell_length_b 14.052322
_cell_length_c 15.514912
_cell_angle_alpha 37.208166
_cell_angle_beta 41.392765
_cell_angle_gamma 39.828977
_cell_volume 719.771156
_symmetry_space_group_name_H-M "P -1"
_symmetry_group_IT_number 2
_symmetry_cell_setting 'triclinic'
loop_
_space_group_symop_operation_xyz
x,y,z
-x,-y,-z
loop_
_atom_site_type_symbol
_atom_site_label
_atom_site_fract_x
_atom_site_fract_y
_atom_site_fract_z
Si Si1 0.676258 0.917985 0.867628
Si Si2 0.869467 0.456076 0.288733
Si Si3 0.450544 0.756874 0.202035
Si Si4 0.778123 0.288484 0.279745
Si Si5 0.329998 0.233083 0.556289
Si Si6 0.620945 0.546281 0.996485
Si Si7 0.718812 0.048037 0.113328
Si Si8 0.890642 0.414120 0.501924
O O1 0.439924 0.003155 0.849465
O O2 0.937732 0.838264 0.765894
O O3 0.683724 0.049522 0.842079
O O4 0.627295 0.764017 0.043792
O O5 0.639723 0.640013 0.274063
O O6 0.774540 0.382864 0.303483
O O7 0.903782 0.365854 0.430722
O O8 0.118045 0.463653 0.143120
O O9 0.264688 0.676314 0.317982
O O10 0.606616 0.190383 0.441075
O O11 0.678647 0.418356 0.147013
O O12 0.233773 0.381569 0.566611
O O13 0.160649 0.333416 0.478933
O O14 0.287739 0.065278 0.720194
O O15 0.435692 0.745014 0.957160
O O16 0.500000 0.500000 0.000000
O O17 0.000000 0.000000 0.000000
#
# Coordination Sequence:
#
# PCOD9059981 Si02
#       8
#     2   2   2   2   2   2   2   2
#     4  11  25  44  73 108 146 189 245 302 359 425
#     4  12  23  44  74 104 142 191 249 293 355 434
#     4  11  23  42  72 106 144 186 244 302 353 431
#     4  12  25  48  76 107 145 192 244 300 360 431
#     4  11  27  46  73 104 151 189 241 302 367 432
#     4  12  28  47  75 108 147 195 239 294 365 442
#     4  12  28  46  72 106 146 189 239 299 369 428
#     4  11  25  44  71 107 144 195 241 297 367 431
#
# _framework density 22.229286999999999
#
# number of rings (size 3 to 8) (size 9 to 14) (size 15 to 20)
#    0.000    0.500    3.750    3.750    8.750    2.500 
#    0.000    1.875    0.000    0.000    0.000    0.000 
#    0.000    0.000    0.000    0.000    0.000    0.000 
#
# Total GULP energy -89409.828664 kJ/mol
# GULP energy per Si atom -5588.114291 kJ/mol
# Density = 2.217869 g / cm^3
# Si number density = 22.229287 Si / 1000 Ang^3
#
#
#
# Elastic Constant Matrix: (Units=GPa)
#
#
# Indices 1 2 3 4 5 6 
#
# 1 108.1716 29.6306 28.3828 16.2226 -2.4895 -11.5892
# 2 29.6306 59.1385 23.1836 6.0335 -19.6382 -4.7332
# 3 28.3828 23.1836 103.5030 18.3989 -16.8175 -13.4828
# 4 16.2226 6.0335 18.3989 27.6768 -5.0956 -6.2235
# 5 -2.4895 -19.6382 -16.8175 -5.0956 34.7475 5.5190
# 6 -11.5892 -4.7332 -13.4828 -6.2235 5.5190 29.9218
#
#
#
# Elastic Compliance Matrix: (Units=1/GPa)
#
#
# Indices 1 2 3 4 5 6 
#
# 1 0.012344 -0.006417 -0.001415 -0.005092 -0.004638 0.002925
# 2 -0.006417 0.025053 -0.002254 0.001862 0.013131 -0.001573
# 3 -0.001415 -0.002254 0.012498 -0.005710 0.003373 0.002917
# 4 -0.005092 0.001862 -0.005710 0.044146 0.003724 0.004244
# 5 -0.004638 0.013131 0.003373 0.003724 0.038773 -0.004577
# 6 0.002925 -0.001573 0.002917 0.004244 -0.004577 0.037346
#
#
# Mechanical properties :
#
#
# Convention : Reuss Voigt Hill
#
# Bulk Modulus (GPa) = 33.64503 48.13412 40.88958
# Shear Modulus (GPa) = 24.97019 31.11031 28.04025
#
# Velocity S-wave (km/s) = 3.35521 3.74507 3.55549
# Velocity P-wave (km/s) = 5.49347 6.35620 5.94051
#
# Compressibility (1/GPa) = 0.02972207
#
# Stress axis : x y z
#
# Youngs Moduli (GPa) = 81.01245 39.91578 80.01523
#
# Poissons Ratio (x) = 0.25612 0.11324
# Poissons Ratio (y) = 0.51982 0.18038
# Poissons Ratio (z) = 0.11465 0.08998
#
# Static dielectric constant tensor:
#      x y z
#    x 1.857680 -0.014010 0.063010 
#    y -0.014010 1.823520 -0.037010 
#    z 0.063010 -0.037010 1.860900 
# 
# From -- ./inp_files/335636.got.cif
#   From: 2010.05.17/outbox.cif.g08.bks.cpg/sg2_168_cif.got.tgz:335636.got - 2010.06.03 11:33:40.
