data_PCOD9059041
_publ_section_title
;
Structure prediction by ZEFSAII (Michael W. Deem and Ramdas Pophale) SiO2 
 PCOD9059041
Probable space group: P -1
;
_chemical_formula_sum "Si O2"
_cell_formula_units_Z 16
_cell_length_a 10.005794
_cell_length_b 14.167287
_cell_length_c 12.484710
_cell_angle_alpha 113.407379
_cell_angle_beta 123.670705
_cell_angle_gamma 115.729792
_cell_volume 696.978541
_symmetry_space_group_name_H-M "P -1"
_symmetry_group_IT_number 2
_symmetry_cell_setting 'triclinic'
loop_
_space_group_symop_operation_xyz
x,y,z
-x,-y,-z
loop_
_atom_site_type_symbol
_atom_site_label
_atom_site_fract_x
_atom_site_fract_y
_atom_site_fract_z
Si Si1 0.585493 0.866491 0.146377
Si Si2 0.325065 0.510654 0.915103
Si Si3 0.112948 0.685171 0.018485
Si Si4 0.501659 0.555708 0.412483
Si Si5 0.317601 0.136818 0.260428
Si Si6 0.668803 0.264542 0.260153
Si Si7 0.972102 0.727399 0.526690
Si Si8 0.732838 0.259733 0.657671
O O1 0.538082 0.729374 0.118889
O O2 0.321528 0.791378 0.052988
O O3 0.529981 0.826531 0.976211
O O4 0.906450 0.104395 0.404354
O O5 0.201994 0.442065 0.708900
O O6 0.013089 0.344533 0.773056
O O7 0.500000 0.500000 0.000000
O O8 0.849158 0.627774 0.870535
O O9 0.910681 0.468338 0.833346
O O10 0.320009 0.800561 0.269896
O O11 0.500000 0.500000 0.500000
O O12 0.618687 0.733070 0.573883
O O13 0.737018 0.630145 0.470956
O O14 0.529463 0.232908 0.293466
O O15 0.433199 0.106807 0.377703
O O16 0.000000 0.000000 0.000000
O O17 0.000000 0.500000 0.500000
O O18 0.738083 0.181177 0.264184
#
# Coordination Sequence:
#
# PCOD9059041 Si02
#       8
#     2   2   2   2   2   2   2   2
#     4  11  24  41  69 105 134 184 233 291 348 416
#     4  11  23  43  69  98 141 188 233 284 353 417
#     4   9  19  39  69  92 134 183 225 283 348 406
#     4  11  23  40  64 105 136 179 236 281 346 424
#     4  11  23  40  66  98 135 176 220 286 349 412
#     4  12  21  43  71  97 138 180 228 284 357 417
#     4  12  24  42  70 103 139 180 232 290 349 419
#     4   9  18  41  66  93 130 184 230 277 345 418
#
# _framework density 22.956230000000001
#
# number of rings (size 3 to 8) (size 9 to 14) (size 15 to 20)
#    0.000    1.250    2.500    4.875    0.000    2.500 
#    0.000    1.875    2.750    0.000    0.000    0.000 
#    0.000    0.000    0.000    0.000    0.000    0.000 
#
# Total GULP energy -89310.208265 kJ/mol
# GULP energy per Si atom -5581.888017 kJ/mol
# Density = 2.290398 g / cm^3
# Si number density = 22.956230 Si / 1000 Ang^3
#
#
#
# Elastic Constant Matrix: (Units=GPa)
#
#
# Indices 1 2 3 4 5 6 
#
# 1 54.1148 -16.0361 -15.1001 14.9683 -0.8065 5.1862
# 2 -16.0361 47.7119 5.0523 5.2457 6.6308 -3.2040
# 3 -15.1001 5.0523 82.0562 -8.5417 4.6523 -4.4504
# 4 14.9683 5.2457 -8.5417 34.3406 -2.2973 -0.4621
# 5 -0.8065 6.6308 4.6523 -2.2973 32.6782 -14.8350
# 6 5.1862 -3.2040 -4.4504 -0.4621 -14.8350 38.0512
#
#
#
# Elastic Compliance Matrix: (Units=1/GPa)
#
#
# Indices 1 2 3 4 5 6 
#
# 1 0.026158 0.010234 0.002901 -0.012617 -0.004707 -0.004352
# 2 0.010234 0.026210 -0.000404 -0.009024 -0.006495 -0.001877
# 3 0.002901 -0.000404 0.013057 0.001967 -0.001285 0.000620
# 4 -0.012617 -0.009024 0.001967 0.036911 0.005563 0.003807
# 5 -0.004707 -0.006495 -0.001285 0.005563 0.039346 0.015352
# 6 -0.004352 -0.001877 0.000620 0.003807 0.015352 0.032820
#
#
# Mechanical properties :
#
#
# Convention : Reuss Voigt Hill
#
# Bulk Modulus (GPa) = 11.00264 14.63501 12.81882
# Shear Modulus (GPa) = 27.88073 35.01179 31.44626
#
# Velocity S-wave (km/s) = 3.48877 3.90956 3.70514
# Velocity P-wave (km/s) = 4.58607 5.17383 4.88879
#
# Compressibility (1/GPa) = 0.09088729
#
# Stress axis : x y z
#
# Youngs Moduli (GPa) = 38.22904 38.15308 76.58862
#
# Poissons Ratio (x) = -0.39044 -0.22218
# Poissons Ratio (y) = -0.39122 0.03091
# Poissons Ratio (z) = -0.11090 0.01540
#
# Static dielectric constant tensor:
#      x y z
#    x 1.828440 -0.050850 -0.019950 
#    y -0.050850 1.815820 0.113550 
#    z -0.019950 0.113550 1.747460 
# 
# From -- ./inp_files/399477.got.cif
#   From: 2010.05.17/outbox.cif.g08.bks.cpg/sg2_200_cif.got.tgz:399477.got - 2010.06.03 11:33:40.
