data_PCOD9059901
_publ_section_title
;
Structure prediction by ZEFSAII (Michael W. Deem and Ramdas Pophale) SiO2 
 PCOD9059901
Probable space group: P -1
;
_chemical_formula_sum "Si O2"
_cell_formula_units_Z 14
_cell_length_a 11.660784
_cell_length_b 8.177035
_cell_length_c 12.378191
_cell_angle_alpha 80.008548
_cell_angle_beta 51.112001
_cell_angle_gamma 46.088319
_cell_volume 585.207196
_symmetry_space_group_name_H-M "P -1"
_symmetry_group_IT_number 2
_symmetry_cell_setting 'triclinic'
loop_
_space_group_symop_operation_xyz
x,y,z
-x,-y,-z
loop_
_atom_site_type_symbol
_atom_site_label
_atom_site_fract_x
_atom_site_fract_y
_atom_site_fract_z
Si Si1 0.973020 0.124763 0.156103
Si Si2 0.929917 0.532049 0.162348
Si Si3 0.306633 0.914934 0.565270
Si Si4 0.483003 0.402256 0.741979
Si Si5 0.506974 0.670564 0.847039
Si Si6 0.622024 0.724380 0.989797
Si Si7 0.553302 0.874467 0.612650
O O1 0.895114 0.027320 0.276840
O O2 0.777576 0.318190 0.159275
O O3 0.950463 0.321746 0.207436
O O4 0.231347 0.899977 0.988731
O O5 0.111741 0.476205 0.129388
O O6 0.678870 0.819032 0.284046
O O7 0.000000 0.500000 0.000000
O O8 0.407141 0.730552 0.423422
O O9 0.264043 0.141636 0.524896
O O10 0.487630 0.789598 0.571921
O O11 0.594268 0.444119 0.748597
O O12 0.474123 0.250520 0.841073
O O13 0.582144 0.624995 0.930882
O O14 0.583048 0.765334 0.722635
O O15 0.500000 0.000000 0.000000
#
# Coordination Sequence:
#
# PCOD9059901 Si02
#       7
#     2   2   2   2   2   2   2
#     4  12  23  41  69 106 129 171 222 283 327 387
#     4  12  21  40  70  99 128 172 229 282 322 382
#     4  11  25  40  69 100 139 173 220 279 334 394
#     4  12  24  43  68  98 138 177 223 271 334 398
#     4  12  25  42  71 102 135 175 223 278 335 393
#     4  12  24  43  68  99 137 174 225 281 329 393
#     4  11  23  42  71 100 132 174 229 273 332 399
#
# _framework density 23.923151000000001
#
# number of rings (size 3 to 8) (size 9 to 14) (size 15 to 20)
#    0.000    0.286    7.143    2.143    2.000    0.000 
#    0.000    0.714    0.000    5.143    0.000    0.000 
#    0.000    0.000    0.000    0.000    0.000    0.000 
#
# Total GULP energy -78304.298367 kJ/mol
# GULP energy per Si atom -5593.164169 kJ/mol
# Density = 2.386870 g / cm^3
# Si number density = 23.923151 Si / 1000 Ang^3
#
#
#
# Elastic Constant Matrix: (Units=GPa)
#
#
# Indices 1 2 3 4 5 6 
#
# 1 117.0122 14.3472 26.7879 -5.2076 23.8478 24.4322
# 2 14.3472 68.5860 44.3731 -18.1718 -8.8126 18.3579
# 3 26.7879 44.3731 103.6865 -27.2498 6.1155 9.3218
# 4 -5.2076 -18.1718 -27.2498 38.4601 18.7229 1.9823
# 5 23.8478 -8.8126 6.1155 18.7229 41.7108 -7.2153
# 6 24.4322 18.3579 9.3218 1.9823 -7.2153 37.6670
#
#
#
# Elastic Compliance Matrix: (Units=1/GPa)
#
#
# Indices 1 2 3 4 5 6 
#
# 1 0.015036 0.001071 0.001070 0.012022 -0.016399 -0.014314
# 2 0.001071 0.024178 -0.008323 0.005510 0.001438 -0.010433
# 3 0.001070 -0.008323 0.018152 0.015508 -0.012752 -0.004389
# 4 0.012022 0.005510 0.015508 0.062113 -0.040240 -0.025298
# 5 -0.016399 0.001438 -0.012752 -0.040240 0.058145 0.026348
# 6 -0.014314 -0.010433 -0.004389 -0.025298 0.026348 0.048383
#
#
# Mechanical properties :
#
#
# Convention : Reuss Voigt Hill
#
# Bulk Modulus (GPa) = 22.22017 51.14457 36.68237
# Shear Modulus (GPa) = 19.73412 37.15268 28.44340
#
# Velocity S-wave (km/s) = 2.87522 3.94509 3.45185
# Velocity P-wave (km/s) = 4.50897 6.49436 5.59051
#
# Compressibility (1/GPa) = 0.04500416
#
# Stress axis : x y z
#
# Youngs Moduli (GPa) = 66.50814 41.36028 55.09060
#
# Poissons Ratio (x) = -0.04432 -0.05897
# Poissons Ratio (y) = -0.07126 0.45850
# Poissons Ratio (z) = -0.07120 0.34423
#
# Static dielectric constant tensor:
#      x y z
#    x 1.959620 0.064730 -0.002330 
#    y 0.064730 1.922250 -0.019330 
#    z -0.002330 -0.019330 1.947510 
# 
# From -- ./inp_files/417037.got.cif
#   From: 2010.05.17/outbox.cif.g08.bks.cpg/sg2_209_cif.got.tgz:417037.got - 2010.06.03 11:33:40.
