data_PCOD9059377
_publ_section_title
;
Structure prediction by ZEFSAII (Michael W. Deem and Ramdas Pophale) SiO2 
 PCOD9059377
Probable space group: P -1
;
_chemical_formula_sum "Si O2"
_cell_formula_units_Z 16
_cell_length_a 18.712015
_cell_length_b 15.283313
_cell_length_c 12.142127
_cell_angle_alpha 133.138715
_cell_angle_beta 149.557740
_cell_angle_gamma 26.188542
_cell_volume 710.983310
_symmetry_space_group_name_H-M "P -1"
_symmetry_group_IT_number 2
_symmetry_cell_setting 'triclinic'
loop_
_space_group_symop_operation_xyz
x,y,z
-x,-y,-z
loop_
_atom_site_type_symbol
_atom_site_label
_atom_site_fract_x
_atom_site_fract_y
_atom_site_fract_z
Si Si1 0.200005 0.607483 0.033863
Si Si2 0.938784 0.680128 0.553857
Si Si3 0.307885 0.716367 0.722699
Si Si4 0.789517 0.341039 0.257487
Si Si5 0.855391 0.096497 0.771644
Si Si6 0.593474 0.925783 0.934750
Si Si7 0.916987 0.887047 0.206718
Si Si8 0.699526 0.581060 0.775533
O O1 0.978223 0.712930 0.753864
O O2 0.405381 0.500462 0.122218
O O3 0.120659 0.785981 0.141017
O O4 0.326665 0.429857 0.137759
O O5 0.000000 0.500000 0.500000
O O6 0.131236 0.594130 0.641524
O O7 0.657665 0.900219 0.324916
O O8 0.193308 0.686242 0.612814
O O9 0.147710 0.813660 0.482540
O O10 0.275938 0.866930 0.871175
O O11 0.500000 0.500000 0.000000
O O12 0.984428 0.110184 0.263562
O O13 0.556043 0.273753 0.508730
O O14 0.000000 0.000000 0.000000
O O15 0.736733 0.697121 0.913139
O O16 0.748726 0.932796 0.111155
O O17 0.500000 0.000000 0.000000
O O18 0.062111 0.672755 0.157431
#
# Coordination Sequence:
#
# PCOD9059377 Si02
#       8
#     2   2   2   2   2   2   2   2
#     4  12  24  45  70 105 138 187 233 292 360 414
#     4  12  25  46  71 101 143 183 231 289 357 420
#     4  11  23  41  67 106 136 178 236 302 338 423
#     4  12  24  42  69 103 137 179 238 288 353 411
#     4  12  23  44  68 104 141 179 231 295 357 414
#     4  12  25  47  71  99 140 190 237 290 357 431
#     4  11  25  41  69 102 141 180 241 287 354 416
#     4  12  25  44  70 100 141 190 233 291 357 428
#
# _framework density 22.504044
#
# number of rings (size 3 to 8) (size 9 to 14) (size 15 to 20)
#    0.000    0.250    5.000    4.500    3.500    0.000 
#    0.000    0.625    0.000    0.000    0.000    0.000 
#    0.000    0.000    0.000    0.000    0.000    0.000 
#
# Total GULP energy -89188.957014 kJ/mol
# GULP energy per Si atom -5574.309813 kJ/mol
# Density = 2.245282 g / cm^3
# Si number density = 22.504044 Si / 1000 Ang^3
#
#
#
# Elastic Constant Matrix: (Units=GPa)
#
#
# Indices 1 2 3 4 5 6 
#
# 1 111.9781 26.2451 19.1895 -6.2344 15.0078 21.6877
# 2 26.2451 110.3242 0.0920 8.1531 11.4505 18.3274
# 3 19.1895 0.0920 94.2927 -10.9828 -4.3688 8.4331
# 4 -6.2344 8.1531 -10.9828 33.7220 5.5487 5.6957
# 5 15.0078 11.4505 -4.3688 5.5487 35.5126 5.6028
# 6 21.6877 18.3274 8.4331 5.6957 5.6028 46.0141
#
#
#
# Elastic Compliance Matrix: (Units=1/GPa)
#
#
# Indices 1 2 3 4 5 6 
#
# 1 0.011199 -0.001780 -0.001713 0.003342 -0.004237 -0.004153
# 2 -0.001780 0.010290 0.000299 -0.001945 -0.001774 -0.002858
# 3 -0.001713 0.000299 0.011628 0.003448 0.001850 -0.002095
# 4 0.003342 -0.001945 0.003448 0.033499 -0.004807 -0.004993
# 5 -0.004237 -0.001774 0.001850 -0.004807 0.031641 -0.000893
# 6 -0.004153 -0.002858 -0.002095 -0.004993 -0.000893 0.025939
#
#
# Mechanical properties :
#
#
# Convention : Reuss Voigt Hill
#
# Bulk Modulus (GPa) = 37.41199 45.29424 41.35312
# Shear Modulus (GPa) = 35.84355 41.12095 38.48225
#
# Velocity S-wave (km/s) = 3.99527 4.27929 4.13972
# Velocity P-wave (km/s) = 6.15983 6.67738 6.42382
#
# Compressibility (1/GPa) = 0.02672940
#
# Stress axis : x y z
#
# Youngs Moduli (GPa) = 89.29083 97.18194 85.99763
#
# Poissons Ratio (x) = 0.17299 0.14732
# Poissons Ratio (y) = 0.15894 -0.02572
# Poissons Ratio (z) = 0.15296 -0.02906
#
# Static dielectric constant tensor:
#      x y z
#    x 1.979690 0.067190 -0.135330 
#    y 0.067190 1.951190 -0.069710 
#    z -0.135330 -0.069710 1.945980 
# 
# From -- ./inp_files/466129.got.cif
#   From: 2010.05.17/outbox.cif.g08.bks.cpg/sg2_234_cif.got.tgz:466129.got - 2010.06.03 11:33:40.
