data_PCOD9059578
_publ_section_title
;
Structure prediction by ZEFSAII (Michael W. Deem and Ramdas Pophale) SiO2 
 PCOD9059578
Probable space group: P -1
;
_chemical_formula_sum "Si O2"
_cell_formula_units_Z 15
_cell_length_a 11.388938
_cell_length_b 8.956077
_cell_length_c 14.239682
_cell_angle_alpha 148.624515
_cell_angle_beta 51.528315
_cell_angle_gamma 116.499941
_cell_volume 579.046120
_symmetry_space_group_name_H-M "P -1"
_symmetry_group_IT_number 2
_symmetry_cell_setting 'triclinic'
loop_
_space_group_symop_operation_xyz
x,y,z
-x,-y,-z
loop_
_atom_site_type_symbol
_atom_site_label
_atom_site_fract_x
_atom_site_fract_y
_atom_site_fract_z
Si Si1 0.500000 0.000000 0.500000
Si Si2 0.343398 0.424954 0.650246
Si Si3 0.424181 0.382361 0.064201
Si Si4 0.407216 0.184639 0.281219
Si Si5 0.748970 0.870446 0.132808
Si Si6 0.108155 0.617120 0.615598
Si Si7 0.122342 0.760318 0.473904
Si Si8 0.018533 0.424531 0.841220
O O1 0.624067 0.767828 0.375665
O O2 0.619102 0.956559 0.324009
O O3 0.375946 0.237700 0.436934
O O4 0.456834 0.648725 0.718742
O O5 0.162606 0.554508 0.805733
O O6 0.307251 0.642558 0.313298
O O7 0.500000 0.500000 0.000000
O O8 0.324991 0.176231 0.954259
O O9 0.545618 0.162865 0.948047
O O10 0.254569 0.346131 0.390953
O O11 0.837322 0.132915 0.219563
O O12 0.862607 0.573124 0.948186
O O13 0.076792 0.765976 0.608932
O O14 0.969563 0.479383 0.646757
O O15 0.066989 0.071482 0.619519
O O16 0.000000 0.500000 0.000000
#
# Coordination Sequence:
#
# PCOD9059578 Si02
#       8
#     1   2   2   2   2   2   2   2
#     4  12  20  44  74 108 146 184 254 300 354 440
#     4  11  23  41  73 109 143 183 255 302 354 446
#     4  12  29  47  71 109 153 190 251 310 382 430
#     4  11  24  45  70 106 147 193 239 307 374 434
#     4  12  26  45  78 109 140 208 241 303 371 450
#     4  11  25  48  74 104 150 193 252 302 374 440
#     4  11  28  48  69 109 152 193 245 319 360 446
#     4  12  25  45  77 105 144 195 255 296 371 447
#
# _framework density 25.904671
#
# number of rings (size 3 to 8) (size 9 to 14) (size 15 to 20)
#    0.000    0.533    5.333    1.600    7.467    1.600 
#    0.000    0.000    0.000    0.000    0.000    0.000 
#    0.000    0.000    0.000    0.000    0.000    0.000 
#
# Total GULP energy -83888.449161 kJ/mol
# GULP energy per Si atom -5592.563277 kJ/mol
# Density = 2.584571 g / cm^3
# Si number density = 25.904671 Si / 1000 Ang^3
#
#
#
# Elastic Constant Matrix: (Units=GPa)
#
#
# Indices 1 2 3 4 5 6 
#
# 1 44.6887 12.8120 2.2246 6.4026 -18.2236 -17.0652
# 2 12.8120 99.7539 33.2252 -2.7614 -4.5658 3.7794
# 3 2.2246 33.2252 107.1040 2.5471 -30.3050 -1.2801
# 4 6.4026 -2.7614 2.5471 45.0852 -6.0339 -9.2997
# 5 -18.2236 -4.5658 -30.3050 -6.0339 54.8358 -0.8346
# 6 -17.0652 3.7794 -1.2801 -9.2997 -0.8346 43.6623
#
#
#
# Elastic Compliance Matrix: (Units=1/GPa)
#
#
# Indices 1 2 3 4 5 6 
#
# 1 0.035543 -0.006317 0.005510 -0.000775 0.014470 0.014712
# 2 -0.006317 0.012433 -0.004837 0.000690 -0.003716 -0.003611
# 3 0.005510 -0.004837 0.013249 -0.000005 0.008798 0.003128
# 4 -0.000775 0.000690 -0.000005 0.023637 0.002470 0.004719
# 5 0.014470 -0.003716 0.008798 0.002470 0.027981 0.007296
# 6 0.014712 -0.003611 0.003128 0.004719 0.007296 0.030202
#
#
# Mechanical properties :
#
#
# Convention : Reuss Voigt Hill
#
# Bulk Modulus (GPa) = 20.02467 38.67446 29.34956
# Shear Modulus (GPa) = 29.24350 42.26897 35.75624
#
# Velocity S-wave (km/s) = 3.36354 4.04383 3.71927
# Velocity P-wave (km/s) = 4.77823 6.06344 5.45879
#
# Compressibility (1/GPa) = 0.04993841
#
# Stress axis : x y z
#
# Youngs Moduli (GPa) = 28.13464 80.43287 75.47457
#
# Poissons Ratio (x) = 0.50807 -0.41585
# Poissons Ratio (y) = 0.17772 0.36504
# Poissons Ratio (z) = -0.15502 0.38902
#
# Static dielectric constant tensor:
#      x y z
#    x 2.071060 0.061300 0.061730 
#    y 0.061300 1.986850 0.027100 
#    z 0.061730 0.027100 2.139010 
# 
# From -- ./inp_files/516448.got.cif
#   From: 2010.05.17/outbox.cif.g08.bks.cpg/sg2_259_cif.got.tgz:516448.got - 2010.06.03 11:33:40.
