data_PCOD9059359
_publ_section_title
;
Structure prediction by ZEFSAII (Michael W. Deem and Ramdas Pophale) SiO2 
 PCOD9059359
Probable space group: P -1
;
_chemical_formula_sum "Si O2"
_cell_formula_units_Z 16
_cell_length_a 11.453708
_cell_length_b 14.499966
_cell_length_c 8.203338
_cell_angle_alpha 105.083955
_cell_angle_beta 35.661487
_cell_angle_gamma 92.935130
_cell_volume 735.180430
_symmetry_space_group_name_H-M "P -1"
_symmetry_group_IT_number 2
_symmetry_cell_setting 'triclinic'
loop_
_space_group_symop_operation_xyz
x,y,z
-x,-y,-z
loop_
_atom_site_type_symbol
_atom_site_label
_atom_site_fract_x
_atom_site_fract_y
_atom_site_fract_z
Si Si1 0.428803 0.459097 0.895280
Si Si2 0.801706 0.350723 0.929097
Si Si3 0.232604 0.846127 0.254976
Si Si4 0.513345 0.850716 0.233764
Si Si5 0.140822 0.906675 0.897190
Si Si6 0.102145 0.344754 0.273175
Si Si7 0.850410 0.316191 0.230826
Si Si8 0.223960 0.019876 0.146162
O O1 0.607419 0.366272 0.576187
O O2 0.500000 0.500000 0.000000
O O3 0.373038 0.547122 0.866367
O O4 0.223592 0.427774 0.161908
O O5 0.714616 0.254697 0.956381
O O6 0.968921 0.346028 0.590241
O O7 0.882182 0.347217 0.022312
O O8 0.347117 0.821783 0.287595
O O9 0.980448 0.886283 0.559361
O O10 0.303343 0.942892 0.166194
O O11 0.380403 0.883902 0.561052
O O12 0.714324 0.758367 0.984204
O O13 0.598401 0.939954 0.114000
O O14 0.083966 0.804104 0.896999
O O15 0.132268 0.947086 0.105780
O O16 0.000000 0.000000 0.000000
O O17 0.970445 0.350240 0.259122
#
# Coordination Sequence:
#
# PCOD9059359 Si02
#       8
#     2   2   2   2   2   2   2   2
#     4  12  26  51  80 104 147 192 234 302 369 425
#     4  12  25  49  77 105 147 192 238 304 361 421
#     4  11  23  44  65  99 142 179 239 294 352 427
#     4  12  23  42  69  99 141 190 238 290 360 426
#     4  12  23  44  69  96 146 190 234 299 354 418
#     4  12  26  49  74 107 145 187 238 301 363 429
#     4  12  27  50  73 110 147 186 247 298 354 439
#     4  11  23  41  66  99 137 187 236 290 357 419
#
# _framework density 21.763363999999999
#
# number of rings (size 3 to 8) (size 9 to 14) (size 15 to 20)
#    0.000    0.250    6.250    3.750    0.000    0.500 
#    9.000    0.000    0.000    0.000    0.000    0.000 
#    0.000    0.000    0.000    0.000    0.000    0.000 
#
# Total GULP energy -89364.595101 kJ/mol
# GULP energy per Si atom -5585.287194 kJ/mol
# Density = 2.171383 g / cm^3
# Si number density = 21.763364 Si / 1000 Ang^3
#
#
#
# Elastic Constant Matrix: (Units=GPa)
#
#
# Indices 1 2 3 4 5 6 
#
# 1 133.2410 38.3405 32.9992 -8.4424 12.0972 -10.0462
# 2 38.3405 118.7503 26.8625 2.4831 -7.8028 -4.9215
# 3 32.9992 26.8625 58.9050 7.7082 10.4450 -6.7841
# 4 -8.4424 2.4831 7.7082 42.1502 -1.6965 -6.0757
# 5 12.0972 -7.8028 10.4450 -1.6965 24.3944 0.0760
# 6 -10.0462 -4.9215 -6.7841 -6.0757 0.0760 38.3508
#
#
#
# Elastic Compliance Matrix: (Units=1/GPa)
#
#
# Indices 1 2 3 4 5 6 
#
# 1 0.009887 -0.002556 -0.003838 0.002974 -0.003877 0.002062
# 2 -0.002556 0.010736 -0.004661 -0.000042 0.006695 -0.000136
# 3 -0.003838 -0.004661 0.023928 -0.005012 -0.010188 0.001855
# 4 0.002974 -0.000042 -0.005012 0.025913 0.002448 0.003987
# 5 -0.003877 0.006695 -0.010188 0.002448 0.049595 -0.001669
# 6 0.002062 -0.000136 0.001855 0.003987 -0.001669 0.027561
#
#
# Mechanical properties :
#
#
# Convention : Reuss Voigt Hill
#
# Bulk Modulus (GPa) = 44.56000 56.36676 50.46338
# Shear Modulus (GPa) = 28.21534 35.15869 31.68701
#
# Velocity S-wave (km/s) = 3.60455 4.02369 3.81987
# Velocity P-wave (km/s) = 6.15166 6.89513 6.53398
#
# Compressibility (1/GPa) = 0.02244165
#
# Stress axis : x y z
#
# Youngs Moduli (GPa) = 101.14433 93.14702 41.79169
#
# Poissons Ratio (x) = 0.23804 0.16038
# Poissons Ratio (y) = 0.25847 0.19481
# Poissons Ratio (z) = 0.38815 0.43420
#
# Static dielectric constant tensor:
#      x y z
#    x 1.849830 -0.110620 0.014160 
#    y -0.110620 1.941990 0.000280 
#    z 0.014160 0.000280 1.787310 
# 
# From -- ./inp_files/273284.got.cif
#   From: 2010.05.17/outbox.cif.g08.bks.cpg/sg2_137_cif.got.tgz:273284.got - 2010.06.03 11:33:40.
