data_PCOD9059856
_publ_section_title
;
Structure prediction by ZEFSAII (Michael W. Deem and Ramdas Pophale) SiO2 
 PCOD9059856
Probable space group: P -1
;
_chemical_formula_sum "Si O2"
_cell_formula_units_Z 14
_cell_length_a 5.463380
_cell_length_b 14.212587
_cell_length_c 16.446702
_cell_angle_alpha 34.320617
_cell_angle_beta 56.356137
_cell_angle_gamma 67.641330
_cell_volume 591.274940
_symmetry_space_group_name_H-M "P -1"
_symmetry_group_IT_number 2
_symmetry_cell_setting 'triclinic'
loop_
_space_group_symop_operation_xyz
x,y,z
-x,-y,-z
loop_
_atom_site_type_symbol
_atom_site_label
_atom_site_fract_x
_atom_site_fract_y
_atom_site_fract_z
Si Si1 0.614362 0.507387 0.165919
Si Si2 0.089632 0.503896 0.700699
Si Si3 0.241639 0.136358 0.202653
Si Si4 0.714608 0.156082 0.387787
Si Si5 0.851557 0.062308 0.791629
Si Si6 0.235870 0.152425 0.884359
Si Si7 0.515744 0.835148 0.392478
O O1 0.800769 0.519846 0.208112
O O2 0.682979 0.340184 0.226573
O O3 0.255731 0.481539 0.259025
O O4 0.690585 0.677715 0.978264
O O5 0.146921 0.335609 0.764639
O O6 0.287553 0.678447 0.510323
O O7 0.052212 0.133612 0.321534
O O8 0.061901 0.014069 0.255370
O O9 0.516202 0.033635 0.229733
O O10 0.608295 0.168970 0.489912
O O11 0.500000 0.000000 0.500000
O O12 0.555790 0.145228 0.791549
O O13 0.148725 0.189403 0.668772
O O14 0.761794 0.903581 0.981787
O O15 0.000000 0.000000 0.000000
#
# Coordination Sequence:
#
# PCOD9059856 Si02
#       7
#     2   2   2   2   2   2   2
#     4  11  25  45  71 107 141 190 241 291 347 424
#     4  11  25  46  72 104 147 182 237 298 355 419
#     4  12  23  44  69 104 143 188 239 290 345 426
#     4  11  23  44  70 103 146 188 234 287 357 419
#     4  11  23  42  70 101 137 180 240 285 359 416
#     4  11  24  45  72 103 134 188 235 297 354 426
#     4  11  25  43  70 103 145 188 228 293 360 419
#
# _framework density 23.677648999999999
#
# number of rings (size 3 to 8) (size 9 to 14) (size 15 to 20)
#    0.000    0.857    2.857    4.286    4.000    1.714 
#    0.000    7.143    0.000    0.000    0.000    0.000 
#    0.000    0.000    0.000    0.000    0.000    0.000 
#
# Total GULP energy -78182.130608 kJ/mol
# GULP energy per Si atom -5584.437901 kJ/mol
# Density = 2.362376 g / cm^3
# Si number density = 23.677649 Si / 1000 Ang^3
#
#
#
# Elastic Constant Matrix: (Units=GPa)
#
#
# Indices 1 2 3 4 5 6 
#
# 1 73.3855 25.9204 4.5817 1.6538 -14.1855 -23.4102
# 2 25.9204 127.8927 39.3656 -16.9344 -18.0064 -20.3675
# 3 4.5817 39.3656 91.5547 -7.1035 0.3128 -4.6907
# 4 1.6538 -16.9344 -7.1035 58.5888 -0.6658 -2.5770
# 5 -14.1855 -18.0064 0.3128 -0.6658 37.3736 9.9696
# 6 -23.4102 -20.3675 -4.6907 -2.5770 9.9696 42.4834
#
#
#
# Elastic Compliance Matrix: (Units=1/GPa)
#
#
# Indices 1 2 3 4 5 6 
#
# 1 0.017520 -0.001975 0.000313 -0.000641 0.003587 0.007861
# 2 -0.001975 0.010907 -0.004230 0.002869 0.003804 0.002955
# 3 0.000313 -0.004230 0.012758 0.000294 -0.002034 0.000048
# 4 -0.000641 0.002869 0.000294 0.018047 0.000944 0.001928
# 5 0.003587 0.003804 -0.002034 0.000944 0.030953 -0.003631
# 6 0.007861 0.002955 0.000048 0.001928 -0.003631 0.030262
#
#
# Mechanical properties :
#
#
# Convention : Reuss Voigt Hill
#
# Bulk Modulus (GPa) = 34.01144 48.06313 41.03728
# Shear Modulus (GPa) = 35.20338 42.55351 38.87844
#
# Velocity S-wave (km/s) = 3.86006 4.24394 4.05654
# Velocity P-wave (km/s) = 5.85340 6.66016 6.26977
#
# Compressibility (1/GPa) = 0.02940187
#
# Stress axis : x y z
#
# Youngs Moduli (GPa) = 57.07609 91.68097 78.38351
#
# Poissons Ratio (x) = 0.18108 -0.02456
# Poissons Ratio (y) = 0.11273 0.33156
# Poissons Ratio (z) = -0.01788 0.38781
#
# Static dielectric constant tensor:
#      x y z
#    x 2.099540 0.058460 0.107310 
#    y 0.058460 1.873570 0.030100 
#    z 0.107310 0.030100 1.895190 
# 
# From -- ./inp_files/39063.got.cif
#   From: 2010.05.17/outbox.cif.g08.bks.cpg/sg2_20_cif.got.tgz:39063.got - 2010.06.03 11:33:40.
