data_PCOD9059421
_publ_section_title
;
Structure prediction by ZEFSAII (Michael W. Deem and Ramdas Pophale) SiO2 
 PCOD9059421
Probable space group: P -1
;
_chemical_formula_sum "Si O2"
_cell_formula_units_Z 14
_cell_length_a 10.251044
_cell_length_b 16.683520
_cell_length_c 10.278347
_cell_angle_alpha 33.559256
_cell_angle_beta 54.063001
_cell_angle_gamma 71.646616
_cell_volume 724.745619
_symmetry_space_group_name_H-M "P -1"
_symmetry_group_IT_number 2
_symmetry_cell_setting 'triclinic'
loop_
_space_group_symop_operation_xyz
x,y,z
-x,-y,-z
loop_
_atom_site_type_symbol
_atom_site_label
_atom_site_fract_x
_atom_site_fract_y
_atom_site_fract_z
Si Si1 0.827488 0.360805 0.731015
Si Si2 0.731383 0.295297 0.161878
Si Si3 0.627463 0.753564 0.432547
Si Si4 0.352188 0.430716 0.573804
Si Si5 0.993073 0.136981 0.227656
Si Si6 0.897906 0.666701 0.569638
Si Si7 0.966072 0.019390 0.839828
O O1 0.713574 0.437062 0.617700
O O2 0.000000 0.500000 0.500000
O O3 0.919935 0.280869 0.688742
O O4 0.726341 0.278222 0.030838
O O5 0.539016 0.243131 0.401620
O O6 0.843398 0.197216 0.274496
O O7 0.832807 0.481291 0.885836
O O8 0.576573 0.637555 0.496776
O O9 0.745391 0.688455 0.542949
O O10 0.757652 0.926669 0.075762
O O11 0.500000 0.500000 0.500000
O O12 0.177669 0.286049 0.918634
O O13 0.963884 0.070137 0.186458
O O14 0.000000 0.000000 0.500000
O O15 0.945456 0.793294 0.486448
O O16 0.000000 0.000000 0.000000
#
# Coordination Sequence:
#
# PCOD9059421 Si02
#       7
#     2   2   2   2   2   2   2
#     4  10  17  37  68  89 119 164 213 252 312 366
#     4  11  20  37  68  92 119 159 217 262 305 367
#     4  10  20  37  61  96 127 153 201 271 316 359
#     4  11  22  41  63  91 127 168 207 256 314 381
#     4  11  24  46  61  87 133 173 201 261 328 377
#     4  10  18  36  66  93 115 162 215 257 299 370
#     4   9  20  40  63  85 125 167 203 251 316 373
#
# _framework density 19.317121
#
# number of rings (size 3 to 8) (size 9 to 14) (size 15 to 20)
#    0.000    1.714    5.714    2.143    0.000    1.143 
#    7.714    6.429    0.000    0.000    0.000    0.000 
#    0.000    0.000    0.000    0.000    0.000    0.000 
#
# Total GULP energy -78041.501906 kJ/mol
# GULP energy per Si atom -5574.392993 kJ/mol
# Density = 1.927315 g / cm^3
# Si number density = 19.317121 Si / 1000 Ang^3
#
#
#
# Elastic Constant Matrix: (Units=GPa)
#
#
# Indices 1 2 3 4 5 6 
#
# 1 128.3193 63.9076 36.9329 -0.8923 4.6646 -13.3461
# 2 63.9076 108.5555 37.4575 -5.6960 -23.7506 -12.6617
# 3 36.9329 37.4575 55.1371 -0.9898 5.9589 -21.4102
# 4 -0.8923 -5.6960 -0.9898 38.2026 -9.1980 -9.9760
# 5 4.6646 -23.7506 5.9589 -9.1980 25.7089 -2.8718
# 6 -13.3461 -12.6617 -21.4102 -9.9760 -2.8718 33.5103
#
#
#
# Elastic Compliance Matrix: (Units=1/GPa)
#
#
# Indices 1 2 3 4 5 6 
#
# 1 0.014570 -0.012793 -0.000361 -0.006332 -0.016934 -0.002598
# 2 -0.012793 0.033338 -0.016291 0.016139 0.043296 0.005608
# 3 -0.000361 -0.016291 0.037651 -0.003174 -0.023191 0.014824
# 4 -0.006332 0.016139 -0.003174 0.040647 0.033179 0.016492
# 5 -0.016934 0.043296 -0.023191 0.033179 0.100700 0.013305
# 6 -0.002598 0.005608 0.014824 0.016492 0.013305 0.046447
#
#
# Mechanical properties :
#
#
# Convention : Reuss Voigt Hill
#
# Bulk Modulus (GPa) = 37.49552 63.17864 50.33708
# Shear Modulus (GPa) = 14.65706 29.73196 22.19451
#
# Velocity S-wave (km/s) = 2.75755 3.92746 3.39330
# Velocity P-wave (km/s) = 5.43980 7.30367 6.43953
#
# Compressibility (1/GPa) = 0.02666985
#
# Stress axis : x y z
#
# Youngs Moduli (GPa) = 68.63595 29.99570 26.55963
#
# Poissons Ratio (x) = 0.38374 0.00958
# Poissons Ratio (y) = 0.87807 0.43268
# Poissons Ratio (z) = 0.02475 0.48865
#
# Static dielectric constant tensor:
#      x y z
#    x 1.649330 0.002140 0.028190 
#    y 0.002140 1.706890 -0.012680 
#    z 0.028190 -0.012680 1.727030 
# 
# From -- ./inp_files/204985.got.cif
#   From: 2010.05.17/outbox.cif.g08.bks.cpg/sg2_103_cif.got.tgz:204985.got - 2010.06.03 11:33:40.
