data_PCOD9059655
_publ_section_title
;
Structure prediction by ZEFSAII (Michael W. Deem and Ramdas Pophale) SiO2 
 PCOD9059655
Probable space group: P -1
;
_chemical_formula_sum "Si O2"
_cell_formula_units_Z 16
_cell_length_a 8.055603
_cell_length_b 5.634773
_cell_length_c 22.484044
_cell_angle_alpha 55.552084
_cell_angle_beta 125.880414
_cell_angle_gamma 110.943019
_cell_volume 681.399279
_symmetry_space_group_name_H-M "P -1"
_symmetry_group_IT_number 2
_symmetry_cell_setting 'triclinic'
loop_
_space_group_symop_operation_xyz
x,y,z
-x,-y,-z
loop_
_atom_site_type_symbol
_atom_site_label
_atom_site_fract_x
_atom_site_fract_y
_atom_site_fract_z
Si Si1 0.316286 0.492234 0.722504
Si Si2 0.534407 0.492730 0.578250
Si Si3 0.627954 0.951498 0.739417
Si Si4 0.166529 0.713390 0.534060
Si Si5 0.953384 0.815093 0.637881
Si Si6 0.052084 0.435256 0.920373
Si Si7 0.053216 0.955621 0.765903
Si Si8 0.187938 0.141569 0.097204
O O1 0.544793 0.629529 0.751403
O O2 0.223456 0.572432 0.627950
O O3 0.176865 0.688648 0.706944
O O4 0.247524 0.175666 0.773768
O O5 0.500000 0.500000 0.500000
O O6 0.379055 0.709638 0.543349
O O7 0.764269 0.589029 0.629517
O O8 0.492916 0.178906 0.643842
O O9 0.860719 0.022098 0.758315
O O10 0.626930 0.967775 0.808125
O O11 0.000000 0.500000 0.500000
O O12 0.077144 0.018259 0.454077
O O13 0.947000 0.981369 0.675071
O O14 0.111608 0.646456 0.848354
O O15 0.918952 0.629829 0.911690
O O16 0.222297 0.314296 0.018384
O O17 0.941710 0.148148 0.909030
#
# Coordination Sequence:
#
# PCOD9059655 Si02
#       8
#     2   2   2   2   2   2   2   2
#     4  12  25  42  61  95 127 172 219 272 329 397
#     4  12  23  39  64  93 123 168 221 272 329 398
#     4  11  23  42  65  93 130 171 217 270 335 394
#     4  12  23  40  59  88 128 169 218 275 329 388
#     4  12  23  42  63  85 128 171 215 274 330 394
#     4   9  19  37  69  97 135 168 222 271 331 397
#     4  11  23  42  65  95 125 170 216 271 328 397
#     4   9  19  39  65 102 128 176 218 270 331 404
#
# _framework density 23.481096000000001
#
# number of rings (size 3 to 8) (size 9 to 14) (size 15 to 20)
#    0.000    1.000    2.500    5.250    1.750    1.000 
#    0.000    0.625    0.000    0.750    0.000    0.000 
#    0.000    0.000    0.000    0.000    0.000    0.000 
#
# Total GULP energy -89202.551355 kJ/mol
# GULP energy per Si atom -5575.159460 kJ/mol
# Density = 2.342765 g / cm^3
# Si number density = 23.481096 Si / 1000 Ang^3
#
#
#
# Elastic Constant Matrix: (Units=GPa)
#
#
# Indices 1 2 3 4 5 6 
#
# 1 42.9522 8.9538 10.0242 -5.8656 -4.4793 10.6854
# 2 8.9538 113.7377 37.6254 -3.6187 -12.9397 27.6952
# 3 10.0242 37.6254 160.5033 -1.9679 -34.8114 14.0514
# 4 -5.8656 -3.6187 -1.9679 39.4421 -0.8516 -8.7164
# 5 -4.4793 -12.9397 -34.8114 -0.8516 20.1007 -7.4116
# 6 10.6854 27.6952 14.0514 -8.7164 -7.4116 31.4052
#
#
#
# Elastic Compliance Matrix: (Units=1/GPa)
#
#
# Indices 1 2 3 4 5 6 
#
# 1 0.025783 0.000340 -0.000466 0.002196 0.002417 -0.007684
# 2 0.000340 0.011808 -0.001719 -0.001100 0.001032 -0.009822
# 3 -0.000466 -0.001719 0.010266 0.000962 0.017122 0.001389
# 4 0.002196 -0.001100 0.000962 0.027716 0.005894 0.008876
# 5 0.002417 0.001032 0.017122 0.005894 0.085428 0.012404
# 6 -0.007684 -0.009822 0.001389 0.008876 0.012404 0.047887
#
#
# Mechanical properties :
#
#
# Convention : Reuss Voigt Hill
#
# Bulk Modulus (GPa) = 22.64103 47.82221 35.23162
# Shear Modulus (GPa) = 21.99723 35.56225 28.77974
#
# Velocity S-wave (km/s) = 3.06405 3.89589 3.50473
# Velocity P-wave (km/s) = 4.70967 6.37556 5.60485
#
# Compressibility (1/GPa) = 0.04416759
#
# Stress axis : x y z
#
# Youngs Moduli (GPa) = 38.78498 84.68829 97.40602
#
# Poissons Ratio (x) = -0.02883 0.04541
# Poissons Ratio (y) = -0.01320 0.16746
# Poissons Ratio (z) = 0.01808 0.14559
#
# Static dielectric constant tensor:
#      x y z
#    x 1.936090 -0.056910 0.004100 
#    y -0.056910 1.906460 -0.078970 
#    z 0.004100 -0.078970 2.031370 
# 
# From -- ./inp_files/49185.got.cif
#   From: 2010.05.17/outbox.cif.g08.bks.cpg/sg2_25_cif.got.tgz:49185.got - 2010.06.03 11:33:40.
