data_PCOD9059509
_publ_section_title
;
Structure prediction by ZEFSAII (Michael W. Deem and Ramdas Pophale) SiO2 
 PCOD9059509
Probable space group: P -1
;
_chemical_formula_sum "Si O2"
_cell_formula_units_Z 16
_cell_length_a 15.231171
_cell_length_b 22.605740
_cell_length_c 9.312794
_cell_angle_alpha 131.309879
_cell_angle_beta 47.454716
_cell_angle_gamma 162.189578
_cell_volume 720.667009
_symmetry_space_group_name_H-M "P -1"
_symmetry_group_IT_number 2
_symmetry_cell_setting 'triclinic'
loop_
_space_group_symop_operation_xyz
x,y,z
-x,-y,-z
loop_
_atom_site_type_symbol
_atom_site_label
_atom_site_fract_x
_atom_site_fract_y
_atom_site_fract_z
Si Si1 0.690560 0.972483 0.099416
Si Si2 0.880579 0.253519 0.294166
Si Si3 0.388155 0.082752 0.588451
Si Si4 0.683325 0.352804 0.436543
Si Si5 0.144202 0.802131 0.086672
Si Si6 0.184998 0.269557 0.493853
Si Si7 0.239656 0.131202 0.326298
Si Si8 0.144666 0.654876 0.992682
O O1 0.552925 0.859242 0.218897
O O2 0.857377 0.154750 0.237945
O O3 0.840482 0.989441 0.882693
O O4 0.449545 0.851944 0.054603
O O5 0.568878 0.111269 0.409541
O O6 0.971671 0.287517 0.086267
O O7 0.099655 0.447899 0.434974
O O8 0.496188 0.210028 0.551669
O O9 0.040097 0.862233 0.601099
O O10 0.516845 0.279720 0.359173
O O11 0.835525 0.366842 0.225900
O O12 0.017127 0.664501 0.125137
O O13 0.023214 0.814322 0.287941
O O14 0.500000 0.000000 0.000000
O O15 0.500000 0.500000 0.500000
O O16 0.256470 0.222143 0.368888
O O17 0.000000 0.000000 0.500000
O O18 0.000000 0.500000 0.000000
#
# Coordination Sequence:
#
# PCOD9059509 Si02
#       8
#     2   2   2   2   2   2   2   2
#     4  11  26  42  71 104 143 188 239 306 362 427
#     4  12  24  43  76 111 143 182 251 309 364 424
#     4  12  24  46  72 108 150 186 242 309 371 425
#     4  11  25  44  74 105 147 192 235 306 364 435
#     4  12  23  47  75 105 143 196 245 300 364 432
#     4  12  28  46  74 106 149 194 244 302 362 440
#     4  11  25  52  71  95 148 205 244 287 370 443
#     4  11  23  41  70 105 142 186 238 292 364 430
#
# _framework density 22.201653
#
# number of rings (size 3 to 8) (size 9 to 14) (size 15 to 20)
#    0.000    0.500    5.000    2.250    7.000    0.500 
#    2.250    1.250    0.000    0.000    0.000    0.000 
#    0.000    0.000    0.000    0.000    0.000    0.000 
#
# Total GULP energy -89321.911541 kJ/mol
# GULP energy per Si atom -5582.619471 kJ/mol
# Density = 2.215112 g / cm^3
# Si number density = 22.201653 Si / 1000 Ang^3
#
#
#
# Elastic Constant Matrix: (Units=GPa)
#
#
# Indices 1 2 3 4 5 6 
#
# 1 108.8813 36.1054 39.1307 6.1272 -10.0565 -19.4026
# 2 36.1054 105.7466 26.2818 16.7075 -8.2214 -7.5260
# 3 39.1307 26.2818 113.5996 9.0975 0.6063 -2.7617
# 4 6.1272 16.7075 9.0975 36.9894 -3.7377 -0.6624
# 5 -10.0565 -8.2214 0.6063 -3.7377 42.6727 -0.0543
# 6 -19.4026 -7.5260 -2.7617 -0.6624 -0.0543 32.9561
#
#
#
# Elastic Compliance Matrix: (Units=1/GPa)
#
#
# Indices 1 2 3 4 5 6 
#
# 1 0.012839 -0.002878 -0.003646 0.000448 0.002571 0.006609
# 2 -0.002878 0.011597 -0.001335 -0.004298 0.001200 0.000758
# 3 -0.003646 -0.001335 0.010459 -0.001536 -0.001402 -0.001608
# 4 0.000448 -0.004298 -0.001536 0.029465 0.001880 -0.000251
# 5 0.002571 0.001200 -0.001402 0.001880 0.024458 0.001748
# 6 0.006609 0.000758 -0.001608 -0.000251 0.001748 0.034271
#
#
# Mechanical properties :
#
#
# Convention : Reuss Voigt Hill
#
# Bulk Modulus (GPa) = 52.14585 59.02930 55.58757
# Shear Modulus (GPa) = 34.43535 37.63761 36.03648
#
# Velocity S-wave (km/s) = 3.94258 4.12182 4.03320
# Velocity P-wave (km/s) = 6.65309 7.02126 6.83965
#
# Compressibility (1/GPa) = 0.01917698
#
# Stress axis : x y z
#
# Youngs Moduli (GPa) = 77.88862 86.22560 95.61198
#
# Poissons Ratio (x) = 0.24817 0.34856
# Poissons Ratio (y) = 0.22417 0.12769
# Poissons Ratio (z) = 0.28395 0.11515
#
# Static dielectric constant tensor:
#      x y z
#    x 1.716430 -0.033390 0.018480 
#    y -0.033390 1.909400 -0.000840 
#    z 0.018480 -0.000840 1.812340 
# 
# From -- ./inp_files/319459.got.cif
#   From: 2010.05.17/outbox.cif.g08.bks.cpg/sg2_160_cif.got.tgz:319459.got - 2010.06.03 11:33:40.
