data_PCOD9059630
_publ_section_title
;
Structure prediction by ZEFSAII (Michael W. Deem and Ramdas Pophale) SiO2 
 PCOD9059630
Probable space group: P -1
;
_chemical_formula_sum "Si O2"
_cell_formula_units_Z 14
_cell_length_a 14.421918
_cell_length_b 9.800264
_cell_length_c 13.765367
_cell_angle_alpha 75.244820
_cell_angle_beta 30.711716
_cell_angle_gamma 53.591035
_cell_volume 626.243073
_symmetry_space_group_name_H-M "P -1"
_symmetry_group_IT_number 2
_symmetry_cell_setting 'triclinic'
loop_
_space_group_symop_operation_xyz
x,y,z
-x,-y,-z
loop_
_atom_site_type_symbol
_atom_site_label
_atom_site_fract_x
_atom_site_fract_y
_atom_site_fract_z
Si Si1 0.322979 0.429923 0.492397
Si Si2 0.828439 0.702746 0.188268
Si Si3 0.859663 0.214706 0.139028
Si Si4 0.852620 0.457049 0.700943
Si Si5 0.093969 0.107842 0.165197
Si Si6 0.779915 0.189751 0.743108
Si Si7 0.415213 0.117726 0.353353
O O1 0.230418 0.353812 0.655435
O O2 0.540172 0.384287 0.372026
O O3 0.447283 0.267182 0.321740
O O4 0.079292 0.683455 0.648701
O O5 0.558808 0.929875 0.337065
O O6 0.000000 0.500000 0.000000
O O7 0.024566 0.717368 0.031170
O O8 0.946434 0.179254 0.179586
O O9 0.000000 0.000000 0.000000
O O10 0.802624 0.345974 0.701378
O O11 0.000000 0.500000 0.500000
O O12 0.095515 0.276735 0.591758
O O13 0.551375 0.658670 0.988285
O O14 0.124122 0.940916 0.219447
O O15 0.388611 0.009007 0.894923
O O16 0.000000 0.000000 0.500000
#
# Coordination Sequence:
#
# PCOD9059630 Si02
#       7
#     2   2   2   2   2   2   2
#     4  12  24  42  69 101 146 186 229 286 356 427
#     4  11  23  42  64 101 143 183 234 281 344 422
#     4  11  23  42  66  99 144 187 226 286 343 426
#     4  11  26  49  77 102 144 185 241 308 363 420
#     4  11  24  44  70 103 143 182 239 294 351 421
#     4  11  28  50  75 109 141 185 247 304 364 429
#     4  11  24  44  70 103 141 189 235 289 354 428
#
# _framework density 22.355537000000002
#
# number of rings (size 3 to 8) (size 9 to 14) (size 15 to 20)
#    0.000    0.857    7.143    0.857    4.000    1.714 
#    2.571    0.000    0.000    0.000    0.000    0.000 
#    0.000    0.000    0.000    0.000    0.000    0.000 
#
# Total GULP energy -78143.875396 kJ/mol
# GULP energy per Si atom -5581.705385 kJ/mol
# Density = 2.230465 g / cm^3
# Si number density = 22.355537 Si / 1000 Ang^3
#
#
#
# Elastic Constant Matrix: (Units=GPa)
#
#
# Indices 1 2 3 4 5 6 
#
# 1 41.1723 8.3087 33.9541 4.2144 -11.0577 8.9781
# 2 8.3087 116.9641 44.2225 -5.9034 -9.7812 14.4345
# 3 33.9541 44.2225 171.4228 12.1500 -23.2770 -0.5533
# 4 4.2144 -5.9034 12.1500 55.0494 9.1908 5.0841
# 5 -11.0577 -9.7812 -23.2770 9.1908 40.7778 5.4713
# 6 8.9781 14.4345 -0.5533 5.0841 5.4713 38.2560
#
#
#
# Elastic Compliance Matrix: (Units=1/GPa)
#
#
# Indices 1 2 3 4 5 6 
#
# 1 0.033002 0.001571 -0.005839 -0.001474 0.007574 -0.009310
# 2 0.001571 0.010348 -0.002927 0.001831 0.001464 -0.004768
# 3 -0.005839 -0.002927 0.008279 -0.002368 0.002634 0.002532
# 4 -0.001474 0.001831 -0.002368 0.020132 -0.005546 -0.002262
# 5 0.007574 0.001464 0.002634 -0.005546 0.030475 -0.005913
# 6 -0.009310 -0.004768 0.002532 -0.002262 -0.005913 0.031307
#
#
# Mechanical properties :
#
#
# Convention : Reuss Voigt Hill
#
# Bulk Modulus (GPa) = 26.85377 55.83666 41.34521
# Shear Modulus (GPa) = 31.18260 43.02155 37.10208
#
# Velocity S-wave (km/s) = 3.73882 4.39159 4.07828
# Velocity P-wave (km/s) = 5.53864 7.12359 6.38052
#
# Compressibility (1/GPa) = 0.03723872
#
# Stress axis : x y z
#
# Youngs Moduli (GPa) = 30.30141 96.63645 120.78878
#
# Poissons Ratio (x) = -0.15184 0.70531
# Poissons Ratio (y) = -0.04761 0.35356
# Poissons Ratio (z) = 0.17694 0.28286
#
# Static dielectric constant tensor:
#      x y z
#    x 1.938680 0.006720 0.062990 
#    y 0.006720 1.817420 0.048070 
#    z 0.062990 0.048070 1.927460 
# 
# From -- ./inp_files/337427.got.cif
#   From: 2010.05.17/outbox.cif.g08.bks.cpg/sg2_169_cif.got.tgz:337427.got - 2010.06.03 11:33:40.
