data_PCOD9059969
_publ_section_title
;
Structure prediction by ZEFSAII (Michael W. Deem and Ramdas Pophale) SiO2 
 PCOD9059969
Probable space group: P -1
;
_chemical_formula_sum "Si O2"
_cell_formula_units_Z 16
_cell_length_a 12.849455
_cell_length_b 17.557588
_cell_length_c 9.760271
_cell_angle_alpha 103.454302
_cell_angle_beta 133.586193
_cell_angle_gamma 38.572485
_cell_volume 730.696013
_symmetry_space_group_name_H-M "P -1"
_symmetry_group_IT_number 2
_symmetry_cell_setting 'triclinic'
loop_
_space_group_symop_operation_xyz
x,y,z
-x,-y,-z
loop_
_atom_site_type_symbol
_atom_site_label
_atom_site_fract_x
_atom_site_fract_y
_atom_site_fract_z
Si Si1 0.406917 0.623306 0.552029
Si Si2 0.791693 0.527717 0.361339
Si Si3 0.280687 0.968756 0.284013
Si Si4 0.309377 0.032021 0.619830
Si Si5 0.833351 0.002001 0.292612
Si Si6 0.652036 0.241860 0.691346
Si Si7 0.580899 0.392249 0.133574
Si Si8 0.398031 0.161476 0.752633
O O1 0.500000 0.500000 0.500000
O O2 0.486249 0.653420 0.527008
O O3 0.533315 0.546351 0.787921
O O4 0.074346 0.820687 0.377772
O O5 0.590030 0.636639 0.356477
O O6 0.000000 0.500000 0.500000
O O7 0.043318 0.340352 0.538496
O O8 0.575468 0.608126 0.074334
O O9 0.356220 0.988524 0.486263
O O10 0.262016 0.890767 0.299564
O O11 0.538603 0.852122 0.354260
O O12 0.960321 0.136275 0.982873
O O13 0.378034 0.932297 0.751308
O O14 0.471984 0.035637 0.799942
O O15 0.943564 0.211539 0.378550
O O16 0.000000 0.000000 0.500000
O O17 0.606958 0.120923 0.009431
O O18 0.500000 0.500000 0.000000
#
# Coordination Sequence:
#
# PCOD9059969 Si02
#       8
#     2   2   2   2   2   2   2   2
#     4  11  25  42  72 105 141 186 238 297 353 430
#     4  12  25  43  69 102 140 180 238 291 353 426
#     4  11  23  42  72 102 143 186 239 295 357 429
#     4  11  24  42  72 100 138 182 237 298 350 424
#     4  11  26  47  72 103 140 191 246 289 364 435
#     4  11  23  44  69 103 145 189 240 293 361 429
#     4  11  23  44  69 100 138 191 230 282 360 430
#     4  12  25  44  71 104 140 182 239 301 353 423
#
# _framework density 21.896932
#
# number of rings (size 3 to 8) (size 9 to 14) (size 15 to 20)
#    0.000    0.750    5.000    2.250    7.000    0.000 
#    2.250    0.625    0.000    0.000    0.000    0.000 
#    0.000    0.000    0.000    0.000    0.000    0.000 
#
# Total GULP energy -89239.427275 kJ/mol
# GULP energy per Si atom -5577.464205 kJ/mol
# Density = 2.184709 g / cm^3
# Si number density = 21.896932 Si / 1000 Ang^3
#
#
#
# Elastic Constant Matrix: (Units=GPa)
#
#
# Indices 1 2 3 4 5 6 
#
# 1 91.0893 32.5253 36.2234 25.0082 -25.8635 3.9107
# 2 32.5253 79.7743 47.6313 14.8322 -3.1633 -10.4739
# 3 36.2234 47.6313 68.8028 28.3858 3.4966 -7.9515
# 4 25.0082 14.8322 28.3858 36.8539 -3.9310 -0.0421
# 5 -25.8635 -3.1633 3.4966 -3.9310 39.1626 10.5722
# 6 3.9107 -10.4739 -7.9515 -0.0421 10.5722 41.6808
#
#
#
# Elastic Compliance Matrix: (Units=1/GPa)
#
#
# Indices 1 2 3 4 5 6 
#
# 1 0.022674 -0.002967 -0.009917 -0.004682 0.017646 -0.009245
# 2 -0.002967 0.022822 -0.016254 0.005476 0.001178 0.002619
# 3 -0.009917 -0.016254 0.041102 -0.020072 -0.015895 0.008699
# 4 -0.004682 0.005476 -0.020072 0.044033 0.004395 -0.003084
# 5 0.017646 0.001178 -0.015895 0.004395 0.043292 -0.015369
# 6 -0.009245 0.002619 0.008699 -0.003084 -0.015369 0.031072
#
#
# Mechanical properties :
#
#
# Convention : Reuss Voigt Hill
#
# Bulk Modulus (GPa) = 35.30761 52.49181 43.89971
# Shear Modulus (GPa) = 18.33430 31.75855 25.04642
#
# Velocity S-wave (km/s) = 2.89675 3.81250 3.38573
# Velocity P-wave (km/s) = 5.22950 6.58821 5.94778
#
# Compressibility (1/GPa) = 0.02832251
#
# Stress axis : x y z
#
# Youngs Moduli (GPa) = 44.10333 43.81670 24.32959
#
# Poissons Ratio (x) = 0.13000 0.24128
# Poissons Ratio (y) = 0.13085 0.39545
# Poissons Ratio (z) = 0.43738 0.71220
#
# Static dielectric constant tensor:
#      x y z
#    x 1.893790 0.093760 -0.088280 
#    y 0.093760 1.898560 -0.056270 
#    z -0.088280 -0.056270 1.844420 
# 
# From -- ./inp_files/279548.got.cif
#   From: 2010.05.17/outbox.cif.g08.bks.cpg/sg2_140_cif.got.tgz:279548.got - 2010.06.03 11:33:40.
