data_PCOD9059780
_publ_section_title
;
Structure prediction by ZEFSAII (Michael W. Deem and Ramdas Pophale) SiO2 
 PCOD9059780
Probable space group: P -1
;
_chemical_formula_sum "Si O2"
_cell_formula_units_Z 16
_cell_length_a 9.659465
_cell_length_b 18.563795
_cell_length_c 5.085188
_cell_angle_alpha 119.262488
_cell_angle_beta 66.104411
_cell_angle_gamma 107.048164
_cell_volume 722.112853
_symmetry_space_group_name_H-M "P -1"
_symmetry_group_IT_number 2
_symmetry_cell_setting 'triclinic'
loop_
_space_group_symop_operation_xyz
x,y,z
-x,-y,-z
loop_
_atom_site_type_symbol
_atom_site_label
_atom_site_fract_x
_atom_site_fract_y
_atom_site_fract_z
Si Si1 0.258343 0.701730 0.400430
Si Si2 0.422439 0.450925 0.725239
Si Si3 0.536186 0.274496 0.221483
Si Si4 0.909804 0.159701 0.449062
Si Si5 0.627672 0.887265 0.723152
Si Si6 0.375082 0.953578 0.698480
Si Si7 0.109817 0.512214 0.183742
Si Si8 0.058581 0.095017 0.713431
O O1 0.325567 0.729837 0.683654
O O2 0.125131 0.752376 0.483503
O O3 0.197589 0.605059 0.290503
O O4 0.394158 0.716782 0.108043
O O5 0.500000 0.500000 0.500000
O O6 0.462450 0.357304 0.501998
O O7 0.500000 0.500000 0.000000
O O8 0.243101 0.454229 0.921527
O O9 0.414967 0.193384 0.210418
O O10 0.744311 0.105823 0.479757
O O11 0.985458 0.153562 0.661883
O O12 0.003235 0.114393 0.079842
O O13 0.468480 0.905252 0.747864
O O14 0.759834 0.880756 0.400062
O O15 0.693648 0.971163 0.973632
O O16 0.500000 0.000000 0.500000
O O17 0.000000 0.500000 0.500000
O O18 0.000000 0.500000 0.000000
O O19 0.000000 0.000000 0.500000
#
# Coordination Sequence:
#
# PCOD9059780 Si02
#       8
#     2   2   2   2   2   2   2   2
#     4  12  25  46  72 103 143 181 231 294 350 411
#     4  12  23  46  74 103 137 193 233 282 356 429
#     4  12  24  44  73 106 137 180 241 298 338 409
#     4  12  26  44  71  97 139 189 231 274 362 414
#     4  11  26  40  68 103 133 180 239 288 341 406
#     4  11  23  42  68  96 135 184 236 283 335 419
#     4  12  26  45  74 107 144 185 230 287 360 430
#     4  12  26  46  67  99 143 188 224 290 351 412
#
# _framework density 22.1572
#
# number of rings (size 3 to 8) (size 9 to 14) (size 15 to 20)
#    0.000    0.250    5.000    4.125    3.500    2.000 
#    0.000    0.000    0.000    0.000    0.000    0.000 
#    0.000    0.000    0.000    0.000    0.000    0.000 
#
# Total GULP energy -89564.478974 kJ/mol
# GULP energy per Si atom -5597.779936 kJ/mol
# Density = 2.210677 g / cm^3
# Si number density = 22.157200 Si / 1000 Ang^3
#
#
#
# Elastic Constant Matrix: (Units=GPa)
#
#
# Indices 1 2 3 4 5 6 
#
# 1 77.7775 7.9195 19.8073 -3.3003 -1.4969 -8.8102
# 2 7.9195 121.7673 24.4112 -6.1849 -17.4308 -0.6472
# 3 19.8073 24.4112 88.9315 -26.9747 -15.6815 -2.3635
# 4 -3.3003 -6.1849 -26.9747 48.0074 -4.4407 -7.1663
# 5 -1.4969 -17.4308 -15.6815 -4.4407 42.6505 -1.9065
# 6 -8.8102 -0.6472 -2.3635 -7.1663 -1.9065 36.8966
#
#
#
# Elastic Compliance Matrix: (Units=1/GPa)
#
#
# Indices 1 2 3 4 5 6 
#
# 1 0.014022 -0.000385 -0.003235 -0.000529 -0.000776 0.002991
# 2 -0.000385 0.009050 -0.001684 0.000515 0.003130 0.000221
# 3 -0.003235 -0.001684 0.016627 0.009876 0.006452 0.002515
# 4 -0.000529 0.000515 0.009876 0.028002 0.007021 0.006317
# 5 -0.000776 0.003130 0.006452 0.007021 0.027940 0.003090
# 6 0.002991 0.000221 0.002515 0.006317 0.003090 0.029369
#
#
# Mechanical properties :
#
#
# Convention : Reuss Voigt Hill
#
# Bulk Modulus (GPa) = 34.37587 43.63913 39.00750
# Shear Modulus (GPa) = 34.40784 41.26678 37.83731
#
# Velocity S-wave (km/s) = 3.94496 4.32030 4.13689
# Velocity P-wave (km/s) = 6.02482 6.68017 6.36094
#
# Compressibility (1/GPa) = 0.02909017
#
# Stress axis : x y z
#
# Youngs Moduli (GPa) = 71.31785 110.49140 60.14135
#
# Poissons Ratio (x) = 0.04259 0.19455
# Poissons Ratio (y) = 0.02749 0.10130
# Poissons Ratio (z) = 0.23070 0.18611
#
# Static dielectric constant tensor:
#      x y z
#    x 1.995780 -0.007390 -0.216050 
#    y -0.007390 1.792710 -0.014900 
#    z -0.216050 -0.014900 2.069700 
# 
# From -- ./inp_files/48835.got.cif
#   From: 2010.05.17/outbox.cif.g08.bks.cpg/sg2_25_cif.got.tgz:48835.got - 2010.06.03 11:33:40.
