data_PCOD9059375
_publ_section_title
;
Structure prediction by ZEFSAII (Michael W. Deem and Ramdas Pophale) SiO2 
 PCOD9059375
Probable space group: P -1
;
_chemical_formula_sum "Si O2"
_cell_formula_units_Z 15
_cell_length_a 12.800405
_cell_length_b 9.323403
_cell_length_c 8.301782
_cell_angle_alpha 126.806411
_cell_angle_beta 70.919466
_cell_angle_gamma 103.219089
_cell_volume 748.980128
_symmetry_space_group_name_H-M "P -1"
_symmetry_group_IT_number 2
_symmetry_cell_setting 'triclinic'
loop_
_space_group_symop_operation_xyz
x,y,z
-x,-y,-z
loop_
_atom_site_type_symbol
_atom_site_label
_atom_site_fract_x
_atom_site_fract_y
_atom_site_fract_z
Si Si1 0.033897 0.312945 0.786711
Si Si2 0.887654 0.017297 0.837351
Si Si3 0.741104 0.783656 0.519218
Si Si4 0.749732 0.163241 0.293864
Si Si5 0.403633 0.503699 0.416847
Si Si6 0.500000 0.500000 0.000000
Si Si7 0.398026 0.128261 0.654416
Si Si8 0.968305 0.300919 0.442394
O O1 0.983383 0.292351 0.620215
O O2 0.165286 0.310326 0.695667
O O3 0.983937 0.150573 0.809388
O O4 0.000000 0.500000 0.000000
O O5 0.807685 0.944738 0.685221
O O6 0.947523 0.845331 0.764306
O O7 0.813706 0.119065 0.068996
O O8 0.687393 0.649610 0.587764
O O9 0.648930 0.839865 0.478886
O O10 0.656375 0.307632 0.417438
O O11 0.844079 0.246547 0.419669
O O12 0.695697 0.982048 0.272442
O O13 0.500000 0.500000 0.500000
O O14 0.449344 0.475001 0.195462
O O15 0.563994 0.688174 0.154601
O O16 0.500000 0.000000 0.500000
O O17 0.000000 0.500000 0.500000
#
# Coordination Sequence:
#
# PCOD9059375 Si02
#       8
#     2   2   2   2   2   1   2   2
#     4  11  23  42  66 100 141 181 233 286 353 435
#     4  11  23  43  67 103 139 187 232 289 358 435
#     4  11  23  44  70  98 142 186 232 291 363 427
#     4  12  24  43  72 101 144 188 237 291 368 425
#     4  12  25  48  70 105 140 187 243 299 353 428
#     4  12  26  48  74  98 144 182 242 314 352 404
#     4  12  25  47  69 104 139 185 245 299 355 425
#     4  11  23  41  67 104 140 179 233 295 350 436
#
# _framework density 20.027234
#
# number of rings (size 3 to 8) (size 9 to 14) (size 15 to 20)
#    0.000    0.533    2.667    7.600    0.000    3.200 
#    4.800    2.667    0.000    0.000    0.000    0.000 
#    0.000    0.000    0.000    0.000    0.000    0.000 
#
# Total GULP energy -83645.358685 kJ/mol
# GULP energy per Si atom -5576.357246 kJ/mol
# Density = 1.998165 g / cm^3
# Si number density = 20.027234 Si / 1000 Ang^3
#
#
#
# Elastic Constant Matrix: (Units=GPa)
#
#
# Indices 1 2 3 4 5 6 
#
# 1 111.3441 49.7143 45.3027 14.0134 0.3618 -0.9139
# 2 49.7143 166.7157 46.2675 -4.4736 -4.7950 21.4695
# 3 45.3027 46.2675 84.0903 -8.7339 -7.7268 -1.8762
# 4 14.0134 -4.4736 -8.7339 40.3724 11.7889 -1.1733
# 5 0.3618 -4.7950 -7.7268 11.7889 18.6166 3.9132
# 6 -0.9139 21.4695 -1.8762 -1.1733 3.9132 42.6248
#
#
#
# Elastic Compliance Matrix: (Units=1/GPa)
#
#
# Indices 1 2 3 4 5 6 
#
# 1 0.013605 -0.002545 -0.006556 -0.006455 0.000218 0.001087
# 2 -0.002545 0.008240 -0.003068 0.000573 0.001473 -0.004460
# 3 -0.006556 -0.003068 0.017968 0.004935 0.003242 0.002034
# 4 -0.006455 0.000573 0.004935 0.033975 -0.019726 0.002537
# 5 0.000218 0.001473 0.003242 -0.019726 0.069509 -0.007519
# 6 0.001087 -0.004460 0.002034 0.002537 -0.007519 0.026580
#
#
# Mechanical properties :
#
#
# Convention : Reuss Voigt Hill
#
# Bulk Modulus (GPa) = 64.61149 71.63546 68.12348
# Shear Modulus (GPa) = 25.07878 35.04712 30.06295
#
# Velocity S-wave (km/s) = 3.54253 4.18781 3.87861
# Velocity P-wave (km/s) = 7.00461 7.69612 7.35849
#
# Compressibility (1/GPa) = 0.01547712
#
# Stress axis : x y z
#
# Youngs Moduli (GPa) = 73.50118 121.35235 55.65594
#
# Poissons Ratio (x) = 0.30880 0.36486
# Poissons Ratio (y) = 0.18703 0.17074
# Poissons Ratio (z) = 0.48185 0.37228
#
# Static dielectric constant tensor:
#      x y z
#    x 1.718660 0.002920 -0.013120 
#    y 0.002920 1.714820 0.002810 
#    z -0.013120 0.002810 1.704240 
# 
# From -- ./inp_files/241277.got.cif
#   From: 2010.05.17/outbox.cif.g08.bks.cpg/sg2_121_cif.got.tgz:241277.got - 2010.06.03 11:33:40.
