data_PCOD9059746
_publ_section_title
;
Structure prediction by ZEFSAII (Michael W. Deem and Ramdas Pophale) SiO2 
 PCOD9059746
Probable space group: P -1
;
_chemical_formula_sum "Si O2"
_cell_formula_units_Z 14
_cell_length_a 8.016965
_cell_length_b 5.745145
_cell_length_c 18.745166
_cell_angle_alpha 89.337352
_cell_angle_beta 45.046457
_cell_angle_gamma 110.195449
_cell_volume 529.311087
_symmetry_space_group_name_H-M "P -1"
_symmetry_group_IT_number 2
_symmetry_cell_setting 'triclinic'
loop_
_space_group_symop_operation_xyz
x,y,z
-x,-y,-z
loop_
_atom_site_type_symbol
_atom_site_label
_atom_site_fract_x
_atom_site_fract_y
_atom_site_fract_z
Si Si1 0.428825 0.854308 0.339002
Si Si2 0.613749 0.614791 0.082128
Si Si3 0.063604 0.606455 0.202155
Si Si4 0.639958 0.322561 0.438999
Si Si5 0.981264 0.710625 0.576101
Si Si6 0.080468 0.109333 0.863728
Si Si7 0.691521 0.926298 0.764786
O O1 0.227880 0.908005 0.449559
O O2 0.737270 0.922727 0.252483
O O3 0.268598 0.527360 0.388486
O O4 0.424531 0.973446 0.263265
O O5 0.322524 0.571095 0.142147
O O6 0.732131 0.754519 0.123327
O O7 0.550562 0.315693 0.117675
O O8 0.838023 0.817250 0.959160
O O9 0.772205 0.376887 0.320489
O O10 0.029661 0.699832 0.134078
O O11 0.131514 0.857088 0.231765
O O12 0.500000 0.500000 0.500000
O O13 0.895281 0.439513 0.414904
O O14 0.500000 0.000000 0.500000
O O15 0.875581 0.836268 0.665745
#
# Coordination Sequence:
#
# PCOD9059746 Si02
#       7
#     2   2   2   2   2   2   2
#     4  11  23  43  69 100 142 189 246 299 372 454
#     4  11  25  48  73  99 145 191 246 310 374 448
#     4  12  25  47  72 103 152 187 244 311 380 448
#     4  12  25  42  69 107 152 194 248 313 371 457
#     4  11  23  42  68 100 145 196 237 296 386 446
#     4  11  24  49  71 106 139 191 254 306 371 449
#     4  12  21  45  72 101 145 195 238 309 384 444
#
# _framework density 26.449473999999999
#
# number of rings (size 3 to 8) (size 9 to 14) (size 15 to 20)
#    0.000    0.571    5.714    2.571    0.000    2.286 
#    2.571    0.000    0.000    0.000    0.000    0.000 
#    0.000    0.000    0.000    0.000    0.000    0.000 
#
# Total GULP energy -78300.414457 kJ/mol
# GULP energy per Si atom -5592.886747 kJ/mol
# Density = 2.638927 g / cm^3
# Si number density = 26.449474 Si / 1000 Ang^3
#
#
#
# Elastic Constant Matrix: (Units=GPa)
#
#
# Indices 1 2 3 4 5 6 
#
# 1 105.1711 0.6378 24.1152 -5.6280 10.0933 -36.4104
# 2 0.6378 79.6226 33.0804 -15.3960 -2.3751 -3.4443
# 3 24.1152 33.0804 153.0629 -47.8325 2.5859 -5.3270
# 4 -5.6280 -15.3960 -47.8325 53.3486 -3.6547 8.0881
# 5 10.0933 -2.3751 2.5859 -3.6547 34.1262 -4.1711
# 6 -36.4104 -3.4443 -5.3270 8.0881 -4.1711 24.1713
#
#
#
# Elastic Compliance Matrix: (Units=1/GPa)
#
#
# Indices 1 2 3 4 5 6 
#
# 1 0.022726 0.001958 -0.004909 -0.006973 -0.002645 0.035308
# 2 0.001958 0.014186 -0.002886 0.001169 0.001261 0.004161
# 3 -0.004909 -0.002886 0.010583 0.009466 0.000416 -0.008570
# 4 -0.006973 0.001169 0.009466 0.029694 0.002435 -0.017768
# 5 -0.002645 0.001261 0.000416 0.002435 0.030492 0.000735
# 6 0.035308 0.004161 -0.008570 -0.017768 0.000735 0.099334
#
#
# Mechanical properties :
#
#
# Convention : Reuss Voigt Hill
#
# Bulk Modulus (GPa) = 27.91645 50.39150 39.15397
# Shear Modulus (GPa) = 21.67969 40.99744 31.33856
#
# Velocity S-wave (km/s) = 2.86608 3.94131 3.44589
# Velocity P-wave (km/s) = 4.64006 6.30914 5.53784
#
# Compressibility (1/GPa) = 0.03582118
#
# Stress axis : x y z
#
# Youngs Moduli (GPa) = 44.00158 70.49183 94.48868
#
# Poissons Ratio (x) = -0.13800 0.46388
# Poissons Ratio (y) = -0.08614 0.27266
# Poissons Ratio (z) = 0.21602 0.20341
#
# Static dielectric constant tensor:
#      x y z
#    x 2.112610 0.032470 -0.001570 
#    y 0.032470 2.138020 -0.002780 
#    z -0.001570 -0.002780 2.138110 
# 
# From -- ./inp_files/585635.got.cif
#   From: 2010.05.17/outbox.cif.g08.bks.cpg/sg2_293_cif.got.tgz:585635.got - 2010.06.03 11:33:40.
