data_PCOD9059561
_publ_section_title
;
Structure prediction by ZEFSAII (Michael W. Deem and Ramdas Pophale) SiO2 
 PCOD9059561
Probable space group: P -1
;
_chemical_formula_sum "Si O2"
_cell_formula_units_Z 14
_cell_length_a 16.400486
_cell_length_b 11.261169
_cell_length_c 6.492106
_cell_angle_alpha 54.283897
_cell_angle_beta 46.815748
_cell_angle_gamma 40.146288
_cell_volume 558.968313
_symmetry_space_group_name_H-M "P -1"
_symmetry_group_IT_number 2
_symmetry_cell_setting 'triclinic'
loop_
_space_group_symop_operation_xyz
x,y,z
-x,-y,-z
loop_
_atom_site_type_symbol
_atom_site_label
_atom_site_fract_x
_atom_site_fract_y
_atom_site_fract_z
Si Si1 0.352952 0.010694 0.309425
Si Si2 0.370310 0.692945 0.622233
Si Si3 0.048539 0.225373 0.741516
Si Si4 0.949742 0.482286 0.321043
Si Si5 0.494757 0.885004 0.803676
Si Si6 0.307341 0.511085 0.265103
Si Si7 0.872652 0.170318 0.404748
O O1 0.440756 0.794971 0.437034
O O2 0.215320 0.081083 0.609669
O O3 0.401894 0.128995 0.184225
O O4 0.351580 0.011678 0.060995
O O5 0.500000 0.500000 0.500000
O O6 0.245189 0.818131 0.542668
O O7 0.308659 0.643671 0.964328
O O8 0.009506 0.409136 0.728384
O O9 0.020526 0.277811 0.496062
O O10 0.961594 0.177676 0.062398
O O11 0.788321 0.557835 0.534548
O O12 0.000000 0.500000 0.000000
O O13 0.538649 0.691227 0.835201
O O14 0.500000 0.000000 0.500000
O O15 0.230319 0.642557 0.466257
O O16 0.000000 0.000000 0.500000
#
# Coordination Sequence:
#
# PCOD9059561 Si02
#       7
#     2   2   2   2   2   2   2
#     4  11  26  46  71 102 147 194 250 302 383 442
#     4  12  28  51  74 105 157 206 251 309 385 453
#     4  11  24  42  71 105 143 187 244 314 377 440
#     4  11  23  41  72 107 140 187 240 315 383 441
#     4  11  27  45  74 107 143 196 254 316 369 454
#     4  12  25  48  76 107 149 196 260 309 382 455
#     4  12  29  47  76 113 151 200 258 313 380 460
#
# _framework density 25.046143000000001
#
# number of rings (size 3 to 8) (size 9 to 14) (size 15 to 20)
#    0.000    0.571    5.714    0.857    6.000    4.000 
#    0.000    0.000    0.000    0.000    0.000    0.000 
#    0.000    0.000    0.000    0.000    0.000    0.000 
#
# Total GULP energy -77934.232207 kJ/mol
# GULP energy per Si atom -5566.730872 kJ/mol
# Density = 2.498914 g / cm^3
# Si number density = 25.046143 Si / 1000 Ang^3
#
#
#
# Elastic Constant Matrix: (Units=GPa)
#
#
# Indices 1 2 3 4 5 6 
#
# 1 58.1104 4.7970 29.9751 -16.4594 -8.2508 -5.6398
# 2 4.7970 85.5546 40.3709 -14.8945 18.8388 -12.0459
# 3 29.9751 40.3709 212.9447 -14.9258 -13.1545 -2.4511
# 4 -16.4594 -14.8945 -14.9258 24.8553 -4.3371 -27.9474
# 5 -8.2508 18.8388 -13.1545 -4.3371 37.6927 -2.5556
# 6 -5.6398 -12.0459 -2.4511 -27.9474 -2.5556 -12.0491
#
#
#
# Elastic Compliance Matrix: (Units=1/GPa)
#
#
# Indices 1 2 3 4 5 6 
#
# 1 0.018318 -0.002004 -0.002013 0.000707 0.003807 -0.008607
# 2 -0.002004 0.014213 -0.003209 -0.002309 -0.009287 -0.005293
# 3 -0.002013 -0.003209 0.005859 0.000936 0.003321 0.000083
# 4 0.000707 -0.002309 0.000936 0.011588 0.001250 -0.025355
# 5 0.003807 -0.009287 0.003321 0.001250 0.033098 -0.003092
# 6 -0.008607 -0.005293 0.000083 -0.025355 -0.003092 -0.014225
#
#
# Mechanical properties :
#
#
# Convention : Reuss Voigt Hill
#
# Bulk Modulus (GPa) = 41.77490 56.32176 49.04833
# Shear Modulus (GPa) = 54.77505 28.86425 41.81965
#
# Velocity S-wave (km/s) = 4.68157 3.39845 4.09063
# Velocity P-wave (km/s) = 6.77777 6.15916 6.47586
#
# Compressibility (1/GPa) = 0.02393782
#
# Stress axis : x y z
#
# Youngs Moduli (GPa) = 54.59214 70.35988 170.66427
#
# Poissons Ratio (x) = 0.14102 0.34353
# Poissons Ratio (y) = 0.10942 0.54763
# Poissons Ratio (z) = 0.10989 0.22577
#
# Static dielectric constant tensor:
#      x y z
#    x 2.234130 -0.109520 0.144750 
#    y -0.109520 2.262670 -0.062400 
#    z 0.144750 -0.062400 2.207560 
# 
# From -- ./inp_files/109552.got.cif
#   From: 2010.05.17/outbox.cif.g08.bks.cpg/sg2_55_cif.got.tgz:109552.got - 2010.06.03 11:33:40.
