data_PCOD9059795
_publ_section_title
;
Structure prediction by ZEFSAII (Michael W. Deem and Ramdas Pophale) SiO2 
 PCOD9059795
Probable space group: P -1
;
_chemical_formula_sum "Si O2"
_cell_formula_units_Z 10
_cell_length_a 17.081809
_cell_length_b 8.853026
_cell_length_c 8.698875
_cell_angle_alpha 133.676110
_cell_angle_beta 151.442268
_cell_angle_gamma 43.342181
_cell_volume 426.211116
_symmetry_space_group_name_H-M "P -1"
_symmetry_group_IT_number 2
_symmetry_cell_setting 'triclinic'
loop_
_space_group_symop_operation_xyz
x,y,z
-x,-y,-z
loop_
_atom_site_type_symbol
_atom_site_label
_atom_site_fract_x
_atom_site_fract_y
_atom_site_fract_z
Si Si1 0.897081 0.829168 0.223024
Si Si2 0.654604 0.886437 0.569795
Si Si3 0.297949 0.021449 0.704599
Si Si4 0.322959 0.697339 0.290511
Si Si5 0.184117 0.445810 0.620799
O O1 0.743187 0.936536 0.157768
O O2 0.021736 0.601051 0.353689
O O3 0.821981 0.798912 0.908134
O O4 0.000000 0.000000 0.500000
O O5 0.663536 0.680820 0.329292
O O6 0.500000 0.000000 0.500000
O O7 0.658026 0.091796 0.616196
O O8 0.170371 0.237397 0.545767
O O9 0.254095 0.810576 0.416078
O O10 0.500000 0.000000 0.000000
O O11 0.500000 0.500000 0.500000
O O12 0.228909 0.592809 0.932349
#
# Coordination Sequence:
#
# PCOD9059795 Si02
#       5
#     2   2   2   2   2
#     4  12  25  47  70 106 143 177 227 298 351 395
#     4  11  26  45  71 100 141 185 230 283 347 416
#     4  11  24  46  72  99 139 187 236 274 339 426
#     4  11  23  42  69 100 135 180 237 280 335 413
#     4  11  24  46  68 100 139 185 230 283 347 410
#
# _framework density 23.462553
#
# number of rings (size 3 to 8) (size 9 to 14) (size 15 to 20)
#    0.000    0.800    4.000    3.600    0.000    3.200 
#    3.600    0.000    0.000    0.000    0.000    0.000 
#    0.000    0.000    0.000    0.000    0.000    0.000 
#
# Total GULP energy -55868.836928 kJ/mol
# GULP energy per Si atom -5586.883693 kJ/mol
# Density = 2.340915 g / cm^3
# Si number density = 23.462553 Si / 1000 Ang^3
#
#
#
# Elastic Constant Matrix: (Units=GPa)
#
#
# Indices 1 2 3 4 5 6 
#
# 1 103.2901 31.6206 19.9552 2.4277 -12.6863 -22.4836
# 2 31.6206 142.3211 55.3502 -8.2799 -19.5854 -0.3894
# 3 19.9552 55.3502 112.8969 -0.7409 -37.2808 -10.4142
# 4 2.4277 -8.2799 -0.7409 52.0696 -3.4241 -24.0289
# 5 -12.6863 -19.5854 -37.2808 -3.4241 40.5161 -5.1631
# 6 -22.4836 -0.3894 -10.4142 -24.0289 -5.1631 43.0007
#
#
#
# Elastic Compliance Matrix: (Units=1/GPa)
#
#
# Indices 1 2 3 4 5 6 
#
# 1 0.013021 -0.002530 0.002054 0.004258 0.006433 0.010434
# 2 -0.002530 0.009275 -0.004528 0.000492 -0.000707 -0.002146
# 3 0.002054 -0.004528 0.016777 0.004930 0.015547 0.009718
# 4 0.004258 0.000492 0.004930 0.029795 0.011357 0.021438
# 5 0.006433 -0.000707 0.015547 0.011357 0.044009 0.018753
# 6 0.010434 -0.002146 0.009718 0.021438 0.018753 0.045276
#
#
# Mechanical properties :
#
#
# Convention : Reuss Voigt Hill
#
# Bulk Modulus (GPa) = 34.40710 63.59556 49.00133
# Shear Modulus (GPa) = 28.11357 43.88943 36.00150
#
# Velocity S-wave (km/s) = 3.46530 4.32975 3.92142
# Velocity P-wave (km/s) = 5.54145 7.22217 6.43690
#
# Compressibility (1/GPa) = 0.02906377
#
# Stress axis : x y z
#
# Youngs Moduli (GPa) = 76.80140 107.81658 59.60428
#
# Poissons Ratio (x) = 0.27278 -0.12242
# Poissons Ratio (y) = 0.19431 0.26991
# Poissons Ratio (z) = -0.15774 0.48823
#
# Static dielectric constant tensor:
#      x y z
#    x 1.996920 -0.077380 -0.033550 
#    y -0.077380 1.878830 -0.006220 
#    z -0.033550 -0.006220 1.966550 
# 
# From -- ./inp_files/15634.got.cif
#   From: 2010.05.17/outbox.cif.g08.bks.cpg/sg2_8_cif.got.tgz:15634.got - 2010.06.03 11:33:40.
