data_PCOD9059453
_publ_section_title
;
Structure prediction by ZEFSAII (Michael W. Deem and Ramdas Pophale) SiO2 
 PCOD9059453
Probable space group: P -1
;
_chemical_formula_sum "Si O2"
_cell_formula_units_Z 16
_cell_length_a 17.297264
_cell_length_b 21.260264
_cell_length_c 11.980363
_cell_angle_alpha 149.081560
_cell_angle_beta 151.166696
_cell_angle_gamma 17.709586
_cell_volume 638.054964
_symmetry_space_group_name_H-M "P -1"
_symmetry_group_IT_number 2
_symmetry_cell_setting 'triclinic'
loop_
_space_group_symop_operation_xyz
x,y,z
-x,-y,-z
loop_
_atom_site_type_symbol
_atom_site_label
_atom_site_fract_x
_atom_site_fract_y
_atom_site_fract_z
Si Si1 0.549360 0.790410 0.157260
Si Si2 0.161831 0.051724 0.771787
Si Si3 0.506999 0.314867 0.722615
Si Si4 0.789707 0.318666 0.240142
Si Si5 0.309020 0.432675 0.330842
Si Si6 0.562225 0.049614 0.495743
Si Si7 0.995304 0.977077 0.265650
Si Si8 0.936018 0.635171 0.954023
O O1 0.538101 0.918408 0.257543
O O2 0.817185 0.549316 0.097808
O O3 0.552469 0.841010 0.362424
O O4 0.277868 0.878992 0.929750
O O5 0.992780 0.139666 0.805531
O O6 0.420802 0.800005 0.729242
O O7 0.998137 0.095818 0.527018
O O8 0.231244 0.146271 0.970926
O O9 0.268805 0.551147 0.738282
O O10 0.746950 0.175993 0.722754
O O11 0.421810 0.228239 0.502902
O O12 0.637860 0.291111 0.964867
O O13 0.667677 0.453383 0.403107
O O14 0.115824 0.114232 0.355199
O O15 0.219957 0.391695 0.251866
O O16 0.082536 0.580402 0.173400
#
# Coordination Sequence:
#
# PCOD9059453 Si02
#       8
#     2   2   2   2   2   2   2   2
#     4  11  24  46  67 101 136 168 224 276 326 399
#     4  11  25  44  66  96 138 176 215 281 327 382
#     4  11  25  43  71  98 130 181 220 271 329 394
#     4  11  23  41  69 101 130 169 231 265 318 403
#     4  11  23  43  67 104 133 170 229 270 318 408
#     4  11  25  46  69  97 137 174 216 278 333 384
#     4  11  24  45  64  99 136 170 223 274 324 390
#     4  11  25  42  70  98 132 181 219 267 338 390
#
# _framework density 25.076211000000001
#
# number of rings (size 3 to 8) (size 9 to 14) (size 15 to 20)
#    0.000    1.000    5.000    0.750    1.750    3.500 
#    0.000    1.250    0.000    0.000    0.000    0.000 
#    0.000    0.000    0.000    0.000    0.000    0.000 
#
# Total GULP energy -89636.495015 kJ/mol
# GULP energy per Si atom -5602.280938 kJ/mol
# Density = 2.501914 g / cm^3
# Si number density = 25.076211 Si / 1000 Ang^3
#
#
#
# Elastic Constant Matrix: (Units=GPa)
#
#
# Indices 1 2 3 4 5 6 
#
# 1 82.9305 16.2207 13.8924 21.7825 -8.6766 7.9525
# 2 16.2207 45.2057 -2.1368 10.3843 5.0455 11.3771
# 3 13.8924 -2.1368 104.6550 5.3279 -10.0080 4.8548
# 4 21.7825 10.3843 5.3279 31.6284 3.8982 5.8344
# 5 -8.6766 5.0455 -10.0080 3.8982 38.9862 12.6493
# 6 7.9525 11.3771 4.8548 5.8344 12.6493 32.2910
#
#
#
# Elastic Compliance Matrix: (Units=1/GPa)
#
#
# Indices 1 2 3 4 5 6 
#
# 1 0.016514 -0.003498 -0.001034 -0.010197 0.005904 -0.003149
# 2 -0.003498 0.026598 0.001527 -0.005093 -0.000896 -0.007468
# 3 -0.001034 0.001527 0.010239 -0.001391 0.003265 -0.002850
# 4 -0.010197 -0.005093 -0.001391 0.041394 -0.005894 -0.000656
# 5 0.005904 -0.000896 0.003265 -0.005894 0.032868 -0.013439
# 6 -0.003149 -0.007468 -0.002850 -0.000656 -0.013439 0.040187
#
#
# Mechanical properties :
#
#
# Convention : Reuss Voigt Hill
#
# Bulk Modulus (GPa) = 21.12317 32.08264 26.60290
# Shear Modulus (GPa) = 26.37290 34.23544 30.30417
#
# Velocity S-wave (km/s) = 3.24653 3.69895 3.48010
# Velocity P-wave (km/s) = 4.74290 5.57358 5.17493
#
# Compressibility (1/GPa) = 0.04734139
#
# Stress axis : x y z
#
# Youngs Moduli (GPa) = 60.55562 37.59681 97.66734
#
# Poissons Ratio (x) = 0.13152 0.10096
# Poissons Ratio (y) = 0.21184 -0.14918
# Poissons Ratio (z) = 0.06260 -0.05743
#
# Static dielectric constant tensor:
#      x y z
#    x 1.962630 0.035200 -0.017290 
#    y 0.035200 1.968920 -0.026470 
#    z -0.017290 -0.026470 1.979230 
# 
# From -- ./inp_files/467203.got.cif
#   From: 2010.05.17/outbox.cif.g08.bks.cpg/sg2_234_cif.got.tgz:467203.got - 2010.06.03 11:33:40.
