data_PCOD9059190
_publ_section_title
;
Structure prediction by ZEFSAII (Michael W. Deem and Ramdas Pophale) SiO2 
 PCOD9059190
Probable space group: P -1
;
_chemical_formula_sum "Si O2"
_cell_formula_units_Z 14
_cell_length_a 10.963221
_cell_length_b 12.701934
_cell_length_c 8.830815
_cell_angle_alpha 34.496442
_cell_angle_beta 58.197340
_cell_angle_gamma 52.254033
_cell_volume 550.021487
_symmetry_space_group_name_H-M "P -1"
_symmetry_group_IT_number 2
_symmetry_cell_setting 'triclinic'
loop_
_space_group_symop_operation_xyz
x,y,z
-x,-y,-z
loop_
_atom_site_type_symbol
_atom_site_label
_atom_site_fract_x
_atom_site_fract_y
_atom_site_fract_z
Si Si1 0.896317 0.962485 0.425449
Si Si2 0.819423 0.710458 0.551575
Si Si3 0.972119 0.717216 0.945784
Si Si4 0.356996 0.803670 0.452812
Si Si5 0.554621 0.607967 0.974097
Si Si6 0.279365 0.327843 0.665769
Si Si7 0.359168 0.675776 0.295455
O O1 0.866980 0.886864 0.373548
O O2 0.739392 0.058288 0.513488
O O3 0.991248 0.772417 0.694278
O O4 0.973325 0.126643 0.183633
O O5 0.652197 0.729169 0.702609
O O6 0.810749 0.691388 0.401222
O O7 0.930285 0.502560 0.799378
O O8 0.794435 0.745656 0.059639
O O9 0.536807 0.780334 0.355833
O O10 0.299803 0.836153 0.276960
O O11 0.347583 0.589595 0.760133
O O12 0.500000 0.500000 0.000000
O O13 0.426766 0.733138 0.030659
O O14 0.254257 0.558478 0.443561
O O15 0.500000 0.500000 0.500000
#
# Coordination Sequence:
#
# PCOD9059190 Si02
#       7
#     2   2   2   2   2   2   2
#     4  11  27  43  67  97 128 177 220 263 327 380
#     4  12  23  42  71  94 132 175 214 265 330 387
#     4  11  26  46  62  92 136 175 220 264 313 399
#     4  10  21  42  65  99 133 162 218 270 319 388
#     4  10  17  37  66 100 129 163 212 267 326 382
#     4  10  22  41  69 101 126 171 218 266 335 375
#     4   8  18  34  64  95 127 162 205 261 322 378
#
# _framework density 25.453552999999999
#
# number of rings (size 3 to 8) (size 9 to 14) (size 15 to 20)
#    0.000    2.000    4.286    0.857    6.000    4.000 
#    0.000    1.429    0.000    0.000    0.000    0.000 
#    0.000    0.000    0.000    0.000    0.000    0.000 
#
# Total GULP energy -78282.739769 kJ/mol
# GULP energy per Si atom -5591.624269 kJ/mol
# Density = 2.539562 g / cm^3
# Si number density = 25.453553 Si / 1000 Ang^3
#
#
#
# Elastic Constant Matrix: (Units=GPa)
#
#
# Indices 1 2 3 4 5 6 
#
# 1 79.6427 44.6570 -3.8022 -3.1505 -15.0079 15.3508
# 2 44.6570 97.1884 -3.0660 4.7125 5.6058 17.0288
# 3 -3.8022 -3.0660 51.6650 10.6877 -14.9531 -10.0663
# 4 -3.1505 4.7125 10.6877 21.5809 -8.9613 -1.8193
# 5 -15.0079 5.6058 -14.9531 -8.9613 38.4999 7.3524
# 6 15.3508 17.0288 -10.0663 -1.8193 7.3524 54.6723
#
#
#
# Elastic Compliance Matrix: (Units=1/GPa)
#
#
# Indices 1 2 3 4 5 6 
#
# 1 0.022798 -0.011013 0.002302 0.010294 0.014576 -0.004165
# 2 -0.011013 0.016469 -0.000858 -0.008526 -0.008760 -0.001301
# 3 0.002302 -0.000858 0.023919 -0.007779 0.007988 0.002692
# 4 0.010294 -0.008526 -0.007779 0.060300 0.016631 -0.001897
# 5 0.014576 -0.008760 0.007988 0.016631 0.040828 -0.004830
# 6 -0.004165 -0.001301 0.002692 -0.001897 -0.004830 0.020948
#
#
# Mechanical properties :
#
#
# Convention : Reuss Voigt Hill
#
# Bulk Modulus (GPa) = 22.70268 33.78597 28.24432
# Shear Modulus (GPa) = 22.82241 35.66445 29.24343
#
# Velocity S-wave (km/s) = 2.99763 3.74727 3.39321
# Velocity P-wave (km/s) = 4.57380 5.65907 5.14513
#
# Compressibility (1/GPa) = 0.04404766
#
# Stress axis : x y z
#
# Youngs Moduli (GPa) = 43.86403 60.71937 41.80705
#
# Poissons Ratio (x) = 0.66869 -0.09623
# Poissons Ratio (y) = 0.48307 0.03588
# Poissons Ratio (z) = -0.10097 0.05212
#
# Static dielectric constant tensor:
#      x y z
#    x 2.073830 -0.092920 0.036580 
#    y -0.092920 2.114520 -0.029580 
#    z 0.036580 -0.029580 1.970730 
# 
# From -- ./inp_files/255652.got.cif
#   From: 2010.05.17/outbox.cif.g08.bks.cpg/sg2_128_cif.got.tgz:255652.got - 2010.06.03 11:33:40.
