data_PCOD9059819
_publ_section_title
;
Structure prediction by ZEFSAII (Michael W. Deem and Ramdas Pophale) SiO2 
 PCOD9059819
Probable space group: P -1
;
_chemical_formula_sum "Si O2"
_cell_formula_units_Z 14
_cell_length_a 11.751130
_cell_length_b 14.315499
_cell_length_c 15.828729
_cell_angle_alpha 143.081812
_cell_angle_beta 23.836391
_cell_angle_gamma 127.236321
_cell_volume 552.170289
_symmetry_space_group_name_H-M "P -1"
_symmetry_group_IT_number 2
_symmetry_cell_setting 'triclinic'
loop_
_space_group_symop_operation_xyz
x,y,z
-x,-y,-z
loop_
_atom_site_type_symbol
_atom_site_label
_atom_site_fract_x
_atom_site_fract_y
_atom_site_fract_z
Si Si1 0.607935 0.314943 0.141366
Si Si2 0.939703 0.997362 0.269205
Si Si3 0.465953 0.856056 0.500301
Si Si4 0.053106 0.498978 0.762150
Si Si5 0.286682 0.682522 0.224001
Si Si6 0.303917 0.249033 0.555146
Si Si7 0.605067 0.110005 0.837504
O O1 0.280762 0.491348 0.525865
O O2 0.493414 0.222215 0.081432
O O3 0.925581 0.312781 0.886103
O O4 0.761842 0.183858 0.024072
O O5 0.870767 0.044138 0.250992
O O6 0.913811 0.159471 0.458351
O O7 0.618625 0.983611 0.500420
O O8 0.488952 0.777569 0.520431
O O9 0.734541 0.690024 0.139440
O O10 0.256660 0.411525 0.645918
O O11 0.937760 0.359252 0.713293
O O12 0.476359 0.749960 0.083243
O O13 0.500000 0.500000 0.000000
O O14 0.453894 0.052942 0.264323
O O15 0.000000 0.000000 0.500000
#
# Coordination Sequence:
#
# PCOD9059819 Si02
#       7
#     2   2   2   2   2   2   2
#     4  10  21  38  64  95 122 156 211 261 303 360
#     4  10  20  38  61  87 125 169 199 254 311 368
#     4  10  21  38  61  89 125 170 203 239 324 370
#     4  12  23  36  67  99 116 162 212 258 302 371
#     4  12  21  37  64  91 123 158 208 260 305 360
#     4  10  20  39  62  88 128 163 205 252 307 370
#     4  10  17  38  61  85 122 162 195 257 309 351
#
# _framework density 25.354493999999999
#
# number of rings (size 3 to 8) (size 9 to 14) (size 15 to 20)
#    0.000    1.429    8.571    0.429    0.000    4.571 
#    0.000    1.429    0.000    5.143    0.000    0.000 
#    0.000    0.000    0.000    0.000    0.000    0.000 
#
# Total GULP energy -78298.244019 kJ/mol
# GULP energy per Si atom -5592.731716 kJ/mol
# Density = 2.529679 g / cm^3
# Si number density = 25.354494 Si / 1000 Ang^3
#
#
#
# Elastic Constant Matrix: (Units=GPa)
#
#
# Indices 1 2 3 4 5 6 
#
# 1 123.0979 15.4498 25.7416 -1.5793 10.3930 -7.9948
# 2 15.4498 83.5632 27.6180 4.1267 -4.3378 -2.0277
# 3 25.7416 27.6180 96.8611 -9.4449 19.4107 1.0614
# 4 -1.5793 4.1267 -9.4449 28.8139 -3.5221 0.0934
# 5 10.3930 -4.3378 19.4107 -3.5221 28.9981 15.6966
# 6 -7.9948 -2.0277 1.0614 0.0934 15.6966 52.0534
#
#
#
# Elastic Compliance Matrix: (Units=1/GPa)
#
#
# Indices 1 2 3 4 5 6 
#
# 1 0.009067 -0.001401 -0.001248 -0.000215 -0.004049 0.002585
# 2 -0.001401 0.014472 -0.005391 -0.003086 0.006752 -0.001572
# 3 -0.001248 -0.005391 0.014819 0.004182 -0.011217 0.002671
# 4 -0.000215 -0.003086 0.004182 0.036720 0.001722 -0.000824
# 5 -0.004049 0.006752 -0.011217 0.001722 0.053462 -0.016255
# 6 0.002585 -0.001572 0.002671 -0.000824 -0.016255 0.024395
#
#
# Mechanical properties :
#
#
# Convention : Reuss Voigt Hill
#
# Bulk Modulus (GPa) = 44.88493 49.01565 46.95029
# Shear Modulus (GPa) = 28.33788 37.62059 32.97924
#
# Velocity S-wave (km/s) = 3.34678 3.85617 3.61047
# Velocity P-wave (km/s) = 5.71629 6.26106 5.99486
#
# Compressibility (1/GPa) = 0.02227919
#
# Stress axis : x y z
#
# Youngs Moduli (GPa) = 110.28479 69.09680 67.48035
#
# Poissons Ratio (x) = 0.09679 0.08423
# Poissons Ratio (y) = 0.15449 0.36378
# Poissons Ratio (z) = 0.13765 0.37250
#
# Static dielectric constant tensor:
#      x y z
#    x 2.053360 -0.017580 0.029690 
#    y -0.017580 2.035320 -0.036730 
#    z 0.029690 -0.036730 2.023550 
# 
# From -- ./inp_files/522460.got.cif
#   From: 2010.05.17/outbox.cif.g08.bks.cpg/sg2_262_cif.got.tgz:522460.got - 2010.06.03 11:33:40.
