data_PCOD9059447
_publ_section_title
;
Structure prediction by ZEFSAII (Michael W. Deem and Ramdas Pophale) SiO2 
 PCOD9059447
Probable space group: P -1
;
_chemical_formula_sum "Si O2"
_cell_formula_units_Z 16
_cell_length_a 10.056081
_cell_length_b 12.780299
_cell_length_c 11.807962
_cell_angle_alpha 138.667331
_cell_angle_beta 53.943756
_cell_angle_gamma 135.496551
_cell_volume 697.895570
_symmetry_space_group_name_H-M "P -1"
_symmetry_group_IT_number 2
_symmetry_cell_setting 'triclinic'
loop_
_space_group_symop_operation_xyz
x,y,z
-x,-y,-z
loop_
_atom_site_type_symbol
_atom_site_label
_atom_site_fract_x
_atom_site_fract_y
_atom_site_fract_z
Si Si1 0.904945 0.883710 0.064801
Si Si2 0.490953 0.927422 0.819154
Si Si3 0.107430 0.000145 0.289658
Si Si4 0.556184 0.493326 0.695533
Si Si5 0.783917 0.459862 0.749730
Si Si6 0.127010 0.291633 0.671359
Si Si7 0.511041 0.779837 0.107299
Si Si8 0.176108 0.517026 0.623757
O O1 0.699202 0.868155 0.164065
O O2 0.046729 0.981579 0.176384
O O3 0.862670 0.675921 0.907884
O O4 0.000000 0.000000 0.000000
O O5 0.299537 0.736908 0.736652
O O6 0.671446 0.900478 0.711424
O O7 0.512637 0.072457 0.831745
O O8 0.500000 0.000000 0.000000
O O9 0.009430 0.793797 0.222254
O O10 0.038077 0.121849 0.489352
O O11 0.641438 0.409623 0.674512
O O12 0.338916 0.353522 0.657672
O O13 0.697088 0.549658 0.562539
O O14 0.548949 0.657880 0.897802
O O15 0.668250 0.347146 0.826469
O O16 0.965839 0.439554 0.616585
O O17 0.149313 0.458713 0.721438
#
# Coordination Sequence:
#
# PCOD9059447 Si02
#       8
#     2   2   2   2   2   2   2   2
#     4  11  23  41  69 100 131 172 224 273 325 389
#     4  12  25  42  67  99 133 171 219 277 326 396
#     4  11  24  43  64  99 134 171 220 268 332 398
#     4  11  23  43  70  98 131 172 226 272 330 393
#     4  11  24  44  68  97 133 179 220 274 329 396
#     4  11  24  42  68  94 134 177 212 271 336 396
#     4  11  24  44  71  97 133 175 225 271 332 394
#     4  12  25  43  66 100 135 172 225 270 336 387
#
# _framework density 22.926065000000001
#
# number of rings (size 3 to 8) (size 9 to 14) (size 15 to 20)
#    0.000    0.750    1.250    7.500    5.250    0.000 
#    2.250    4.375    0.000    0.000    0.000    0.000 
#    0.000    0.000    0.000    0.000    0.000    0.000 
#
# Total GULP energy -89526.877875 kJ/mol
# GULP energy per Si atom -5595.429867 kJ/mol
# Density = 2.287388 g / cm^3
# Si number density = 22.926065 Si / 1000 Ang^3
#
#
#
# Elastic Constant Matrix: (Units=GPa)
#
#
# Indices 1 2 3 4 5 6 
#
# 1 107.1630 26.0652 0.9635 -0.5667 13.9810 0.0509
# 2 26.0652 143.7827 8.3282 -4.7094 5.6939 -21.2934
# 3 0.9635 8.3282 25.3710 0.3044 1.7852 -8.9543
# 4 -0.5667 -4.7094 0.3044 21.5633 2.6887 1.4974
# 5 13.9810 5.6939 1.7852 2.6887 13.7899 -9.4235
# 6 0.0509 -21.2934 -8.9543 1.4974 -9.4235 37.4816
#
#
#
# Elastic Compliance Matrix: (Units=1/GPa)
#
#
# Indices 1 2 3 4 5 6 
#
# 1 0.011856 -0.002236 -0.000547 0.002073 -0.015039 -0.005281
# 2 -0.002236 0.008089 -0.001023 0.001116 0.002158 0.004852
# 3 -0.000547 -0.001023 0.043326 -0.001959 0.002994 0.010601
# 4 0.002073 0.001116 -0.001959 0.049075 -0.015824 -0.005776
# 5 -0.015039 0.002158 0.002994 -0.015824 0.110293 0.030323
# 6 -0.005281 0.004852 0.010601 -0.005776 0.030323 0.039830
#
#
# Mechanical properties :
#
#
# Convention : Reuss Voigt Hill
#
# Bulk Modulus (GPa) = 17.96655 38.55895 28.26275
# Shear Modulus (GPa) = 17.32288 30.63092 23.97690
#
# Velocity S-wave (km/s) = 2.75180 3.65920 3.23745
# Velocity P-wave (km/s) = 4.23677 5.89138 5.13121
#
# Compressibility (1/GPa) = 0.05565897
#
# Stress axis : x y z
#
# Youngs Moduli (GPa) = 84.34562 123.62049 23.08081
#
# Poissons Ratio (x) = 0.27645 0.01262
# Poissons Ratio (y) = 0.18862 0.02362
# Poissons Ratio (z) = 0.04611 0.12649
#
# Static dielectric constant tensor:
#      x y z
#    x 1.835890 -0.012130 -0.035670 
#    y -0.012130 1.882060 -0.011660 
#    z -0.035670 -0.011660 1.906060 
# 
# From -- ./inp_files/299414.got.cif
#   From: 2010.05.17/outbox.cif.g08.bks.cpg/sg2_150_cif.got.tgz:299414.got - 2010.06.03 11:33:40.
