data_PCOD9059095
_publ_section_title
;
Structure prediction by ZEFSAII (Michael W. Deem and Ramdas Pophale) SiO2 
 PCOD9059095
Probable space group: P -1
;
_chemical_formula_sum "Si O2"
_cell_formula_units_Z 12
_cell_length_a 8.406366
_cell_length_b 14.089447
_cell_length_c 13.752123
_cell_angle_alpha 32.561355
_cell_angle_beta 113.775052
_cell_angle_gamma 137.303541
_cell_volume 478.822543
_symmetry_space_group_name_H-M "P -1"
_symmetry_group_IT_number 2
_symmetry_cell_setting 'triclinic'
loop_
_space_group_symop_operation_xyz
x,y,z
-x,-y,-z
loop_
_atom_site_type_symbol
_atom_site_label
_atom_site_fract_x
_atom_site_fract_y
_atom_site_fract_z
Si Si1 0.281742 0.993277 0.953430
Si Si2 0.143064 0.878910 0.449465
Si Si3 0.342702 0.034751 0.725414
Si Si4 0.712742 0.699462 0.636565
Si Si5 0.662430 0.920828 0.885131
Si Si6 0.778975 0.459412 0.168600
O O1 0.949381 0.684589 0.106257
O O2 0.256098 0.044143 0.011899
O O3 0.394499 0.168013 0.728569
O O4 0.500000 0.000000 0.000000
O O5 0.176542 0.711038 0.648496
O O6 0.848399 0.714598 0.562303
O O7 0.132081 0.884406 0.325384
O O8 0.443475 0.216735 0.268932
O O9 0.495978 0.972257 0.804676
O O10 0.437147 0.244868 0.484842
O O11 0.998056 0.703733 0.926377
O O12 0.531913 0.408200 0.900486
O O13 0.000000 0.000000 0.500000
#
# Coordination Sequence:
#
# PCOD9059095 Si02
#       6
#     2   2   2   2   2   2
#     4   8  17  41  65  92 127 170 212 255 318 386
#     4  11  23  40  66  97 132 161 216 273 305 384
#     4   9  21  42  66  91 130 166 209 263 312 385
#     4  12  26  41  65  98 130 168 214 264 325 375
#     4  11  23  43  70  95 124 173 216 259 322 376
#     4   9  20  39  65  92 130 167 210 257 326 368
#
# _framework density 25.061477
#
# number of rings (size 3 to 8) (size 9 to 14) (size 15 to 20)
#    1.000    1.000    1.667    1.000    4.667    5.333 
#    0.000    0.833    0.000    0.000    0.000    0.000 
#    0.000    0.000    0.000    0.000    0.000    0.000 
#
# Total GULP energy -66897.882946 kJ/mol
# GULP energy per Si atom -5574.823579 kJ/mol
# Density = 2.500444 g / cm^3
# Si number density = 25.061477 Si / 1000 Ang^3
#
#
#
# Elastic Constant Matrix: (Units=GPa)
#
#
# Indices 1 2 3 4 5 6 
#
# 1 60.4032 -1.2676 47.4138 2.5038 -5.5092 5.9835
# 2 -1.2676 86.4935 15.8241 5.5114 6.1185 -5.6751
# 3 47.4138 15.8241 103.9450 24.0345 -0.8552 -1.5538
# 4 2.5038 5.5114 24.0345 30.4425 6.2366 3.6307
# 5 -5.5092 6.1185 -0.8552 6.2366 39.8772 -2.5840
# 6 5.9835 -5.6751 -1.5538 3.6307 -2.5840 7.6378
#
#
#
# Elastic Compliance Matrix: (Units=1/GPa)
#
#
# Indices 1 2 3 4 5 6 
#
# 1 0.037670 0.000636 -0.022592 0.020106 -0.001351 -0.043649
# 2 0.000636 0.012666 -0.001641 -0.001939 -0.000994 0.009165
# 3 -0.022592 -0.001641 0.026081 -0.023214 0.003525 0.034013
# 4 0.020106 -0.001939 -0.023214 0.058232 -0.009962 -0.052966
# 5 -0.001351 -0.000994 0.003525 -0.009962 0.027657 0.015129
# 6 -0.043649 0.009165 0.034013 -0.052966 0.015129 0.209148
#
#
# Mechanical properties :
#
#
# Convention : Reuss Voigt Hill
#
# Bulk Modulus (GPa) = 34.22072 41.64247 37.93160
# Shear Modulus (GPa) = 11.67163 28.18293 19.92728
#
# Velocity S-wave (km/s) = 2.16040 3.35707 2.82287
# Velocity P-wave (km/s) = 4.46177 5.62839 5.07869
#
# Compressibility (1/GPa) = 0.02922206
#
# Stress axis : x y z
#
# Youngs Moduli (GPa) = 26.54643 78.94958 38.34255
#
# Poissons Ratio (x) = -0.05020 0.86624
# Poissons Ratio (y) = -0.01688 0.06292
# Poissons Ratio (z) = 0.59974 0.12956
#
# Static dielectric constant tensor:
#      x y z
#    x 2.041280 -0.059420 0.042220 
#    y -0.059420 2.053510 -0.034640 
#    z 0.042220 -0.034640 1.949350 
# 
# From -- ./inp_files/505103.got.cif
#   From: 2010.05.17/outbox.cif.g08.bks.cpg/sg2_253_cif.got.tgz:505103.got - 2010.06.03 11:33:40.
