data_PCOD9059357
_publ_section_title
;
Structure prediction by ZEFSAII (Michael W. Deem and Ramdas Pophale) SiO2 
 PCOD9059357
Probable space group: P -1
;
_chemical_formula_sum "Si O2"
_cell_formula_units_Z 12
_cell_length_a 7.854261
_cell_length_b 8.308596
_cell_length_c 15.048318
_cell_angle_alpha 62.977088
_cell_angle_beta 62.099544
_cell_angle_gamma 35.149689
_cell_volume 494.655791
_symmetry_space_group_name_H-M "P -1"
_symmetry_group_IT_number 2
_symmetry_cell_setting 'triclinic'
loop_
_space_group_symop_operation_xyz
x,y,z
-x,-y,-z
loop_
_atom_site_type_symbol
_atom_site_label
_atom_site_fract_x
_atom_site_fract_y
_atom_site_fract_z
Si Si1 0.342873 0.608832 0.605975
Si Si2 0.768988 0.074435 0.726841
Si Si3 0.315698 0.293103 0.427262
Si Si4 0.262881 0.246785 0.064203
Si Si5 0.218322 0.599616 0.221733
Si Si6 0.271197 0.877376 0.902115
O O1 0.500000 0.500000 0.500000
O O2 0.501254 0.660370 0.604373
O O3 0.993793 0.899896 0.631849
O O4 0.443441 0.353544 0.695630
O O5 0.815797 0.860070 0.824347
O O6 0.829845 0.198496 0.748183
O O7 0.246146 0.385222 0.317804
O O8 0.000000 0.500000 0.500000
O O9 0.500000 0.000000 0.500000
O O10 0.449533 0.256197 0.073633
O O11 0.000000 0.500000 0.000000
O O12 0.500000 0.000000 0.000000
O O13 0.541425 0.387092 0.145304
O O14 0.916261 0.833953 0.177648
O O15 0.000000 0.000000 0.000000
#
# Coordination Sequence:
#
# PCOD9059357 Si02
#       6
#     2   2   2   2   2   2
#     4  11  24  43  67  98 134 179 226 278 339 406
#     4  11  24  45  68  96 136 182 226 279 342 405
#     4  11  23  41  66  98 136 179 226 284 344 403
#     4  12  27  47  70 102 140 182 229 287 350 415
#     4  11  24  45  69 100 139 184 233 286 345 412
#     4  12  26  45  72 106 138 180 233 290 347 413
#
# _framework density 24.259291999999999
#
# number of rings (size 3 to 8) (size 9 to 14) (size 15 to 20)
#    0.000    0.667    0.000    9.000    0.000    8.000 
#    0.000    0.000    0.000    0.000    0.000    0.000 
#    0.000    0.000    0.000    0.000    0.000    0.000 
#
# Total GULP energy -67027.449397 kJ/mol
# GULP energy per Si atom -5585.620783 kJ/mol
# Density = 2.420408 g / cm^3
# Si number density = 24.259292 Si / 1000 Ang^3
#
#
#
# Elastic Constant Matrix: (Units=GPa)
#
#
# Indices 1 2 3 4 5 6 
#
# 1 45.3938 32.3423 23.9042 -22.9574 4.1053 -8.7088
# 2 32.3423 217.9060 80.4495 -7.1498 4.0695 -30.1725
# 3 23.9042 80.4495 152.6810 -23.9370 -2.3323 -0.9884
# 4 -22.9574 -7.1498 -23.9370 72.4136 -3.3819 10.7084
# 5 4.1053 4.0695 -2.3323 -3.3819 34.0745 -2.3385
# 6 -8.7088 -30.1725 -0.9884 10.7084 -2.3385 29.7515
#
#
#
# Elastic Compliance Matrix: (Units=1/GPa)
#
#
# Indices 1 2 3 4 5 6 
#
# 1 0.030011 -0.003151 -0.001782 0.008146 -0.002387 0.002411
# 2 -0.003151 0.007392 -0.003774 -0.002628 -0.000518 0.007354
# 3 -0.001782 -0.003774 0.009262 0.002921 0.001246 -0.004995
# 4 0.008146 -0.002628 0.002921 0.018121 0.000875 -0.006637
# 5 -0.002387 -0.000518 0.001246 0.000875 0.029928 0.000855
# 6 0.002411 0.007354 -0.004995 -0.006637 0.000855 0.044066
#
#
# Mechanical properties :
#
#
# Convention : Reuss Voigt Hill
#
# Bulk Modulus (GPa) = 34.18688 76.59697 55.39193
# Shear Modulus (GPa) = 30.13098 45.86691 37.99894
#
# Velocity S-wave (km/s) = 3.52808 4.35293 3.96203
# Velocity P-wave (km/s) = 5.54250 7.54366 6.61914
#
# Compressibility (1/GPa) = 0.02925098
#
# Stress axis : x y z
#
# Youngs Moduli (GPa) = 33.32113 135.28558 107.97102
#
# Poissons Ratio (x) = 0.42624 0.19242
# Poissons Ratio (y) = 0.10498 0.40747
# Poissons Ratio (z) = 0.05938 0.51055
#
# Static dielectric constant tensor:
#      x y z
#    x 4.117760 1.131530 -0.055340 
#    y 1.131530 2.424640 -0.097730 
#    z -0.055340 -0.097730 2.069940 
# 
# From -- ./inp_files/299932.got.cif
#   From: 2010.05.17/outbox.cif.g08.bks.cpg/sg2_150_cif.got.tgz:299932.got - 2010.06.03 11:33:40.
