data_PCOD9059339
_publ_section_title
;
Structure prediction by ZEFSAII (Michael W. Deem and Ramdas Pophale) SiO2 
 PCOD9059339
Probable space group: P -1
;
_chemical_formula_sum "Si O2"
_cell_formula_units_Z 16
_cell_length_a 13.876784
_cell_length_b 12.395285
_cell_length_c 7.688135
_cell_angle_alpha 134.646394
_cell_angle_beta 64.000877
_cell_angle_gamma 138.650557
_cell_volume 610.274921
_symmetry_space_group_name_H-M "P -1"
_symmetry_group_IT_number 2
_symmetry_cell_setting 'triclinic'
loop_
_space_group_symop_operation_xyz
x,y,z
-x,-y,-z
loop_
_atom_site_type_symbol
_atom_site_label
_atom_site_fract_x
_atom_site_fract_y
_atom_site_fract_z
Si Si1 0.540701 0.498465 0.659813
Si Si2 0.158930 0.231064 0.098400
Si Si3 0.993590 0.142795 0.670121
Si Si4 0.766893 0.365981 0.960790
Si Si5 0.548832 0.838932 0.132064
Si Si6 0.939245 0.543870 0.706183
Si Si7 0.206727 0.802741 0.906202
Si Si8 0.290630 0.101039 0.606827
O O1 0.500000 0.500000 0.500000
O O2 0.712632 0.630785 0.700403
O O3 0.430837 0.264370 0.555118
O O4 0.507696 0.622721 0.926197
O O5 0.136809 0.381516 0.223208
O O6 0.242278 0.205566 0.864094
O O7 0.000000 0.000000 0.000000
O O8 0.147281 0.391196 0.809589
O O9 0.960926 0.964810 0.619493
O O10 0.891710 0.378842 0.380828
O O11 0.935968 0.227397 0.996033
O O12 0.764200 0.275405 0.043778
O O13 0.603188 0.224006 0.851850
O O14 0.864490 0.388524 0.753515
O O15 0.647380 0.952224 0.355149
O O16 0.655381 0.985742 0.052368
O O17 0.147973 0.925518 0.404387
#
# Coordination Sequence:
#
# PCOD9059339 Si02
#       8
#     2   2   2   2   2   2   2   2
#     4  11  23  41  66 101 139 173 217 277 338 395
#     4  11  24  42  67 101 134 173 222 274 328 394
#     4  11  23  43  71 101 132 177 227 277 333 397
#     4  11  25  46  69  97 137 179 223 278 336 397
#     4  11  23  43  68  97 135 179 223 274 334 403
#     4  11  23  43  67  96 132 178 225 273 330 397
#     4  11  25  44  66 101 139 177 224 277 333 401
#     4  11  23  42  69 102 136 174 219 278 338 394
#
# _framework density 26.217692
#
# number of rings (size 3 to 8) (size 9 to 14) (size 15 to 20)
#    0.000    1.000    0.000    9.375    0.000    8.000 
#    0.000    6.250    0.000    0.000    0.000    0.000 
#    0.000    0.000    0.000    0.000    0.000    0.000 
#
# Total GULP energy -89253.604393 kJ/mol
# GULP energy per Si atom -5578.350275 kJ/mol
# Density = 2.615802 g / cm^3
# Si number density = 26.217692 Si / 1000 Ang^3
#
#
#
# Elastic Constant Matrix: (Units=GPa)
#
#
# Indices 1 2 3 4 5 6 
#
# 1 185.3518 73.5233 74.1888 7.5265 48.8186 -5.6460
# 2 73.5233 175.5261 36.1848 2.8468 17.9029 -3.8116
# 3 74.1888 36.1848 154.9812 3.5361 20.6375 -10.3657
# 4 7.5265 2.8468 3.5361 37.8822 -10.9823 8.4491
# 5 48.8186 17.9029 20.6375 -10.9823 54.7725 -0.7390
# 6 -5.6460 -3.8116 -10.3657 8.4491 -0.7390 44.6087
#
#
#
# Elastic Compliance Matrix: (Units=1/GPa)
#
#
# Indices 1 2 3 4 5 6 
#
# 1 0.009772 -0.002644 -0.002909 -0.003858 -0.007510 0.000941
# 2 -0.002644 0.006854 -0.000362 0.000089 0.000273 0.000154
# 3 -0.002909 -0.000362 0.008111 -0.000639 -0.000451 0.001599
# 4 -0.003858 0.000089 -0.000639 0.031518 0.009884 -0.006435
# 5 -0.007510 0.000273 -0.000451 0.009884 0.026980 -0.002457
# 6 0.000941 0.000154 0.001599 -0.006435 -0.002457 0.024099
#
#
# Mechanical properties :
#
#
# Convention : Reuss Voigt Hill
#
# Bulk Modulus (GPa) = 77.49186 98.18365 87.83776
# Shear Modulus (GPa) = 40.49624 49.58350 45.03987
#
# Velocity S-wave (km/s) = 3.93442 4.35354 4.14928
# Velocity P-wave (km/s) = 7.08949 7.92475 7.51873
#
# Compressibility (1/GPa) = 0.01290458
#
# Stress axis : x y z
#
# Youngs Moduli (GPa) = 102.33318 145.90894 123.28414
#
# Poissons Ratio (x) = 0.38585 0.35868
# Poissons Ratio (y) = 0.27062 0.04468
# Poissons Ratio (z) = 0.29772 0.05287
#
# Static dielectric constant tensor:
#      x y z
#    x 1.996310 0.043610 -0.065090 
#    y 0.043610 1.973180 -0.132760 
#    z -0.065090 -0.132760 2.792870 
# 
# From -- ./inp_files/308309.got.cif
#   From: 2010.05.17/outbox.cif.g08.bks.cpg/sg2_155_cif.got.tgz:308309.got - 2010.06.03 11:33:40.
