data_PCOD9059666
_publ_section_title
;
Structure prediction by ZEFSAII (Michael W. Deem and Ramdas Pophale) SiO2 
 PCOD9059666
Probable space group: P -1
;
_chemical_formula_sum "Si O2"
_cell_formula_units_Z 16
_cell_length_a 13.632421
_cell_length_b 9.193513
_cell_length_c 16.009022
_cell_angle_alpha 105.733474
_cell_angle_beta 152.347164
_cell_angle_gamma 62.415012
_cell_volume 776.792787
_symmetry_space_group_name_H-M "P -1"
_symmetry_group_IT_number 2
_symmetry_cell_setting 'triclinic'
loop_
_space_group_symop_operation_xyz
x,y,z
-x,-y,-z
loop_
_atom_site_type_symbol
_atom_site_label
_atom_site_fract_x
_atom_site_fract_y
_atom_site_fract_z
Si Si1 0.681342 0.796318 0.128849
Si Si2 0.703868 0.626949 0.294670
Si Si3 0.779203 0.467057 0.848919
Si Si4 0.410479 0.841615 0.572283
Si Si5 0.641907 0.070108 0.806644
Si Si6 0.886189 0.141904 0.507736
Si Si7 0.826315 0.109336 0.773177
Si Si8 0.421648 0.436932 0.110334
O O1 0.634385 0.743903 0.176974
O O2 0.945098 0.778845 0.329097
O O3 0.675521 0.660232 0.038141
O O4 0.500000 0.000000 0.000000
O O5 0.596408 0.759356 0.312583
O O6 0.549772 0.526289 0.169417
O O7 0.000000 0.500000 0.500000
O O8 0.544131 0.635463 0.658813
O O9 0.810752 0.294971 0.802744
O O10 0.756869 0.450993 0.930562
O O11 0.000000 0.500000 0.000000
O O12 0.174294 0.931084 0.467208
O O13 0.322954 0.887905 0.419307
O O14 0.588018 0.911781 0.745866
O O15 0.709280 0.082126 0.764048
O O16 0.884792 0.029724 0.034558
O O17 0.638909 0.286143 0.303232
O O18 0.000000 0.000000 0.500000
#
# Coordination Sequence:
#
# PCOD9059666 Si02
#       8
#     2   2   2   2   2   2   2   2
#     4  12  26  42  75 101 133 184 238 281 346 424
#     4  12  26  49  70 101 148 188 228 291 358 417
#     4  11  23  45  71  99 142 178 225 292 352 407
#     4  11  25  40  73  99 135 180 230 285 346 419
#     4  11  25  46  69  97 139 182 229 293 343 414
#     4  11  23  42  66 102 137 175 227 288 346 408
#     4  11  24  46  68 102 134 180 238 282 353 410
#     4  11  25  46  66 101 140 182 230 286 350 416
#
# _framework density 20.597514
#
# number of rings (size 3 to 8) (size 9 to 14) (size 15 to 20)
#    0.000    0.750    5.000    1.875    5.250    0.000 
#    4.500    0.000    0.000    0.000    0.000    0.000 
#    0.000    0.000    0.000    0.000    0.000    0.000 
#
# Total GULP energy -89372.169598 kJ/mol
# GULP energy per Si atom -5585.760600 kJ/mol
# Density = 2.055063 g / cm^3
# Si number density = 20.597514 Si / 1000 Ang^3
#
#
#
# Elastic Constant Matrix: (Units=GPa)
#
#
# Indices 1 2 3 4 5 6 
#
# 1 95.5641 10.8963 42.8509 -4.2455 7.6800 5.2825
# 2 10.8963 66.2064 8.6421 6.2615 8.6758 -3.1947
# 3 42.8509 8.6421 69.9013 17.5067 -0.0137 -12.4800
# 4 -4.2455 6.2615 17.5067 36.8823 3.2374 6.9346
# 5 7.6800 8.6758 -0.0137 3.2374 30.6434 -3.6184
# 6 5.2825 -3.1947 -12.4800 6.9346 -3.6184 31.3271
#
#
#
# Elastic Compliance Matrix: (Units=1/GPa)
#
#
# Indices 1 2 3 4 5 6 
#
# 1 0.022344 -0.002235 -0.020622 0.016687 -0.008737 -0.016914
# 2 -0.002235 0.016286 0.000748 -0.003600 -0.003346 0.002746
# 3 -0.020622 0.000748 0.038069 -0.026371 0.010807 0.025805
# 4 0.016687 -0.003600 -0.026371 0.047966 -0.011266 -0.025606
# 5 -0.008737 -0.003346 0.010807 -0.011266 0.038426 0.012369
# 6 -0.016914 0.002746 0.025805 -0.025606 0.012369 0.052431
#
#
# Mechanical properties :
#
#
# Convention : Reuss Voigt Hill
#
# Bulk Modulus (GPa) = 30.78722 39.60558 35.19640
# Shear Modulus (GPa) = 18.47968 31.05604 24.76786
#
# Velocity S-wave (km/s) = 2.99855 3.88720 3.47142
# Velocity P-wave (km/s) = 5.19306 6.27831 5.76129
#
# Compressibility (1/GPa) = 0.03248101
#
# Stress axis : x y z
#
# Youngs Moduli (GPa) = 44.75408 61.40270 26.26798
#
# Poissons Ratio (x) = 0.13724 0.54170
# Poissons Ratio (y) = 0.10003 -0.01965
# Poissons Ratio (z) = 0.92292 -0.04592
#
# Static dielectric constant tensor:
#      x y z
#    x 1.783240 -0.018620 0.035010 
#    y -0.018620 1.748880 -0.034180 
#    z 0.035010 -0.034180 1.721680 
# 
# From -- ./inp_files/272869.got.cif
#   From: 2010.05.17/outbox.cif.g08.bks.cpg/sg2_137_cif.got.tgz:272869.got - 2010.06.03 11:33:40.
