data_PCOD9059399
_publ_section_title
;
Structure prediction by ZEFSAII (Michael W. Deem and Ramdas Pophale) SiO2 
 PCOD9059399
Probable space group: P -1
;
_chemical_formula_sum "Si O2"
_cell_formula_units_Z 16
_cell_length_a 10.914746
_cell_length_b 13.824986
_cell_length_c 11.458325
_cell_angle_alpha 42.261443
_cell_angle_beta 135.270458
_cell_angle_gamma 148.498397
_cell_volume 591.861881
_symmetry_space_group_name_H-M "P -1"
_symmetry_group_IT_number 2
_symmetry_cell_setting 'triclinic'
loop_
_space_group_symop_operation_xyz
x,y,z
-x,-y,-z
loop_
_atom_site_type_symbol
_atom_site_label
_atom_site_fract_x
_atom_site_fract_y
_atom_site_fract_z
Si Si1 0.102776 0.781914 0.874358
Si Si2 0.372917 0.658613 0.067034
Si Si3 0.789078 0.258600 0.758973
Si Si4 0.286578 0.183164 0.208025
Si Si5 0.214107 0.377478 0.800701
Si Si6 0.097437 0.364441 0.471401
Si Si7 0.166212 0.118270 0.659708
Si Si8 0.457901 0.879066 0.716325
O O1 0.241612 0.732983 0.947325
O O2 0.164721 0.978535 0.699513
O O3 0.182173 0.812080 0.037691
O O4 0.824957 0.578207 0.862573
O O5 0.467699 0.743153 0.926771
O O6 0.591706 0.758602 0.211239
O O7 0.034535 0.386407 0.735692
O O8 0.752249 0.402912 0.639771
O O9 0.590925 0.078391 0.701224
O O10 0.516661 0.406768 0.205686
O O11 0.394844 0.091795 0.321752
O O12 0.181187 0.216200 0.999855
O O13 0.079402 0.047288 0.284400
O O14 0.143143 0.323220 0.666574
O O15 0.820831 0.249955 0.374650
O O16 0.159427 0.284903 0.484637
#
# Coordination Sequence:
#
# PCOD9059399 Si02
#       8
#     2   2   2   2   2   2   2   2
#     4  11  24  47  78 100 127 181 237 282 334 393
#     4  11  24  47  78  99 131 176 239 285 325 404
#     4  12  24  44  68  98 139 183 228 279 338 403
#     4  11  24  42  70 103 137 181 230 277 331 407
#     4  11  23  41  67  99 144 180 223 279 335 404
#     4  12  28  42  64 104 149 176 221 277 350 404
#     4  12  26  43  71 104 136 175 230 280 339 402
#     4  12  25  43  69 102 141 183 224 275 344 407
#
# _framework density 27.033334
#
# number of rings (size 3 to 8) (size 9 to 14) (size 15 to 20)
#    0.000    0.500    5.000    2.250    5.250    2.500 
#    0.000    1.250    0.000    0.000    0.000    0.000 
#    0.000    0.000    0.000    0.000    0.000    0.000 
#
# Total GULP energy -89831.069316 kJ/mol
# GULP energy per Si atom -5614.441832 kJ/mol
# Density = 2.697180 g / cm^3
# Si number density = 27.033334 Si / 1000 Ang^3
#
#
#
# Elastic Constant Matrix: (Units=GPa)
#
#
# Indices 1 2 3 4 5 6 
#
# 1 81.8710 21.5568 17.8778 -2.3756 6.8327 -15.0954
# 2 21.5568 174.8647 32.8395 3.7515 12.6619 -16.4077
# 3 17.8778 32.8395 71.9119 -12.1062 9.5612 -25.1017
# 4 -2.3756 3.7515 -12.1062 42.5564 -17.2116 4.1940
# 5 6.8327 12.6619 9.5612 -17.2116 52.3849 -9.9512
# 6 -15.0954 -16.4077 -25.1017 4.1940 -9.9512 47.6727
#
#
#
# Elastic Compliance Matrix: (Units=1/GPa)
#
#
# Indices 1 2 3 4 5 6 
#
# 1 0.013452 -0.000987 -0.001859 -0.000263 -0.000729 0.002812
# 2 -0.000987 0.006551 -0.002771 -0.002090 -0.001571 0.000339
# 3 -0.001859 -0.002771 0.019302 0.005069 0.000633 0.008307
# 4 -0.000263 -0.002090 0.005069 0.028746 0.009302 0.001279
# 5 -0.000729 -0.001571 0.000633 0.009302 0.023186 0.003583
# 6 0.002812 0.000339 0.008307 0.001279 0.003583 0.026993
#
#
# Mechanical properties :
#
#
# Convention : Reuss Voigt Hill
#
# Bulk Modulus (GPa) = 35.62375 52.57732 44.10053
# Shear Modulus (GPa) = 36.01757 45.61437 40.81597
#
# Velocity S-wave (km/s) = 3.65408 4.11218 3.88988
# Velocity P-wave (km/s) = 5.56861 6.48367 6.04348
#
# Compressibility (1/GPa) = 0.02807116
#
# Stress axis : x y z
#
# Youngs Moduli (GPa) = 74.33918 152.64497 51.80695
#
# Poissons Ratio (x) = 0.15064 0.09633
# Poissons Ratio (y) = 0.07336 0.14355
# Poissons Ratio (z) = 0.13823 0.42295
#
# Static dielectric constant tensor:
#      x y z
#    x 2.094770 -0.016770 0.012760 
#    y -0.016770 2.021050 -0.037700 
#    z 0.012760 -0.037700 2.167480 
# 
# From -- ./inp_files/307381.got.cif
#   From: 2010.05.17/outbox.cif.g08.bks.cpg/sg2_154_cif.got.tgz:307381.got - 2010.06.03 11:33:40.
