data_PCOD9059962
_publ_section_title
;
Structure prediction by ZEFSAII (Michael W. Deem and Ramdas Pophale) SiO2 
 PCOD9059962
Probable space group: P -1
;
_chemical_formula_sum "Si O2"
_cell_formula_units_Z 14
_cell_length_a 9.669833
_cell_length_b 14.047586
_cell_length_c 11.591865
_cell_angle_alpha 150.758286
_cell_angle_beta 113.830301
_cell_angle_gamma 55.705019
_cell_volume 620.306615
_symmetry_space_group_name_H-M "P -1"
_symmetry_group_IT_number 2
_symmetry_cell_setting 'triclinic'
loop_
_space_group_symop_operation_xyz
x,y,z
-x,-y,-z
loop_
_atom_site_type_symbol
_atom_site_label
_atom_site_fract_x
_atom_site_fract_y
_atom_site_fract_z
Si Si1 0.676952 0.796796 0.800024
Si Si2 0.734953 0.056725 0.713532
Si Si3 0.809310 0.693148 0.163282
Si Si4 0.494196 0.904152 0.613722
Si Si5 0.576021 0.489219 0.865308
Si Si6 0.060781 0.017439 0.910616
Si Si7 0.338069 0.550441 0.419755
O O1 0.605849 0.778278 0.630799
O O2 0.729915 0.602571 0.704396
O O3 0.500000 0.000000 0.000000
O O4 0.838486 0.841177 0.892891
O O5 0.806549 0.875682 0.444203
O O6 0.625298 0.961498 0.648211
O O7 0.892786 0.075662 0.842156
O O8 0.596837 0.314127 0.935707
O O9 0.682728 0.858757 0.194478
O O10 0.718021 0.551194 0.028083
O O11 0.000000 0.500000 0.000000
O O12 0.432473 0.737438 0.363708
O O13 0.605563 0.495404 0.742323
O O14 0.201214 0.798851 0.662869
O O15 0.000000 0.000000 0.000000
O O16 0.500000 0.500000 0.500000
#
# Coordination Sequence:
#
# PCOD9059962 Si02
#       7
#     2   2   2   2   2   2   2
#     4  12  23  40  69 103 138 186 232 275 349 412
#     4  11  25  45  67 102 139 181 234 292 346 412
#     4  11  26  46  70  99 137 181 235 294 349 415
#     4  11  23  42  72 100 135 184 233 283 354 415
#     4  11  23  45  72 100 139 184 235 289 348 414
#     4  12  25  42  67 101 146 181 231 293 342 411
#     4  12  23  40  68  99 139 187 227 280 342 411
#
# _framework density 22.569483000000002
#
# number of rings (size 3 to 8) (size 9 to 14) (size 15 to 20)
#    0.000    0.571    4.286    5.143    0.000    4.571 
#    0.000    2.857    0.000    0.000    0.000    0.000 
#    0.000    0.000    0.000    0.000    0.000    0.000 
#
# Total GULP energy -78034.994695 kJ/mol
# GULP energy per Si atom -5573.928192 kJ/mol
# Density = 2.251811 g / cm^3
# Si number density = 22.569483 Si / 1000 Ang^3
#
#
#
# Elastic Constant Matrix: (Units=GPa)
#
#
# Indices 1 2 3 4 5 6 
#
# 1 132.2156 53.3263 56.3710 1.8246 25.6904 -31.7685
# 2 53.3263 79.4791 46.2690 -0.6662 -8.9661 -24.1522
# 3 56.3710 46.2690 140.8103 1.7400 4.0475 -10.6118
# 4 1.8246 -0.6662 1.7400 37.3240 3.2068 -0.7271
# 5 25.6904 -8.9661 4.0475 3.2068 52.5919 1.4031
# 6 -31.7685 -24.1522 -10.6118 -0.7271 1.4031 55.9337
#
#
#
# Elastic Compliance Matrix: (Units=1/GPa)
#
#
# Indices 1 2 3 4 5 6 
#
# 1 0.014573 -0.007739 -0.002703 0.000084 -0.008359 0.004634
# 2 -0.007739 0.022381 -0.004161 0.000387 0.007778 0.004289
# 3 -0.002703 -0.004161 0.009441 -0.000408 -0.000050 -0.001545
# 4 0.000084 0.000387 -0.000408 0.026962 -0.001602 0.000528
# 5 -0.008359 0.007778 -0.000050 -0.001602 0.024579 -0.002036
# 6 0.004634 0.004289 -0.001545 0.000528 -0.002036 0.022127
#
#
# Mechanical properties :
#
#
# Convention : Reuss Voigt Hill
#
# Bulk Modulus (GPa) = 58.17420 73.82638 66.00029
# Shear Modulus (GPa) = 32.25820 42.27251 37.26535
#
# Velocity S-wave (km/s) = 3.78469 4.33251 4.06783
# Velocity P-wave (km/s) = 6.70299 7.60324 7.16726
#
# Compressibility (1/GPa) = 0.01718975
#
# Stress axis : x y z
#
# Youngs Moduli (GPa) = 68.61780 44.68140 105.91893
#
# Poissons Ratio (x) = 0.34578 0.28629
# Poissons Ratio (y) = 0.53101 0.44074
# Poissons Ratio (z) = 0.18547 0.18593
#
# Static dielectric constant tensor:
#      x y z
#    x 1.852240 0.049760 0.019530 
#    y 0.049760 1.886240 -0.080710 
#    z 0.019530 -0.080710 1.833620 
# 
# From -- ./inp_files/400167.got.cif
#   From: 2010.05.17/outbox.cif.g08.bks.cpg/sg2_201_cif.got.tgz:400167.got - 2010.06.03 11:33:40.
