data_PCOD9059165
_publ_section_title
;
Structure prediction by ZEFSAII (Michael W. Deem and Ramdas Pophale) SiO2 
 PCOD9059165
Probable space group: P -1
;
_chemical_formula_sum "Si O2"
_cell_formula_units_Z 16
_cell_length_a 11.473275
_cell_length_b 14.245284
_cell_length_c 14.573509
_cell_angle_alpha 30.431560
_cell_angle_beta 39.442691
_cell_angle_gamma 59.563194
_cell_volume 665.980668
_symmetry_space_group_name_H-M "P -1"
_symmetry_group_IT_number 2
_symmetry_cell_setting 'triclinic'
loop_
_space_group_symop_operation_xyz
x,y,z
-x,-y,-z
loop_
_atom_site_type_symbol
_atom_site_label
_atom_site_fract_x
_atom_site_fract_y
_atom_site_fract_z
Si Si1 0.044265 0.958355 0.662110
Si Si2 0.672105 0.209209 0.305169
Si Si3 0.726900 0.695246 0.228015
Si Si4 0.330208 0.015717 0.833680
Si Si5 0.968443 0.595077 0.306219
Si Si6 0.363680 0.610204 0.012901
Si Si7 0.459839 0.724457 0.064859
Si Si8 0.137845 0.310954 0.168540
O O1 0.220394 0.937483 0.630040
O O2 0.031594 0.824122 0.691316
O O3 0.086045 0.179759 0.405854
O O4 0.839671 0.848166 0.943991
O O5 0.478025 0.129840 0.560497
O O6 0.618646 0.238995 0.208788
O O7 0.825074 0.455440 0.035718
O O8 0.500000 0.500000 0.500000
O O9 0.713241 0.825984 0.213044
O O10 0.886558 0.621652 0.234535
O O11 0.451973 0.941900 0.895176
O O12 0.120686 0.812464 0.088195
O O13 0.757337 0.455140 0.609534
O O14 0.113356 0.485892 0.293449
O O15 0.454941 0.714023 0.966972
O O16 0.500000 0.500000 0.000000
O O17 0.654291 0.689581 0.998796
#
# Coordination Sequence:
#
# PCOD9059165 Si02
#       8
#     2   2   2   2   2   2   2   2
#     4  11  25  46  70 104 143 190 252 301 368 444
#     4  12  23  45  72 104 144 190 246 305 373 434
#     4  12  26  48  73 107 146 194 250 308 363 444
#     4  11  25  44  71 104 146 198 238 304 377 436
#     4  11  25  47  71 104 154 194 240 306 376 441
#     4  11  23  40  69 105 136 186 238 303 357 429
#     4  11  23  46  68 105 151 192 244 303 373 442
#     4  11  24  44  74 101 145 192 244 308 369 439
#
# _framework density 24.024719000000001
#
# number of rings (size 3 to 8) (size 9 to 14) (size 15 to 20)
#    0.000    0.750    3.750    4.500    0.000    5.000 
#    2.250    1.250    0.000    0.000    0.000    0.000 
#    0.000    0.000    0.000    0.000    0.000    0.000 
#
# Total GULP energy -89415.916361 kJ/mol
# GULP energy per Si atom -5588.494773 kJ/mol
# Density = 2.397004 g / cm^3
# Si number density = 24.024719 Si / 1000 Ang^3
#
#
#
# Elastic Constant Matrix: (Units=GPa)
#
#
# Indices 1 2 3 4 5 6 
#
# 1 82.7385 14.9787 6.0621 1.4601 2.6483 -0.6691
# 2 14.9787 78.5204 25.6616 13.7962 -2.6995 -2.6715
# 3 6.0621 25.6616 144.0113 29.7429 19.5684 7.4714
# 4 1.4601 13.7962 29.7429 37.0849 6.2270 1.3874
# 5 2.6483 -2.6995 19.5684 6.2270 44.6869 2.9251
# 6 -0.6691 -2.6715 7.4714 1.3874 2.9251 41.5165
#
#
#
# Elastic Compliance Matrix: (Units=1/GPa)
#
#
# Indices 1 2 3 4 5 6 
#
# 1 0.012568 -0.002514 -0.000096 0.000674 -0.000955 0.000103
# 2 -0.002514 0.014750 -0.002052 -0.004199 0.002442 0.001246
# 3 -0.000096 -0.002052 0.009030 -0.005894 -0.003164 -0.001339
# 4 0.000674 -0.004199 -0.005894 0.033635 -0.002389 -0.000154
# 5 -0.000955 0.002442 -0.003164 -0.002389 0.024361 -0.000925
# 6 0.000103 0.001246 -0.001339 -0.000154 -0.000925 0.024480
#
#
# Mechanical properties :
#
#
# Convention : Reuss Voigt Hill
#
# Bulk Modulus (GPa) = 37.00239 44.29723 40.64981
# Shear Modulus (GPa) = 36.45515 41.89552 39.17534
#
# Velocity S-wave (km/s) = 3.89961 4.18047 4.04248
# Velocity P-wave (km/s) = 5.97588 6.46375 6.22460
#
# Compressibility (1/GPa) = 0.02702528
#
# Stress axis : x y z
#
# Youngs Moduli (GPa) = 79.56765 67.79753 110.74004
#
# Poissons Ratio (x) = 0.17044 0.01060
# Poissons Ratio (y) = 0.20003 0.22720
# Poissons Ratio (z) = 0.00762 0.13910
#
# Static dielectric constant tensor:
#      x y z
#    x 2.081700 -0.121730 -0.034280 
#    y -0.121730 1.987550 -0.028270 
#    z -0.034280 -0.028270 1.984750 
# 
# From -- ./inp_files/522105.got.cif
#   From: 2010.05.17/outbox.cif.g08.bks.cpg/sg2_262_cif.got.tgz:522105.got - 2010.06.03 11:33:40.
