data_PCOD9059182
_publ_section_title
;
Structure prediction by ZEFSAII (Michael W. Deem and Ramdas Pophale) SiO2 
 PCOD9059182
Probable space group: P -1
;
_chemical_formula_sum "Si O2"
_cell_formula_units_Z 14
_cell_length_a 9.626993
_cell_length_b 21.734936
_cell_length_c 10.156286
_cell_angle_alpha 151.426010
_cell_angle_beta 44.232862
_cell_angle_gamma 128.064605
_cell_volume 708.525461
_symmetry_space_group_name_H-M "P -1"
_symmetry_group_IT_number 2
_symmetry_cell_setting 'triclinic'
loop_
_space_group_symop_operation_xyz
x,y,z
-x,-y,-z
loop_
_atom_site_type_symbol
_atom_site_label
_atom_site_fract_x
_atom_site_fract_y
_atom_site_fract_z
Si Si1 0.763001 0.476291 0.638038
Si Si2 0.026456 0.100392 0.286383
Si Si3 0.386944 0.617538 0.718188
Si Si4 0.387927 0.909809 0.302695
Si Si5 0.108293 0.629784 0.157715
Si Si6 0.435570 0.974674 0.850319
Si Si7 0.400902 0.670189 0.274174
O O1 0.663395 0.414045 0.458070
O O2 0.718927 0.387771 0.629258
O O3 0.000000 0.500000 0.500000
O O4 0.624353 0.605825 0.000111
O O5 0.837710 0.093087 0.497423
O O6 0.026180 0.242225 0.491682
O O7 0.232833 0.058805 0.131144
O O8 0.000000 0.000000 0.000000
O O9 0.500000 0.500000 0.500000
O O10 0.470979 0.760593 0.953117
O O11 0.180175 0.630453 0.960451
O O12 0.500000 0.000000 0.500000
O O13 0.413274 0.975390 0.267831
O O14 0.288433 0.635105 0.149384
O O15 0.000000 0.500000 0.000000
O O16 0.403458 0.823863 0.567253
O O17 0.500000 0.000000 0.000000
#
# Coordination Sequence:
#
# PCOD9059182 Si02
#       7
#     2   2   2   2   2   2   2
#     4  11  25  44  68  97 138 178 217 276 342 393
#     4  11  23  44  67  98 133 173 232 270 322 411
#     4  11  23  41  66  98 128 169 227 272 322 396
#     4  11  24  42  69  98 133 174 227 274 327 400
#     4  11  23  40  69  99 129 173 227 274 327 393
#     4  12  26  44  70  98 137 182 216 281 345 385
#     4  11  24  45  65 100 137 170 230 276 323 412
#
# _framework density 19.759347999999999
#
# number of rings (size 3 to 8) (size 9 to 14) (size 15 to 20)
#    0.000    0.857    4.286    2.571    2.000    6.286 
#    0.000    0.000    0.000    0.000    0.000    0.000 
#    0.000    0.000    0.000    0.000    0.000    0.000 
#
# Total GULP energy -78136.751090 kJ/mol
# GULP energy per Si atom -5581.196506 kJ/mol
# Density = 1.971437 g / cm^3
# Si number density = 19.759348 Si / 1000 Ang^3
#
#
#
# Elastic Constant Matrix: (Units=GPa)
#
#
# Indices 1 2 3 4 5 6 
#
# 1 96.3691 31.6281 42.4686 -0.9512 -2.6818 -7.3110
# 2 31.6281 135.4410 68.5877 7.2897 -4.2381 -2.5467
# 3 42.4686 68.5877 123.7236 15.6445 -5.9322 0.6807
# 4 -0.9512 7.2897 15.6445 50.9792 -4.0317 3.8454
# 5 -2.6818 -4.2381 -5.9322 -4.0317 44.6451 -5.6536
# 6 -7.3110 -2.5467 0.6807 3.8454 -5.6536 33.2886
#
#
#
# Elastic Compliance Matrix: (Units=1/GPa)
#
#
# Indices 1 2 3 4 5 6 
#
# 1 0.012688 -0.000944 -0.003999 0.001442 0.000618 0.002734
# 2 -0.000944 0.010370 -0.005431 0.000135 0.000311 0.000734
# 3 -0.003999 -0.005431 0.012893 -0.003129 0.000535 -0.001105
# 4 0.001442 0.000135 -0.003129 0.020824 0.001338 -0.001787
# 5 0.000618 0.000311 0.000535 0.001338 0.023155 0.003926
# 6 0.002734 0.000734 -0.001105 -0.001787 0.003926 0.031593
#
#
# Mechanical properties :
#
#
# Convention : Reuss Voigt Hill
#
# Bulk Modulus (GPa) = 65.77977 71.21138 68.49557
# Shear Modulus (GPa) = 36.40577 39.97254 38.18915
#
# Velocity S-wave (km/s) = 4.29704 4.50262 4.40103
# Velocity P-wave (km/s) = 7.61460 7.94664 7.78239
#
# Compressibility (1/GPa) = 0.01520224
#
# Stress axis : x y z
#
# Youngs Moduli (GPa) = 78.81411 96.42864 77.55869
#
# Poissons Ratio (x) = 0.09107 0.31019
# Poissons Ratio (y) = 0.07444 0.42122
# Poissons Ratio (z) = 0.31521 0.52370
#
# Static dielectric constant tensor:
#      x y z
#    x 1.538200 0.041840 -0.039080 
#    y 0.041840 1.712220 0.033610 
#    z -0.039080 0.033610 1.721920 
# 
# From -- ./inp_files/224310.got.cif
#   From: 2010.05.17/outbox.cif.g08.bks.cpg/sg2_113_cif.got.tgz:224310.got - 2010.06.03 11:33:40.
