data_PCOD9059405
_publ_section_title
;
Structure prediction by ZEFSAII (Michael W. Deem and Ramdas Pophale) SiO2 
 PCOD9059405
Probable space group: P -1
;
_chemical_formula_sum "Si O2"
_cell_formula_units_Z 14
_cell_length_a 16.823176
_cell_length_b 17.299947
_cell_length_c 11.530438
_cell_angle_alpha 28.256799
_cell_angle_beta 37.689413
_cell_angle_gamma 21.946879
_cell_volume 587.501952
_symmetry_space_group_name_H-M "P -1"
_symmetry_group_IT_number 2
_symmetry_cell_setting 'triclinic'
loop_
_space_group_symop_operation_xyz
x,y,z
-x,-y,-z
loop_
_atom_site_type_symbol
_atom_site_label
_atom_site_fract_x
_atom_site_fract_y
_atom_site_fract_z
Si Si1 0.471789 0.372690 0.489895
Si Si2 0.672674 0.061648 0.878615
Si Si3 0.692549 0.021629 0.467637
Si Si4 0.967197 0.358028 0.790475
Si Si5 0.124512 0.444176 0.818299
Si Si6 0.450749 0.168057 0.201668
Si Si7 0.237173 0.908615 0.935199
O O1 0.609546 0.163133 0.500695
O O2 0.290256 0.425371 0.669808
O O3 0.623430 0.245319 0.595388
O O4 0.346716 0.652945 0.214777
O O5 0.735400 0.838067 0.028520
O O6 0.867406 0.872091 0.995983
O O7 0.467687 0.240797 0.961987
O O8 0.716453 0.140126 0.189454
O O9 0.538881 0.031396 0.583942
O O10 0.928478 0.703495 0.622628
O O11 0.751973 0.588635 0.807955
O O12 0.000000 0.500000 0.500000
O O13 0.993407 0.192731 0.879240
O O14 0.000000 0.500000 0.000000
O O15 0.645016 0.044803 0.215788
#
# Coordination Sequence:
#
# PCOD9059405 Si02
#       7
#     2   2   2   2   2   2   2
#     4  12  27  44  66 102 145 172 219 284 344 403
#     4  11  23  41  68 101 129 175 227 276 335 394
#     4  12  23  43  73  99 132 182 228 276 331 402
#     4  11  23  42  70 100 132 175 231 275 324 403
#     4  12  23  41  70  98 131 176 229 274 331 401
#     4  11  23  42  74  96 131 177 231 280 325 401
#     4  11  27  44  66 103 138 180 221 278 346 392
#
# _framework density 23.829708
#
# number of rings (size 3 to 8) (size 9 to 14) (size 15 to 20)
#    0.000    0.571    5.714    2.143    2.000    5.143 
#    0.000    1.429    0.000    0.000    0.000    0.000 
#    0.000    0.000    0.000    0.000    0.000    0.000 
#
# Total GULP energy -78197.065137 kJ/mol
# GULP energy per Si atom -5585.504653 kJ/mol
# Density = 2.377547 g / cm^3
# Si number density = 23.829708 Si / 1000 Ang^3
#
#
#
# Elastic Constant Matrix: (Units=GPa)
#
#
# Indices 1 2 3 4 5 6 
#
# 1 53.7002 26.9404 19.6711 18.8081 12.1693 10.8034
# 2 26.9404 149.0169 50.0527 8.7460 10.2813 37.0877
# 3 19.6711 50.0527 131.7624 2.4374 30.7063 16.3198
# 4 18.8081 8.7460 2.4374 28.5310 17.4069 11.7232
# 5 12.1693 10.2813 30.7063 17.4069 34.2269 7.6687
# 6 10.8034 37.0877 16.3198 11.7232 7.6687 35.8573
#
#
#
# Elastic Compliance Matrix: (Units=1/GPa)
#
#
# Indices 1 2 3 4 5 6 
#
# 1 0.027372 -0.003488 -0.003796 -0.020605 0.004562 0.002849
# 2 -0.003488 0.010356 -0.002586 0.002461 0.001343 -0.009575
# 3 -0.003796 -0.002586 0.012784 0.012608 -0.015106 -0.002891
# 4 -0.020605 0.002461 0.012608 0.079743 -0.040934 -0.019392
# 5 0.004562 0.001343 -0.015106 -0.040934 0.060543 0.004547
# 6 0.002849 -0.009575 -0.002891 -0.019392 0.004547 0.043617
#
#
# Mechanical properties :
#
#
# Convention : Reuss Voigt Hill
#
# Bulk Modulus (GPa) = 32.49779 58.64534 45.57156
# Shear Modulus (GPa) = 18.90990 35.57740 27.24365
#
# Velocity S-wave (km/s) = 2.82005 3.86811 3.38489
# Velocity P-wave (km/s) = 4.92653 6.67932 5.86873
#
# Compressibility (1/GPa) = 0.03077133
#
# Stress axis : x y z
#
# Youngs Moduli (GPa) = 36.53380 96.56503 78.22457
#
# Poissons Ratio (x) = 0.33682 0.29697
# Poissons Ratio (y) = 0.12743 0.20226
# Poissons Ratio (z) = 0.13869 0.24968
#
# Static dielectric constant tensor:
#      x y z
#    x 1.972830 -0.032800 0.028390 
#    y -0.032800 2.005380 0.017420 
#    z 0.028390 0.017420 1.915940 
# 
# From -- ./inp_files/282787.got.cif
#   From: 2010.05.17/outbox.cif.g08.bks.cpg/sg2_142_cif.got.tgz:282787.got - 2010.06.03 11:33:40.
