data_PCOD9059790
_publ_section_title
;
Structure prediction by ZEFSAII (Michael W. Deem and Ramdas Pophale) SiO2 
 PCOD9059790
Probable space group: P -1
;
_chemical_formula_sum "Si O2"
_cell_formula_units_Z 16
_cell_length_a 24.644936
_cell_length_b 5.700848
_cell_length_c 11.875283
_cell_angle_alpha 60.474902
_cell_angle_beta 31.259628
_cell_angle_gamma 49.420204
_cell_volume 649.035672
_symmetry_space_group_name_H-M "P -1"
_symmetry_group_IT_number 2
_symmetry_cell_setting 'triclinic'
loop_
_space_group_symop_operation_xyz
x,y,z
-x,-y,-z
loop_
_atom_site_type_symbol
_atom_site_label
_atom_site_fract_x
_atom_site_fract_y
_atom_site_fract_z
Si Si1 0.985758 0.705986 0.185625
Si Si2 0.230860 0.791749 0.420844
Si Si3 0.396521 0.258064 0.541546
Si Si4 0.594582 0.208878 0.060135
Si Si5 0.288954 0.509270 0.040532
Si Si6 0.812025 0.642861 0.258602
Si Si7 0.181284 0.789076 0.934993
Si Si8 0.916364 0.238450 0.498619
O O1 0.981749 0.387864 0.279553
O O2 0.072604 0.648736 0.937606
O O3 0.073948 0.716971 0.122068
O O4 0.846904 0.972846 0.396033
O O5 0.357033 0.730962 0.158331
O O6 0.232737 0.476073 0.530195
O O7 0.141347 0.910913 0.443770
O O8 0.303272 0.180922 0.662609
O O9 0.306118 0.541077 0.712803
O O10 0.500000 0.000000 0.500000
O O11 0.456687 0.355871 0.312063
O O12 0.646128 0.341036 0.036283
O O13 0.637476 0.837524 0.062544
O O14 0.196855 0.491123 0.295579
O O15 0.214123 0.749128 0.017287
O O16 0.852392 0.893233 0.144513
O O17 0.000000 0.000000 0.500000
#
# Coordination Sequence:
#
# PCOD9059790 Si02
#       8
#     2   2   2   2   2   2   2   2
#     4  11  23  42  68  98 137 183 232 287 347 425
#     4  11  25  45  66  97 145 184 229 288 352 426
#     4  11  24  44  73  99 135 179 235 295 353 415
#     4  11  25  44  71 104 135 190 232 291 354 422
#     4  11  23  42  69 103 143 176 235 290 358 414
#     4  11  26  44  66 101 137 184 236 285 356 423
#     4  11  25  41  68 103 137 180 235 291 353 416
#     4  11  24  39  67 100 139 185 229 290 352 422
#
# _framework density 24.651955999999998
#
# number of rings (size 3 to 8) (size 9 to 14) (size 15 to 20)
#    0.000    1.000    2.500    3.375    7.000    6.500 
#    0.000    0.625    0.000    0.000    0.000    0.000 
#    0.000    0.000    0.000    0.000    0.000    0.000 
#
# Total GULP energy -89306.650646 kJ/mol
# GULP energy per Si atom -5581.665665 kJ/mol
# Density = 2.459585 g / cm^3
# Si number density = 24.651956 Si / 1000 Ang^3
#
#
#
# Elastic Constant Matrix: (Units=GPa)
#
#
# Indices 1 2 3 4 5 6 
#
# 1 95.2710 7.2951 15.6059 0.1458 -14.3084 4.8521
# 2 7.2951 51.0479 15.1667 -0.5890 -6.4760 14.1527
# 3 15.6059 15.1667 198.7882 -1.2589 5.2567 1.9224
# 4 0.1458 -0.5890 -1.2589 42.9478 0.3391 2.8631
# 5 -14.3084 -6.4760 5.2567 0.3391 36.6148 -2.7152
# 6 4.8521 14.1527 1.9224 2.8631 -2.7152 29.8773
#
#
#
# Elastic Compliance Matrix: (Units=1/GPa)
#
#
# Indices 1 2 3 4 5 6 
#
# 1 0.011415 -0.000458 -0.000967 -0.000030 0.004432 -0.001169
# 2 -0.000458 0.023609 -0.001746 0.000965 0.003439 -0.010777
# 3 -0.000967 -0.001746 0.005273 0.000111 -0.001407 0.000506
# 4 -0.000030 0.000965 0.000111 0.023485 -0.000277 -0.002735
# 5 0.004432 0.003439 -0.001407 -0.000277 0.029892 0.000485
# 6 -0.001169 -0.010777 0.000506 -0.002735 0.000485 0.039038
#
#
# Mechanical properties :
#
#
# Convention : Reuss Voigt Hill
#
# Bulk Modulus (GPa) = 29.45133 46.80474 38.12803
# Shear Modulus (GPa) = 33.25070 42.35729 37.80400
#
# Velocity S-wave (km/s) = 3.67659 4.14963 3.92025
# Velocity P-wave (km/s) = 5.47685 6.47971 5.99927
#
# Compressibility (1/GPa) = 0.03395432
#
# Stress axis : x y z
#
# Youngs Moduli (GPa) = 87.60299 42.35717 189.65807
#
# Poissons Ratio (x) = 0.01939 0.18346
# Poissons Ratio (y) = 0.04011 0.33113
# Poissons Ratio (z) = 0.08474 0.07395
#
# Static dielectric constant tensor:
#      x y z
#    x 1.968910 0.012560 0.028530 
#    y 0.012560 2.005440 0.018020 
#    z 0.028530 0.018020 1.947830 
# 
# From -- ./inp_files/78353.got.cif
#   From: 2010.05.17/outbox.cif.g08.bks.cpg/sg2_40_cif.got.tgz:78353.got - 2010.06.03 11:33:40.
