data_PCOD9059066
_publ_section_title
;
Structure prediction by ZEFSAII (Michael W. Deem and Ramdas Pophale) SiO2 
 PCOD9059066
Probable space group: P -1
;
_chemical_formula_sum "Si O2"
_cell_formula_units_Z 12
_cell_length_a 14.532958
_cell_length_b 20.990388
_cell_length_c 6.468700
_cell_angle_alpha 120.580335
_cell_angle_beta 108.861861
_cell_angle_gamma 19.703436
_cell_volume 483.424454
_symmetry_space_group_name_H-M "P -1"
_symmetry_group_IT_number 2
_symmetry_cell_setting 'triclinic'
loop_
_space_group_symop_operation_xyz
x,y,z
-x,-y,-z
loop_
_atom_site_type_symbol
_atom_site_label
_atom_site_fract_x
_atom_site_fract_y
_atom_site_fract_z
Si Si1 0.084565 0.606232 0.812459
Si Si2 0.143386 0.256262 0.565245
Si Si3 0.133837 0.124132 0.596369
Si Si4 0.100858 0.441620 0.714198
Si Si5 0.162418 0.784267 0.724072
Si Si6 0.800572 0.104394 0.346279
O O1 0.018486 0.589256 0.905289
O O2 0.453569 0.329985 0.547334
O O3 0.848796 0.765765 0.711449
O O4 0.035269 0.722429 0.067405
O O5 0.011630 0.274949 0.592903
O O6 0.969315 0.464559 0.782785
O O7 0.500000 0.000000 0.500000
O O8 0.054723 0.102140 0.410824
O O9 0.516125 0.846805 0.456054
O O10 0.000000 0.500000 0.500000
O O11 0.500000 0.500000 0.500000
O O12 0.242304 0.805883 0.721979
O O13 0.008647 0.893883 0.022089
O O14 0.000000 0.000000 0.500000
#
# Coordination Sequence:
#
# PCOD9059066 Si02
#       6
#     2   2   2   2   2   2
#     4  11  23  40  65  96 128 166 212 261 316 375
#     4   9  21  40  61  92 130 168 209 259 311 366
#     4  11  23  40  65  96 128 166 212 261 316 375
#     4   9  21  40  61  92 130 168 209 259 311 366
#     4  11  25  44  66  94 127 165 210 260 317 380
#     4  11  25  44  66  94 127 165 210 260 317 380
#
# _framework density 24.822906
#
# number of rings (size 3 to 8) (size 9 to 14) (size 15 to 20)
#    0.000    1.667    0.000    3.000    0.000   17.333 
#    0.000   10.000    0.000    0.000    0.000    0.000 
#    0.000    0.000    0.000    0.000    0.000    0.000 
#
# Total GULP energy -67017.049440 kJ/mol
# GULP energy per Si atom -5584.754120 kJ/mol
# Density = 2.476641 g / cm^3
# Si number density = 24.822906 Si / 1000 Ang^3
#
#
#
# Elastic Constant Matrix: (Units=GPa)
#
#
# Indices 1 2 3 4 5 6 
#
# 1 100.0269 15.7462 5.1097 -6.5960 -6.5359 21.7780
# 2 15.7462 130.5351 27.5771 -12.0270 -15.8439 -4.8049
# 3 5.1097 27.5771 125.7269 9.4932 4.7590 -13.1350
# 4 -6.5960 -12.0270 9.4932 36.7618 -1.7510 0.7189
# 5 -6.5359 -15.8439 4.7590 -1.7510 32.7010 -4.6083
# 6 21.7780 -4.8049 -13.1350 0.7189 -4.6083 49.9885
#
#
#
# Elastic Compliance Matrix: (Units=1/GPa)
#
#
# Indices 1 2 3 4 5 6 
#
# 1 0.011601 -0.001016 -0.001021 0.002181 0.001341 -0.005328
# 2 -0.001016 0.009261 -0.002338 0.003666 0.004979 0.001125
# 3 -0.001021 -0.002338 0.009119 -0.003470 -0.002506 0.002435
# 4 0.002181 0.003666 -0.003470 0.029915 0.004099 -0.001562
# 5 0.001341 0.004979 -0.002506 0.004099 0.034173 0.002327
# 6 -0.005328 0.001125 0.002435 -0.001562 0.002327 0.023311
#
#
# Mechanical properties :
#
#
# Convention : Reuss Voigt Hill
#
# Bulk Modulus (GPa) = 47.09935 50.35054 48.72494
# Shear Modulus (GPa) = 37.53619 44.41399 40.97509
#
# Velocity S-wave (km/s) = 3.89287 4.23452 4.06728
# Velocity P-wave (km/s) = 6.26269 6.65103 6.45978
#
# Compressibility (1/GPa) = 0.02123172
#
# Stress axis : x y z
#
# Youngs Moduli (GPa) = 86.20129 107.98265 109.65829
#
# Poissons Ratio (x) = 0.10973 0.11191
# Poissons Ratio (y) = 0.08760 0.25635
# Poissons Ratio (z) = 0.08797 0.25243
#
# Static dielectric constant tensor:
#      x y z
#    x 1.971230 0.094920 0.018840 
#    y 0.094920 1.842480 -0.003180 
#    z 0.018840 -0.003180 2.097320 
# 
# From -- ./inp_files/49488.got.cif
#   From: 2010.05.17/outbox.cif.g08.bks.cpg/sg2_25_cif.got.tgz:49488.got - 2010.06.03 11:33:40.
