data_PCOD9059845
_publ_section_title
;
Structure prediction by ZEFSAII (Michael W. Deem and Ramdas Pophale) SiO2 
 PCOD9059845
Probable space group: P -1
;
_chemical_formula_sum "Si O2"
_cell_formula_units_Z 16
_cell_length_a 9.878676
_cell_length_b 23.795289
_cell_length_c 8.716006
_cell_angle_alpha 122.968928
_cell_angle_beta 89.616859
_cell_angle_gamma 42.789455
_cell_volume 819.367858
_symmetry_space_group_name_H-M "P -1"
_symmetry_group_IT_number 2
_symmetry_cell_setting 'triclinic'
loop_
_space_group_symop_operation_xyz
x,y,z
-x,-y,-z
loop_
_atom_site_type_symbol
_atom_site_label
_atom_site_fract_x
_atom_site_fract_y
_atom_site_fract_z
Si Si1 0.626896 0.875897 0.879170
Si Si2 0.236566 0.570257 0.920378
Si Si3 0.692326 0.611681 0.844356
Si Si4 0.374585 0.123518 0.752253
Si Si5 0.694203 0.113299 0.236376
Si Si6 0.780320 0.428475 0.716199
Si Si7 0.329764 0.387680 0.502010
Si Si8 0.299764 0.890241 0.406420
O O1 0.437644 0.895284 0.853947
O O2 0.944133 0.726255 0.589520
O O3 0.627989 0.877380 0.065180
O O4 0.500000 0.000000 0.000000
O O5 0.174155 0.583200 0.119196
O O6 0.946210 0.723492 0.075847
O O7 0.493140 0.511159 0.820371
O O8 0.342847 0.456606 0.668770
O O9 0.737166 0.518487 0.770645
O O10 0.565366 0.663714 0.750782
O O11 0.998644 0.512999 0.686638
O O12 0.503554 0.739211 0.144384
O O13 0.567237 0.101840 0.661841
O O14 0.500000 0.000000 0.500000
O O15 0.489757 0.264522 0.422695
O O16 0.716444 0.091884 0.385503
O O17 0.000000 0.000000 0.000000
O O18 0.000000 0.000000 0.500000
#
# Coordination Sequence:
#
# PCOD9059845 Si02
#       8
#     2   2   2   2   2   2   2   2
#     4  12  26  46  69  97 135 176 223 274 332 396
#     4  11  25  44  68  99 134 174 223 273 330 394
#     4  11  23  42  69  99 132 171 221 274 329 392
#     4  12  26  46  69  97 135 176 223 274 332 396
#     4  12  26  45  70  99 134 175 222 274 332 394
#     4  11  25  44  68  99 134 174 223 273 330 394
#     4  11  23  42  69  99 132 171 221 274 329 392
#     4  12  26  45  70  99 134 175 222 274 332 394
#
# _framework density 19.527248
#
# number of rings (size 3 to 8) (size 9 to 14) (size 15 to 20)
#    0.000    0.500    2.500    6.000    3.500    3.000 
#    0.000    0.000    0.000    0.000    0.000    0.000 
#    0.000    0.000    0.000    0.000    0.000    0.000 
#
# Total GULP energy -89558.872390 kJ/mol
# GULP energy per Si atom -5597.429524 kJ/mol
# Density = 1.948280 g / cm^3
# Si number density = 19.527248 Si / 1000 Ang^3
#
#
#
# Elastic Constant Matrix: (Units=GPa)
#
#
# Indices 1 2 3 4 5 6 
#
# 1 65.5618 35.3284 26.7504 -0.2481 15.1352 -12.3066
# 2 35.3284 120.3363 25.2886 -14.7256 1.0918 -13.4585
# 3 26.7504 25.2886 90.2056 -7.3067 -0.0551 -8.2811
# 4 -0.2481 -14.7256 -7.3067 49.9201 3.2844 5.0722
# 5 15.1352 1.0918 -0.0551 3.2844 35.9319 4.4090
# 6 -12.3066 -13.4585 -8.2811 5.0722 4.4090 34.2312
#
#
#
# Elastic Compliance Matrix: (Units=1/GPa)
#
#
# Indices 1 2 3 4 5 6 
#
# 1 0.023991 -0.005356 -0.005160 -0.002226 -0.010602 0.006966
# 2 -0.005356 0.010570 -0.001028 0.002700 0.001516 0.001386
# 3 -0.005160 -0.001028 0.013059 0.001404 0.002044 0.000428
# 4 -0.002226 0.002700 0.001404 0.021325 -0.000790 -0.002457
# 5 -0.010602 0.001516 0.002044 -0.000790 0.033169 -0.006876
# 6 0.006966 0.001386 0.000428 -0.002457 -0.006876 0.033616
#
#
# Mechanical properties :
#
#
# Convention : Reuss Voigt Hill
#
# Bulk Modulus (GPa) = 40.76434 50.09314 45.42874
# Shear Modulus (GPa) = 29.94092 36.59907 33.26999
#
# Velocity S-wave (km/s) = 3.91997 4.33397 4.13216
# Velocity P-wave (km/s) = 6.43500 7.12411 6.78830
#
# Compressibility (1/GPa) = 0.02453124
#
# Stress axis : x y z
#
# Youngs Moduli (GPa) = 41.68204 94.60541 76.57780
#
# Poissons Ratio (x) = 0.50671 0.39516
# Poissons Ratio (y) = 0.22325 0.07873
# Poissons Ratio (z) = 0.21509 0.09726
#
# Static dielectric constant tensor:
#      x y z
#    x 1.598670 0.027940 0.042490 
#    y 0.027940 1.630860 -0.046470 
#    z 0.042490 -0.046470 1.612390 
# 
# From -- ./inp_files/223814.got.cif
#   From: 2010.05.17/outbox.cif.g08.bks.cpg/sg2_112_cif.got.tgz:223814.got - 2010.06.03 11:33:40.
