data_PCOD9059077
_publ_section_title
;
Structure prediction by ZEFSAII (Michael W. Deem and Ramdas Pophale) SiO2 
 PCOD9059077
Probable space group: P -1
;
_chemical_formula_sum "Si O2"
_cell_formula_units_Z 16
_cell_length_a 11.695869
_cell_length_b 6.825879
_cell_length_c 22.573551
_cell_angle_alpha 65.813946
_cell_angle_beta 29.204153
_cell_angle_gamma 54.516534
_cell_volume 694.348776
_symmetry_space_group_name_H-M "P -1"
_symmetry_group_IT_number 2
_symmetry_cell_setting 'triclinic'
loop_
_space_group_symop_operation_xyz
x,y,z
-x,-y,-z
loop_
_atom_site_type_symbol
_atom_site_label
_atom_site_fract_x
_atom_site_fract_y
_atom_site_fract_z
Si Si1 0.896661 0.221420 0.414273
Si Si2 0.742511 0.571329 0.067365
Si Si3 0.544478 0.402714 0.343600
Si Si4 0.775880 0.013943 0.379926
Si Si5 0.405648 0.879148 0.277256
Si Si6 0.630047 0.153535 0.217049
Si Si7 0.818821 0.347698 0.943306
Si Si8 0.198844 0.501778 0.200807
O O1 0.686928 0.440633 0.523681
O O2 0.770329 0.137795 0.429727
O O3 0.080062 0.324523 0.290910
O O4 0.089608 0.985653 0.396853
O O5 0.523297 0.825424 0.164175
O O6 0.652786 0.368966 0.146842
O O7 0.800057 0.548620 0.974861
O O8 0.000000 0.500000 0.000000
O O9 0.776812 0.191208 0.304977
O O10 0.562120 0.621288 0.274406
O O11 0.502086 0.255972 0.326884
O O12 0.500000 0.000000 0.500000
O O13 0.038246 0.743549 0.285742
O O14 0.458993 0.069480 0.265576
O O15 0.932594 0.919283 0.117226
O O16 0.873537 0.404052 0.845633
O O17 0.522882 0.373586 0.074815
#
# Coordination Sequence:
#
# PCOD9059077 Si02
#       8
#     2   2   2   2   2   2   2   2
#     4  12  27  46  73 103 143 180 235 292 352 409
#     4  11  23  40  66 100 134 186 227 277 340 414
#     4  11  26  45  73 103 134 188 235 287 348 420
#     4  12  26  48  73 101 139 185 235 289 351 416
#     4  11  26  45  70 107 141 182 234 289 350 413
#     4  11  24  43  73  99 144 183 233 284 349 415
#     4  11  23  45  67 100 142 179 234 283 345 410
#     4  11  26  44  70 103 138 184 230 292 347 410
#
# _framework density 23.043175000000002
#
# number of rings (size 3 to 8) (size 9 to 14) (size 15 to 20)
#    0.000    0.750    3.750    2.625    5.250    1.500 
#    0.000    1.875    0.000    0.000    0.000    0.000 
#    0.000    0.000    0.000    0.000    0.000    0.000 
#
# Total GULP energy -89486.557901 kJ/mol
# GULP energy per Si atom -5592.909869 kJ/mol
# Density = 2.299073 g / cm^3
# Si number density = 23.043175 Si / 1000 Ang^3
#
#
#
# Elastic Constant Matrix: (Units=GPa)
#
#
# Indices 1 2 3 4 5 6 
#
# 1 134.0580 44.0189 36.4682 13.1649 16.0894 34.7016
# 2 44.0189 88.0526 32.9488 14.6643 4.4844 21.2618
# 3 36.4682 32.9488 83.5911 14.1943 17.4990 16.3663
# 4 13.1649 14.6643 14.1943 37.1095 7.0576 6.0518
# 5 16.0894 4.4844 17.4990 7.0576 39.5863 9.9300
# 6 34.7016 21.2618 16.3663 6.0518 9.9300 42.6834
#
#
#
# Elastic Compliance Matrix: (Units=1/GPa)
#
#
# Indices 1 2 3 4 5 6 
#
# 1 0.010795 -0.003038 -0.001886 -0.000616 -0.001573 -0.006086
# 2 -0.003038 0.015827 -0.004143 -0.003490 0.002900 -0.004005
# 3 -0.001886 -0.004143 0.016162 -0.002728 -0.005169 -0.001010
# 4 -0.000616 -0.003490 -0.002728 0.030285 -0.003499 -0.000195
# 5 -0.001573 0.002900 -0.005169 -0.003499 0.029630 -0.004581
# 6 -0.006086 -0.004005 -0.001010 -0.000195 -0.004581 0.031852
#
#
# Mechanical properties :
#
#
# Convention : Reuss Voigt Hill
#
# Bulk Modulus (GPa) = 40.57177 59.17484 49.87331
# Shear Modulus (GPa) = 31.07456 36.69354 33.88405
#
# Velocity S-wave (km/s) = 3.67623 3.99480 3.83882
# Velocity P-wave (km/s) = 5.97198 6.85665 6.42955
#
# Compressibility (1/GPa) = 0.02464768
#
# Stress axis : x y z
#
# Youngs Moduli (GPa) = 92.63515 63.18439 61.87308
#
# Poissons Ratio (x) = 0.19198 0.11672
# Poissons Ratio (y) = 0.28147 0.25635
# Poissons Ratio (z) = 0.17475 0.26179
#
# Static dielectric constant tensor:
#      x y z
#    x 1.849940 -0.058460 -0.006240 
#    y -0.058460 1.781410 -0.110160 
#    z -0.006240 -0.110160 1.745980 
# 
# From -- ./inp_files/123778.got.cif
#   From: 2010.05.17/outbox.cif.g08.bks.cpg/sg2_62_cif.got.tgz:123778.got - 2010.06.03 11:33:40.
