data_PCOD9059957
_publ_section_title
;
Structure prediction by ZEFSAII (Michael W. Deem and Ramdas Pophale) SiO2 
 PCOD9059957
Probable space group: P -1
;
_chemical_formula_sum "Si O2"
_cell_formula_units_Z 15
_cell_length_a 15.398617
_cell_length_b 9.513749
_cell_length_c 6.619032
_cell_angle_alpha 61.615575
_cell_angle_beta 123.815018
_cell_angle_gamma 132.864060
_cell_volume 583.005073
_symmetry_space_group_name_H-M "P -1"
_symmetry_group_IT_number 2
_symmetry_cell_setting 'triclinic'
loop_
_space_group_symop_operation_xyz
x,y,z
-x,-y,-z
loop_
_atom_site_type_symbol
_atom_site_label
_atom_site_fract_x
_atom_site_fract_y
_atom_site_fract_z
Si Si1 0.311578 0.818233 0.950020
Si Si2 0.560348 0.394272 0.240588
Si Si3 0.726412 0.722811 0.555692
Si Si4 0.237168 0.465936 0.905076
Si Si5 0.000000 0.000000 0.500000
Si Si6 0.872982 0.172534 0.039858
Si Si7 0.568490 0.876936 0.399650
Si Si8 0.935267 0.509530 0.607308
O O1 0.214806 0.587607 0.955552
O O2 0.260795 0.912118 0.965059
O O3 0.326940 0.907381 0.687324
O O4 0.438629 0.845765 0.176295
O O5 0.659361 0.534985 0.448733
O O6 0.632237 0.386233 0.146528
O O7 0.459196 0.194081 0.358090
O O8 0.500000 0.500000 0.000000
O O9 0.617222 0.761256 0.425573
O O10 0.862462 0.887939 0.524241
O O11 0.752313 0.678586 0.845000
O O12 0.139912 0.402292 0.640164
O O13 0.927231 0.041176 0.188545
O O14 0.975115 0.332644 0.221001
O O15 0.871800 0.298510 0.769997
O O16 0.000000 0.500000 0.500000
#
# Coordination Sequence:
#
# PCOD9059957 Si02
#       8
#     2   2   2   2   1   2   2   2
#     4  11  23  43  71  99 141 180 226 294 350 405
#     4  12  24  43  72 105 137 186 234 280 348 416
#     4  12  25  48  70 104 145 184 235 289 341 423
#     4  12  24  43  73 102 136 186 233 282 349 414
#     4  12  26  46  74  98 142 194 220 292 362 400
#     4  11  24  46  66 100 141 178 235 286 346 418
#     4  11  23  45  71 102 142 183 227 290 351 405
#     4  11  23  42  71  99 132 184 234 281 342 415
#
# _framework density 25.728767000000001
#
# number of rings (size 3 to 8) (size 9 to 14) (size 15 to 20)
#    0.000    0.533    5.333    3.600    1.867    0.533 
#    2.400    6.000    0.000    0.000    0.000    0.000 
#    0.000    0.000    0.000    0.000    0.000    0.000 
#
# Total GULP energy -83537.367324 kJ/mol
# GULP energy per Si atom -5569.157822 kJ/mol
# Density = 2.567021 g / cm^3
# Si number density = 25.728767 Si / 1000 Ang^3
#
#
#
# Elastic Constant Matrix: (Units=GPa)
#
#
# Indices 1 2 3 4 5 6 
#
# 1 123.4529 15.9460 37.4665 -0.8911 8.3270 16.4573
# 2 15.9460 29.2835 44.2822 -1.5679 4.1697 10.9704
# 3 37.4665 44.2822 199.0960 -12.2601 2.0246 19.1781
# 4 -0.8911 -1.5679 -12.2601 47.6228 14.7426 -5.5680
# 5 8.3270 4.1697 2.0246 14.7426 48.5264 -11.9370
# 6 16.4573 10.9704 19.1781 -5.5680 -11.9370 32.3904
#
#
#
# Elastic Compliance Matrix: (Units=1/GPa)
#
#
# Indices 1 2 3 4 5 6 
#
# 1 0.009381 -0.001591 -0.000931 0.000154 -0.002616 -0.004614
# 2 -0.001591 0.058993 -0.011264 -0.000310 -0.008050 -0.015523
# 3 -0.000931 -0.011264 0.007786 0.001513 0.000361 0.000071
# 4 0.000154 -0.000310 0.001513 0.023648 -0.007105 0.000578
# 5 -0.002616 -0.008050 0.000361 -0.007105 0.026982 0.012565
# 6 -0.004614 -0.015523 0.000071 0.000578 0.012565 0.043163
#
#
# Mechanical properties :
#
#
# Convention : Reuss Voigt Hill
#
# Bulk Modulus (GPa) = 20.58111 60.80242 40.69176
# Shear Modulus (GPa) = 23.39502 42.65043 33.02272
#
# Velocity S-wave (km/s) = 3.01872 4.07590 3.58648
# Velocity P-wave (km/s) = 4.49075 6.77008 5.74460
#
# Compressibility (1/GPa) = 0.04858825
#
# Stress axis : x y z
#
# Youngs Moduli (GPa) = 106.59927 16.95106 128.44022
#
# Poissons Ratio (x) = 0.02698 0.11956
# Poissons Ratio (y) = 0.16965 1.44669
# Poissons Ratio (z) = 0.09923 0.19093
#
# Static dielectric constant tensor:
#      x y z
#    x 2.196180 -0.016260 0.158490 
#    y -0.016260 2.130280 -0.022230 
#    z 0.158490 -0.022230 2.114340 
# 
# From -- ./inp_files/94357.got.cif
#   From: 2010.05.17/outbox.cif.g08.bks.cpg/sg2_48_cif.got.tgz:94357.got - 2010.06.03 11:33:40.
