data_PCOD9059691
_publ_section_title
;
Structure prediction by ZEFSAII (Michael W. Deem and Ramdas Pophale) SiO2 
 PCOD9059691
Probable space group: P -1
;
_chemical_formula_sum "Si O2"
_cell_formula_units_Z 16
_cell_length_a 13.813084
_cell_length_b 6.898403
_cell_length_c 11.241768
_cell_angle_alpha 104.363198
_cell_angle_beta 48.541309
_cell_angle_gamma 84.357296
_cell_volume 725.063928
_symmetry_space_group_name_H-M "P -1"
_symmetry_group_IT_number 2
_symmetry_cell_setting 'triclinic'
loop_
_space_group_symop_operation_xyz
x,y,z
-x,-y,-z
loop_
_atom_site_type_symbol
_atom_site_label
_atom_site_fract_x
_atom_site_fract_y
_atom_site_fract_z
Si Si1 0.453890 0.286217 0.387694
Si Si2 0.228037 0.109100 0.197718
Si Si3 0.779313 0.523213 0.581699
Si Si4 0.991420 0.124147 0.216590
Si Si5 0.992060 0.264658 0.979492
Si Si6 0.681464 0.499628 0.236997
Si Si7 0.622932 0.293559 0.819546
Si Si8 0.401921 0.184389 0.852045
O O1 0.358039 0.332206 0.356126
O O2 0.553098 0.421680 0.316185
O O3 0.356356 0.354189 0.592409
O O4 0.556643 0.043865 0.278391
O O5 0.168047 0.307833 0.368482
O O6 0.109571 0.068996 0.211319
O O7 0.316369 0.893788 0.162626
O O8 0.325840 0.173478 0.035237
O O9 0.738308 0.377398 0.688472
O O10 0.878154 0.349970 0.384400
O O11 0.043939 0.171386 0.052834
O O12 0.941893 0.923389 0.200332
O O13 0.827488 0.312461 0.110546
O O14 0.000000 0.500000 0.000000
O O15 0.687647 0.628780 0.133346
O O16 0.547636 0.210625 0.765040
O O17 0.500000 0.500000 0.000000
#
# Coordination Sequence:
#
# PCOD9059691 Si02
#       8
#     2   2   2   2   2   2   2   2
#     4  11  23  42  67 101 138 173 222 287 343 405
#     4  12  26  44  70  98 142 186 226 279 337 409
#     4  12  24  46  69  98 145 183 226 283 338 408
#     4  11  27  46  69 101 134 183 238 278 334 407
#     4  11  25  47  72  98 138 181 228 288 339 405
#     4  11  24  42  70 100 134 175 225 286 346 401
#     4  12  25  41  66 101 136 176 224 274 340 408
#     4  12  23  40  68  99 133 174 224 274 347 404
#
# _framework density 22.067018000000001
#
# number of rings (size 3 to 8) (size 9 to 14) (size 15 to 20)
#    0.000    0.500    5.000    3.375    1.750    4.500 
#    0.000    0.000    0.000    0.000    0.000    0.000 
#    0.000    0.000    0.000    0.000    0.000    0.000 
#
# Total GULP energy -89488.385061 kJ/mol
# GULP energy per Si atom -5593.024066 kJ/mol
# Density = 2.201679 g / cm^3
# Si number density = 22.067018 Si / 1000 Ang^3
#
#
#
# Elastic Constant Matrix: (Units=GPa)
#
#
# Indices 1 2 3 4 5 6 
#
# 1 89.3298 39.2291 18.1117 1.6131 19.0770 -9.8274
# 2 39.2291 122.3097 23.7142 11.9981 21.1649 -3.9018
# 3 18.1117 23.7142 63.5300 26.8279 14.1696 4.6535
# 4 1.6131 11.9981 26.8279 34.3793 3.1224 6.1585
# 5 19.0770 21.1649 14.1696 3.1224 28.3655 8.1417
# 6 -9.8274 -3.9018 4.6535 6.1585 8.1417 37.3303
#
#
#
# Elastic Compliance Matrix: (Units=1/GPa)
#
#
# Indices 1 2 3 4 5 6 
#
# 1 0.015489 -0.002972 -0.002708 0.002204 -0.008708 0.005640
# 2 -0.002972 0.010642 -0.000787 -0.002817 -0.005861 0.002171
# 3 -0.002708 -0.000787 0.027402 -0.020343 -0.009382 0.001191
# 4 0.002204 -0.002817 -0.020343 0.046314 0.007538 -0.006463
# 5 -0.008708 -0.005861 -0.009382 0.007538 0.053548 -0.014658
# 6 0.005640 0.002171 0.001191 -0.006463 -0.014658 0.032614
#
#
# Mechanical properties :
#
#
# Convention : Reuss Voigt Hill
#
# Bulk Modulus (GPa) = 24.63173 48.58662 36.60918
# Shear Modulus (GPa) = 23.53181 32.95598 28.24389
#
# Velocity S-wave (km/s) = 3.26909 3.86871 3.58147
# Velocity P-wave (km/s) = 5.04338 6.48239 5.80763
#
# Compressibility (1/GPa) = 0.04059804
#
# Stress axis : x y z
#
# Youngs Moduli (GPa) = 64.56114 93.96975 36.49307
#
# Poissons Ratio (x) = 0.27931 0.09883
# Poissons Ratio (y) = 0.19190 0.02873
# Poissons Ratio (z) = 0.17484 0.07398
#
# Static dielectric constant tensor:
#      x y z
#    x 1.820110 0.066800 0.021490 
#    y 0.066800 1.827990 0.014070 
#    z 0.021490 0.014070 1.823120 
# 
# From -- ./inp_files/94542.got.cif
#   From: 2010.05.17/outbox.cif.g08.bks.cpg/sg2_48_cif.got.tgz:94542.got - 2010.06.03 11:33:40.
