data_PCOD9059239
_publ_section_title
;
Structure prediction by ZEFSAII (Michael W. Deem and Ramdas Pophale) SiO2 
 PCOD9059239
Probable space group: P -1
;
_chemical_formula_sum "Si O2"
_cell_formula_units_Z 16
_cell_length_a 14.333104
_cell_length_b 13.998600
_cell_length_c 5.415797
_cell_angle_alpha 101.964965
_cell_angle_beta 95.208217
_cell_angle_gamma 41.674710
_cell_volume 703.375832
_symmetry_space_group_name_H-M "P -1"
_symmetry_group_IT_number 2
_symmetry_cell_setting 'triclinic'
loop_
_space_group_symop_operation_xyz
x,y,z
-x,-y,-z
loop_
_atom_site_type_symbol
_atom_site_label
_atom_site_fract_x
_atom_site_fract_y
_atom_site_fract_z
Si Si1 0.825383 0.358736 0.722346
Si Si2 0.328528 0.297071 0.652960
Si Si3 0.427281 0.323136 0.194908
Si Si4 0.732573 0.035922 0.064946
Si Si5 0.915089 0.828230 0.618636
Si Si6 0.034838 0.584457 0.903211
Si Si7 0.239160 0.186852 0.817873
Si Si8 0.006036 0.932995 0.216089
O O1 0.666541 0.506969 0.695668
O O2 0.936558 0.245951 0.475865
O O3 0.857861 0.244850 0.853316
O O4 0.882797 0.419088 0.867573
O O5 0.386022 0.282423 0.390914
O O6 0.157285 0.444228 0.687503
O O7 0.345710 0.174061 0.694859
O O8 0.391798 0.311657 0.902479
O O9 0.594450 0.204584 0.175606
O O10 0.697117 0.949331 0.072215
O O11 0.866970 0.971974 0.211048
O O12 0.791501 0.993686 0.777344
O O13 0.845554 0.808039 0.402390
O O14 0.963071 0.726774 0.807074
O O15 0.887290 0.649792 0.994024
O O16 0.000000 0.000000 0.500000
O O17 0.000000 0.000000 0.000000
#
# Coordination Sequence:
#
# PCOD9059239 Si02
#       8
#     2   2   2   2   2   2   2   2
#     4  10  20  43  65  97 129 173 210 264 339 381
#     4  11  24  39  58 102 130 184 230 257 310 368
#     4  11  27  42  67  91 143 179 213 261 321 399
#     4  11  25  44  64  98 131 177 212 268 344 376
#     4  10  17  37  66  86 125 181 217 268 313 381
#     4   9  18  35  61  91 131 173 223 273 313 370
#     4  10  22  35  64  90 137 176 225 279 302 376
#     4  12  26  43  76 103 122 156 220 277 324 404
#
# _framework density 22.747443000000001
#
# number of rings (size 3 to 8) (size 9 to 14) (size 15 to 20)
#    0.000    1.500    5.000    1.125    5.250    1.500 
#    0.000    1.250    0.000    0.000    0.000    0.000 
#    0.000    0.000    0.000    0.000    0.000    0.000 
#
# Total GULP energy -89140.669630 kJ/mol
# GULP energy per Si atom -5571.291852 kJ/mol
# Density = 2.269567 g / cm^3
# Si number density = 22.747443 Si / 1000 Ang^3
#
#
#
# Elastic Constant Matrix: (Units=GPa)
#
#
# Indices 1 2 3 4 5 6 
#
# 1 34.4476 29.8156 8.1586 8.4530 -3.8292 4.4505
# 2 29.8156 113.2636 26.8308 18.8149 -25.0035 -11.9106
# 3 8.1586 26.8308 89.4601 9.4957 -12.2276 -8.8514
# 4 8.4530 18.8149 9.4957 29.8185 -2.2056 -3.5709
# 5 -3.8292 -25.0035 -12.2276 -2.2056 29.4561 2.5412
# 6 4.4505 -11.9106 -8.8514 -3.5709 2.5412 16.8624
#
#
#
# Elastic Compliance Matrix: (Units=1/GPa)
#
#
# Indices 1 2 3 4 5 6 
#
# 1 0.045957 -0.014164 -0.002357 -0.006612 -0.005456 -0.023949
# 2 -0.014164 0.017230 -0.000620 -0.004282 0.011085 0.013006
# 3 -0.002357 -0.000620 0.012913 -0.002056 0.003861 0.005945
# 4 -0.006612 -0.004282 -0.002056 0.039316 -0.002957 0.006413
# 5 -0.005456 0.011085 0.003861 -0.002957 0.043677 0.004088
# 6 -0.023949 0.013006 0.005945 0.006413 0.004088 0.078674
#
#
# Mechanical properties :
#
#
# Convention : Reuss Voigt Hill
#
# Bulk Modulus (GPa) = 23.91190 40.75350 32.33270
# Shear Modulus (GPa) = 17.48317 26.71850 22.10084
#
# Velocity S-wave (km/s) = 2.77533 3.43092 3.12039
# Velocity P-wave (km/s) = 4.56121 5.80082 5.21796
#
# Compressibility (1/GPa) = 0.04182019
#
# Stress axis : x y z
#
# Youngs Moduli (GPa) = 21.75930 58.03728 77.44071
#
# Poissons Ratio (x) = 0.82205 0.18250
# Poissons Ratio (y) = 0.30820 0.04798
# Poissons Ratio (z) = 0.05128 0.03596
#
# Static dielectric constant tensor:
#      x y z
#    x 1.909580 0.079760 -0.056560 
#    y 0.079760 1.949780 -0.009060 
#    z -0.056560 -0.009060 1.965910 
# 
# From -- ./inp_files/98087.got.cif
#   From: 2010.05.17/outbox.cif.g08.bks.cpg/sg2_50_cif.got.tgz:98087.got - 2010.06.03 11:33:40.
