data_PCOD9059485
_publ_section_title
;
Structure prediction by ZEFSAII (Michael W. Deem and Ramdas Pophale) SiO2 
 PCOD9059485
Probable space group: P -1
;
_chemical_formula_sum "Si O2"
_cell_formula_units_Z 16
_cell_length_a 11.364198
_cell_length_b 5.107726
_cell_length_c 13.008354
_cell_angle_alpha 92.007753
_cell_angle_beta 67.768782
_cell_angle_gamma 92.369076
_cell_volume 698.193021
_symmetry_space_group_name_H-M "P -1"
_symmetry_group_IT_number 2
_symmetry_cell_setting 'triclinic'
loop_
_space_group_symop_operation_xyz
x,y,z
-x,-y,-z
loop_
_atom_site_type_symbol
_atom_site_label
_atom_site_fract_x
_atom_site_fract_y
_atom_site_fract_z
Si Si1 0.074873 0.106085 0.103913
Si Si2 0.159407 0.668831 0.733918
Si Si3 0.224786 0.940083 0.243884
Si Si4 0.029849 0.330320 0.589720
Si Si5 0.410854 0.739195 0.027371
Si Si6 0.616965 0.317287 0.491139
Si Si7 0.711951 0.832091 0.566020
Si Si8 0.820008 0.388385 0.041416
O O1 0.935435 0.101972 0.200873
O O2 0.172955 0.095985 0.166047
O O3 0.112804 0.373829 0.038129
O O4 0.099612 0.863981 0.018334
O O5 0.082414 0.497945 0.672145
O O6 0.293858 0.731740 0.637399
O O7 0.184305 0.546958 0.835962
O O8 0.322230 0.746925 0.157419
O O9 0.101974 0.800806 0.332895
O O10 0.290273 0.112080 0.312528
O O11 0.142373 0.129307 0.523315
O O12 0.000000 0.500000 0.500000
O O13 0.500000 0.500000 0.000000
O O14 0.317712 0.692393 0.960324
O O15 0.500000 0.000000 0.000000
O O16 0.500000 0.500000 0.500000
O O17 0.686736 0.526173 0.547167
O O18 0.617247 0.034345 0.544132
#
# Coordination Sequence:
#
# PCOD9059485 Si02
#       8
#     2   2   2   2   2   2   2   2
#     4  11  23  42  66 102 133 167 217 272 337 411
#     4  11  23  41  69  95 134 176 212 276 342 391
#     4  11  23  42  70  97 136 177 214 280 344 390
#     4  11  23  43  71 108 139 172 225 282 346 419
#     4  11  25  44  64  94 130 174 228 270 315 392
#     4  11  26  45  64  95 133 175 230 277 327 404
#     4  11  24  43  69  99 129 172 224 278 339 409
#     4  11  25  42  66  98 133 171 223 275 332 404
#
# _framework density 22.916298000000001
#
# number of rings (size 3 to 8) (size 9 to 14) (size 15 to 20)
#    0.000    1.000    0.000    7.500    0.000   10.000 
#    0.000    0.000    0.000    0.000    0.000    0.000 
#    0.000    0.000    0.000    0.000    0.000    0.000 
#
# Total GULP energy -89491.645034 kJ/mol
# GULP energy per Si atom -5593.227815 kJ/mol
# Density = 2.286414 g / cm^3
# Si number density = 22.916298 Si / 1000 Ang^3
#
#
#
# Elastic Constant Matrix: (Units=GPa)
#
#
# Indices 1 2 3 4 5 6 
#
# 1 111.2838 27.5025 35.6409 14.8844 6.6061 -15.3191
# 2 27.5025 118.3650 19.8301 8.6780 10.2650 -11.7242
# 3 35.6409 19.8301 114.6061 22.6805 39.9685 -9.8915
# 4 14.8844 8.6780 22.6805 30.1305 -6.9388 -5.9651
# 5 6.6061 10.2650 39.9685 -6.9388 41.7256 10.4472
# 6 -15.3191 -11.7242 -9.8915 -5.9651 10.4472 40.5831
#
#
#
# Elastic Compliance Matrix: (Units=1/GPa)
#
#
# Indices 1 2 3 4 5 6 
#
# 1 0.010868 -0.001644 -0.002141 -0.002830 -0.000438 0.002803
# 2 -0.001644 0.009604 0.001690 -0.003757 -0.005185 0.003348
# 3 -0.002141 0.001690 0.025555 -0.023768 -0.031118 0.010426
# 4 -0.002830 -0.003757 -0.023768 0.060244 0.036268 -0.008428
# 5 -0.000438 -0.005185 -0.031118 0.036268 0.066411 -0.021013
# 6 0.002803 0.003348 0.010426 -0.008428 -0.021013 0.033378
#
#
# Mechanical properties :
#
#
# Convention : Reuss Voigt Hill
#
# Bulk Modulus (GPa) = 23.90137 56.68910 40.29524
# Shear Modulus (GPa) = 22.30211 39.90660 31.10436
#
# Velocity S-wave (km/s) = 3.12300 4.17754 3.68816
# Velocity P-wave (km/s) = 4.84321 6.93256 5.97984
#
# Compressibility (1/GPa) = 0.04183860
#
# Stress axis : x y z
#
# Youngs Moduli (GPa) = 92.01187 104.12385 39.13172
#
# Poissons Ratio (x) = 0.17113 0.08377
# Poissons Ratio (y) = 0.15122 -0.06613
# Poissons Ratio (z) = 0.19697 -0.17597
#
# Static dielectric constant tensor:
#      x y z
#    x 1.952590 0.004940 0.011040 
#    y 0.004940 1.861040 -0.006700 
#    z 0.011040 -0.006700 1.820200 
# 
# From -- ./inp_files/410725.got.cif
#   From: 2010.05.17/outbox.cif.g08.bks.cpg/sg2_206_cif.got.tgz:410725.got - 2010.06.03 11:33:40.
