data_PCOD9059145
_publ_section_title
;
Structure prediction by ZEFSAII (Michael W. Deem and Ramdas Pophale) SiO2 
 PCOD9059145
Probable space group: P -1
;
_chemical_formula_sum "Si O2"
_cell_formula_units_Z 16
_cell_length_a 11.050027
_cell_length_b 13.026181
_cell_length_c 13.768332
_cell_angle_alpha 136.005745
_cell_angle_beta 146.742125
_cell_angle_gamma 64.959682
_cell_volume 667.074748
_symmetry_space_group_name_H-M "P -1"
_symmetry_group_IT_number 2
_symmetry_cell_setting 'triclinic'
loop_
_space_group_symop_operation_xyz
x,y,z
-x,-y,-z
loop_
_atom_site_type_symbol
_atom_site_label
_atom_site_fract_x
_atom_site_fract_y
_atom_site_fract_z
Si Si1 0.283003 0.286946 0.039815
Si Si2 0.668041 0.780338 0.292659
Si Si3 0.855659 0.316238 0.673220
Si Si4 0.827374 0.498391 0.156313
Si Si5 0.808386 0.573106 0.539134
Si Si6 0.383351 0.046339 0.817816
Si Si7 0.318338 0.242195 0.260621
Si Si8 0.072741 0.879341 0.782927
O O1 0.522260 0.432449 0.244030
O O2 0.338277 0.290923 0.193588
O O3 0.261973 0.120187 0.862081
O O4 0.034564 0.301519 0.863031
O O5 0.740451 0.640639 0.205547
O O6 0.625917 0.877356 0.241545
O O7 0.886795 0.891356 0.588403
O O8 0.413168 0.678909 0.112184
O O9 0.602337 0.311602 0.535979
O O10 0.025910 0.470957 0.824801
O O11 0.758283 0.152435 0.426316
O O12 0.016479 0.510905 0.377249
O O13 0.815887 0.679072 0.711424
O O14 0.917301 0.705112 0.615724
O O15 0.670825 0.106019 0.078248
O O16 0.174599 0.041318 0.031026
#
# Coordination Sequence:
#
# PCOD9059145 Si02
#       8
#     2   2   2   2   2   2   2   2
#     4  12  24  41  70  96 128 175 208 263 336 374
#     4  11  23  43  67 101 130 162 213 268 329 389
#     4  11  24  42  65 100 130 168 212 268 322 383
#     4  11  23  40  68  93 138 162 205 273 321 375
#     4  12  25  47  64  93 134 173 223 264 305 386
#     4  11  24  41  68 102 133 158 213 271 326 392
#     4  11  27  46  64  92 133 174 222 266 304 380
#     4  11  25  43  71  93 126 178 211 264 335 369
#
# _framework density 23.985316999999998
#
# number of rings (size 3 to 8) (size 9 to 14) (size 15 to 20)
#    0.000    0.750    3.750    3.375    3.500    2.500 
#    2.250    0.625    0.000    0.000    0.000    0.000 
#    0.000    0.000    0.000    0.000    0.000    0.000 
#
# Total GULP energy -89735.583221 kJ/mol
# GULP energy per Si atom -5608.473951 kJ/mol
# Density = 2.393073 g / cm^3
# Si number density = 23.985317 Si / 1000 Ang^3
#
#
#
# Elastic Constant Matrix: (Units=GPa)
#
#
# Indices 1 2 3 4 5 6 
#
# 1 73.7449 29.8619 28.5812 7.8677 16.0865 9.4125
# 2 29.8619 91.2417 33.2640 -14.1293 10.0423 7.1667
# 3 28.5812 33.2640 105.0919 -27.2705 26.3137 0.5241
# 4 7.8677 -14.1293 -27.2705 39.2287 -1.2877 4.6597
# 5 16.0865 10.0423 26.3137 -1.2877 32.8365 8.9043
# 6 9.4125 7.1667 0.5241 4.6597 8.9043 26.1166
#
#
#
# Elastic Compliance Matrix: (Units=1/GPa)
#
#
# Indices 1 2 3 4 5 6 
#
# 1 0.019916 -0.005467 -0.005224 -0.009391 -0.003537 -0.002691
# 2 -0.005467 0.014427 -0.001876 0.005397 0.000850 -0.003204
# 3 -0.005224 -0.001876 0.017376 0.011619 -0.011381 0.003856
# 4 -0.009391 0.005397 0.011619 0.037714 -0.003868 -0.003740
# 5 -0.003537 0.000850 -0.011381 -0.003868 0.044476 -0.013204
# 6 -0.002691 -0.003204 0.003856 -0.003740 -0.013204 0.045230
#
#
# Mechanical properties :
#
#
# Convention : Reuss Voigt Hill
#
# Bulk Modulus (GPa) = 37.61604 50.38808 44.00206
# Shear Modulus (GPa) = 23.45948 31.52779 27.49364
#
# Velocity S-wave (km/s) = 3.13081 3.62948 3.38933
# Velocity P-wave (km/s) = 5.36529 6.21431 5.80534
#
# Compressibility (1/GPa) = 0.02658440
#
# Stress axis : x y z
#
# Youngs Moduli (GPa) = 50.21167 69.31446 57.55228
#
# Poissons Ratio (x) = 0.37896 0.30064
# Poissons Ratio (y) = 0.27452 0.10796
# Poissons Ratio (z) = 0.26229 0.13002
#
# Static dielectric constant tensor:
#      x y z
#    x 1.859930 0.010980 0.000120 
#    y 0.010980 1.914330 0.016070 
#    z 0.000120 0.016070 1.914410 
# 
# From -- ./inp_files/433138.got.cif
#   From: 2010.05.17/outbox.cif.g08.bks.cpg/sg2_217_cif.got.tgz:433138.got - 2010.06.03 11:33:40.
