data_PCOD9059707
_publ_section_title
;
Structure prediction by ZEFSAII (Michael W. Deem and Ramdas Pophale) SiO2 
 PCOD9059707
Probable space group: P -1
;
_chemical_formula_sum "Si O2"
_cell_formula_units_Z 16
_cell_length_a 13.811575
_cell_length_b 12.178773
_cell_length_c 16.241693
_cell_angle_alpha 53.472336
_cell_angle_beta 146.266271
_cell_angle_gamma 149.384302
_cell_volume 699.029094
_symmetry_space_group_name_H-M "P -1"
_symmetry_group_IT_number 2
_symmetry_cell_setting 'triclinic'
loop_
_space_group_symop_operation_xyz
x,y,z
-x,-y,-z
loop_
_atom_site_type_symbol
_atom_site_label
_atom_site_fract_x
_atom_site_fract_y
_atom_site_fract_z
Si Si1 0.772037 0.369395 0.148956
Si Si2 0.565399 0.583495 0.666475
Si Si3 0.120987 0.875928 0.637372
Si Si4 0.248413 0.113946 0.192308
Si Si5 0.274007 0.618215 0.084157
Si Si6 0.707621 0.726184 0.102487
Si Si7 0.397605 0.925493 0.367416
Si Si8 0.143140 0.994952 0.420093
O O1 0.810395 0.242246 0.267896
O O2 0.057163 0.648303 0.248902
O O3 0.777537 0.377536 0.049658
O O4 0.465537 0.242347 0.022726
O O5 0.546529 0.656507 0.707425
O O6 0.712068 0.534331 0.818317
O O7 0.759046 0.796723 0.642516
O O8 0.237877 0.351406 0.496192
O O9 0.391337 0.107087 0.781481
O O10 0.139204 0.976979 0.522306
O O11 0.415987 0.094720 0.276876
O O12 0.022741 0.921473 0.190531
O O13 0.000000 0.000000 0.000000
O O14 0.000000 0.500000 0.000000
O O15 0.500000 0.500000 0.000000
O O16 0.812854 0.749926 0.257016
O O17 0.610277 0.958154 0.455220
O O18 0.500000 0.000000 0.500000
#
# Coordination Sequence:
#
# PCOD9059707 Si02
#       8
#     2   2   2   2   2   2   2   2
#     4  12  25  47  72 106 148 179 244 294 353 436
#     4  11  25  50  71 102 145 185 239 302 354 428
#     4  12  27  48  74 104 140 191 239 302 362 417
#     4  11  24  39  70 104 143 190 235 283 357 421
#     4  12  29  50  76 103 136 192 247 304 364 412
#     4  11  23  42  67 104 145 187 229 286 348 432
#     4  12  20  45  68 103 148 183 229 287 346 437
#     4  11  25  44  73 105 146 187 239 289 361 425
#
# _framework density 22.88889
#
# number of rings (size 3 to 8) (size 9 to 14) (size 15 to 20)
#    0.000    0.500    5.000    3.000    7.000    0.500 
#    2.250    1.875    0.000    0.000    0.000    0.000 
#    0.000    0.000    0.000    0.000    0.000    0.000 
#
# Total GULP energy -89356.790356 kJ/mol
# GULP energy per Si atom -5584.799397 kJ/mol
# Density = 2.283679 g / cm^3
# Si number density = 22.888890 Si / 1000 Ang^3
#
#
#
# Elastic Constant Matrix: (Units=GPa)
#
#
# Indices 1 2 3 4 5 6 
#
# 1 29.4646 39.1853 15.5549 6.6299 -8.1889 -7.4667
# 2 39.1853 117.0619 39.3714 -2.3127 -6.8779 -6.0787
# 3 15.5549 39.3714 122.9391 6.5239 -15.6897 -12.2643
# 4 6.6299 -2.3127 6.5239 53.1806 -17.1417 3.8649
# 5 -8.1889 -6.8779 -15.6897 -17.1417 56.8050 -5.8212
# 6 -7.4667 -6.0787 -12.2643 3.8649 -5.8212 32.6224
#
#
#
# Elastic Compliance Matrix: (Units=1/GPa)
#
#
# Indices 1 2 3 4 5 6 
#
# 1 0.072503 -0.023701 0.001246 -0.009149 0.006695 0.014925
# 2 -0.023701 0.017389 -0.003387 0.003953 -0.001483 -0.004191
# 3 0.001246 -0.003387 0.009836 -0.000957 0.002600 0.003929
# 4 -0.009149 0.003953 -0.000957 0.022169 0.005236 -0.003409
# 5 0.006695 -0.001483 0.002600 0.005236 0.021242 0.005404
# 6 0.014925 -0.004191 0.003929 -0.003409 0.005404 0.036134
#
#
# Mechanical properties :
#
#
# Convention : Reuss Voigt Hill
#
# Bulk Modulus (GPa) = 20.81480 50.85429 35.83455
# Shear Modulus (GPa) = 20.24520 40.21186 30.22853
#
# Velocity S-wave (km/s) = 2.97728 4.19600 3.63804
# Velocity P-wave (km/s) = 4.57521 6.76324 5.77381
#
# Compressibility (1/GPa) = 0.04804274
#
# Stress axis : x y z
#
# Youngs Moduli (GPa) = 13.79246 57.50870 101.66955
#
# Poissons Ratio (x) = 1.36302 -0.12665
# Poissons Ratio (y) = 0.32690 0.34437
# Poissons Ratio (z) = -0.01718 0.19479
#
# Static dielectric constant tensor:
#      x y z
#    x 1.928680 -0.037180 -0.058680 
#    y -0.037180 1.916340 -0.015300 
#    z -0.058680 -0.015300 1.911390 
# 
# From -- ./inp_files/347588.got.cif
#   From: 2010.05.17/outbox.cif.g08.bks.cpg/sg2_174_cif.got.tgz:347588.got - 2010.06.03 11:33:40.
