data_PCOD9059259
_publ_section_title
;
Structure prediction by ZEFSAII (Michael W. Deem and Ramdas Pophale) SiO2 
 PCOD9059259
Probable space group: P -1
;
_chemical_formula_sum "Si O2"
_cell_formula_units_Z 16
_cell_length_a 20.192334
_cell_length_b 6.326457
_cell_length_c 9.573785
_cell_angle_alpha 57.317939
_cell_angle_beta 121.043268
_cell_angle_gamma 129.979688
_cell_volume 761.313485
_symmetry_space_group_name_H-M "P -1"
_symmetry_group_IT_number 2
_symmetry_cell_setting 'triclinic'
loop_
_space_group_symop_operation_xyz
x,y,z
-x,-y,-z
loop_
_atom_site_type_symbol
_atom_site_label
_atom_site_fract_x
_atom_site_fract_y
_atom_site_fract_z
Si Si1 0.308094 0.897394 0.876700
Si Si2 0.961653 0.169428 0.502199
Si Si3 0.779646 0.763485 0.957454
Si Si4 0.085541 0.168854 0.135337
Si Si5 0.415731 0.116200 0.666955
Si Si6 0.479582 0.182040 0.132161
Si Si7 0.149899 0.820162 0.882765
Si Si8 0.592225 0.725210 0.709835
O O1 0.254600 0.977175 0.898391
O O2 0.337756 0.067690 0.704038
O O3 0.245136 0.557092 0.909051
O O4 0.399740 0.961319 0.025342
O O5 0.896644 0.187552 0.309730
O O6 0.000000 0.500000 0.500000
O O7 0.931412 0.962234 0.680696
O O8 0.000000 0.000000 0.500000
O O9 0.830247 0.840817 0.837149
O O10 0.685884 0.757766 0.847142
O O11 0.851611 0.978766 0.069785
O O12 0.114289 0.507242 0.027156
O O13 0.000000 0.000000 0.000000
O O14 0.508221 0.397860 0.716232
O O15 0.394463 0.147066 0.475215
O O16 0.435167 0.851459 0.786253
O O17 0.442079 0.126644 0.268429
O O18 0.500000 0.500000 0.000000
#
# Coordination Sequence:
#
# PCOD9059259 Si02
#       8
#     2   2   2   2   2   2   2   2
#     4  11  23  41  63  96 133 181 233 286 353 424
#     4  12  28  50  81 114 146 191 247 296 369 454
#     4  11  24  44  68  98 140 183 232 293 361 433
#     4  11  25  48  76 105 145 186 229 300 364 439
#     4  11  24  39  63  90 134 176 231 290 342 419
#     4  12  21  39  63  89 123 182 233 284 350 417
#     4  11  26  46  72 105 145 185 240 294 365 439
#     4  11  23  41  61  94 131 176 228 289 351 414
#
# _framework density 21.016310000000001
#
# number of rings (size 3 to 8) (size 9 to 14) (size 15 to 20)
#    0.000    0.750    5.000    2.250    5.250    1.000 
#    2.250    0.000    0.000    0.000    0.000    0.000 
#    0.000    0.000    0.000    0.000    0.000    0.000 
#
# Total GULP energy -89147.732420 kJ/mol
# GULP energy per Si atom -5571.733276 kJ/mol
# Density = 2.096848 g / cm^3
# Si number density = 21.016310 Si / 1000 Ang^3
#
#
#
# Elastic Constant Matrix: (Units=GPa)
#
#
# Indices 1 2 3 4 5 6 
#
# 1 75.0389 27.2838 38.8941 -6.3668 -27.1319 1.3583
# 2 27.2838 85.6553 47.7231 6.3719 -20.3008 -5.8909
# 3 38.8941 47.7231 142.8525 3.3121 -38.3124 2.4657
# 4 -6.3668 6.3719 3.3121 32.3125 0.4771 -6.8547
# 5 -27.1319 -20.3008 -38.3124 0.4771 45.8636 -1.0300
# 6 1.3583 -5.8909 2.4657 -6.8547 -1.0300 22.5473
#
#
#
# Elastic Compliance Matrix: (Units=1/GPa)
#
#
# Indices 1 2 3 4 5 6 
#
# 1 0.018820 -0.003345 -0.001975 0.004436 0.007956 -0.000080
# 2 -0.003345 0.015820 -0.003875 -0.002546 0.001905 0.004071
# 3 -0.001975 -0.003875 0.010458 -0.001239 0.005818 -0.002148
# 4 0.004436 -0.002546 -0.001239 0.034506 0.000322 0.009708
# 5 0.007956 0.001905 0.005818 0.000322 0.032232 0.000952
# 6 -0.000080 0.004071 -0.002148 0.009708 0.000952 0.048649
#
#
# Mechanical properties :
#
#
# Convention : Reuss Voigt Hill
#
# Bulk Modulus (GPa) = 37.43803 59.03875 48.23839
# Shear Modulus (GPa) = 26.62742 32.78772 29.70757
#
# Velocity S-wave (km/s) = 3.56334 3.95411 3.76380
# Velocity P-wave (km/s) = 5.89765 6.99996 6.47232
#
# Compressibility (1/GPa) = 0.02671081
#
# Stress axis : x y z
#
# Youngs Moduli (GPa) = 53.13384 63.21230 95.61701
#
# Poissons Ratio (x) = 0.21142 0.18880
# Poissons Ratio (y) = 0.17771 0.37048
# Poissons Ratio (z) = 0.10492 0.24493
#
# Static dielectric constant tensor:
#      x y z
#    x 1.820850 -0.024100 -0.024490 
#    y -0.024100 1.800060 -0.012170 
#    z -0.024490 -0.012170 1.775070 
# 
# From -- ./inp_files/48825.got.cif
#   From: 2010.05.17/outbox.cif.g08.bks.cpg/sg2_25_cif.got.tgz:48825.got - 2010.06.03 11:33:40.
