data_PCOD9059012
_publ_section_title
;
Structure prediction by ZEFSAII (Michael W. Deem and Ramdas Pophale) SiO2 
 PCOD9059012
Probable space group: P -1
;
_chemical_formula_sum "Si O2"
_cell_formula_units_Z 16
_cell_length_a 12.848436
_cell_length_b 18.763614
_cell_length_c 11.805383
_cell_angle_alpha 26.162860
_cell_angle_beta 141.933926
_cell_angle_gamma 132.431412
_cell_volume 768.381197
_symmetry_space_group_name_H-M "P -1"
_symmetry_group_IT_number 2
_symmetry_cell_setting 'triclinic'
loop_
_space_group_symop_operation_xyz
x,y,z
-x,-y,-z
loop_
_atom_site_type_symbol
_atom_site_label
_atom_site_fract_x
_atom_site_fract_y
_atom_site_fract_z
Si Si1 0.170719 0.680375 0.817108
Si Si2 0.334650 0.738716 0.650207
Si Si3 0.391041 0.217929 0.341456
Si Si4 0.557707 0.411140 0.395815
Si Si5 0.191996 0.042364 0.585229
Si Si6 0.817418 0.452342 0.396041
Si Si7 0.801436 0.705243 0.567103
Si Si8 0.429558 0.739641 0.153527
O O1 0.221769 0.776358 0.611904
O O2 0.975024 0.727630 0.618584
O O3 0.184716 0.481433 0.107861
O O4 0.303680 0.717183 0.975695
O O5 0.468433 0.839842 0.552885
O O6 0.211005 0.685365 0.522472
O O7 0.450683 0.576433 0.025628
O O8 0.487257 0.267529 0.467201
O O9 0.245816 0.111419 0.410343
O O10 0.298523 0.387960 0.974950
O O11 0.748720 0.406462 0.523726
O O12 0.555582 0.405571 0.536032
O O13 0.213238 0.176185 0.507273
O O14 0.000000 0.000000 0.500000
O O15 0.334006 0.887102 0.935655
O O16 0.000000 0.500000 0.500000
O O17 0.627513 0.751042 0.281097
#
# Coordination Sequence:
#
# PCOD9059012 Si02
#       8
#     2   2   2   2   2   2   2   2
#     4  11  23  40  64  95 132 164 202 261 318 382
#     4   9  18  38  57  83 128 158 200 255 314 367
#     4   9  19  37  56  83 119 163 202 255 310 356
#     4   9  18  33  59  87 119 155 204 259 307 353
#     4  12  24  41  63  92 128 166 212 264 309 369
#     4   9  18  31  57  89 116 154 206 263 305 357
#     4  11  23  40  60  94 128 160 207 265 308 361
#     4  12  23  39  65  94 127 168 209 250 319 380
#
# _framework density 20.822998999999999
#
# number of rings (size 3 to 8) (size 9 to 14) (size 15 to 20)
#    0.000    1.750    3.750    3.000    1.750    2.000 
#    2.250    0.625    0.000    0.750    0.000    0.000 
#    0.000    0.000    0.000    0.000    0.000    0.000 
#
# Total GULP energy -89107.220430 kJ/mol
# GULP energy per Si atom -5569.201277 kJ/mol
# Density = 2.077560 g / cm^3
# Si number density = 20.822999 Si / 1000 Ang^3
#
#
#
# Elastic Constant Matrix: (Units=GPa)
#
#
# Indices 1 2 3 4 5 6 
#
# 1 182.1700 58.5931 18.5156 22.9447 13.0857 42.2877
# 2 58.5931 78.6820 22.1382 18.4042 16.8109 9.6935
# 3 18.5156 22.1382 30.7733 5.2178 22.5667 10.4786
# 4 22.9447 18.4042 5.2178 32.0146 4.3857 8.9232
# 5 13.0857 16.8109 22.5667 4.3857 35.1803 4.4511
# 6 42.2877 9.6935 10.4786 8.9232 4.4511 26.3619
#
#
#
# Elastic Compliance Matrix: (Units=1/GPa)
#
#
# Indices 1 2 3 4 5 6 
#
# 1 0.011729 -0.007930 0.006725 0.000519 -0.002636 -0.018303
# 2 -0.007930 0.023285 -0.016226 -0.009015 0.001662 0.013379
# 3 0.006725 -0.016226 0.082666 0.006112 -0.044457 -0.032243
# 4 0.000519 -0.009015 0.006112 0.038990 -0.003069 -0.012627
# 5 -0.002636 0.001662 -0.044457 -0.003069 0.055880 0.012893
# 6 -0.018303 0.013379 -0.032243 -0.012627 0.012893 0.077287
#
#
# Mechanical properties :
#
#
# Convention : Reuss Voigt Hill
#
# Bulk Modulus (GPa) = 12.07450 54.45767 33.26608
# Shear Modulus (GPa) = 14.19221 31.53660 22.86440
#
# Velocity S-wave (km/s) = 2.61351 3.89589 3.31726
# Velocity P-wave (km/s) = 3.86244 6.81518 5.53919
#
# Compressibility (1/GPa) = 0.08281919
#
# Stress axis : x y z
#
# Youngs Moduli (GPa) = 85.25803 42.94550 12.09681
#
# Poissons Ratio (x) = 0.34055 -0.08135
# Poissons Ratio (y) = 0.67609 0.19628
# Poissons Ratio (z) = -0.57338 0.69684
#
# Static dielectric constant tensor:
#      x y z
#    x 1.845710 0.038330 -0.004690 
#    y 0.038330 1.766350 -0.035050 
#    z -0.004690 -0.035050 1.793530 
# 
# From -- ./inp_files/419579.got.cif
#   From: 2010.05.17/outbox.cif.g08.bks.cpg/sg2_210_cif.got.tgz:419579.got - 2010.06.03 11:33:40.
