data_PCOD9059315
_publ_section_title
;
Structure prediction by ZEFSAII (Michael W. Deem and Ramdas Pophale) SiO2 
 PCOD9059315
Probable space group: P -1
;
_chemical_formula_sum "Si O2"
_cell_formula_units_Z 14
_cell_length_a 21.164372
_cell_length_b 6.622959
_cell_length_c 8.642360
_cell_angle_alpha 57.994845
_cell_angle_beta 140.334507
_cell_angle_gamma 108.609530
_cell_volume 646.815536
_symmetry_space_group_name_H-M "P -1"
_symmetry_group_IT_number 2
_symmetry_cell_setting 'triclinic'
loop_
_space_group_symop_operation_xyz
x,y,z
-x,-y,-z
loop_
_atom_site_type_symbol
_atom_site_label
_atom_site_fract_x
_atom_site_fract_y
_atom_site_fract_z
Si Si1 0.988194 0.119814 0.099315
Si Si2 0.845476 0.686673 0.489629
Si Si3 0.245172 0.672223 0.372988
Si Si4 0.253435 0.791625 0.992197
Si Si5 0.535450 0.233199 0.754691
Si Si6 0.091184 0.619069 0.568282
Si Si7 0.444919 0.766259 0.839465
O O1 0.066827 0.292385 0.229087
O O2 0.871670 0.203062 0.883798
O O3 0.038051 0.891363 0.382648
O O4 0.000000 0.000000 0.000000
O O5 0.757146 0.594832 0.456823
O O6 0.881748 0.483983 0.510386
O O7 0.809223 0.937080 0.232232
O O8 0.325652 0.786914 0.576204
O O9 0.275495 0.687806 0.246377
O O10 0.192222 0.609394 0.860733
O O11 0.351946 0.823414 0.072392
O O12 0.500000 0.500000 0.500000
O O13 0.480692 0.995572 0.725762
O O14 0.535267 0.242976 0.936149
O O15 0.000000 0.500000 0.500000
O O16 0.500000 0.500000 0.000000
#
# Coordination Sequence:
#
# PCOD9059315 Si02
#       7
#     2   2   2   2   2   2   2
#     4  11  24  40  64  99 135 179 229 274 334 412
#     4  11  24  44  65  95 140 180 227 279 335 412
#     4  12  24  43  71  98 135 185 225 282 350 404
#     4  11  26  43  66 102 134 177 233 278 345 413
#     4  11  26  48  72 102 141 180 230 298 355 413
#     4  11  23  41  65  93 136 179 225 282 332 405
#     4  11  26  48  74 104 137 180 238 291 350 421
#
# _framework density 21.644503
#
# number of rings (size 3 to 8) (size 9 to 14) (size 15 to 20)
#    0.000    0.857    1.429    4.714    4.000    9.143 
#    0.000    0.000    0.000    0.000    0.000    0.000 
#    0.000    0.000    0.000    0.000    0.000    0.000 
#
# Total GULP energy -77999.130477 kJ/mol
# GULP energy per Si atom -5571.366463 kJ/mol
# Density = 2.159524 g / cm^3
# Si number density = 21.644503 Si / 1000 Ang^3
#
#
#
# Elastic Constant Matrix: (Units=GPa)
#
#
# Indices 1 2 3 4 5 6 
#
# 1 90.2214 37.0005 9.3651 -3.1958 -9.7926 20.1998
# 2 37.0005 124.9171 39.5849 7.1256 -4.2034 27.8205
# 3 9.3651 39.5849 62.8578 4.6106 -1.2200 11.9911
# 4 -3.1958 7.1256 4.6106 36.9801 5.6519 2.9511
# 5 -9.7926 -4.2034 -1.2200 5.6519 37.6525 -4.1229
# 6 20.1998 27.8205 11.9911 2.9511 -4.1229 43.1011
#
#
#
# Elastic Compliance Matrix: (Units=1/GPa)
#
#
# Indices 1 2 3 4 5 6 
#
# 1 0.013679 -0.003359 0.000832 0.001694 0.002479 -0.004353
# 2 -0.003359 0.011994 -0.006111 -0.001493 0.000014 -0.004364
# 3 0.000832 -0.006111 0.020089 -0.001122 0.000141 -0.001944
# 4 0.001694 -0.001493 -0.001122 0.028411 -0.004232 -0.001868
# 5 0.002479 0.000014 0.000141 -0.004232 0.028038 0.001762
# 6 -0.004353 -0.004364 -0.001944 -0.001868 0.001762 0.028895
#
#
# Mechanical properties :
#
#
# Convention : Reuss Voigt Hill
#
# Bulk Modulus (GPa) = 35.10510 49.98861 42.54685
# Shear Modulus (GPa) = 31.67007 36.34979 34.00993
#
# Velocity S-wave (km/s) = 3.82932 4.10250 3.96826
# Velocity P-wave (km/s) = 5.98379 6.75174 6.37933
#
# Compressibility (1/GPa) = 0.02848589
#
# Stress axis : x y z
#
# Youngs Moduli (GPa) = 73.10672 83.37361 49.77822
#
# Poissons Ratio (x) = 0.28005 -0.04139
# Poissons Ratio (y) = 0.24556 0.30418
# Poissons Ratio (z) = -0.06079 0.50946
#
# Static dielectric constant tensor:
#      x y z
#    x 1.719490 -0.070030 -0.045260 
#    y -0.070030 1.431000 0.015540 
#    z -0.045260 0.015540 1.830620 
# 
# From -- ./inp_files/107439.got.cif
#   From: 2010.05.17/outbox.cif.g08.bks.cpg/sg2_54_cif.got.tgz:107439.got - 2010.06.03 11:33:40.
