data_PCOD9059700
_publ_section_title
;
Structure prediction by ZEFSAII (Michael W. Deem and Ramdas Pophale) SiO2 
 PCOD9059700
Probable space group: P -1
;
_chemical_formula_sum "Si O2"
_cell_formula_units_Z 14
_cell_length_a 9.626940
_cell_length_b 10.757476
_cell_length_c 8.800716
_cell_angle_alpha 110.073039
_cell_angle_beta 112.556264
_cell_angle_gamma 63.526913
_cell_volume 736.906837
_symmetry_space_group_name_H-M "P -1"
_symmetry_group_IT_number 2
_symmetry_cell_setting 'triclinic'
loop_
_space_group_symop_operation_xyz
x,y,z
-x,-y,-z
loop_
_atom_site_type_symbol
_atom_site_label
_atom_site_fract_x
_atom_site_fract_y
_atom_site_fract_z
Si Si1 0.091857 0.214096 0.003266
Si Si2 0.466649 0.482931 0.730856
Si Si3 0.776867 0.060902 0.863706
Si Si4 0.076966 0.878336 0.358861
Si Si5 0.562265 0.919757 0.835418
Si Si6 0.754435 0.371857 0.041182
Si Si7 0.590542 0.278915 0.442533
O O1 0.048216 0.180874 0.801060
O O2 0.270693 0.211733 0.106364
O O3 0.938100 0.341699 0.056154
O O4 0.106360 0.071814 0.045448
O O5 0.313274 0.535985 0.799624
O O6 0.485449 0.349385 0.575707
O O7 0.456701 0.609472 0.666577
O O8 0.626513 0.442704 0.884374
O O9 0.840973 0.067631 0.724515
O O10 0.615239 0.023491 0.791750
O O11 0.747601 0.213687 0.990228
O O12 0.224384 0.756286 0.449179
O O13 0.000000 0.000000 0.500000
O O14 0.438112 0.860641 0.682063
O O15 0.500000 0.000000 0.000000
#
# Coordination Sequence:
#
# PCOD9059700 Si02
#       7
#     2   2   2   2   2   2   2
#     4   9  20  36  57  83 108 144 188 234 278 339
#     4  10  22  34  59  77 115 155 190 232 262 336
#     4   9  20  35  60  83 111 142 187 235 284 338
#     4  11  20  33  59  87 113 140 185 242 286 325
#     4  10  21  36  59  83 117 148 177 237 301 329
#     4  10  17  38  59  82 103 154 197 221 279 335
#     4  11  22  37  52  88 116 141 192 233 280 328
#
# _framework density 18.998331
#
# number of rings (size 3 to 8) (size 9 to 14) (size 15 to 20)
#    0.857    1.143    2.857    3.429    4.000    0.571 
#    0.000    1.429    0.000    0.000    0.000    0.000 
#    0.000    0.000    0.000    0.000    0.000    0.000 
#
# Total GULP energy -77961.752822 kJ/mol
# GULP energy per Si atom -5568.696630 kJ/mol
# Density = 1.895509 g / cm^3
# Si number density = 18.998331 Si / 1000 Ang^3
#
#
#
# Elastic Constant Matrix: (Units=GPa)
#
#
# Indices 1 2 3 4 5 6 
#
# 1 20.2540 -2.2688 4.5867 -1.9581 -6.4804 -13.2101
# 2 -2.2688 59.3262 18.1623 -8.8820 -9.0784 -24.0975
# 3 4.5867 18.1623 78.5836 7.3489 -18.8298 -10.2640
# 4 -1.9581 -8.8820 7.3489 35.9957 -15.1940 -1.4576
# 5 -6.4804 -9.0784 -18.8298 -15.1940 27.7556 8.6233
# 6 -13.2101 -24.0975 -10.2640 -1.4576 8.6233 33.2777
#
#
#
# Elastic Compliance Matrix: (Units=1/GPa)
#
#
# Indices 1 2 3 4 5 6 
#
# 1 0.116379 0.044929 -0.002194 0.037201 0.039137 0.069544
# 2 0.044929 0.045358 -0.004246 0.025925 0.022779 0.044604
# 3 -0.002194 -0.004246 0.015851 -0.000702 0.008901 -0.001394
# 4 0.037201 0.025925 -0.000702 0.053381 0.037881 0.025846
# 5 0.039137 0.022779 0.008901 0.037881 0.074033 0.017252
# 6 0.069544 0.044604 -0.001394 0.025846 0.017252 0.086187
#
#
# Mechanical properties :
#
#
# Convention : Reuss Voigt Hill
#
# Bulk Modulus (GPa) = 3.92827 22.12493 13.02660
# Shear Modulus (GPa) = 12.52918 28.58472 20.55695
#
# Velocity S-wave (km/s) = 2.57084 3.88311 3.29301
# Velocity P-wave (km/s) = 3.29916 5.63700 4.61845
#
# Compressibility (1/GPa) = 0.25456503
#
# Stress axis : x y z
#
# Youngs Moduli (GPa) = 8.59261 22.04661 63.08688
#
# Poissons Ratio (x) = -0.99052 0.13844
# Poissons Ratio (y) = -0.38605 0.26786
# Poissons Ratio (z) = 0.01886 0.09361
#
# Static dielectric constant tensor:
#      x y z
#    x 1.705560 -0.028130 0.010110 
#    y -0.028130 1.673870 -0.006210 
#    z 0.010110 -0.006210 1.654480 
# 
# From -- ./inp_files/249988.got.cif
#   From: 2010.05.17/outbox.cif.g08.bks.cpg/sg2_125_cif.got.tgz:249988.got - 2010.06.03 11:33:40.
