data_PCOD9059234
_publ_section_title
;
Structure prediction by ZEFSAII (Michael W. Deem and Ramdas Pophale) SiO2 
 PCOD9059234
Probable space group: P -1
;
_chemical_formula_sum "Si O2"
_cell_formula_units_Z 14
_cell_length_a 16.994836
_cell_length_b 11.568789
_cell_length_c 8.963277
_cell_angle_alpha 73.856058
_cell_angle_beta 71.212160
_cell_angle_gamma 19.098663
_cell_volume 543.914502
_symmetry_space_group_name_H-M "P -1"
_symmetry_group_IT_number 2
_symmetry_cell_setting 'triclinic'
loop_
_space_group_symop_operation_xyz
x,y,z
-x,-y,-z
loop_
_atom_site_type_symbol
_atom_site_label
_atom_site_fract_x
_atom_site_fract_y
_atom_site_fract_z
Si Si1 0.238053 0.220699 0.664945
Si Si2 0.981377 0.741866 0.828449
Si Si3 0.798357 0.341472 0.898665
Si Si4 0.567702 0.341100 0.664183
Si Si5 0.473530 0.198029 0.824729
Si Si6 0.628114 0.210071 0.160410
Si Si7 0.751559 0.636515 0.674168
O O1 0.160672 0.393560 0.498808
O O2 0.060162 0.503622 0.805740
O O3 0.270194 0.034185 0.707419
O O4 0.502719 0.915012 0.659574
O O5 0.222370 0.488030 0.808097
O O6 0.840161 0.990652 0.684887
O O7 0.807294 0.973664 0.994566
O O8 0.641623 0.465901 0.846193
O O9 0.899395 0.318084 0.751918
O O10 0.589771 0.686819 0.007332
O O11 0.000000 0.000000 0.000000
O O12 0.500000 0.500000 0.500000
O O13 0.530631 0.249775 0.702802
O O14 0.407184 0.617047 0.795983
O O15 0.677427 0.823192 0.791491
#
# Coordination Sequence:
#
# PCOD9059234 Si02
#       7
#     2   2   2   2   2   2   2
#     4   9  20  42  72 100 134 186 234 291 353 407
#     4  11  24  45  72 101 141 185 234 289 354 420
#     4  11  23  40  73 106 139 188 235 288 354 419
#     4  12  27  45  69 103 146 185 235 290 349 419
#     4  11  24  43  71 100 142 187 237 283 352 416
#     4  11  23  46  72  99 146 183 233 297 345 420
#     4   9  20  42  68 102 142 179 235 293 346 414
#
# _framework density 25.739339000000001
#
# number of rings (size 3 to 8) (size 9 to 14) (size 15 to 20)
#    0.000    1.429    1.429    3.000    2.000    2.857 
#    2.571    1.429    0.000    0.000    0.000    0.000 
#    0.000    0.000    0.000    0.000    0.000    0.000 
#
# Total GULP energy -78482.765089 kJ/mol
# GULP energy per Si atom -5605.911792 kJ/mol
# Density = 2.568075 g / cm^3
# Si number density = 25.739339 Si / 1000 Ang^3
#
#
#
# Elastic Constant Matrix: (Units=GPa)
#
#
# Indices 1 2 3 4 5 6 
#
# 1 133.5979 45.1427 17.8059 -13.0078 -15.0302 6.7354
# 2 45.1427 108.8494 36.9669 -20.2557 -0.0480 5.4407
# 3 17.8059 36.9669 112.0001 -31.9915 -20.9079 11.1820
# 4 -13.0078 -20.2557 -31.9915 47.2723 12.9288 2.6312
# 5 -15.0302 -0.0480 -20.9079 12.9288 33.6824 -8.2103
# 6 6.7354 5.4407 11.1820 2.6312 -8.2103 46.8126
#
#
#
# Elastic Compliance Matrix: (Units=1/GPa)
#
#
# Indices 1 2 3 4 5 6 
#
# 1 0.009293 -0.004080 0.000769 0.000110 0.004512 -0.000261
# 2 -0.004080 0.012793 -0.003466 0.003631 -0.005656 -0.001268
# 3 0.000769 -0.003466 0.012936 0.006099 0.005496 -0.002177
# 4 0.000110 0.003631 0.006099 0.029541 -0.008739 -0.005088
# 5 0.004512 -0.005656 0.005496 -0.008739 0.039972 0.006197
# 6 -0.000261 -0.001268 -0.002177 -0.005088 0.006197 0.023439
#
#
# Mechanical properties :
#
#
# Convention : Reuss Voigt Hill
#
# Bulk Modulus (GPa) = 46.58156 61.58648 54.08402
# Shear Modulus (GPa) = 33.62893 42.52227 38.07560
#
# Velocity S-wave (km/s) = 3.61850 4.06893 3.85031
# Velocity P-wave (km/s) = 5.96614 6.78630 6.38939
#
# Compressibility (1/GPa) = 0.02146772
#
# Stress axis : x y z
#
# Youngs Moduli (GPa) = 107.61161 78.17031 77.30598
#
# Poissons Ratio (x) = 0.31890 -0.05945
# Poissons Ratio (y) = 0.43901 0.26794
# Poissons Ratio (z) = -0.08275 0.27093
#
# Static dielectric constant tensor:
#      x y z
#    x 2.000010 -0.010510 -0.008910 
#    y -0.010510 2.063220 0.008420 
#    z -0.008910 0.008420 2.034200 
# 
# From -- ./inp_files/333110.got.cif
#   From: 2010.05.17/outbox.cif.g08.bks.cpg/sg2_167_cif.got.tgz:333110.got - 2010.06.03 11:33:40.
