data_PCOD9059340
_publ_section_title
;
Structure prediction by ZEFSAII (Michael W. Deem and Ramdas Pophale) SiO2 
 PCOD9059340
Probable space group: P -1
;
_chemical_formula_sum "Si O2"
_cell_formula_units_Z 15
_cell_length_a 14.788691
_cell_length_b 11.861323
_cell_length_c 18.263936
_cell_angle_alpha 151.725469
_cell_angle_beta 22.506696
_cell_angle_gamma 149.492731
_cell_volume 560.241156
_symmetry_space_group_name_H-M "P -1"
_symmetry_group_IT_number 2
_symmetry_cell_setting 'triclinic'
loop_
_space_group_symop_operation_xyz
x,y,z
-x,-y,-z
loop_
_atom_site_type_symbol
_atom_site_label
_atom_site_fract_x
_atom_site_fract_y
_atom_site_fract_z
Si Si1 0.734142 0.501850 0.171041
Si Si2 0.829583 0.690831 0.665718
Si Si3 0.000000 0.000000 0.000000
Si Si4 0.862533 0.564234 0.794451
Si Si5 0.623595 0.779994 0.284626
Si Si6 0.632715 0.772437 0.600587
Si Si7 0.615389 0.866455 0.065188
Si Si8 0.162799 0.902175 0.229337
O O1 0.730477 0.734165 0.257480
O O2 0.536300 0.447212 0.352157
O O3 0.685152 0.264206 0.017910
O O4 0.000000 0.500000 0.000000
O O5 0.585870 0.468840 0.717545
O O6 0.790667 0.837953 0.851210
O O7 0.051086 0.561787 0.413043
O O8 0.859605 0.877675 0.681586
O O9 0.092971 0.726336 0.757244
O O10 0.829224 0.843085 0.105423
O O11 0.759848 0.811972 0.998326
O O12 0.634437 0.356787 0.876679
O O13 0.500000 0.000000 0.500000
O O14 0.885468 0.745316 0.363861
O O15 0.721117 0.990527 0.719657
O O16 0.465554 0.885442 0.736652
#
# Coordination Sequence:
#
# PCOD9059340 Si02
#       8
#     2   2   1   2   2   2   2   2
#     4  12  28  47  70 105 147 183 226 293 357 416
#     4  12  21  43  73 100 129 180 232 283 338 415
#     4  12  26  44  66  96 142 190 224 280 340 426
#     4  11  25  41  64 103 136 179 231 284 342 410
#     4  12  27  46  70 102 140 188 236 277 349 418
#     4  11  23  43  74 101 131 178 233 289 343 415
#     4  11  23  41  66 102 136 171 226 294 345 396
#     4  11  24  43  75 101 130 178 234 283 342 416
#
# _framework density 26.774184999999999
#
# number of rings (size 3 to 8) (size 9 to 14) (size 15 to 20)
#    0.000    0.533    6.667    1.600    1.867    1.600 
#    4.800    0.000    0.000    0.000    0.000    0.000 
#    0.000    0.000    0.000    0.000    0.000    0.000 
#
# Total GULP energy -83865.728008 kJ/mol
# GULP energy per Si atom -5591.048534 kJ/mol
# Density = 2.671325 g / cm^3
# Si number density = 26.774185 Si / 1000 Ang^3
#
#
#
# Elastic Constant Matrix: (Units=GPa)
#
#
# Indices 1 2 3 4 5 6 
#
# 1 79.9994 53.6510 20.4757 2.8505 -21.0898 -20.8708
# 2 53.6510 176.4986 60.5458 -33.4267 1.7447 -20.3974
# 3 20.4757 60.5458 127.0239 -13.7094 3.5692 -21.4141
# 4 2.8505 -33.4267 -13.7094 61.4659 -5.2392 6.0805
# 5 -21.0898 1.7447 3.5692 -5.2392 37.2763 12.7516
# 6 -20.8708 -20.3974 -21.4141 6.0805 12.7516 57.7671
#
#
#
# Elastic Compliance Matrix: (Units=1/GPa)
#
#
# Indices 1 2 3 4 5 6 
#
# 1 0.020837 -0.006732 -0.000361 -0.004125 0.010486 0.003137
# 2 -0.006732 0.009624 -0.002883 0.004598 -0.003393 0.000162
# 3 -0.000361 -0.002883 0.009876 0.000192 -0.001991 0.002932
# 4 -0.004125 0.004598 0.000192 0.019273 0.000828 -0.002007
# 5 0.010486 -0.003393 -0.001991 0.000828 0.035286 -0.006024
# 6 0.003137 0.000162 0.002932 -0.002007 -0.006024 0.021129
#
#
# Mechanical properties :
#
#
# Convention : Reuss Voigt Hill
#
# Bulk Modulus (GPa) = 49.05753 72.54078 60.79916
# Shear Modulus (GPa) = 35.02058 47.89181 41.45620
#
# Velocity S-wave (km/s) = 3.62055 4.23393 3.93920
# Velocity P-wave (km/s) = 5.98668 7.14520 6.59144
#
# Compressibility (1/GPa) = 0.02038423
#
# Stress axis : x y z
#
# Youngs Moduli (GPa) = 47.99113 103.90241 101.25638
#
# Poissons Ratio (x) = 0.69952 0.03654
# Poissons Ratio (y) = 0.32310 0.29196
# Poissons Ratio (z) = 0.01732 0.29959
#
# Static dielectric constant tensor:
#      x y z
#    x 2.930910 0.202150 -0.165020 
#    y 0.202150 2.304070 0.174140 
#    z -0.165020 0.174140 2.278450 
# 
# From -- ./inp_files/260447.got.cif
#   From: 2010.05.17/outbox.cif.g08.bks.cpg/sg2_131_cif.got.tgz:260447.got - 2010.06.03 11:33:40.
