data_PCOD9059732
_publ_section_title
;
Structure prediction by ZEFSAII (Michael W. Deem and Ramdas Pophale) SiO2 
 PCOD9059732
Probable space group: P -1
;
_chemical_formula_sum "Si O2"
_cell_formula_units_Z 16
_cell_length_a 14.512626
_cell_length_b 9.559992
_cell_length_c 14.727267
_cell_angle_alpha 79.892701
_cell_angle_beta 148.306725
_cell_angle_gamma 77.194676
_cell_volume 736.436925
_symmetry_space_group_name_H-M "P -1"
_symmetry_group_IT_number 2
_symmetry_cell_setting 'triclinic'
loop_
_space_group_symop_operation_xyz
x,y,z
-x,-y,-z
loop_
_atom_site_type_symbol
_atom_site_label
_atom_site_fract_x
_atom_site_fract_y
_atom_site_fract_z
Si Si1 0.949266 0.587292 0.795683
Si Si2 0.093220 0.579877 0.624202
Si Si3 0.360687 0.136273 0.649361
Si Si4 0.798367 0.075900 0.046049
Si Si5 0.591979 0.710641 0.922482
Si Si6 0.928099 0.115393 0.521389
Si Si7 0.226820 0.644602 0.132952
Si Si8 0.186813 0.668349 0.300142
O O1 0.736278 0.806211 0.542044
O O2 0.850675 0.481513 0.724929
O O3 0.186573 0.450936 0.942191
O O4 0.064662 0.597926 0.979036
O O5 0.875919 0.741549 0.496581
O O6 0.000000 0.500000 0.500000
O O7 0.121153 0.693204 0.566454
O O8 0.335474 0.395792 0.906996
O O9 0.550542 0.902773 0.864337
O O10 0.509985 0.195575 0.780071
O O11 0.833009 0.207146 0.012496
O O12 0.863555 0.032416 0.211469
O O13 0.981112 0.858863 0.171417
O O14 0.326695 0.800807 0.661674
O O15 0.000000 0.000000 0.500000
O O16 0.154949 0.741340 0.161836
O O17 0.531659 0.453986 0.416273
#
# Coordination Sequence:
#
# PCOD9059732 Si02
#       8
#     2   2   2   2   2   2   2   2
#     4  11  23  43  71 101 136 181 224 276 347 401
#     4  11  26  41  65  94 128 178 227 275 335 396
#     4  11  23  42  67  97 135 179 223 279 337 401
#     4  12  25  44  70  95 142 180 223 284 345 399
#     4  11  23  43  65  92 136 172 223 276 330 403
#     4  12  26  43  66  99 134 178 227 280 338 397
#     4  11  25  44  73 101 139 176 227 287 334 412
#     4  11  24  47  69 105 135 179 229 276 349 407
#
# _framework density 21.726232
#
# number of rings (size 3 to 8) (size 9 to 14) (size 15 to 20)
#    0.000    0.750    3.750    3.375    5.250    2.000 
#    0.000    0.625    0.000    0.000    0.000    0.000 
#    0.000    0.000    0.000    0.000    0.000    0.000 
#
# Total GULP energy -89429.949023 kJ/mol
# GULP energy per Si atom -5589.371814 kJ/mol
# Density = 2.167678 g / cm^3
# Si number density = 21.726232 Si / 1000 Ang^3
#
#
#
# Elastic Constant Matrix: (Units=GPa)
#
#
# Indices 1 2 3 4 5 6 
#
# 1 47.1666 -1.1757 0.8968 -1.9118 -7.6231 10.3045
# 2 -1.1757 57.5873 4.6002 3.6459 -16.7932 20.0756
# 3 0.8968 4.6002 91.9650 18.2363 -13.0465 1.7479
# 4 -1.9118 3.6459 18.2363 36.5677 5.6306 1.8470
# 5 -7.6231 -16.7932 -13.0465 5.6306 36.6613 4.7206
# 6 10.3045 20.0756 1.7479 1.8470 4.7206 36.1118
#
#
#
# Elastic Compliance Matrix: (Units=1/GPa)
#
#
# Indices 1 2 3 4 5 6 
#
# 1 0.026399 0.008997 0.001588 -0.001477 0.012222 -0.014134
# 2 0.008997 0.032028 0.003084 -0.006423 0.021589 -0.023015
# 3 0.001588 0.003084 0.013541 -0.008072 0.008251 -0.003489
# 4 -0.001477 -0.006423 -0.008072 0.033542 -0.011815 0.004212
# 5 0.012222 0.021589 0.008251 -0.011815 0.047221 -0.021457
# 6 -0.014134 -0.023015 -0.003489 0.004212 -0.021457 0.047278
#
#
# Mechanical properties :
#
#
# Convention : Reuss Voigt Hill
#
# Bulk Modulus (GPa) = 10.06997 22.81796 16.44397
# Shear Modulus (GPa) = 24.29859 34.69466 29.49662
#
# Velocity S-wave (km/s) = 3.34787 4.00046 3.68863
# Velocity P-wave (km/s) = 4.42599 5.64478 5.07212
#
# Compressibility (1/GPa) = 0.09930517
#
# Stress axis : x y z
#
# Youngs Moduli (GPa) = 37.88059 31.22272 73.84819
#
# Poissons Ratio (x) = -0.28091 -0.11726
# Poissons Ratio (y) = -0.34080 -0.22774
# Poissons Ratio (z) = -0.06015 -0.09629
#
# Static dielectric constant tensor:
#      x y z
#    x 1.847210 0.111770 -0.124720 
#    y 0.111770 1.965730 -0.217820 
#    z -0.124720 -0.217820 2.305810 
# 
# From -- ./inp_files/37544.got.cif
#   From: 2010.05.17/outbox.cif.g08.bks.cpg/sg2_19_cif.got.tgz:37544.got - 2010.06.03 11:33:40.
