data_PCOD9059518
_publ_section_title
;
Structure prediction by ZEFSAII (Michael W. Deem and Ramdas Pophale) SiO2 
 PCOD9059518
Probable space group: P -1
;
_chemical_formula_sum "Si O2"
_cell_formula_units_Z 14
_cell_length_a 21.596255
_cell_length_b 27.430099
_cell_length_c 8.586068
_cell_angle_alpha 138.205602
_cell_angle_beta 138.071800
_cell_angle_gamma 10.418470
_cell_volume 610.562661
_symmetry_space_group_name_H-M "P -1"
_symmetry_group_IT_number 2
_symmetry_cell_setting 'triclinic'
loop_
_space_group_symop_operation_xyz
x,y,z
-x,-y,-z
loop_
_atom_site_type_symbol
_atom_site_label
_atom_site_fract_x
_atom_site_fract_y
_atom_site_fract_z
Si Si1 0.589818 0.269052 0.469823
Si Si2 0.644975 0.825975 0.249784
Si Si3 0.160348 0.353104 0.288101
Si Si4 0.870800 0.752404 0.221497
Si Si5 0.608419 0.355695 0.983077
Si Si6 0.721368 0.375634 0.491855
Si Si7 0.932851 0.855402 0.111394
O O1 0.733056 0.196779 0.723622
O O2 0.515295 0.385760 0.474193
O O3 0.203895 0.532150 0.400552
O O4 0.811880 0.030525 0.269104
O O5 0.708264 0.814131 0.174528
O O6 0.000394 0.527371 0.274906
O O7 0.500000 0.000000 0.500000
O O8 0.372271 0.967753 0.078213
O O9 0.000000 0.500000 0.500000
O O10 0.571329 0.038639 0.318690
O O11 0.046606 0.356457 0.038496
O O12 0.500000 0.500000 0.000000
O O13 0.841144 0.224320 0.228176
O O14 0.276308 0.581850 0.999997
O O15 0.500000 0.500000 0.500000
O O16 0.993327 0.206653 0.712702
#
# Coordination Sequence:
#
# PCOD9059518 Si02
#       7
#     2   2   2   2   2   2   2
#     4  11  23  41  70  94 130 173 216 266 331 394
#     4  12  24  42  65  97 141 179 224 272 324 393
#     4  11  24  42  63  91 134 180 218 271 326 372
#     4  11  25  41  65  97 136 178 223 265 324 399
#     4   9  21  43  64  95 125 161 216 275 326 392
#     4   9  22  42  65  95 126 162 215 274 328 391
#     4  11  24  41  67  94 130 177 217 264 336 384
#
# _framework density 22.929667999999999
#
# number of rings (size 3 to 8) (size 9 to 14) (size 15 to 20)
#    0.000    1.429    2.857    1.286    4.000    5.714 
#    0.000    4.286    0.000    0.000    0.000    0.000 
#    0.000    0.000    0.000    0.000    0.000    0.000 
#
# Total GULP energy -78247.556394 kJ/mol
# GULP energy per Si atom -5589.111171 kJ/mol
# Density = 2.287748 g / cm^3
# Si number density = 22.929668 Si / 1000 Ang^3
#
#
#
# Elastic Constant Matrix: (Units=GPa)
#
#
# Indices 1 2 3 4 5 6 
#
# 1 91.0008 17.6470 15.3019 2.6238 3.2204 11.7593
# 2 17.6470 77.6614 14.0594 11.2601 0.3039 23.3056
# 3 15.3019 14.0594 131.6731 19.1556 -6.4449 9.1432
# 4 2.6238 11.2601 19.1556 30.3047 5.3372 -2.2890
# 5 3.2204 0.3039 -6.4449 5.3372 32.9130 -5.0064
# 6 11.7593 23.3056 9.1432 -2.2890 -5.0064 37.4425
#
#
#
# Elastic Compliance Matrix: (Units=1/GPa)
#
#
# Indices 1 2 3 4 5 6 
#
# 1 0.011916 -0.001795 -0.001182 0.000516 -0.001853 -0.002553
# 2 -0.001795 0.017582 0.000113 -0.007192 -0.000458 -0.010908
# 3 -0.001182 0.000113 0.008870 -0.006140 0.002558 -0.001898
# 4 0.000516 -0.007192 -0.006140 0.041257 -0.006746 0.007434
# 5 -0.001853 -0.000458 0.002558 -0.006746 0.032805 0.004216
# 6 -0.002553 -0.010908 -0.001898 0.007434 0.004216 0.035781
#
#
# Mechanical properties :
#
#
# Convention : Reuss Voigt Hill
#
# Bulk Modulus (GPa) = 30.63726 43.81687 37.22706
# Shear Modulus (GPa) = 30.33625 37.02051 33.67838
#
# Velocity S-wave (km/s) = 3.64127 4.02247 3.83661
# Velocity P-wave (km/s) = 5.57395 6.38157 5.99138
#
# Compressibility (1/GPa) = 0.03263999
#
# Stress axis : x y z
#
# Youngs Moduli (GPa) = 83.91868 56.87634 112.73720
#
# Poissons Ratio (x) = 0.10211 0.13321
# Poissons Ratio (y) = 0.15066 -0.01270
# Poissons Ratio (z) = 0.09916 -0.00641
#
# Static dielectric constant tensor:
#      x y z
#    x 1.913360 0.002870 -0.119500 
#    y 0.002870 1.867060 -0.011010 
#    z -0.119500 -0.011010 2.124670 
# 
# From -- ./inp_files/355705.got.cif
#   From: 2010.05.17/outbox.cif.g08.bks.cpg/sg2_178_cif.got.tgz:355705.got - 2010.06.03 11:33:40.
