data_PCOD9059481
_publ_section_title
;
Structure prediction by ZEFSAII (Michael W. Deem and Ramdas Pophale) SiO2 
 PCOD9059481
Probable space group: P -1
;
_chemical_formula_sum "Si O2"
_cell_formula_units_Z 14
_cell_length_a 8.172730
_cell_length_b 14.827761
_cell_length_c 8.757607
_cell_angle_alpha 43.335296
_cell_angle_beta 128.361777
_cell_angle_gamma 106.121018
_cell_volume 540.492416
_symmetry_space_group_name_H-M "P -1"
_symmetry_group_IT_number 2
_symmetry_cell_setting 'triclinic'
loop_
_space_group_symop_operation_xyz
x,y,z
-x,-y,-z
loop_
_atom_site_type_symbol
_atom_site_label
_atom_site_fract_x
_atom_site_fract_y
_atom_site_fract_z
Si Si1 0.154714 0.061487 0.118689
Si Si2 0.805610 0.643148 0.179793
Si Si3 0.459688 0.087768 0.023362
Si Si4 0.349713 0.540260 0.508816
Si Si5 0.939554 0.714724 0.625009
Si Si6 0.301769 0.438467 0.107602
Si Si7 0.098653 0.831112 0.863355
O O1 0.061863 0.059527 0.243047
O O2 0.135777 0.222443 0.915645
O O3 0.398213 0.011254 0.233742
O O4 0.000000 0.000000 0.000000
O O5 0.646714 0.612460 0.249708
O O6 0.712600 0.634445 0.969333
O O7 0.000000 0.500000 0.500000
O O8 0.226069 0.200372 0.701750
O O9 0.675852 0.137149 0.086410
O O10 0.500000 0.000000 0.000000
O O11 0.500000 0.500000 0.500000
O O12 0.161930 0.675782 0.168540
O O13 0.452811 0.588086 0.658404
O O14 0.159911 0.602453 0.822078
O O15 0.810499 0.625739 0.747904
O O16 0.987340 0.811906 0.663700
#
# Coordination Sequence:
#
# PCOD9059481 Si02
#       7
#     2   2   2   2   2   2   2
#     4  12  26  48  74 104 148 195 252 310 366 442
#     4  12  24  42  71 108 146 190 246 306 372 445
#     4  12  27  49  77 101 143 206 254 301 378 447
#     4  12  23  42  73 109 152 192 239 309 384 445
#     4  11  24  43  72 109 148 187 248 309 375 448
#     4  11  23  41  69 112 152 185 238 313 378 444
#     4  12  24  49  74 108 153 194 244 314 374 438
#
# _framework density 25.902304999999998
#
# number of rings (size 3 to 8) (size 9 to 14) (size 15 to 20)
#    0.000    0.286    7.143    2.143    2.000    0.571 
#    0.000    2.143    0.000    0.000    0.000    0.000 
#    0.000    0.000    0.000    0.000    0.000    0.000 
#
# Total GULP energy -78088.948531 kJ/mol
# GULP energy per Si atom -5577.782038 kJ/mol
# Density = 2.584335 g / cm^3
# Si number density = 25.902305 Si / 1000 Ang^3
#
#
#
# Elastic Constant Matrix: (Units=GPa)
#
#
# Indices 1 2 3 4 5 6 
#
# 1 142.8686 45.3783 10.7341 11.5183 -14.4451 -12.9653
# 2 45.3783 177.8647 36.4754 31.0596 -12.4431 0.9879
# 3 10.7341 36.4754 102.9438 18.6421 -12.1117 -0.0598
# 4 11.5183 31.0596 18.6421 33.2365 8.0005 -0.5137
# 5 -14.4451 -12.4431 -12.1117 8.0005 21.2343 0.2230
# 6 -12.9653 0.9879 -0.0598 -0.5137 0.2230 65.8469
#
#
#
# Elastic Compliance Matrix: (Units=1/GPa)
#
#
# Indices 1 2 3 4 5 6 
#
# 1 0.008518 -0.001160 0.001164 -0.004270 0.007371 0.001637
# 2 -0.001160 0.007959 -0.000350 -0.008503 0.006884 -0.000438
# 3 0.001164 -0.000350 0.012949 -0.010180 0.011807 0.000127
# 4 -0.004270 -0.008503 -0.010180 0.053356 -0.033795 -0.000192
# 5 0.007371 0.006884 0.011807 -0.033795 0.075601 0.000839
# 6 0.001637 -0.000438 0.000127 -0.000192 0.000839 0.015512
#
#
# Mechanical properties :
#
#
# Convention : Reuss Voigt Hill
#
# Bulk Modulus (GPa) = 34.79925 67.65030 51.22477
# Shear Modulus (GPa) = 27.14981 46.13617 36.64299
#
# Velocity S-wave (km/s) = 3.24105 4.22496 3.76528
# Velocity P-wave (km/s) = 5.24116 7.06927 6.22271
#
# Compressibility (1/GPa) = 0.02873625
#
# Stress axis : x y z
#
# Youngs Moduli (GPa) = 117.39158 125.64864 77.22427
#
# Poissons Ratio (x) = 0.14573 -0.08990
# Poissons Ratio (y) = 0.13615 0.02699
# Poissons Ratio (z) = -0.13667 0.04392
#
# Static dielectric constant tensor:
#      x y z
#    x 2.229030 -0.007280 0.078210 
#    y -0.007280 2.027190 -0.005200 
#    z 0.078210 -0.005200 2.039940 
# 
# From -- ./inp_files/199920.got.cif
#   From: 2010.05.17/outbox.cif.g08.bks.cpg/sg2_100_cif.got.tgz:199920.got - 2010.06.03 11:33:40.
