data_PCOD9059495
_publ_section_title
;
Structure prediction by ZEFSAII (Michael W. Deem and Ramdas Pophale) SiO2 
 PCOD9059495
Probable space group: P -1
;
_chemical_formula_sum "Si O2"
_cell_formula_units_Z 16
_cell_length_a 8.804424
_cell_length_b 21.361850
_cell_length_c 8.931002
_cell_angle_alpha 58.062887
_cell_angle_beta 96.094771
_cell_angle_gamma 47.646626
_cell_volume 711.360734
_symmetry_space_group_name_H-M "P -1"
_symmetry_group_IT_number 2
_symmetry_cell_setting 'triclinic'
loop_
_space_group_symop_operation_xyz
x,y,z
-x,-y,-z
loop_
_atom_site_type_symbol
_atom_site_label
_atom_site_fract_x
_atom_site_fract_y
_atom_site_fract_z
Si Si1 0.063989 0.858217 0.019075
Si Si2 0.864950 0.336609 0.760824
Si Si3 0.661519 0.353420 0.194217
Si Si4 0.221129 0.167044 0.317349
Si Si5 0.667734 0.217998 0.168061
Si Si6 0.097480 0.389261 0.745900
Si Si7 0.439461 0.835567 0.508452
Si Si8 0.425957 0.351842 0.429227
O O1 0.033393 0.784116 0.143109
O O2 0.357232 0.759507 0.268357
O O3 0.111509 0.847075 0.858254
O O4 0.780910 0.029339 0.799596
O O5 0.500000 0.500000 0.500000
O O6 0.031403 0.340701 0.715690
O O7 0.984099 0.280508 0.014779
O O8 0.535912 0.348939 0.059817
O O9 0.602969 0.335909 0.364583
O O10 0.016286 0.215632 0.363680
O O11 0.500000 0.500000 0.000000
O O12 0.364111 0.183746 0.367163
O O13 0.500000 0.000000 0.500000
O O14 0.752299 0.133567 0.429174
O O15 0.430602 0.265035 0.998157
O O16 0.000000 0.500000 0.500000
O O17 0.872310 0.486760 0.740644
O O18 0.637201 0.693522 0.619343
#
# Coordination Sequence:
#
# PCOD9059495 Si02
#       8
#     2   2   2   2   2   2   2   2
#     4  12  23  46  69 100 140 188 232 288 351 432
#     4  12  23  42  72 102 139 180 239 290 345 412
#     4  11  26  43  68 103 145 186 230 295 367 416
#     4  12  24  47  74 105 139 188 244 290 341 432
#     4  11  23  41  70 100 134 183 235 287 341 423
#     4  12  24  42  68 103 133 178 235 284 347 418
#     4  11  25  43  69 102 139 180 232 295 356 416
#     4  11  26  44  67 100 146 179 225 293 367 412
#
# _framework density 22.492104999999999
#
# number of rings (size 3 to 8) (size 9 to 14) (size 15 to 20)
#    0.000    0.500    6.250    1.500    1.750    2.000 
#    0.000    0.625    0.000    0.000    0.000    0.000 
#    0.000    0.000    0.000    0.000    0.000    0.000 
#
# Total GULP energy -89388.045464 kJ/mol
# GULP energy per Si atom -5586.752842 kJ/mol
# Density = 2.244091 g / cm^3
# Si number density = 22.492105 Si / 1000 Ang^3
#
#
#
# Elastic Constant Matrix: (Units=GPa)
#
#
# Indices 1 2 3 4 5 6 
#
# 1 141.3663 38.5685 24.1319 -12.1944 -10.5570 21.3159
# 2 38.5685 86.8951 6.5891 -10.4899 -10.9901 7.4297
# 3 24.1319 6.5891 81.6212 -14.5646 -10.0404 11.5576
# 4 -12.1944 -10.4899 -14.5646 30.2897 2.8233 -0.9607
# 5 -10.5570 -10.9901 -10.0404 2.8233 33.7248 0.7683
# 6 21.3159 7.4297 11.5576 -0.9607 0.7683 50.4905
#
#
#
# Elastic Compliance Matrix: (Units=1/GPa)
#
#
# Indices 1 2 3 4 5 6 
#
# 1 0.008879 -0.003241 -0.001534 0.001510 0.001207 -0.002910
# 2 -0.003241 0.013827 0.001049 0.003632 0.003520 -0.000891
# 3 -0.001534 0.001049 0.014605 0.006332 0.003744 -0.002787
# 4 0.001510 0.003632 0.006332 0.037825 0.000418 -0.001908
# 5 0.001207 0.003520 0.003744 0.000418 0.032310 -0.002368
# 6 -0.002910 -0.000891 -0.002787 -0.001908 -0.002368 0.021803
#
#
# Mechanical properties :
#
#
# Convention : Reuss Voigt Hill
#
# Bulk Modulus (GPa) = 33.48881 49.82905 41.65893
# Shear Modulus (GPa) = 34.09396 38.94055 36.51726
#
# Velocity S-wave (km/s) = 3.89758 4.16540 4.03371
# Velocity P-wave (km/s) = 5.93096 6.73322 6.34478
#
# Compressibility (1/GPa) = 0.02986072
#
# Stress axis : x y z
#
# Youngs Moduli (GPa) = 112.62529 72.32291 68.46818
#
# Poissons Ratio (x) = 0.23439 0.10500
# Poissons Ratio (y) = 0.36501 -0.07184
# Poissons Ratio (z) = 0.17271 -0.07588
#
# Static dielectric constant tensor:
#      x y z
#    x 1.866060 -0.002200 -0.020370 
#    y -0.002200 1.842810 0.011380 
#    z -0.020370 0.011380 1.844190 
# 
# From -- ./inp_files/223448.got.cif
#   From: 2010.05.17/outbox.cif.g08.bks.cpg/sg2_112_cif.got.tgz:223448.got - 2010.06.03 11:33:40.
