data_PCOD9059169
_publ_section_title
;
Structure prediction by ZEFSAII (Michael W. Deem and Ramdas Pophale) SiO2 
 PCOD9059169
Probable space group: P -1
;
_chemical_formula_sum "Si O2"
_cell_formula_units_Z 16
_cell_length_a 8.402648
_cell_length_b 8.256545
_cell_length_c 10.588563
_cell_angle_alpha 94.576810
_cell_angle_beta 84.047083
_cell_angle_gamma 110.728803
_cell_volume 682.609170
_symmetry_space_group_name_H-M "P -1"
_symmetry_group_IT_number 2
_symmetry_cell_setting 'triclinic'
loop_
_space_group_symop_operation_xyz
x,y,z
-x,-y,-z
loop_
_atom_site_type_symbol
_atom_site_label
_atom_site_fract_x
_atom_site_fract_y
_atom_site_fract_z
Si Si1 0.791584 0.379213 0.513108
Si Si2 0.180149 0.000807 0.932367
Si Si3 0.326591 0.080146 0.183045
Si Si4 0.860443 0.076753 0.565025
Si Si5 0.327740 0.366825 0.798913
Si Si6 0.273919 0.706660 0.780327
Si Si7 0.602972 0.757561 0.467790
Si Si8 0.686745 0.593383 0.707092
O O1 0.777469 0.361763 0.362173
O O2 0.590334 0.283330 0.557565
O O3 0.824085 0.530652 0.624038
O O4 0.908251 0.274148 0.541689
O O5 0.261012 0.186804 0.867509
O O6 0.173146 0.831732 0.841416
O O7 0.298664 0.000024 0.042953
O O8 0.000000 0.000000 0.000000
O O9 0.205668 0.953465 0.288488
O O10 0.525503 0.165412 0.213240
O O11 0.253555 0.238673 0.200863
O O12 0.695484 0.959978 0.492526
O O13 0.000000 0.000000 0.500000
O O14 0.260567 0.526064 0.842094
O O15 0.298431 0.309320 0.650552
O O16 0.534299 0.456436 0.789461
O O17 0.610022 0.657833 0.591231
#
# Coordination Sequence:
#
# PCOD9059169 Si02
#       8
#     2   2   2   2   2   2   2   2
#     4  11  18  36  66 103 120 159 211 265 339 385
#     4  12  29  45  63  90 133 184 221 261 318 383
#     4  10  24  45  59  95 134 165 223 270 303 391
#     4  11  24  35  59  94 137 171 201 266 335 389
#     4  10  20  39  70  94 127 171 208 269 325 378
#     4  11  22  43  72  95 123 168 226 273 313 389
#     4  10  17  37  65  98 128 150 211 270 329 389
#     4   9  18  37  69 101 127 150 210 285 324 380
#
# _framework density 23.439475999999999
#
# number of rings (size 3 to 8) (size 9 to 14) (size 15 to 20)
#    0.000    1.500    5.000    2.250    7.000    2.500 
#    2.250    3.750    0.000    0.000    0.000    0.000 
#    0.000    0.000    0.000    0.000    0.000    0.000 
#
# Total GULP energy -89189.316587 kJ/mol
# GULP energy per Si atom -5574.332287 kJ/mol
# Density = 2.338613 g / cm^3
# Si number density = 23.439476 Si / 1000 Ang^3
#
#
#
# Elastic Constant Matrix: (Units=GPa)
#
#
# Indices 1 2 3 4 5 6 
#
# 1 77.3153 17.6251 14.5675 -1.1183 -21.0995 -12.6500
# 2 17.6251 101.0543 26.1682 12.8583 -38.3789 -29.2494
# 3 14.5675 26.1682 74.5928 12.4844 -18.8156 -3.1282
# 4 -1.1183 12.8583 12.4844 34.4904 3.3212 -11.2332
# 5 -21.0995 -38.3789 -18.8156 3.3212 27.7237 5.9893
# 6 -12.6500 -29.2494 -3.1282 -11.2332 5.9893 36.2898
#
#
#
# Elastic Compliance Matrix: (Units=1/GPa)
#
#
# Indices 1 2 3 4 5 6 
#
# 1 0.019494 0.009832 0.000402 -0.002696 0.026998 0.009464
# 2 0.009832 0.036736 0.002831 -0.013583 0.057661 0.019559
# 3 0.000402 0.002831 0.018661 -0.010317 0.018608 -0.002234
# 4 -0.002696 -0.013583 -0.010317 0.043037 -0.034356 0.006215
# 5 0.026998 0.057661 0.018608 -0.034356 0.148351 0.022371
# 6 0.009464 0.019559 -0.002234 0.006215 0.022371 0.044659
#
#
# Mechanical properties :
#
#
# Convention : Reuss Voigt Hill
#
# Bulk Modulus (GPa) = 9.89898 41.07599 25.48749
# Shear Modulus (GPa) = 15.69942 32.67423 24.18683
#
# Velocity S-wave (km/s) = 2.59083 3.73766 3.21578
# Velocity P-wave (km/s) = 3.63074 6.01574 4.96847
#
# Compressibility (1/GPa) = 0.10102049
#
# Stress axis : x y z
#
# Youngs Moduli (GPa) = 51.29696 27.22108 53.58658
#
# Poissons Ratio (x) = -0.26763 -0.02154
# Poissons Ratio (y) = -0.50433 -0.15168
# Poissons Ratio (z) = -0.02062 -0.07705
#
# Static dielectric constant tensor:
#      x y z
#    x 1.928690 -0.000750 0.011020 
#    y -0.000750 2.005090 -0.003920 
#    z 0.011020 -0.003920 1.891680 
# 
# From -- ./inp_files/379123.got.cif
#   From: 2010.05.17/outbox.cif.g08.bks.cpg/sg2_190_cif.got.tgz:379123.got - 2010.06.03 11:33:40.
