data_PCOD9059992
_publ_section_title
;
Structure prediction by ZEFSAII (Michael W. Deem and Ramdas Pophale) SiO2 
 PCOD9059992
Probable space group: P -1
;
_chemical_formula_sum "Si O2"
_cell_formula_units_Z 16
_cell_length_a 11.218990
_cell_length_b 8.771402
_cell_length_c 9.092569
_cell_angle_alpha 57.546163
_cell_angle_beta 103.608855
_cell_angle_gamma 113.520881
_cell_volume 692.035085
_symmetry_space_group_name_H-M "P -1"
_symmetry_group_IT_number 2
_symmetry_cell_setting 'triclinic'
loop_
_space_group_symop_operation_xyz
x,y,z
-x,-y,-z
loop_
_atom_site_type_symbol
_atom_site_label
_atom_site_fract_x
_atom_site_fract_y
_atom_site_fract_z
Si Si1 0.706521 0.595721 0.044765
Si Si2 0.087468 0.603073 0.834130
Si Si3 0.660359 0.882128 0.454218
Si Si4 0.854706 0.003857 0.225182
Si Si5 0.922333 0.143371 0.551057
Si Si6 0.189220 0.960214 0.138429
Si Si7 0.530613 0.479249 0.776742
Si Si8 0.549046 0.120947 0.804469
O O1 0.825502 0.517188 0.136052
O O2 0.614116 0.570767 0.172932
O O3 0.760465 0.820359 0.904395
O O4 0.618834 0.479785 0.945248
O O5 0.169678 0.803304 0.830611
O O6 0.026047 0.676471 0.637228
O O7 0.000000 0.500000 0.000000
O O8 0.585393 0.690816 0.617742
O O9 0.550104 0.959672 0.317158
O O10 0.734580 0.843233 0.349411
O O11 0.777409 0.021759 0.513377
O O12 0.982500 0.982105 0.346787
O O13 0.868658 0.018724 0.048079
O O14 0.904233 0.179549 0.698718
O O15 0.311496 0.890588 0.185759
O O16 0.548320 0.331098 0.738950
O O17 0.500000 0.000000 0.000000
#
# Coordination Sequence:
#
# PCOD9059992 Si02
#       8
#     2   2   2   2   2   2   2   2
#     4  11  24  41  68 102 141 173 227 281 347 396
#     4  11  25  44  70 100 132 178 231 286 337 407
#     4  11  23  42  72  98 136 181 227 283 334 416
#     4  11  24  48  72  96 139 185 233 278 343 405
#     4  11  26  45  71 102 134 184 233 282 343 402
#     4  12  24  47  69 102 141 183 223 286 341 409
#     4  11  24  42  67 102 139 180 222 281 337 415
#     4  12  24  43  68 103 140 180 223 272 353 405
#
# _framework density 23.120217
#
# number of rings (size 3 to 8) (size 9 to 14) (size 15 to 20)
#    0.000    0.750    3.750    3.750    5.250    0.500 
#    0.000    1.250    0.000    0.000    0.000    0.000 
#    0.000    0.000    0.000    0.000    0.000    0.000 
#
# Total GULP energy -89420.731227 kJ/mol
# GULP energy per Si atom -5588.795702 kJ/mol
# Density = 2.306759 g / cm^3
# Si number density = 23.120217 Si / 1000 Ang^3
#
#
#
# Elastic Constant Matrix: (Units=GPa)
#
#
# Indices 1 2 3 4 5 6 
#
# 1 84.4165 18.3948 58.9237 -6.6268 12.1726 -21.8919
# 2 18.3948 50.6333 13.2152 3.4187 12.8875 -12.2585
# 3 58.9237 13.2152 168.5668 9.8632 -9.6367 -2.6828
# 4 -6.6268 3.4187 9.8632 37.1036 5.6792 3.2116
# 5 12.1726 12.8875 -9.6367 5.6792 46.6971 0.3636
# 6 -21.8919 -12.2585 -2.6828 3.2116 0.3636 32.0622
#
#
#
# Elastic Compliance Matrix: (Units=1/GPa)
#
#
# Indices 1 2 3 4 5 6 
#
# 1 0.023879 -0.001058 -0.008929 0.006809 -0.008717 0.014569
# 2 -0.001058 0.024519 -0.001694 -0.001731 -0.006698 0.008759
# 3 -0.008929 -0.001694 0.009659 -0.004345 0.005360 -0.005562
# 4 0.006809 -0.001731 -0.004345 0.030327 -0.005887 0.000653
# 5 -0.008717 -0.006698 0.005360 -0.005887 0.027418 -0.007785
# 6 0.014569 0.008759 -0.005562 0.000653 -0.007785 0.044044
#
#
# Mechanical properties :
#
#
# Convention : Reuss Voigt Hill
#
# Bulk Modulus (GPa) = 28.82446 53.85377 41.33912
# Shear Modulus (GPa) = 25.67089 37.37810 31.52450
#
# Velocity S-wave (km/s) = 3.33576 4.02516 3.69657
# Velocity P-wave (km/s) = 5.22788 6.70419 6.01152
#
# Compressibility (1/GPa) = 0.03469275
#
# Stress axis : x y z
#
# Youngs Moduli (GPa) = 41.87801 40.78461 103.53560
#
# Poissons Ratio (x) = 0.04317 0.92446
# Poissons Ratio (y) = 0.04433 0.17544
# Poissons Ratio (z) = 0.37392 0.06911
#
# Static dielectric constant tensor:
#      x y z
#    x 1.897110 0.011390 -0.009850 
#    y 0.011390 1.919540 0.023530 
#    z -0.009850 0.023530 1.934750 
# 
# From -- ./inp_files/242172.got.cif
#   From: 2010.05.17/outbox.cif.g08.bks.cpg/sg2_122_cif.got.tgz:242172.got - 2010.06.03 11:33:40.
