data_PCOD9059984
_publ_section_title
;
Structure prediction by ZEFSAII (Michael W. Deem and Ramdas Pophale) SiO2 
 PCOD9059984
Probable space group: P -1
;
_chemical_formula_sum "Si O2"
_cell_formula_units_Z 16
_cell_length_a 12.121620
_cell_length_b 14.248933
_cell_length_c 8.605427
_cell_angle_alpha 138.754495
_cell_angle_beta 107.017493
_cell_angle_gamma 50.747829
_cell_volume 708.345568
_symmetry_space_group_name_H-M "P -1"
_symmetry_group_IT_number 2
_symmetry_cell_setting 'triclinic'
loop_
_space_group_symop_operation_xyz
x,y,z
-x,-y,-z
loop_
_atom_site_type_symbol
_atom_site_label
_atom_site_fract_x
_atom_site_fract_y
_atom_site_fract_z
Si Si1 0.694559 0.608139 0.241910
Si Si2 0.052614 0.809826 0.198642
Si Si3 0.551360 0.826618 0.138031
Si Si4 0.804047 0.815280 0.589679
Si Si5 0.646061 0.447396 0.577781
Si Si6 0.572141 0.330382 0.697076
Si Si7 0.770739 0.910871 0.343534
Si Si8 0.940462 0.200004 0.175149
O O1 0.589048 0.766002 0.260813
O O2 0.799224 0.649343 0.401539
O O3 0.579629 0.640149 0.364145
O O4 0.799389 0.401080 0.950039
O O5 0.910213 0.819408 0.172089
O O6 0.087714 0.794730 0.012655
O O7 0.000000 0.000000 0.500000
O O8 0.654486 0.880418 0.209026
O O9 0.373405 0.991283 0.228724
O O10 0.607799 0.637982 0.847952
O O11 0.837683 0.822503 0.431225
O O12 0.927461 0.793324 0.719491
O O13 0.500000 0.500000 0.500000
O O14 0.654461 0.335756 0.592142
O O15 0.790720 0.340055 0.392105
O O16 0.686022 0.131383 0.582516
O O17 0.500000 0.500000 0.000000
O O18 0.000000 0.000000 0.000000
#
# Coordination Sequence:
#
# PCOD9059984 Si02
#       8
#     2   2   2   2   2   2   2   2
#     4  11  23  43  76 109 146 193 243 302 356 435
#     4  12  28  47  73 108 141 192 253 306 362 439
#     4  11  23  46  72 110 147 192 245 293 371 436
#     4  11  23  46  76 109 151 185 237 308 375 426
#     4  12  27  46  71 106 148 198 241 302 372 433
#     4  12  21  42  75 105 141 191 257 291 340 436
#     4  11  23  42  72 107 144 192 246 295 358 439
#     4  12  28  49  72 104 151 190 239 308 381 429
#
# _framework density 22.587845999999999
#
# number of rings (size 3 to 8) (size 9 to 14) (size 15 to 20)
#    0.000    0.500    3.750    4.500    5.250    1.500 
#    2.250    1.250    0.000    0.000    0.000    0.000 
#    0.000    0.000    0.000    0.000    0.000    0.000 
#
# Total GULP energy -89429.105002 kJ/mol
# GULP energy per Si atom -5589.319063 kJ/mol
# Density = 2.253644 g / cm^3
# Si number density = 22.587846 Si / 1000 Ang^3
#
#
#
# Elastic Constant Matrix: (Units=GPa)
#
#
# Indices 1 2 3 4 5 6 
#
# 1 162.3916 48.6595 72.3635 -2.5920 -8.8078 -10.4090
# 2 48.6595 58.4491 23.1123 1.6381 11.9029 -6.3500
# 3 72.3635 23.1123 114.2989 -0.1365 6.5239 -4.9683
# 4 -2.5920 1.6381 -0.1365 31.7688 -6.8276 -0.2567
# 5 -8.8078 11.9029 6.5239 -6.8276 45.4563 -2.8895
# 6 -10.4090 -6.3500 -4.9683 -0.2567 -2.8895 40.4119
#
#
#
# Elastic Compliance Matrix: (Units=1/GPa)
#
#
# Indices 1 2 3 4 5 6 
#
# 1 0.011904 -0.008643 -0.006063 0.002677 0.005931 0.001404
# 2 -0.008643 0.026117 0.000764 -0.004003 -0.009142 0.001292
# 3 -0.006063 0.000764 0.012618 -0.001207 -0.003376 -0.000139
# 4 0.002677 -0.004003 -0.001207 0.033361 0.006790 0.000610
# 5 0.005931 -0.009142 -0.003376 0.006790 0.027152 0.001661
# 6 0.001404 0.001292 -0.000139 0.000610 0.001661 0.025415
#
#
# Mechanical properties :
#
#
# Convention : Reuss Voigt Hill
#
# Bulk Modulus (GPa) = 43.94678 69.26781 56.60730
# Shear Modulus (GPa) = 29.06361 36.26103 32.66232
#
# Velocity S-wave (km/s) = 3.59094 4.01101 3.80677
# Velocity P-wave (km/s) = 6.05734 7.22381 6.66614
#
# Compressibility (1/GPa) = 0.02275479
#
# Stress axis : x y z
#
# Youngs Moduli (GPa) = 84.00548 38.28988 79.25025
#
# Poissons Ratio (x) = 0.33094 0.48050
# Poissons Ratio (y) = 0.72607 -0.06056
# Poissons Ratio (z) = 0.50933 -0.02926
#
# Static dielectric constant tensor:
#      x y z
#    x 1.884940 -0.050520 0.012470 
#    y -0.050520 1.695370 0.074390 
#    z 0.012470 0.074390 1.852040 
# 
# From -- ./inp_files/274707.got.cif
#   From: 2010.05.17/outbox.cif.g08.bks.cpg/sg2_138_cif.got.tgz:274707.got - 2010.06.03 11:33:40.
