data_PCOD9059871
_publ_section_title
;
Structure prediction by ZEFSAII (Michael W. Deem and Ramdas Pophale) SiO2 
 PCOD9059871
Probable space group: P -1
;
_chemical_formula_sum "Si O2"
_cell_formula_units_Z 12
_cell_length_a 9.521041
_cell_length_b 13.239742
_cell_length_c 8.759269
_cell_angle_alpha 60.961665
_cell_angle_beta 80.015945
_cell_angle_gamma 33.984993
_cell_volume 476.642832
_symmetry_space_group_name_H-M "P -1"
_symmetry_group_IT_number 2
_symmetry_cell_setting 'triclinic'
loop_
_space_group_symop_operation_xyz
x,y,z
-x,-y,-z
loop_
_atom_site_type_symbol
_atom_site_label
_atom_site_fract_x
_atom_site_fract_y
_atom_site_fract_z
Si Si1 0.603827 0.498752 0.834739
Si Si2 0.243651 0.855642 0.379083
Si Si3 0.627041 0.807957 0.017347
Si Si4 0.065049 0.108489 0.789636
Si Si5 0.823787 0.461635 0.374723
Si Si6 0.019666 0.272334 0.149704
O O1 0.351295 0.730316 0.613047
O O2 0.820182 0.280382 0.839872
O O3 0.500000 0.500000 0.000000
O O4 0.808675 0.445470 0.921211
O O5 0.523757 0.646599 0.375015
O O6 0.008517 0.940655 0.279491
O O7 0.160235 0.048357 0.262020
O O8 0.761073 0.775715 0.868841
O O9 0.377787 0.892791 0.958508
O O10 0.840135 0.585480 0.246288
O O11 0.500000 0.000000 0.000000
O O12 0.041493 0.247158 0.603817
O O13 0.864197 0.377630 0.262814
#
# Coordination Sequence:
#
# PCOD9059871 Si02
#       6
#     2   2   2   2   2   2
#     4  11  23  42  70 103 141 179 231 282 345 407
#     4  11  25  46  71 106 142 177 228 292 347 403
#     4  12  25  49  70 101 140 188 232 281 345 412
#     4  11  25  45  73 101 143 184 225 290 349 406
#     4  11  25  46  74 103 140 182 235 282 346 408
#     4  12  26  46  74 105 139 185 231 282 345 416
#
# _framework density 25.176082999999998
#
# number of rings (size 3 to 8) (size 9 to 14) (size 15 to 20)
#    0.000    0.667    3.333    4.500    0.000   12.000 
#    0.000    3.333    0.000    0.000    0.000    0.000 
#    0.000    0.000    0.000    0.000    0.000    0.000 
#
# Total GULP energy -67224.954314 kJ/mol
# GULP energy per Si atom -5602.079526 kJ/mol
# Density = 2.511878 g / cm^3
# Si number density = 25.176083 Si / 1000 Ang^3
#
#
#
# Elastic Constant Matrix: (Units=GPa)
#
#
# Indices 1 2 3 4 5 6 
#
# 1 78.1860 21.9588 38.6514 5.0787 -11.3226 -15.7581
# 2 21.9588 124.4203 36.7371 29.2267 -6.5365 6.5570
# 3 38.6514 36.7371 182.8710 12.9729 -21.0583 -0.2007
# 4 5.0787 29.2267 12.9729 43.1370 2.5199 -0.9917
# 5 -11.3226 -6.5365 -21.0583 2.5199 43.7436 4.0348
# 6 -15.7581 6.5570 -0.2007 -0.9917 4.0348 22.0105
#
#
#
# Elastic Compliance Matrix: (Units=1/GPa)
#
#
# Indices 1 2 3 4 5 6 
#
# 1 0.018103 -0.003215 -0.003092 0.001211 0.001384 0.013691
# 2 -0.003215 0.010887 -0.000866 -0.006956 0.001342 -0.006113
# 3 -0.003092 -0.000866 0.006680 -0.001265 0.002583 -0.002425
# 4 0.001211 -0.006956 -0.001265 0.028444 -0.003419 0.004836
# 5 0.001384 0.001342 0.002583 -0.003419 0.025244 -0.004167
# 6 0.013691 -0.006113 -0.002425 0.004836 -0.004167 0.058015
#
#
# Mechanical properties :
#
#
# Convention : Reuss Voigt Hill
#
# Bulk Modulus (GPa) = 46.89617 64.46356 55.67987
# Shear Modulus (GPa) = 29.61616 40.98690 35.30153
#
# Velocity S-wave (km/s) = 3.43353 4.03924 3.74864
# Velocity P-wave (km/s) = 5.86401 6.88582 6.39536
#
# Compressibility (1/GPa) = 0.02132370
#
# Stress axis : x y z
#
# Youngs Moduli (GPa) = 55.24097 91.85105 149.69430
#
# Poissons Ratio (x) = 0.29532 0.46281
# Poissons Ratio (y) = 0.17761 0.12967
# Poissons Ratio (z) = 0.17079 0.07957
#
# Static dielectric constant tensor:
#      x y z
#    x 2.014700 -0.052960 0.000550 
#    y -0.052960 2.022280 -0.001640 
#    z 0.000550 -0.001640 1.978450 
# 
# From -- ./inp_files/167497.got.cif
#   From: 2010.05.17/outbox.cif.g08.bks.cpg/sg2_84_cif.got.tgz:167497.got - 2010.06.03 11:33:40.
