data_PCOD9059378
_publ_section_title
;
Structure prediction by ZEFSAII (Michael W. Deem and Ramdas Pophale) SiO2 
 PCOD9059378
Probable space group: P -1
;
_chemical_formula_sum "Si O2"
_cell_formula_units_Z 16
_cell_length_a 9.424264
_cell_length_b 20.734360
_cell_length_c 9.753693
_cell_angle_alpha 47.990602
_cell_angle_beta 148.783610
_cell_angle_gamma 128.381432
_cell_volume 728.109125
_symmetry_space_group_name_H-M "P -1"
_symmetry_group_IT_number 2
_symmetry_cell_setting 'triclinic'
loop_
_space_group_symop_operation_xyz
x,y,z
-x,-y,-z
loop_
_atom_site_type_symbol
_atom_site_label
_atom_site_fract_x
_atom_site_fract_y
_atom_site_fract_z
Si Si1 0.706961 0.743686 0.627542
Si Si2 0.591013 0.564919 0.358737
Si Si3 0.837459 0.812501 0.348133
Si Si4 0.187406 0.003475 0.786969
Si Si5 0.864497 0.184813 0.900464
Si Si6 0.412490 0.560729 0.723335
Si Si7 0.903947 0.327605 0.520258
Si Si8 0.398827 0.734828 0.883807
O O1 0.729393 0.749354 0.474754
O O2 0.454224 0.797613 0.380688
O O3 0.629832 0.645015 0.752097
O O4 0.982922 0.782790 0.878363
O O5 0.500000 0.500000 0.500000
O O6 0.601725 0.498454 0.337025
O O7 0.882046 0.627266 0.480075
O O8 0.382920 0.638615 0.077360
O O9 0.835066 0.909162 0.269969
O O10 0.142065 0.789394 0.605773
O O11 0.644499 0.792555 0.085037
O O12 0.000000 0.000000 0.500000
O O13 0.500000 0.000000 0.000000
O O14 0.109426 0.917293 0.937701
O O15 0.987576 0.245135 0.790703
O O16 0.150506 0.602758 0.506899
O O17 0.500000 0.500000 0.000000
O O18 0.621512 0.294058 0.252391
#
# Coordination Sequence:
#
# PCOD9059378 Si02
#       8
#     2   2   2   2   2   2   2   2
#     4  11  23  41  67 106 142 178 236 295 369 416
#     4  12  26  48  72 107 145 196 253 308 356 429
#     4  12  24  43  71 106 147 187 233 303 372 424
#     4  12  22  44  73 112 144 178 246 304 357 442
#     4  11  23  43  73 104 141 186 230 303 366 424
#     4  11  23  42  72 104 136 195 247 303 353 428
#     4  11  26  47  73 100 152 193 247 296 367 435
#     4  12  26  45  68  99 151 195 233 296 370 434
#
# _framework density 21.974727999999999
#
# number of rings (size 3 to 8) (size 9 to 14) (size 15 to 20)
#    0.000    0.500    5.000    3.375    1.750    3.500 
#    0.000    1.250    0.000    0.000    0.000    0.000 
#    0.000    0.000    0.000    0.000    0.000    0.000 
#
# Total GULP energy -89348.107897 kJ/mol
# GULP energy per Si atom -5584.256744 kJ/mol
# Density = 2.192471 g / cm^3
# Si number density = 21.974728 Si / 1000 Ang^3
#
#
#
# Elastic Constant Matrix: (Units=GPa)
#
#
# Indices 1 2 3 4 5 6 
#
# 1 86.1595 44.1896 45.6326 7.9467 -8.5228 -12.0084
# 2 44.1896 145.9107 77.9445 -20.5298 -0.8501 -23.5319
# 3 45.6326 77.9445 146.7579 -1.2488 -3.1820 -4.9708
# 4 7.9467 -20.5298 -1.2488 44.0427 -3.6894 -5.4637
# 5 -8.5228 -0.8501 -3.1820 -3.6894 37.0336 -6.7379
# 6 -12.0084 -23.5319 -4.9708 -5.4637 -6.7379 41.1063
#
#
#
# Elastic Compliance Matrix: (Units=1/GPa)
#
#
# Indices 1 2 3 4 5 6 
#
# 1 0.015985 -0.003348 -0.003071 -0.003949 0.003383 0.002412
# 2 -0.003348 0.013010 -0.005546 0.007464 0.001063 0.006965
# 3 -0.003071 -0.005546 0.010572 -0.002190 -0.000727 -0.003204
# 4 -0.003949 0.007464 -0.002190 0.027979 0.003152 0.007090
# 5 0.003383 0.001063 -0.000727 0.003152 0.029281 0.006727
# 6 0.002412 0.006965 -0.003204 0.007090 0.006727 0.030677
#
#
# Mechanical properties :
#
#
# Convention : Reuss Voigt Hill
#
# Bulk Modulus (GPa) = 63.95233 79.37351 71.66292
# Shear Modulus (GPa) = 31.91946 38.50730 35.21338
#
# Velocity S-wave (km/s) = 3.81537 4.19064 4.00740
# Velocity P-wave (km/s) = 6.96960 7.72102 7.35491
#
# Compressibility (1/GPa) = 0.01563665
#
# Stress axis : x y z
#
# Youngs Moduli (GPa) = 62.55968 76.86445 94.59310
#
# Poissons Ratio (x) = 0.25731 0.29049
# Poissons Ratio (y) = 0.20942 0.52464
# Poissons Ratio (z) = 0.19211 0.42632
#
# Static dielectric constant tensor:
#      x y z
#    x 1.853860 0.014350 0.033260 
#    y 0.014350 1.844550 0.026430 
#    z 0.033260 0.026430 1.818320 
# 
# From -- ./inp_files/221898.got.cif
#   From: 2010.05.17/outbox.cif.g08.bks.cpg/sg2_111_cif.got.tgz:221898.got - 2010.06.03 11:33:40.
