data_PCOD9059526
_publ_section_title
;
Structure prediction by ZEFSAII (Michael W. Deem and Ramdas Pophale) SiO2 
 PCOD9059526
Probable space group: P -1
;
_chemical_formula_sum "Si O2"
_cell_formula_units_Z 14
_cell_length_a 16.127516
_cell_length_b 7.332005
_cell_length_c 15.701790
_cell_angle_alpha 114.842624
_cell_angle_beta 24.119451
_cell_angle_gamma 124.101572
_cell_volume 604.802256
_symmetry_space_group_name_H-M "P -1"
_symmetry_group_IT_number 2
_symmetry_cell_setting 'triclinic'
loop_
_space_group_symop_operation_xyz
x,y,z
-x,-y,-z
loop_
_atom_site_type_symbol
_atom_site_label
_atom_site_fract_x
_atom_site_fract_y
_atom_site_fract_z
Si Si1 0.102194 0.327412 0.850803
Si Si2 0.597647 0.014939 0.278192
Si Si3 0.717406 0.445350 0.696211
Si Si4 0.787857 0.792068 0.852376
Si Si5 0.536895 0.349248 0.537124
Si Si6 0.047477 0.170730 0.568062
Si Si7 0.279595 0.986659 0.422601
O O1 0.296948 0.346700 0.738591
O O2 0.245132 0.408476 0.644297
O O3 0.000000 0.500000 0.000000
O O4 0.867092 0.090666 0.027720
O O5 0.562113 0.177354 0.412058
O O6 0.470613 0.761809 0.387191
O O7 0.488091 0.052490 0.303092
O O8 0.758922 0.612336 0.769233
O O9 0.885035 0.588615 0.490372
O O10 0.740536 0.224630 0.656413
O O11 0.447779 0.334149 0.900989
O O12 0.034234 0.871652 0.680567
O O13 0.836400 0.027413 0.803065
O O14 0.265949 0.174540 0.413096
O O15 0.000000 0.000000 0.500000
#
# Coordination Sequence:
#
# PCOD9059526 Si02
#       7
#     2   2   2   2   2   2   2
#     4   9  18  36  59  81 101 138 185 216 266 336
#     4  10  20  36  53  83 110 140 178 225 277 314
#     4  10  17  38  55  73 110 149 179 226 273 316
#     4   8  19  35  54  79 106 141 189 219 265 332
#     4   9  19  37  59  75 109 146 176 218 272 332
#     4   8  18  36  54  78 107 143 185 221 268 327
#     4  10  21  36  53  84 113 138 187 231 265 324
#
# _framework density 23.148061999999999
#
# number of rings (size 3 to 8) (size 9 to 14) (size 15 to 20)
#    0.857    2.000    0.000    0.857    0.000    1.143 
#   12.857    2.143    0.000    0.000    0.000    0.000 
#    0.000    0.000    0.000    0.000    0.000    0.000 
#
# Total GULP energy -77989.871553 kJ/mol
# GULP energy per Si atom -5570.705111 kJ/mol
# Density = 2.309538 g / cm^3
# Si number density = 23.148062 Si / 1000 Ang^3
#
#
#
# Elastic Constant Matrix: (Units=GPa)
#
#
# Indices 1 2 3 4 5 6 
#
# 1 75.9560 10.1364 20.4647 1.7473 -1.4304 -5.9758
# 2 10.1364 53.6971 3.2965 1.5167 12.2630 -2.1975
# 3 20.4647 3.2965 96.2659 -3.4640 -18.4486 3.5976
# 4 1.7473 1.5167 -3.4640 29.8344 -4.2843 -0.3211
# 5 -1.4304 12.2630 -18.4486 -4.2843 29.0728 -1.3958
# 6 -5.9758 -2.1975 3.5976 -0.3211 -1.3958 25.7406
#
#
#
# Elastic Compliance Matrix: (Units=1/GPa)
#
#
# Indices 1 2 3 4 5 6 
#
# 1 0.014663 -0.002295 -0.003291 -0.001141 -0.000392 0.003632
# 2 -0.002295 0.021941 -0.002590 -0.002906 -0.011389 0.001048
# 3 -0.003291 -0.002590 0.013235 0.003229 0.009696 -0.002269
# 4 -0.001141 -0.002906 0.003229 0.035316 0.008420 -0.000067
# 5 -0.000392 -0.011389 0.009696 0.008420 0.046585 0.000213
# 6 0.003632 0.001048 -0.002269 -0.000067 0.000213 0.040110
#
#
# Mechanical properties :
#
#
# Convention : Reuss Voigt Hill
#
# Bulk Modulus (GPa) = 29.86138 32.63491 31.24815
# Shear Modulus (GPa) = 25.07968 29.73097 27.40533
#
# Velocity S-wave (km/s) = 3.29515 3.58772 3.44454
# Velocity P-wave (km/s) = 5.23502 5.59386 5.41741
#
# Compressibility (1/GPa) = 0.03348807
#
# Stress axis : x y z
#
# Youngs Moduli (GPa) = 68.19859 45.57625 75.55581
#
# Poissons Ratio (x) = 0.10462 0.24862
# Poissons Ratio (y) = 0.15655 0.19567
# Poissons Ratio (z) = 0.22441 0.11803
#
# Static dielectric constant tensor:
#      x y z
#    x 1.897550 0.054020 0.014970 
#    y 0.054020 1.928460 -0.008020 
#    z 0.014970 -0.008020 1.887820 
# 
# From -- ./inp_files/575419.got.cif
#   From: 2010.05.17/outbox.cif.g08.bks.cpg/sg2_288_cif.got.tgz:575419.got - 2010.06.03 11:33:40.
