data_PCOD9059974
_publ_section_title
;
Structure prediction by ZEFSAII (Michael W. Deem and Ramdas Pophale) SiO2 
 PCOD9059974
Probable space group: P -1
;
_chemical_formula_sum "Si O2"
_cell_formula_units_Z 16
_cell_length_a 9.031445
_cell_length_b 12.831396
_cell_length_c 9.474104
_cell_angle_alpha 130.751683
_cell_angle_beta 91.414266
_cell_angle_gamma 75.560085
_cell_volume 791.047869
_symmetry_space_group_name_H-M "P -1"
_symmetry_group_IT_number 2
_symmetry_cell_setting 'triclinic'
loop_
_space_group_symop_operation_xyz
x,y,z
-x,-y,-z
loop_
_atom_site_type_symbol
_atom_site_label
_atom_site_fract_x
_atom_site_fract_y
_atom_site_fract_z
Si Si1 0.411709 0.663313 0.666209
Si Si2 0.085154 0.407536 0.783696
Si Si3 0.650477 0.908242 0.513203
Si Si4 0.045289 0.136832 0.176821
Si Si5 0.844736 0.271608 0.530341
Si Si6 0.603763 0.869188 0.796327
Si Si7 0.852371 0.116026 0.670085
Si Si8 0.160903 0.673248 0.888603
O O1 0.500000 0.500000 0.500000
O O2 0.288811 0.702854 0.568416
O O3 0.543143 0.740598 0.732321
O O4 0.319526 0.682927 0.829355
O O5 0.219586 0.248309 0.669392
O O6 0.162342 0.514639 0.798153
O O7 0.939409 0.383433 0.671886
O O8 0.000000 0.500000 0.000000
O O9 0.585205 0.879021 0.636413
O O10 0.500000 0.000000 0.500000
O O11 0.741183 0.026065 0.636340
O O12 0.222049 0.131011 0.172628
O O13 0.983478 0.152721 0.348592
O O14 0.959204 0.270942 0.193045
O O15 0.000000 0.000000 0.000000
O O16 0.786044 0.223224 0.631541
O O17 0.500000 0.000000 0.000000
O O18 0.884856 0.214103 0.883133
O O19 0.000000 0.000000 0.500000
#
# Coordination Sequence:
#
# PCOD9059974 Si02
#       8
#     2   2   2   2   2   2   2   2
#     4  11  26  44  65  96 137 181 224 281 352 412
#     4  12  24  46  72 108 136 185 241 294 347 425
#     4  12  26  45  70 100 142 180 233 292 356 413
#     4  11  23  42  72 104 136 182 236 293 346 418
#     4  11  23  43  71  94 139 178 233 287 349 411
#     4  12  24  44  65 100 141 178 230 286 348 416
#     4  12  21  43  68 100 131 180 231 287 342 421
#     4  11  25  42  70 100 137 179 239 283 350 416
#
# _framework density 20.226337000000001
#
# number of rings (size 3 to 8) (size 9 to 14) (size 15 to 20)
#    0.000    0.500    3.750    5.250    1.750    3.000 
#    2.250    1.250    0.000    0.000    0.000    0.000 
#    0.000    0.000    0.000    0.000    0.000    0.000 
#
# Total GULP energy -89197.946277 kJ/mol
# GULP energy per Si atom -5574.871642 kJ/mol
# Density = 2.018030 g / cm^3
# Si number density = 20.226337 Si / 1000 Ang^3
#
#
#
# Elastic Constant Matrix: (Units=GPa)
#
#
# Indices 1 2 3 4 5 6 
#
# 1 96.4649 33.7517 9.0409 12.1354 2.2070 6.6667
# 2 33.7517 99.2327 19.3784 9.4969 -2.1898 20.1118
# 3 9.0409 19.3784 104.8668 2.3516 -4.7966 7.7326
# 4 12.1354 9.4969 2.3516 37.5065 12.1606 0.7833
# 5 2.2070 -2.1898 -4.7966 12.1606 39.4599 5.1086
# 6 6.6667 20.1118 7.7326 0.7833 5.1086 41.0955
#
#
#
# Elastic Compliance Matrix: (Units=1/GPa)
#
#
# Indices 1 2 3 4 5 6 
#
# 1 0.012082 -0.003774 -0.000279 -0.002931 -0.000016 -0.000003
# 2 -0.003774 0.013128 -0.001510 -0.002639 0.002316 -0.005766
# 3 -0.000279 -0.001510 0.010016 -0.000616 0.001504 -0.001275
# 4 -0.002931 -0.002639 -0.000616 0.031541 -0.010106 0.002538
# 5 -0.000016 0.002316 0.001504 -0.010106 0.029400 -0.004876
# 6 -0.000003 -0.005766 -0.001275 0.002538 -0.004876 0.027954
#
#
# Mechanical properties :
#
#
# Convention : Reuss Voigt Hill
#
# Bulk Modulus (GPa) = 41.49537 47.21181 44.35359
# Shear Modulus (GPa) = 34.89634 39.50527 37.20081
#
# Velocity S-wave (km/s) = 4.15817 4.42425 4.29327
# Velocity P-wave (km/s) = 6.60408 7.03499 6.82294
#
# Compressibility (1/GPa) = 0.02409908
#
# Stress axis : x y z
#
# Youngs Moduli (GPa) = 82.76445 76.17153 99.84295
#
# Poissons Ratio (x) = 0.28750 0.02785
# Poissons Ratio (y) = 0.31239 0.15080
# Poissons Ratio (z) = 0.02309 0.11504
#
# Static dielectric constant tensor:
#      x y z
#    x 1.705040 -0.025550 -0.011520 
#    y -0.025550 1.767800 0.016340 
#    z -0.011520 0.016340 1.727350 
# 
# From -- ./inp_files/187619.got.cif
#   From: 2010.05.17/outbox.cif.g08.bks.cpg/sg2_94_cif.got.tgz:187619.got - 2010.06.03 11:33:40.
