data_PCOD9059591
_publ_section_title
;
Structure prediction by ZEFSAII (Michael W. Deem and Ramdas Pophale) SiO2 
 PCOD9059591
Probable space group: P -1
;
_chemical_formula_sum "Si O2"
_cell_formula_units_Z 16
_cell_length_a 9.573933
_cell_length_b 12.509179
_cell_length_c 8.605895
_cell_angle_alpha 130.235817
_cell_angle_beta 56.261983
_cell_angle_gamma 108.697556
_cell_volume 653.105523
_symmetry_space_group_name_H-M "P -1"
_symmetry_group_IT_number 2
_symmetry_cell_setting 'triclinic'
loop_
_space_group_symop_operation_xyz
x,y,z
-x,-y,-z
loop_
_atom_site_type_symbol
_atom_site_label
_atom_site_fract_x
_atom_site_fract_y
_atom_site_fract_z
Si Si1 0.132359 0.153723 0.510108
Si Si2 0.145166 0.078904 0.073736
Si Si3 0.171767 0.430407 0.893905
Si Si4 0.966785 0.639808 0.753365
Si Si5 0.611286 0.107543 0.436801
Si Si6 0.243894 0.873391 0.321707
Si Si7 0.355922 0.638098 0.541008
Si Si8 0.542821 0.365020 0.169351
O O1 0.137864 0.095359 0.278035
O O2 0.209486 0.299441 0.633566
O O3 0.931331 0.173644 0.687994
O O4 0.228881 0.037777 0.448061
O O5 0.130920 0.234790 0.159856
O O6 0.310761 0.985891 0.837808
O O7 0.000000 0.000000 0.000000
O O8 0.311070 0.541280 0.899019
O O9 0.000000 0.500000 0.000000
O O10 0.133812 0.385672 0.050507
O O11 0.157466 0.681441 0.712617
O O12 0.000000 0.500000 0.500000
O O13 0.750935 0.145352 0.514324
O O14 0.558593 0.259276 0.538077
O O15 0.500000 0.000000 0.500000
O O16 0.408762 0.786330 0.075393
O O17 0.382644 0.470978 0.330869
O O18 0.433453 0.652146 0.677214
#
# Coordination Sequence:
#
# PCOD9059591 Si02
#       8
#     2   2   2   2   2   2   2   2
#     4  11  23  41  74 103 137 177 240 294 345 418
#     4  12  24  45  72 101 137 185 236 293 354 412
#     4  12  23  42  72 107 140 181 242 288 347 426
#     4  12  26  43  73 108 141 182 238 294 348 421
#     4  12  28  47  69 105 144 188 234 295 357 428
#     4  11  23  43  70 103 134 184 232 287 360 408
#     4  11  25  48  69  98 150 183 236 287 362 414
#     4  11  26  45  73 101 144 192 227 293 356 421
#
# _framework density 24.498338
#
# number of rings (size 3 to 8) (size 9 to 14) (size 15 to 20)
#    0.000    0.500    5.000    2.250    7.000    1.500 
#    2.250    1.250    0.000    0.000    0.000    0.000 
#    0.000    0.000    0.000    0.000    0.000    0.000 
#
# Total GULP energy -89547.821796 kJ/mol
# GULP energy per Si atom -5596.738862 kJ/mol
# Density = 2.444258 g / cm^3
# Si number density = 24.498338 Si / 1000 Ang^3
#
#
#
# Elastic Constant Matrix: (Units=GPa)
#
#
# Indices 1 2 3 4 5 6 
#
# 1 56.5773 30.3681 12.6778 4.6062 -2.9366 -9.8515
# 2 30.3681 130.6737 19.0052 5.9971 4.1110 -24.1522
# 3 12.6778 19.0052 122.3353 14.9155 7.5319 -16.1450
# 4 4.6062 5.9971 14.9155 50.4986 -4.7917 -4.2974
# 5 -2.9366 4.1110 7.5319 -4.7917 35.8747 4.4432
# 6 -9.8515 -24.1522 -16.1450 -4.2974 4.4432 51.4624
#
#
#
# Elastic Compliance Matrix: (Units=1/GPa)
#
#
# Indices 1 2 3 4 5 6 
#
# 1 0.020744 -0.004440 -0.001360 -0.000646 0.002256 0.001212
# 2 -0.004440 0.009486 -0.000362 -0.000487 -0.001887 0.003611
# 3 -0.001360 -0.000362 0.009174 -0.002584 -0.002646 0.002461
# 4 -0.000646 -0.000487 -0.002584 0.021023 0.003316 0.000307
# 5 0.002256 -0.001887 -0.002646 0.003316 0.029717 -0.003573
# 6 0.001212 0.003611 0.002461 0.000307 -0.003573 0.022464
#
#
# Mechanical properties :
#
#
# Convention : Reuss Voigt Hill
#
# Bulk Modulus (GPa) = 36.92748 48.18759 42.55754
# Shear Modulus (GPa) = 37.32489 44.06950 40.69719
#
# Velocity S-wave (km/s) = 3.90753 4.24592 4.08023
# Velocity P-wave (km/s) = 5.95521 6.61434 6.29341
#
# Compressibility (1/GPa) = 0.02708010
#
# Stress axis : x y z
#
# Youngs Moduli (GPa) = 48.20730 105.41590 109.00221
#
# Poissons Ratio (x) = 0.46808 0.14826
# Poissons Ratio (y) = 0.21406 0.03941
# Poissons Ratio (z) = 0.06557 0.03811
#
# Static dielectric constant tensor:
#      x y z
#    x 1.821790 0.198360 -0.259220 
#    y 0.198360 1.815450 0.189900 
#    z -0.259220 0.189900 1.625930 
# 
# From -- ./inp_files/260525.got.cif
#   From: 2010.05.17/outbox.cif.g08.bks.cpg/sg2_131_cif.got.tgz:260525.got - 2010.06.03 11:33:40.
