data_PCOD9059768
_publ_section_title
;
Structure prediction by ZEFSAII (Michael W. Deem and Ramdas Pophale) SiO2 
 PCOD9059768
Probable space group: P -1
;
_chemical_formula_sum "Si O2"
_cell_formula_units_Z 14
_cell_length_a 11.211880
_cell_length_b 15.980802
_cell_length_c 8.601285
_cell_angle_alpha 37.259497
_cell_angle_beta 137.653954
_cell_angle_gamma 137.798827
_cell_volume 582.877596
_symmetry_space_group_name_H-M "P -1"
_symmetry_group_IT_number 2
_symmetry_cell_setting 'triclinic'
loop_
_space_group_symop_operation_xyz
x,y,z
-x,-y,-z
loop_
_atom_site_type_symbol
_atom_site_label
_atom_site_fract_x
_atom_site_fract_y
_atom_site_fract_z
Si Si1 0.043068 0.711888 0.137082
Si Si2 0.711454 0.068539 0.177187
Si Si3 0.484745 0.322761 0.926302
Si Si4 0.999156 0.333478 0.227769
Si Si5 0.318483 0.217943 0.258648
Si Si6 0.400972 0.339655 0.487612
Si Si7 0.903869 0.384233 0.353773
O O1 0.151736 0.700188 0.413041
O O2 0.016709 0.559151 0.244428
O O3 0.148453 0.871140 0.923697
O O4 0.836371 0.705269 0.997333
O O5 0.799268 0.222171 0.131813
O O6 0.750718 0.952855 0.501421
O O7 0.500000 0.000000 0.000000
O O8 0.433484 0.260382 0.793439
O O9 0.469732 0.485021 0.653397
O O10 0.391554 0.241531 0.116862
O O11 0.706489 0.361821 0.114298
O O12 0.013257 0.306126 0.466077
O O13 0.177288 0.319319 0.327454
O O14 0.000000 0.500000 0.000000
O O15 0.439128 0.286589 0.432500
#
# Coordination Sequence:
#
# PCOD9059768 Si02
#       7
#     2   2   2   2   2   2   2
#     4  11  23  45  70 103 138 194 232 293 358 420
#     4  12  27  44  70 106 141 190 231 294 364 419
#     4  11  23  42  68 111 137 185 237 297 345 417
#     4  12  22  47  70  99 141 184 239 285 351 420
#     4  12  24  46  67 101 151 183 233 288 365 433
#     4  11  24  41  73 103 141 186 237 293 354 417
#     4  11  23  43  74 104 141 180 251 293 343 421
#
# _framework density 24.018764999999998
#
# number of rings (size 3 to 8) (size 9 to 14) (size 15 to 20)
#    0.000    0.571    5.714    2.571    2.000    0.000 
#    5.143    2.857    0.000    0.000    0.000    0.000 
#    0.000    0.000    0.000    0.000    0.000    0.000 
#
# Total GULP energy -77991.602675 kJ/mol
# GULP energy per Si atom -5570.828762 kJ/mol
# Density = 2.396410 g / cm^3
# Si number density = 24.018765 Si / 1000 Ang^3
#
#
#
# Elastic Constant Matrix: (Units=GPa)
#
#
# Indices 1 2 3 4 5 6 
#
# 1 87.4504 24.1514 46.6821 0.0652 -33.7043 10.5967
# 2 24.1514 88.5954 31.6915 6.6263 -10.0082 -2.8542
# 3 46.6821 31.6915 123.5725 7.1952 -45.9960 -4.3260
# 4 0.0652 6.6263 7.1952 46.3656 1.8431 -8.1680
# 5 -33.7043 -10.0082 -45.9960 1.8431 48.5513 -0.9170
# 6 10.5967 -2.8542 -4.3260 -8.1680 -0.9170 27.7398
#
#
#
# Elastic Compliance Matrix: (Units=1/GPa)
#
#
# Indices 1 2 3 4 5 6 
#
# 1 0.018338 -0.003097 -0.002928 -0.000856 0.009204 -0.007728
# 2 -0.003097 0.013041 -0.002822 -0.001038 -0.002064 0.001711
# 3 -0.002928 -0.002822 0.014205 -0.001722 0.010963 0.002899
# 4 -0.000856 -0.001038 -0.001722 0.023293 -0.003197 0.006705
# 5 0.009204 -0.002064 0.010963 -0.003197 0.037035 -0.001736
# 6 -0.007728 0.001711 0.002899 0.006705 -0.001736 0.041546
#
#
# Mechanical properties :
#
#
# Convention : Reuss Voigt Hill
#
# Bulk Modulus (GPa) = 35.85646 56.07426 45.96536
# Shear Modulus (GPa) = 28.66184 37.67090 33.16637
#
# Velocity S-wave (km/s) = 3.45818 3.96459 3.72001
# Velocity P-wave (km/s) = 5.55934 6.65988 6.13434
#
# Compressibility (1/GPa) = 0.02788898
#
# Stress axis : x y z
#
# Youngs Moduli (GPa) = 54.53208 76.68317 70.39971
#
# Poissons Ratio (x) = 0.23747 0.20612
# Poissons Ratio (y) = 0.16887 0.19869
# Poissons Ratio (z) = 0.15967 0.21643
#
# Static dielectric constant tensor:
#      x y z
#    x 2.132910 -0.030220 -0.110250 
#    y -0.030220 1.951350 0.006990 
#    z -0.110250 0.006990 2.063030 
# 
# From -- ./inp_files/278867.got.cif
#   From: 2010.05.17/outbox.cif.g08.bks.cpg/sg2_140_cif.got.tgz:278867.got - 2010.06.03 11:33:40.
