data_PCOD9059563
_publ_section_title
;
Structure prediction by ZEFSAII (Michael W. Deem and Ramdas Pophale) SiO2 
 PCOD9059563
Probable space group: P -1
;
_chemical_formula_sum "Si O2"
_cell_formula_units_Z 16
_cell_length_a 11.823230
_cell_length_b 17.019026
_cell_length_c 19.661325
_cell_angle_alpha 158.221947
_cell_angle_beta 150.191489
_cell_angle_gamma 40.702215
_cell_volume 704.878809
_symmetry_space_group_name_H-M "P -1"
_symmetry_group_IT_number 2
_symmetry_cell_setting 'triclinic'
loop_
_space_group_symop_operation_xyz
x,y,z
-x,-y,-z
loop_
_atom_site_type_symbol
_atom_site_label
_atom_site_fract_x
_atom_site_fract_y
_atom_site_fract_z
Si Si1 0.756259 0.732081 0.582864
Si Si2 0.223815 0.054093 0.711397
Si Si3 0.157631 0.865648 0.216682
Si Si4 0.382086 0.891398 0.131078
Si Si5 0.008006 0.431494 0.548379
Si Si6 0.491409 0.245293 0.780961
Si Si7 0.766408 0.049993 0.207146
Si Si8 0.238057 0.547263 0.118945
O O1 0.908035 0.725153 0.588461
O O2 0.478739 0.685862 0.387899
O O3 0.810211 0.537032 0.498286
O O4 0.795551 0.966895 0.826398
O O5 0.454170 0.994456 0.753528
O O6 0.196387 0.979354 0.715956
O O7 0.292047 0.315441 0.952061
O O8 0.000000 0.000000 0.500000
O O9 0.258953 0.800353 0.146853
O O10 0.196331 0.675669 0.133785
O O11 0.316805 0.100964 0.517866
O O12 0.894884 0.885466 0.103630
O O13 0.564874 0.868693 0.267517
O O14 0.229062 0.642050 0.840551
O O15 0.905554 0.292572 0.449293
O O16 0.500000 0.500000 0.000000
O O17 0.500000 0.000000 0.000000
O O18 0.000000 0.500000 0.000000
#
# Coordination Sequence:
#
# PCOD9059563 Si02
#       8
#     2   2   2   2   2   2   2   2
#     4  11  24  47  73 108 140 194 252 304 367 445
#     4  12  26  47  73 111 152 193 245 309 370 448
#     4  11  24  43  72 103 139 190 238 300 370 433
#     4  12  23  44  73 106 141 188 248 301 366 445
#     4  11  26  45  76 101 148 194 250 306 366 440
#     4  11  23  41  72 108 143 174 238 314 369 429
#     4  12  27  49  74 105 153 202 248 304 381 447
#     4  12  22  43  72  99 145 193 242 297 370 442
#
# _framework density 22.698937000000001
#
# number of rings (size 3 to 8) (size 9 to 14) (size 15 to 20)
#    0.000    0.500    3.750    4.875    3.500    1.000 
#    2.250    0.625    0.000    0.000    0.000    0.000 
#    0.000    0.000    0.000    0.000    0.000    0.000 
#
# Total GULP energy -89372.897727 kJ/mol
# GULP energy per Si atom -5585.806108 kJ/mol
# Density = 2.264727 g / cm^3
# Si number density = 22.698937 Si / 1000 Ang^3
#
#
#
# Elastic Constant Matrix: (Units=GPa)
#
#
# Indices 1 2 3 4 5 6 
#
# 1 140.0634 61.6568 37.9292 13.7887 13.6153 -7.1591
# 2 61.6568 131.5445 29.0052 -1.9700 9.5977 -2.7634
# 3 37.9292 29.0052 62.3928 11.2202 9.2363 5.0860
# 4 13.7887 -1.9700 11.2202 46.3619 -8.1606 0.8061
# 5 13.6153 9.5977 9.2363 -8.1606 30.4156 10.1916
# 6 -7.1591 -2.7634 5.0860 0.8061 10.1916 44.5638
#
#
#
# Elastic Compliance Matrix: (Units=1/GPa)
#
#
# Indices 1 2 3 4 5 6 
#
# 1 0.010759 -0.003888 -0.003747 -0.003271 -0.004322 0.002963
# 2 -0.003888 0.010073 -0.002725 0.002219 -0.000115 0.000297
# 3 -0.003747 -0.002725 0.021301 -0.004923 -0.004558 -0.002070
# 4 -0.003271 0.002219 -0.004923 0.025633 0.010000 -0.002577
# 5 -0.004322 -0.000115 -0.004558 0.010000 0.042277 -0.010031
# 6 0.002963 0.000297 -0.002070 -0.002577 -0.010031 0.025511
#
#
# Mechanical properties :
#
#
# Convention : Reuss Voigt Hill
#
# Bulk Modulus (GPa) = 46.70073 65.68703 56.19388
# Shear Modulus (GPa) = 30.59733 37.96222 34.27977
#
# Velocity S-wave (km/s) = 3.67544 4.09396 3.89034
# Velocity P-wave (km/s) = 6.21534 7.16579 6.70742
#
# Compressibility (1/GPa) = 0.02141294
#
# Stress axis : x y z
#
# Youngs Moduli (GPa) = 92.94139 99.27231 46.94628
#
# Poissons Ratio (x) = 0.38601 0.17589
# Poissons Ratio (y) = 0.36139 0.12794
# Poissons Ratio (z) = 0.34822 0.27055
#
# Static dielectric constant tensor:
#      x y z
#    x 2.157600 -0.144440 0.114990 
#    y -0.144440 1.995590 -0.168140 
#    z 0.114990 -0.168140 2.231580 
# 
# From -- ./inp_files/596099.got.cif
#   From: 2010.05.17/outbox.cif.g08.bks.cpg/sg2_299_cif.got.tgz:596099.got - 2010.06.03 11:33:40.
