data_PCOD9059571
_publ_section_title
;
Structure prediction by ZEFSAII (Michael W. Deem and Ramdas Pophale) SiO2 
 PCOD9059571
Probable space group: P -1
;
_chemical_formula_sum "Si O2"
_cell_formula_units_Z 14
_cell_length_a 12.567797
_cell_length_b 12.298993
_cell_length_c 8.898822
_cell_angle_alpha 75.902535
_cell_angle_beta 46.067605
_cell_angle_gamma 47.478591
_cell_volume 661.013771
_symmetry_space_group_name_H-M "P -1"
_symmetry_group_IT_number 2
_symmetry_cell_setting 'triclinic'
loop_
_space_group_symop_operation_xyz
x,y,z
-x,-y,-z
loop_
_atom_site_type_symbol
_atom_site_label
_atom_site_fract_x
_atom_site_fract_y
_atom_site_fract_z
Si Si1 0.359639 0.351626 0.907398
Si Si2 0.358872 0.757275 0.629917
Si Si3 0.510074 0.870530 0.604627
Si Si4 0.100324 0.755903 0.654463
Si Si5 0.608156 0.047534 0.959685
Si Si6 0.074536 0.504789 0.766383
Si Si7 0.480971 0.502874 0.840267
O O1 0.460166 0.315680 0.653248
O O2 0.309450 0.502869 0.965076
O O3 0.540542 0.191575 0.881117
O O4 0.150147 0.391809 0.132948
O O5 0.328726 0.893921 0.692343
O O6 0.170889 0.794509 0.713488
O O7 0.431725 0.636472 0.737254
O O8 0.475039 0.899582 0.806083
O O9 0.731247 0.678433 0.424285
O O10 0.500000 0.000000 0.500000
O O11 0.113896 0.614489 0.714152
O O12 0.289467 0.670456 0.379594
O O13 0.864678 0.904536 0.772084
O O14 0.500000 0.000000 0.000000
O O15 0.000000 0.500000 0.000000
O O16 0.500000 0.500000 0.000000
#
# Coordination Sequence:
#
# PCOD9059571 Si02
#       7
#     2   2   2   2   2   2   2
#     4  11  23  41  72  99 141 185 231 295 347 420
#     4  11  23  46  71 105 139 185 234 291 357 424
#     4  12  26  42  71 106 145 182 237 294 354 429
#     4  11  24  44  74  97 143 192 231 290 361 417
#     4  12  26  46  65 104 148 184 239 298 352 414
#     4  12  21  42  75 103 133 187 235 282 358 419
#     4  11  23  42  69 106 139 179 240 293 346 425
#
# _framework density 21.179590000000001
#
# number of rings (size 3 to 8) (size 9 to 14) (size 15 to 20)
#    0.000    0.571    4.286    5.143    0.000    4.571 
#    0.000    2.857    0.000    0.000    0.000    0.000 
#    0.000    0.000    0.000    0.000    0.000    0.000 
#
# Total GULP energy -78065.299500 kJ/mol
# GULP energy per Si atom -5576.092821 kJ/mol
# Density = 2.113138 g / cm^3
# Si number density = 21.179590 Si / 1000 Ang^3
#
#
#
# Elastic Constant Matrix: (Units=GPa)
#
#
# Indices 1 2 3 4 5 6 
#
# 1 175.5774 58.4822 54.3822 -9.2654 -0.2904 21.4311
# 2 58.4822 141.6629 30.8841 -19.0164 -7.8010 2.2162
# 3 54.3822 30.8841 70.3716 -7.7845 5.8066 -3.6376
# 4 -9.2654 -19.0164 -7.7845 39.8629 -6.4778 -10.0259
# 5 -0.2904 -7.8010 5.8066 -6.4778 50.5802 -5.7850
# 6 21.4311 2.2162 -3.6376 -10.0259 -5.7850 48.3212
#
#
#
# Elastic Compliance Matrix: (Units=1/GPa)
#
#
# Indices 1 2 3 4 5 6 
#
# 1 0.008933 -0.002493 -0.006194 -0.001557 -0.000357 -0.004680
# 2 -0.002493 0.009135 -0.001716 0.004255 0.002333 0.001720
# 3 -0.006194 -0.001716 0.020429 0.002624 -0.001772 0.004696
# 4 -0.001557 0.004255 0.002624 0.029977 0.005045 0.007517
# 5 -0.000357 0.002333 -0.001772 0.005045 0.021381 0.003524
# 6 -0.004680 0.001720 0.004696 0.007517 0.003524 0.025026
#
#
# Mechanical properties :
#
#
# Convention : Reuss Voigt Hill
#
# Bulk Modulus (GPa) = 56.52203 75.01208 65.76705
# Shear Modulus (GPa) = 35.31520 44.01042 39.66281
#
# Velocity S-wave (km/s) = 4.08783 4.56341 4.33215
# Velocity P-wave (km/s) = 7.00182 7.95364 7.49286
#
# Compressibility (1/GPa) = 0.01769222
#
# Stress axis : x y z
#
# Youngs Moduli (GPa) = 111.94915 109.47052 48.95030
#
# Poissons Ratio (x) = 0.27289 0.30318
# Poissons Ratio (y) = 0.27907 0.08398
# Poissons Ratio (z) = 0.69338 0.18780
#
# Static dielectric constant tensor:
#      x y z
#    x 2.280210 -0.004150 -0.268950 
#    y -0.004150 1.809830 0.002360 
#    z -0.268950 0.002360 1.899440 
# 
# From -- ./inp_files/257868.got.cif
#   From: 2010.05.17/outbox.cif.g08.bks.cpg/sg2_129_cif.got.tgz:257868.got - 2010.06.03 11:33:40.
