data_PCOD9059427
_publ_section_title
;
Structure prediction by ZEFSAII (Michael W. Deem and Ramdas Pophale) SiO2 
 PCOD9059427
Probable space group: P -1
;
_chemical_formula_sum "Si O2"
_cell_formula_units_Z 15
_cell_length_a 8.790834
_cell_length_b 13.183182
_cell_length_c 16.738134
_cell_angle_alpha 135.971798
_cell_angle_beta 105.941492
_cell_angle_gamma 109.253483
_cell_volume 796.589364
_symmetry_space_group_name_H-M "P -1"
_symmetry_group_IT_number 2
_symmetry_cell_setting 'triclinic'
loop_
_space_group_symop_operation_xyz
x,y,z
-x,-y,-z
loop_
_atom_site_type_symbol
_atom_site_label
_atom_site_fract_x
_atom_site_fract_y
_atom_site_fract_z
Si Si1 0.264380 0.774316 0.519019
Si Si2 0.796864 0.313810 0.934588
Si Si3 0.000000 0.500000 0.500000
Si Si4 0.577210 0.632806 0.856049
Si Si5 0.995940 0.119001 0.496594
Si Si6 0.411466 0.291293 0.914335
Si Si7 0.932785 0.631600 0.847021
Si Si8 0.456247 0.108364 0.110304
O O1 0.204717 0.581863 0.353761
O O2 0.123784 0.654937 0.517630
O O3 0.143249 0.824217 0.480257
O O4 0.568528 0.033425 0.719232
O O5 0.632039 0.331770 0.952902
O O6 0.000000 0.500000 0.000000
O O7 0.973958 0.385308 0.071298
O O8 0.706961 0.307718 0.314443
O O9 0.288313 0.365144 0.660364
O O10 0.755934 0.636697 0.850076
O O11 0.588464 0.784791 0.890722
O O12 0.633271 0.713299 0.001723
O O13 0.000000 0.000000 0.500000
O O14 0.846240 0.947500 0.301780
O O15 0.500000 0.500000 0.000000
O O16 0.193928 0.885664 0.992112
O O17 0.500000 0.000000 0.000000
#
# Coordination Sequence:
#
# PCOD9059427 Si02
#       8
#     2   2   1   2   2   2   2   2
#     4  11  25  45  71 102 134 183 230 283 346 406
#     4  11  25  43  68 101 137 179 228 281 340 408
#     4  12  22  44  76 100 126 178 240 278 342 404
#     4  12  26  43  65 102 134 181 224 278 346 413
#     4  11  23  42  68  96 132 177 229 277 331 407
#     4  11  23  41  68  94 132 180 227 277 336 401
#     4  12  26  44  66 100 139 178 223 283 349 407
#     4  12  24  45  73  96 132 174 230 287 344 409
#
# _framework density 18.830279000000001
#
# number of rings (size 3 to 8) (size 9 to 14) (size 15 to 20)
#    0.000    0.533    5.333    2.800    3.733    2.667 
#    0.000    0.667    0.000    0.000    0.000    0.000 
#    0.000    0.000    0.000    0.000    0.000    0.000 
#
# Total GULP energy -83520.371911 kJ/mol
# GULP energy per Si atom -5568.024794 kJ/mol
# Density = 1.878742 g / cm^3
# Si number density = 18.830279 Si / 1000 Ang^3
#
#
#
# Elastic Constant Matrix: (Units=GPa)
#
#
# Indices 1 2 3 4 5 6 
#
# 1 72.6044 27.1155 49.9832 -23.4953 -25.1261 -7.5201
# 2 27.1155 134.8034 37.7424 -10.3141 -25.9269 -8.1801
# 3 49.9832 37.7424 120.8992 -0.7844 -9.7369 4.2871
# 4 -23.4953 -10.3141 -0.7844 33.0041 -4.8555 12.5981
# 5 -25.1261 -25.9269 -9.7369 -4.8555 15.3868 4.3855
# 6 -7.5201 -8.1801 4.2871 12.5981 4.3855 37.3111
#
#
#
# Elastic Compliance Matrix: (Units=1/GPa)
#
#
# Indices 1 2 3 4 5 6 
#
# 1 -0.029096 -0.015744 0.009215 -0.043602 -0.086093 0.014467
# 2 -0.015744 0.004666 0.002993 -0.014892 -0.022116 0.005134
# 3 0.009215 0.002993 0.006337 0.014760 0.030697 -0.006807
# 4 -0.043602 -0.014892 0.014760 -0.020638 -0.094707 0.004351
# 5 -0.086093 -0.022116 0.030697 -0.094707 -0.129441 0.021464
# 6 0.014467 0.005134 -0.006807 0.004351 0.021464 0.027633
#
#
# Mechanical properties :
#
#
# Convention : Reuss Voigt Hill
#
# Bulk Modulus (GPa) = -39.73420 61.99879 11.13230
# Shear Modulus (GPa) = -35.24734 31.37148 -1.93793
#
# Velocity S-wave (km/s) = -4.33117 4.08611 -1.01557
# Velocity P-wave (km/s) = 6.79405 7.43359 2.13297
#
# Compressibility (1/GPa) = -0.02516724
#
# Stress axis : x y z
#
# Youngs Moduli (GPa) = -34.36873 214.33493 157.80366
#
# Poissons Ratio (x) = 3.37448 -1.45408
# Poissons Ratio (y) = -0.54110 -0.47225
# Poissons Ratio (z) = 0.31669 -0.64142
#
# Static dielectric constant tensor:
#      x y z
#    x 1.533590 0.214240 0.102530 
#    y 0.214240 1.359480 -0.128870 
#    z 0.102530 -0.128870 1.574930 
# 
# From -- ./inp_files/281594.got.cif
#   From: 2010.05.17/outbox.cif.g08.bks.cpg/sg2_141_cif.got.tgz:281594.got - 2010.06.03 11:33:40.
