data_PCOD9059976
_publ_section_title
;
Structure prediction by ZEFSAII (Michael W. Deem and Ramdas Pophale) SiO2 
 PCOD9059976
Probable space group: P -1
;
_chemical_formula_sum "Si O2"
_cell_formula_units_Z 12
_cell_length_a 11.324423
_cell_length_b 7.371080
_cell_length_c 8.062613
_cell_angle_alpha 115.013856
_cell_angle_beta 112.293934
_cell_angle_gamma 107.423294
_cell_volume 471.866351
_symmetry_space_group_name_H-M "P -1"
_symmetry_group_IT_number 2
_symmetry_cell_setting 'triclinic'
loop_
_space_group_symop_operation_xyz
x,y,z
-x,-y,-z
loop_
_atom_site_type_symbol
_atom_site_label
_atom_site_fract_x
_atom_site_fract_y
_atom_site_fract_z
Si Si1 0.938735 0.238273 0.295338
Si Si2 0.968212 0.701567 0.007819
Si Si3 0.674425 0.548831 0.008183
Si Si4 0.166214 0.020277 0.525851
Si Si5 0.580667 0.867240 0.920996
Si Si6 0.542025 0.007421 0.338858
O O1 0.000000 0.500000 0.500000
O O2 0.939099 0.107731 0.415787
O O3 0.020133 0.263155 0.171129
O O4 0.759949 0.075805 0.085159
O O5 0.092573 0.930650 0.271865
O O6 0.000000 0.500000 0.000000
O O7 0.806293 0.619732 0.970394
O O8 0.578192 0.651022 0.922065
O O9 0.579965 0.269919 0.882006
O O10 0.747714 0.701206 0.274180
O O11 0.292385 0.948344 0.580240
O O12 0.489639 0.799308 0.675942
O O13 0.500000 0.000000 0.000000
O O14 0.500000 0.000000 0.500000
#
# Coordination Sequence:
#
# PCOD9059976 Si02
#       6
#     2   2   2   2   2   2
#     4  11  23  42  72 104 145 195 243 304 370 439
#     4  12  24  46  74 108 150 194 252 307 372 448
#     4  11  26  46  77 109 150 199 250 306 379 444
#     4  11  24  45  71 110 146 197 248 305 375 442
#     4  11  24  46  72 105 148 191 248 302 370 442
#     4  12  25  47  76 108 151 197 251 308 372 448
#
# _framework density 25.43093
#
# number of rings (size 3 to 8) (size 9 to 14) (size 15 to 20)
#    0.000    0.667    5.000    4.000    0.000    3.333 
#    0.000    1.667    0.000    1.000    0.000    0.000 
#    0.000    0.000    0.000    0.000    0.000    0.000 
#
# Total GULP energy -67040.658177 kJ/mol
# GULP energy per Si atom -5586.721515 kJ/mol
# Density = 2.537305 g / cm^3
# Si number density = 25.430930 Si / 1000 Ang^3
#
#
#
# Elastic Constant Matrix: (Units=GPa)
#
#
# Indices 1 2 3 4 5 6 
#
# 1 135.5954 43.7198 40.9958 -12.1633 -11.2122 13.3281
# 2 43.7198 132.3961 64.1500 -8.8658 -8.4127 -3.9831
# 3 40.9958 64.1500 122.8559 -8.4532 -28.3495 1.9345
# 4 -12.1633 -8.8658 -8.4532 51.0106 2.5784 -3.1354
# 5 -11.2122 -8.4127 -28.3495 2.5784 49.2418 -5.3334
# 6 13.3281 -3.9831 1.9345 -3.1354 -5.3334 44.3850
#
#
#
# Elastic Compliance Matrix: (Units=1/GPa)
#
#
# Indices 1 2 3 4 5 6 
#
# 1 0.008975 -0.002124 -0.001670 0.001311 0.000361 -0.002677
# 2 -0.002124 0.010805 -0.005264 0.000681 -0.001519 0.001703
# 3 -0.001670 -0.005264 0.012896 0.000528 0.006143 0.000243
# 4 0.001311 0.000681 0.000528 0.020198 -0.000226 0.001044
# 5 0.000361 -0.001519 0.006143 -0.000226 0.023933 0.002348
# 6 -0.002677 0.001703 0.000243 0.001044 0.002348 0.023832
#
#
# Mechanical properties :
#
#
# Convention : Reuss Voigt Hill
#
# Bulk Modulus (GPa) = 68.68303 76.50873 72.59588
# Shear Modulus (GPa) = 40.45000 45.05959 42.75479
#
# Velocity S-wave (km/s) = 3.99254 4.21389 4.10471
# Velocity P-wave (km/s) = 6.95127 7.33663 7.14654
#
# Compressibility (1/GPa) = 0.01455964
#
# Stress axis : x y z
#
# Youngs Moduli (GPa) = 111.41574 92.54698 77.54620
#
# Poissons Ratio (x) = 0.19661 0.12951
# Poissons Ratio (y) = 0.23670 0.40818
# Poissons Ratio (z) = 0.18608 0.48714
#
# Static dielectric constant tensor:
#      x y z
#    x 2.065310 0.050690 -0.137280 
#    y 0.050690 1.913950 0.001150 
#    z -0.137280 0.001150 2.011370 
# 
# From -- ./inp_files/245616.got.cif
#   From: 2010.05.17/outbox.cif.g08.bks.cpg/sg2_123_cif.got.tgz:245616.got - 2010.06.03 11:33:40.
