data_PCOD9059513
_publ_section_title
;
Structure prediction by ZEFSAII (Michael W. Deem and Ramdas Pophale) SiO2 
 PCOD9059513
Probable space group: P -1
;
_chemical_formula_sum "Si O2"
_cell_formula_units_Z 16
_cell_length_a 8.796261
_cell_length_b 19.277615
_cell_length_c 21.149784
_cell_angle_alpha 20.877878
_cell_angle_beta 32.166648
_cell_angle_gamma 43.902198
_cell_volume 631.868530
_symmetry_space_group_name_H-M "P -1"
_symmetry_group_IT_number 2
_symmetry_cell_setting 'triclinic'
loop_
_space_group_symop_operation_xyz
x,y,z
-x,-y,-z
loop_
_atom_site_type_symbol
_atom_site_label
_atom_site_fract_x
_atom_site_fract_y
_atom_site_fract_z
Si Si1 0.287594 0.287826 0.490515
Si Si2 0.219610 0.613988 0.463776
Si Si3 0.797582 0.632675 0.200072
Si Si4 0.733407 0.985901 0.743387
Si Si5 0.808841 0.650841 0.795020
Si Si6 0.510098 0.085971 0.250358
Si Si7 0.065634 0.802980 0.172844
Si Si8 0.868549 0.621355 0.038042
O O1 0.560040 0.511781 0.200441
O O2 0.021897 0.272675 0.548036
O O3 0.116118 0.254996 0.647161
O O4 0.469720 0.133286 0.550620
O O5 0.554534 0.740228 0.210007
O O6 0.284771 0.555538 0.560871
O O7 0.067114 0.402586 0.652208
O O8 0.772158 0.587565 0.174084
O O9 0.148450 0.760554 0.983796
O O10 0.559301 0.920831 0.793065
O O11 0.437834 0.896198 0.970238
O O12 0.962195 0.864607 0.782345
O O13 0.938181 0.227680 0.450303
O O14 0.729841 0.833706 0.700423
O O15 0.909672 0.509346 0.929914
O O16 0.500000 0.500000 0.000000
O O17 0.000000 0.000000 0.000000
#
# Coordination Sequence:
#
# PCOD9059513 Si02
#       8
#     2   2   2   2   2   2   2   2
#     4  12  23  44  73 111 147 193 240 295 358 440
#     4  11  23  41  70 106 148 198 234 284 370 435
#     4  11  23  44  66 104 151 187 238 295 358 424
#     4  12  26  46  76 112 137 194 251 289 365 437
#     4  12  28  53  75 100 147 189 243 317 362 420
#     4  12  25  48  70 105 146 185 249 300 353 432
#     4  12  20  38  71 105 147 184 238 291 347 433
#     4  12  24  47  77 105 144 194 240 302 364 429
#
# _framework density 25.321722999999999
#
# number of rings (size 3 to 8) (size 9 to 14) (size 15 to 20)
#    0.000    0.250    7.500    1.500    0.000    1.500 
#    4.500    0.000    0.000    0.000    0.000    0.000 
#    0.000    0.000    0.000    0.000    0.000    0.000 
#
# Total GULP energy -89496.017422 kJ/mol
# GULP energy per Si atom -5593.501089 kJ/mol
# Density = 2.526409 g / cm^3
# Si number density = 25.321723 Si / 1000 Ang^3
#
#
#
# Elastic Constant Matrix: (Units=GPa)
#
#
# Indices 1 2 3 4 5 6 
#
# 1 78.7550 39.3232 -0.6655 3.9594 8.8353 -37.8067
# 2 39.3232 64.5487 19.8621 -40.9830 -18.6543 -31.0507
# 3 -0.6655 19.8621 73.1271 10.8447 -1.4016 -14.6807
# 4 3.9594 -40.9830 10.8447 18.4745 -31.5856 7.3515
# 5 8.8353 -18.6543 -1.4016 -31.5856 28.0732 -6.5729
# 6 -37.8067 -31.0507 -14.6807 7.3515 -6.5729 53.7349
#
#
#
# Elastic Compliance Matrix: (Units=1/GPa)
#
#
# Indices 1 2 3 4 5 6 
#
# 1 0.016986 0.002112 0.001398 0.006893 0.007036 0.013471
# 2 0.002112 0.004344 0.001551 -0.013227 -0.011452 0.004828
# 3 0.001398 0.001551 0.014137 0.003170 0.006285 0.006077
# 4 0.006893 -0.013227 0.003170 -0.003223 -0.015210 -0.003347
# 5 0.007036 -0.011452 0.006285 -0.015210 0.009777 0.003327
# 6 0.013471 0.004828 0.006077 -0.003347 0.003327 0.033403
#
#
# Mechanical properties :
#
#
# Convention : Reuss Voigt Hill
#
# Bulk Modulus (GPa) = 21.93596 37.05230 29.49413
# Shear Modulus (GPa) = 62.11340 30.58390 46.34865
#
# Velocity S-wave (km/s) = 4.95812 3.47913 4.28295
# Velocity P-wave (km/s) = 6.43886 5.55009 6.01093
#
# Compressibility (1/GPa) = 0.04558724
#
# Stress axis : x y z
#
# Youngs Moduli (GPa) = 58.87263 230.20720 70.73756
#
# Poissons Ratio (x) = -0.48612 -0.09889
# Poissons Ratio (y) = -0.12432 -0.10969
# Poissons Ratio (z) = -0.08231 -0.35698
#
# Static dielectric constant tensor:
#      x y z
#    x 1.930020 0.019760 -0.014770 
#    y 0.019760 2.112520 -0.023320 
#    z -0.014770 -0.023320 2.047630 
# 
# From -- ./inp_files/456990.got.cif
#   From: 2010.05.17/outbox.cif.g08.bks.cpg/sg2_229_cif.got.tgz:456990.got - 2010.06.03 11:33:40.
