data_PCOD9059506
_publ_section_title
;
Structure prediction by ZEFSAII (Michael W. Deem and Ramdas Pophale) SiO2 
 PCOD9059506
Probable space group: P -1
;
_chemical_formula_sum "Si O2"
_cell_formula_units_Z 16
_cell_length_a 9.123070
_cell_length_b 15.112716
_cell_length_c 9.883507
_cell_angle_alpha 121.034849
_cell_angle_beta 121.101726
_cell_angle_gamma 37.045977
_cell_volume 688.715549
_symmetry_space_group_name_H-M "P -1"
_symmetry_group_IT_number 2
_symmetry_cell_setting 'triclinic'
loop_
_space_group_symop_operation_xyz
x,y,z
-x,-y,-z
loop_
_atom_site_type_symbol
_atom_site_label
_atom_site_fract_x
_atom_site_fract_y
_atom_site_fract_z
Si Si1 0.593066 0.348333 0.985141
Si Si2 0.763473 0.546084 0.850304
Si Si3 0.935385 0.259831 0.555244
Si Si4 0.868004 0.817527 0.909598
Si Si5 0.298159 0.069678 0.809204
Si Si6 0.399448 0.797767 0.656614
Si Si7 0.396725 0.327959 0.622879
Si Si8 0.976206 0.365324 0.406564
O O1 0.536208 0.290661 0.795770
O O2 0.500000 0.500000 0.000000
O O3 0.437086 0.390555 0.077372
O O4 0.890233 0.221831 0.042886
O O5 0.825337 0.411009 0.695049
O O6 0.624590 0.675257 0.770619
O O7 0.000000 0.500000 0.000000
O O8 0.767419 0.231558 0.452351
O O9 0.181229 0.130862 0.655992
O O10 0.985601 0.263975 0.426937
O O11 0.912892 0.701744 0.741173
O O12 0.586155 0.976514 0.872607
O O13 0.861928 0.798154 0.051525
O O14 0.278958 0.959730 0.766367
O O15 0.462398 0.789922 0.522334
O O16 0.142839 0.377947 0.569694
O O17 0.302441 0.474783 0.622861
#
# Coordination Sequence:
#
# PCOD9059506 Si02
#       8
#     2   2   2   2   2   2   2   2
#     4  12  24  41  72 106 141 185 239 297 355 421
#     4  12  28  45  75 113 148 185 239 305 363 426
#     4  12  26  46  74 107 143 189 247 293 363 429
#     4  11  24  46  71  98 143 190 244 285 361 429
#     4  11  27  47  75 101 147 202 236 293 364 438
#     4  12  25  48  72 107 143 191 243 298 359 429
#     4  11  23  41  70 104 144 178 232 299 369 409
#     4  11  23  43  70 105 137 185 233 304 350 427
#
# _framework density 23.231653000000001
#
# number of rings (size 3 to 8) (size 9 to 14) (size 15 to 20)
#    0.000    0.500    3.750    4.500    7.000    0.500 
#    0.000    2.500    0.000    0.000    0.000    0.000 
#    0.000    0.000    0.000    0.000    0.000    0.000 
#
# Total GULP energy -89425.598478 kJ/mol
# GULP energy per Si atom -5589.099905 kJ/mol
# Density = 2.317878 g / cm^3
# Si number density = 23.231653 Si / 1000 Ang^3
#
#
#
# Elastic Constant Matrix: (Units=GPa)
#
#
# Indices 1 2 3 4 5 6 
#
# 1 112.8204 22.8025 38.3640 -1.1368 4.3987 -25.1154
# 2 22.8025 59.0211 21.8916 -0.5500 -4.2743 -3.2118
# 3 38.3640 21.8916 130.1303 2.2018 11.6942 -14.5008
# 4 -1.1368 -0.5500 2.2018 33.7397 -3.5545 4.4884
# 5 4.3987 -4.2743 11.6942 -3.5545 43.6117 -1.9906
# 6 -25.1154 -3.2118 -14.5008 4.4884 -1.9906 30.7064
#
#
#
# Elastic Compliance Matrix: (Units=1/GPa)
#
#
# Indices 1 2 3 4 5 6 
#
# 1 0.012222 -0.003583 -0.001945 -0.000762 -0.000724 0.008767
# 2 -0.003583 0.019452 -0.002739 0.000974 0.002984 -0.002138
# 3 -0.001945 -0.002739 0.009251 -0.001317 -0.002545 0.002518
# 4 -0.000762 0.000974 -0.001317 0.030734 0.002781 -0.005456
# 5 -0.000724 0.002984 -0.002545 0.002781 0.024190 -0.000320
# 6 0.008767 -0.002138 0.002518 -0.005456 -0.000320 0.041480
#
#
# Mechanical properties :
#
#
# Convention : Reuss Voigt Hill
#
# Bulk Modulus (GPa) = 41.00057 52.00977 46.50517
# Shear Modulus (GPa) = 30.86585 36.20579 33.53582
#
# Velocity S-wave (km/s) = 3.64897 3.95203 3.80352
# Velocity P-wave (km/s) = 5.95317 6.57729 6.27299
#
# Compressibility (1/GPa) = 0.02438991
#
# Stress axis : x y z
#
# Youngs Moduli (GPa) = 81.82271 51.40858 108.10159
#
# Poissons Ratio (x) = 0.18418 0.21030
# Poissons Ratio (y) = 0.29314 0.29610
# Poissons Ratio (z) = 0.15918 0.14081
#
# Static dielectric constant tensor:
#      x y z
#    x 1.973640 -0.020990 0.033760 
#    y -0.020990 1.886370 0.022330 
#    z 0.033760 0.022330 1.863880 
# 
# From -- ./inp_files/208464.got.cif
#   From: 2010.05.17/outbox.cif.g08.bks.cpg/sg2_105_cif.got.tgz:208464.got - 2010.06.03 11:33:40.
