data_PCOD9059142
_publ_section_title
;
Structure prediction by ZEFSAII (Michael W. Deem and Ramdas Pophale) SiO2 
 PCOD9059142
Probable space group: P -1
;
_chemical_formula_sum "Si O2"
_cell_formula_units_Z 16
_cell_length_a 6.176680
_cell_length_b 10.416360
_cell_length_c 28.593922
_cell_angle_alpha 30.362111
_cell_angle_beta 124.864860
_cell_angle_gamma 106.582601
_cell_volume 660.255004
_symmetry_space_group_name_H-M "P -1"
_symmetry_group_IT_number 2
_symmetry_cell_setting 'triclinic'
loop_
_space_group_symop_operation_xyz
x,y,z
-x,-y,-z
loop_
_atom_site_type_symbol
_atom_site_label
_atom_site_fract_x
_atom_site_fract_y
_atom_site_fract_z
Si Si1 0.155773 0.208158 0.178034
Si Si2 0.718018 0.357120 0.304860
Si Si3 0.163357 0.279053 0.252604
Si Si4 0.118915 0.118976 0.097460
Si Si5 0.179278 0.227846 0.869920
Si Si6 0.707320 0.573487 0.336684
Si Si7 0.676716 0.108192 0.521171
Si Si8 0.729700 0.613335 0.472264
O O1 0.994873 0.254202 0.194214
O O2 0.067618 0.115864 0.147900
O O3 0.491480 0.943316 0.319218
O O4 0.069359 0.543585 0.048988
O O5 0.410915 0.378901 0.241065
O O6 0.776904 0.620264 0.217230
O O7 0.707787 0.387878 0.349683
O O8 0.983154 0.074195 0.400774
O O9 0.950966 0.523177 0.185688
O O10 0.320751 0.989526 0.394896
O O11 0.486802 0.924409 0.196260
O O12 0.011397 0.927583 0.115467
O O13 0.500000 0.000000 0.000000
O O14 0.559486 0.449579 0.395285
O O15 0.044589 0.465672 0.430240
O O16 0.500000 0.000000 0.500000
O O17 0.500000 0.500000 0.500000
O O18 0.000000 0.500000 0.500000
#
# Coordination Sequence:
#
# PCOD9059142 Si02
#       8
#     2   2   2   2   2   2   2   2
#     4  11  27  49  79 111 158 210 265 334 412 485
#     4  11  23  41  70 108 145 200 254 333 396 473
#     4  11  24  45  72 110 153 200 261 331 402 479
#     4  11  25  52  75 110 159 205 273 327 408 502
#     4  11  25  44  74 109 154 204 266 327 406 491
#     4  12  24  45  79 109 156 210 269 330 411 487
#     4  11  23  40  68 112 151 191 263 332 404 471
#     4  12  30  54  82 118 165 217 278 340 413 496
#
# _framework density 24.233060999999999
#
# number of rings (size 3 to 8) (size 9 to 14) (size 15 to 20)
#    0.000    0.750    3.750    2.625    7.000    2.000 
#    0.000    1.250    0.000    0.000    0.000    0.000 
#    0.000    0.000    0.000    0.000    0.000    0.000 
#
# Total GULP energy -89187.970593 kJ/mol
# GULP energy per Si atom -5574.248162 kJ/mol
# Density = 2.417791 g / cm^3
# Si number density = 24.233061 Si / 1000 Ang^3
#
#
#
# Elastic Constant Matrix: (Units=GPa)
#
#
# Indices 1 2 3 4 5 6 
#
# 1 71.4325 19.3378 32.3866 -4.5996 3.7179 0.5991
# 2 19.3378 103.9419 37.3597 13.2077 -0.2685 -26.6095
# 3 32.3866 37.3597 163.9638 -6.6361 1.2621 5.2682
# 4 -4.5996 13.2077 -6.6361 41.9320 1.3865 -5.6418
# 5 3.7179 -0.2685 1.2621 1.3865 18.6236 14.5679
# 6 0.5991 -26.6095 5.2682 -5.6418 14.5679 30.9012
#
#
#
# Elastic Compliance Matrix: (Units=1/GPa)
#
#
# Indices 1 2 3 4 5 6 
#
# 1 0.016099 -0.002376 -0.002524 0.002224 -0.003251 0.000010
# 2 -0.002376 0.018209 -0.004440 -0.002832 -0.017807 0.024361
# 3 -0.002524 -0.004440 0.007856 0.001146 0.005796 -0.007637
# 4 0.002224 -0.002832 0.001146 0.026078 -0.006549 0.005171
# 5 -0.003251 -0.017807 0.005796 -0.006549 0.107466 -0.068118
# 6 0.000010 0.024361 -0.007637 0.005171 -0.068118 0.087698
#
#
# Mechanical properties :
#
#
# Convention : Reuss Voigt Hill
#
# Bulk Modulus (GPa) = 42.58162 57.50070 50.04116
# Shear Modulus (GPa) = 17.24650 34.97497 26.11074
#
# Velocity S-wave (km/s) = 2.67065 3.80317 3.28607
# Velocity P-wave (km/s) = 5.20766 6.56240 5.92389
#
# Compressibility (1/GPa) = 0.02348431
#
# Stress axis : x y z
#
# Youngs Moduli (GPa) = 62.11526 54.91780 127.28819
#
# Poissons Ratio (x) = 0.13050 0.32125
# Poissons Ratio (y) = 0.14761 0.56514
# Poissons Ratio (z) = 0.15677 0.24383
#
# Static dielectric constant tensor:
#      x y z
#    x 1.943590 -0.050860 0.004890 
#    y -0.050860 1.936190 0.022100 
#    z 0.004890 0.022100 1.963560 
# 
# From -- ./inp_files/621849.got.cif
#   From: 2010.05.17/outbox.cif.g08.bks.cpg/sg2_311_cif.got.tgz:621849.got - 2010.06.03 11:33:40.
