data_PCOD9059510
_publ_section_title
;
Structure prediction by ZEFSAII (Michael W. Deem and Ramdas Pophale) SiO2 
 PCOD9059510
Probable space group: P -1
;
_chemical_formula_sum "Si O2"
_cell_formula_units_Z 14
_cell_length_a 17.176471
_cell_length_b 5.440323
_cell_length_c 13.666285
_cell_angle_alpha 121.287932
_cell_angle_beta 34.109072
_cell_angle_gamma 118.899445
_cell_volume 608.191235
_symmetry_space_group_name_H-M "P -1"
_symmetry_group_IT_number 2
_symmetry_cell_setting 'triclinic'
loop_
_space_group_symop_operation_xyz
x,y,z
-x,-y,-z
loop_
_atom_site_type_symbol
_atom_site_label
_atom_site_fract_x
_atom_site_fract_y
_atom_site_fract_z
Si Si1 0.008663 0.930278 0.149669
Si Si2 0.164113 0.766141 0.459605
Si Si3 0.386224 0.797834 0.513611
Si Si4 0.047679 0.695972 0.360449
Si Si5 0.165674 0.181891 0.863673
Si Si6 0.428738 0.114363 0.325796
Si Si7 0.256815 0.737370 0.971318
O O1 0.899259 0.732345 0.154507
O O2 0.158962 0.871080 0.021246
O O3 0.928015 0.999505 0.346875
O O4 0.051236 0.160993 0.065278
O O5 0.127673 0.626825 0.362986
O O6 0.098093 0.506473 0.545723
O O7 0.319194 0.924414 0.331093
O O8 0.399254 0.453518 0.431077
O O9 0.500000 0.000000 0.500000
O O10 0.235923 0.886833 0.721555
O O11 0.402542 0.941408 0.418908
O O12 0.160445 0.700330 0.159392
O O13 0.000000 0.000000 0.500000
O O14 0.279914 0.432764 0.834417
O O15 0.591630 0.105779 0.130677
#
# Coordination Sequence:
#
# PCOD9059510 Si02
#       7
#     2   2   2   2   2   2   2
#     4  11  23  41  70 106 142 192 245 301 359 450
#     4  11  25  48  73 106 142 193 253 306 376 436
#     4  12  25  46  69 110 158 203 237 294 375 453
#     4  11  25  47  77 100 140 195 251 314 366 441
#     4  11  24  40  70 105 148 193 245 293 364 441
#     4  12  29  45  77 110 154 194 247 308 377 442
#     4  12  25  45  74 108 147 192 247 308 372 438
#
# _framework density 23.019075000000001
#
# number of rings (size 3 to 8) (size 9 to 14) (size 15 to 20)
#    0.000    0.571    5.714    1.714    4.000    2.857 
#    0.000    0.714    0.000    0.000    0.000    0.000 
#    0.000    0.000    0.000    0.000    0.000    0.000 
#
# Total GULP energy -77997.756272 kJ/mol
# GULP energy per Si atom -5571.268305 kJ/mol
# Density = 2.296668 g / cm^3
# Si number density = 23.019075 Si / 1000 Ang^3
#
#
#
# Elastic Constant Matrix: (Units=GPa)
#
#
# Indices 1 2 3 4 5 6 
#
# 1 90.1504 44.3933 45.5578 -3.6304 -5.6957 5.2964
# 2 44.3933 107.0044 42.3405 -20.2295 -13.2702 18.4984
# 3 45.5578 42.3405 122.1334 -11.7632 -14.5199 6.8243
# 4 -3.6304 -20.2295 -11.7632 26.6134 7.3668 -7.7444
# 5 -5.6957 -13.2702 -14.5199 7.3668 44.4438 -16.2838
# 6 5.2964 18.4984 6.8243 -7.7444 -16.2838 38.1607
#
#
#
# Elastic Compliance Matrix: (Units=1/GPa)
#
#
# Indices 1 2 3 4 5 6 
#
# 1 0.015929 -0.005719 -0.004395 -0.003910 -0.000298 0.000427
# 2 -0.005719 0.014824 -0.001950 0.008346 0.000094 -0.004310
# 3 -0.004395 -0.001950 0.010964 0.002415 0.002450 0.001130
# 4 -0.003910 0.008346 0.002415 0.046588 -0.003461 0.004043
# 5 -0.000298 0.000094 0.002450 -0.003461 0.027790 0.010714
# 6 0.000427 -0.004310 0.001130 0.004043 0.010714 0.033425
#
#
# Mechanical properties :
#
#
# Convention : Reuss Voigt Hill
#
# Bulk Modulus (GPa) = 56.85515 64.87462 60.86488
# Shear Modulus (GPa) = 27.85360 34.31002 31.08181
#
# Velocity S-wave (km/s) = 3.48231 3.86489 3.67858
# Velocity P-wave (km/s) = 6.39699 6.93979 6.67391
#
# Compressibility (1/GPa) = 0.01758856
#
# Stress axis : x y z
#
# Youngs Moduli (GPa) = 62.78046 67.45651 91.20906
#
# Poissons Ratio (x) = 0.38581 0.40084
# Poissons Ratio (y) = 0.35907 0.17786
# Poissons Ratio (z) = 0.27590 0.13154
#
# Static dielectric constant tensor:
#      x y z
#    x 2.038670 -0.000590 -0.052010 
#    y -0.000590 2.019600 -0.005050 
#    z -0.052010 -0.005050 1.974300 
# 
# From -- ./inp_files/536204.got.cif
#   From: 2010.05.17/outbox.cif.g08.bks.cpg/sg2_269_cif.got.tgz:536204.got - 2010.06.03 11:33:40.
