data_PCOD9059914
_publ_section_title
;
Structure prediction by ZEFSAII (Michael W. Deem and Ramdas Pophale) SiO2 
 PCOD9059914
Probable space group: P -1
;
_chemical_formula_sum "Si O2"
_cell_formula_units_Z 12
_cell_length_a 12.832575
_cell_length_b 16.593020
_cell_length_c 18.125709
_cell_angle_alpha 153.412954
_cell_angle_beta 20.452586
_cell_angle_gamma 151.617060
_cell_volume 581.520556
_symmetry_space_group_name_H-M "P -1"
_symmetry_group_IT_number 2
_symmetry_cell_setting 'triclinic'
loop_
_space_group_symop_operation_xyz
x,y,z
-x,-y,-z
loop_
_atom_site_type_symbol
_atom_site_label
_atom_site_fract_x
_atom_site_fract_y
_atom_site_fract_z
Si Si1 0.297326 0.434922 0.772497
Si Si2 0.773183 0.875669 0.989658
Si Si3 0.093971 0.358433 0.551694
Si Si4 0.159477 0.999678 0.473178
Si Si5 0.378706 0.491143 0.936745
Si Si6 0.261090 0.800190 0.490770
O O1 0.574278 0.534313 0.614437
O O2 0.215271 0.208476 0.639926
O O3 0.376873 0.502439 0.858780
O O4 0.000000 0.500000 0.000000
O O5 0.593154 0.679897 0.984160
O O6 0.978370 0.819942 0.744683
O O7 0.500879 0.963190 0.213884
O O8 0.000000 0.000000 0.000000
O O9 0.880171 0.273354 0.554189
O O10 0.052487 0.176306 0.483387
O O11 0.956104 0.509990 0.810225
O O12 0.000000 0.000000 0.500000
O O13 0.541328 0.333699 0.720007
O O14 0.500000 0.000000 0.500000
#
# Coordination Sequence:
#
# PCOD9059914 Si02
#       6
#     2   2   2   2   2   2
#     4  12  26  47  75 102 141 192 238 294 359 423
#     4  11  23  42  71 102 142 185 232 295 355 415
#     4  11  26  46  72 105 141 185 241 292 353 432
#     4  11  27  49  72 103 146 189 240 298 361 425
#     4  11  24  45  69 103 144 182 234 296 356 419
#     4  12  24  41  70 106 142 186 236 291 364 425
#
# _framework density 20.635556999999999
#
# number of rings (size 3 to 8) (size 9 to 14) (size 15 to 20)
#    0.000    0.667    1.667    7.000    4.667    3.333 
#    0.000    0.000    0.000    0.000    0.000    0.000 
#    0.000    0.000    0.000    0.000    0.000    0.000 
#
# Total GULP energy -67054.028905 kJ/mol
# GULP energy per Si atom -5587.835742 kJ/mol
# Density = 2.058859 g / cm^3
# Si number density = 20.635557 Si / 1000 Ang^3
#
#
#
# Elastic Constant Matrix: (Units=GPa)
#
#
# Indices 1 2 3 4 5 6 
#
# 1 128.5362 44.0750 60.1025 1.1736 -5.4073 -8.0689
# 2 44.0750 63.8896 78.0739 11.4718 -16.6053 5.4968
# 3 60.1025 78.0739 186.7096 8.3935 2.2205 -15.3571
# 4 1.1736 11.4718 8.3935 42.4940 -8.0317 2.2280
# 5 -5.4073 -16.6053 2.2205 -8.0317 44.8636 2.1107
# 6 -8.0689 5.4968 -15.3571 2.2280 2.1107 35.6544
#
#
#
# Elastic Compliance Matrix: (Units=1/GPa)
#
#
# Indices 1 2 3 4 5 6 
#
# 1 0.010924 -0.010088 0.001034 0.001525 -0.002408 0.004520
# 2 -0.010088 0.061172 -0.024235 -0.005956 0.022647 -0.023121
# 3 0.001034 -0.024235 0.016185 0.000817 -0.010041 0.011485
# 4 0.001525 -0.005956 0.000817 0.025415 0.002495 -0.000120
# 5 -0.002408 0.022647 -0.010041 0.002495 0.031815 -0.010400
# 6 0.004520 -0.023121 0.011485 -0.000120 -0.010400 0.038204
#
#
# Mechanical properties :
#
#
# Convention : Reuss Voigt Hill
#
# Bulk Modulus (GPa) = 46.07989 82.62648 64.35318
# Shear Modulus (GPa) = 19.41535 37.72799 28.57167
#
# Velocity S-wave (km/s) = 3.07069 4.28050 3.72504
# Velocity P-wave (km/s) = 5.91193 8.03480 7.05369
#
# Compressibility (1/GPa) = 0.02170144
#
# Stress axis : x y z
#
# Youngs Moduli (GPa) = 91.53947 16.34735 61.78661
#
# Poissons Ratio (x) = 0.16491 -0.06386
# Poissons Ratio (y) = 0.92344 1.49743
# Poissons Ratio (z) = -0.09461 0.39619
#
# Static dielectric constant tensor:
#      x y z
#    x 1.708830 -0.027760 0.035080 
#    y -0.027760 1.724020 0.054230 
#    z 0.035080 0.054230 1.531750 
# 
# From -- ./inp_files/166914.got.cif
#   From: 2010.05.17/outbox.cif.g08.bks.cpg/sg2_84_cif.got.tgz:166914.got - 2010.06.03 11:33:40.
