data_PCOD9059538
_publ_section_title
;
Structure prediction by ZEFSAII (Michael W. Deem and Ramdas Pophale) SiO2 
 PCOD9059538
Probable space group: P -1
;
_chemical_formula_sum "Si O2"
_cell_formula_units_Z 16
_cell_length_a 11.729303
_cell_length_b 9.301692
_cell_length_c 8.881586
_cell_angle_alpha 105.976163
_cell_angle_beta 54.402206
_cell_angle_gamma 118.746088
_cell_volume 690.799610
_symmetry_space_group_name_H-M "P -1"
_symmetry_group_IT_number 2
_symmetry_cell_setting 'triclinic'
loop_
_space_group_symop_operation_xyz
x,y,z
-x,-y,-z
loop_
_atom_site_type_symbol
_atom_site_label
_atom_site_fract_x
_atom_site_fract_y
_atom_site_fract_z
Si Si1 0.915401 0.141118 0.137670
Si Si2 0.867921 0.338578 0.479442
Si Si3 0.048742 0.689342 0.144479
Si Si4 0.295985 0.542241 0.865836
Si Si5 0.239936 0.195753 0.962029
Si Si6 0.601053 0.733521 0.812720
Si Si7 0.712750 0.492895 0.483221
Si Si8 0.144681 0.948234 0.381426
O O1 0.885005 0.283923 0.282236
O O2 0.772628 0.965308 0.169964
O O3 0.983921 0.226698 0.952249
O O4 0.056276 0.129479 0.117469
O O5 0.716644 0.370357 0.577482
O O6 0.864982 0.182009 0.523091
O O7 0.000000 0.500000 0.500000
O O8 0.155180 0.850244 0.198476
O O9 0.893233 0.605307 0.337285
O O10 0.142359 0.577765 0.008748
O O11 0.282820 0.365402 0.886034
O O12 0.420395 0.675290 0.916326
O O13 0.346957 0.566311 0.657007
O O14 0.334290 0.236134 0.057170
O O15 0.635868 0.595818 0.657141
O O16 0.699632 0.892775 0.686629
O O17 0.000000 0.000000 0.500000
#
# Coordination Sequence:
#
# PCOD9059538 Si02
#       8
#     2   2   2   2   2   2   2   2
#     4  11  23  41  71 105 135 178 237 297 342 406
#     4  12  24  40  68 107 139 173 229 297 348 406
#     4  12  23  44  73 100 137 181 237 296 343 408
#     4  12  27  46  69 103 144 190 232 288 354 420
#     4  11  24  42  71 101 139 182 236 288 348 419
#     4  12  27  47  69 101 148 189 230 286 361 418
#     4  12  24  45  70 104 137 185 241 287 345 415
#     4  12  25  44  72 105 137 182 235 290 352 415
#
# _framework density 23.161565
#
# number of rings (size 3 to 8) (size 9 to 14) (size 15 to 20)
#    0.000    0.250    6.250    3.375    5.250    0.500 
#    0.000    0.625    0.000    0.000    0.000    0.000 
#    0.000    0.000    0.000    0.000    0.000    0.000 
#
# Total GULP energy -89233.917506 kJ/mol
# GULP energy per Si atom -5577.119844 kJ/mol
# Density = 2.310885 g / cm^3
# Si number density = 23.161565 Si / 1000 Ang^3
#
#
#
# Elastic Constant Matrix: (Units=GPa)
#
#
# Indices 1 2 3 4 5 6 
#
# 1 134.8451 54.2368 25.9773 -14.2744 25.6077 9.8407
# 2 54.2368 126.9198 16.0649 -7.9290 4.9278 -10.5429
# 3 25.9773 16.0649 36.2534 5.3104 10.7905 0.3016
# 4 -14.2744 -7.9290 5.3104 39.0741 -2.7501 8.9683
# 5 25.6077 4.9278 10.7905 -2.7501 31.9837 1.9502
# 6 9.8407 -10.5429 0.3016 8.9683 1.9502 44.0499
#
#
#
# Elastic Compliance Matrix: (Units=1/GPa)
#
#
# Indices 1 2 3 4 5 6 
#
# 1 0.012378 -0.004380 -0.005644 0.004964 -0.006630 -0.004492
# 2 -0.004380 0.010216 -0.002183 0.000189 0.002485 0.003290
# 3 -0.005644 -0.002183 0.036305 -0.008622 -0.008294 0.002613
# 4 0.004964 0.000189 -0.008622 0.030427 0.001966 -0.007286
# 5 -0.006630 0.002485 -0.008294 0.001966 0.039159 -0.000001
# 6 -0.004492 0.003290 0.002613 -0.007286 -0.000001 0.025958
#
#
# Mechanical properties :
#
#
# Convention : Reuss Voigt Hill
#
# Bulk Modulus (GPa) = 28.99978 54.50848 41.75413
# Shear Modulus (GPa) = 26.26705 36.47083 31.36894
#
# Velocity S-wave (km/s) = 3.37126 3.97246 3.68415
# Velocity P-wave (km/s) = 5.26324 6.68025 6.01363
#
# Compressibility (1/GPa) = 0.03448302
#
# Stress axis : x y z
#
# Youngs Moduli (GPa) = 80.79083 97.88721 27.54420
#
# Poissons Ratio (x) = 0.42879 0.15547
# Poissons Ratio (y) = 0.35390 0.06013
# Poissons Ratio (z) = 0.45602 0.21368
#
# Static dielectric constant tensor:
#      x y z
#    x 1.980370 -0.035270 0.074390 
#    y -0.035270 1.982360 0.025590 
#    z 0.074390 0.025590 1.987040 
# 
# From -- ./inp_files/244433.got.cif
#   From: 2010.05.17/outbox.cif.g08.bks.cpg/sg2_123_cif.got.tgz:244433.got - 2010.06.03 11:33:40.
