data_PCOD9059271
_publ_section_title
;
Structure prediction by ZEFSAII (Michael W. Deem and Ramdas Pophale) SiO2 
 PCOD9059271
Probable space group: P -1
;
_chemical_formula_sum "Si O2"
_cell_formula_units_Z 16
_cell_length_a 8.763642
_cell_length_b 10.607402
_cell_length_c 14.024001
_cell_angle_alpha 50.334752
_cell_angle_beta 70.826617
_cell_angle_gamma 108.396475
_cell_volume 655.460568
_symmetry_space_group_name_H-M "P -1"
_symmetry_group_IT_number 2
_symmetry_cell_setting 'triclinic'
loop_
_space_group_symop_operation_xyz
x,y,z
-x,-y,-z
loop_
_atom_site_type_symbol
_atom_site_label
_atom_site_fract_x
_atom_site_fract_y
_atom_site_fract_z
Si Si1 0.366073 0.900848 0.974234
Si Si2 0.819549 0.574543 0.487211
Si Si3 0.638673 0.296782 0.113481
Si Si4 0.047507 0.015236 0.139385
Si Si5 0.654609 0.732134 0.210715
Si Si6 0.876728 0.171376 0.234785
Si Si7 0.214962 0.030085 0.450691
Si Si8 0.953004 0.431581 0.381663
O O1 0.453213 0.849583 0.895556
O O2 0.360151 0.084271 0.856025
O O3 0.104995 0.646080 0.172957
O O4 0.500000 0.000000 0.000000
O O5 0.040222 0.853038 0.287383
O O6 0.873050 0.505793 0.601706
O O7 0.783924 0.428404 0.475607
O O8 0.593290 0.516293 0.585634
O O9 0.728684 0.212870 0.202401
O O10 0.441443 0.247667 0.237928
O O11 0.868717 0.572053 0.910351
O O12 0.866551 0.825351 0.185873
O O13 0.940907 0.089335 0.179836
O O14 0.281045 0.234248 0.929854
O O15 0.751752 0.986972 0.436530
O O16 0.152935 0.806797 0.527270
O O17 0.000000 0.000000 0.500000
#
# Coordination Sequence:
#
# PCOD9059271 Si02
#       8
#     2   2   2   2   2   2   2   2
#     4  12  22  44  75 100 135 181 229 290 347 412
#     4  11  23  42  65  98 139 176 217 286 343 403
#     4  11  26  49  73 100 140 191 235 291 349 416
#     4  11  24  40  66  98 137 176 225 278 340 407
#     4  11  23  41  63 102 135 174 221 280 342 406
#     4  11  25  47  72 102 142 189 238 282 346 430
#     4  12  27  47  70 102 141 186 238 291 346 419
#     4  11  24  41  68 101 133 174 232 278 343 412
#
# _framework density 24.410316000000002
#
# number of rings (size 3 to 8) (size 9 to 14) (size 15 to 20)
#    0.000    0.750    5.000    2.250    1.750    3.500 
#    0.000    0.000    0.000    0.000    0.000    0.000 
#    0.000    0.000    0.000    0.000    0.000    0.000 
#
# Total GULP energy -89547.334441 kJ/mol
# GULP energy per Si atom -5596.708403 kJ/mol
# Density = 2.435476 g / cm^3
# Si number density = 24.410316 Si / 1000 Ang^3
#
#
#
# Elastic Constant Matrix: (Units=GPa)
#
#
# Indices 1 2 3 4 5 6 
#
# 1 64.7669 14.2943 19.7320 7.0572 -7.6181 -5.7345
# 2 14.2943 95.2841 27.2987 19.3276 -12.1185 -7.0248
# 3 19.7320 27.2987 107.8275 30.5440 -20.1174 3.1185
# 4 7.0572 19.3276 30.5440 43.6035 -10.8110 -1.7993
# 5 -7.6181 -12.1185 -20.1174 -10.8110 37.6970 6.6332
# 6 -5.7345 -7.0248 3.1185 -1.7993 6.6332 27.9909
#
#
#
# Elastic Compliance Matrix: (Units=1/GPa)
#
#
# Indices 1 2 3 4 5 6 
#
# 1 0.016961 -0.001443 -0.002686 0.000159 0.001016 0.003181
# 2 -0.001443 0.012262 -0.001638 -0.003630 0.001309 0.002420
# 3 -0.002686 -0.001638 0.013163 -0.007077 0.004626 -0.003979
# 4 0.000159 -0.003630 -0.007077 0.030417 0.003635 0.001004
# 5 0.001016 0.001309 0.004626 0.003635 0.031952 -0.007317
# 6 0.003181 0.002420 -0.003979 0.001004 -0.007317 0.039227
#
#
# Mechanical properties :
#
#
# Convention : Reuss Voigt Hill
#
# Bulk Modulus (GPa) = 32.41327 43.39204 37.90265
# Shear Modulus (GPa) = 30.15681 35.62850 32.89266
#
# Velocity S-wave (km/s) = 3.51866 3.82457 3.67480
# Velocity P-wave (km/s) = 5.46034 6.10883 5.79366
#
# Compressibility (1/GPa) = 0.03085156
#
# Stress axis : x y z
#
# Youngs Moduli (GPa) = 58.96002 81.55317 75.97005
#
# Poissons Ratio (x) = 0.11772 0.20404
# Poissons Ratio (y) = 0.08511 0.12442
# Poissons Ratio (z) = 0.15836 0.13356
#
# Static dielectric constant tensor:
#      x y z
#    x 1.940580 0.036750 -0.018980 
#    y 0.036750 1.935430 0.005190 
#    z -0.018980 0.005190 1.974820 
# 
# From -- ./inp_files/500034.got.cif
#   From: 2010.05.17/outbox.cif.g08.bks.cpg/sg2_251_cif.got.tgz:500034.got - 2010.06.03 11:33:40.
