data_PCOD9059178
_publ_section_title
;
Structure prediction by ZEFSAII (Michael W. Deem and Ramdas Pophale) SiO2 
 PCOD9059178
Probable space group: P -1
;
_chemical_formula_sum "Si O2"
_cell_formula_units_Z 16
_cell_length_a 21.494681
_cell_length_b 17.814386
_cell_length_c 9.407273
_cell_angle_alpha 33.883766
_cell_angle_beta 146.045598
_cell_angle_gamma 157.983064
_cell_volume 721.321790
_symmetry_space_group_name_H-M "P -1"
_symmetry_group_IT_number 2
_symmetry_cell_setting 'triclinic'
loop_
_space_group_symop_operation_xyz
x,y,z
-x,-y,-z
loop_
_atom_site_type_symbol
_atom_site_label
_atom_site_fract_x
_atom_site_fract_y
_atom_site_fract_z
Si Si1 0.795867 0.791727 0.464440
Si Si2 0.389676 0.113532 0.108344
Si Si3 0.995394 0.224169 0.648384
Si Si4 0.487372 0.082407 0.045062
Si Si5 0.317107 0.652796 0.472170
Si Si6 0.561208 0.381872 0.508762
Si Si7 0.167587 0.740150 0.482597
Si Si8 0.224485 0.198705 0.254392
O O1 0.722128 0.585232 0.585987
O O2 0.753944 0.763099 0.596895
O O3 0.694502 0.817814 0.152099
O O4 0.000000 0.000000 0.500000
O O5 0.432115 0.119772 0.016908
O O6 0.562415 0.251107 0.311749
O O7 0.251636 0.883183 0.276649
O O8 0.118304 0.448156 0.456700
O O9 0.881856 0.188983 0.610458
O O10 0.122265 0.232349 0.948672
O O11 0.886016 0.036912 0.622629
O O12 0.681440 0.209146 0.241303
O O13 0.362372 0.837526 0.196219
O O14 0.488039 0.176644 0.761257
O O15 0.377118 0.592702 0.571694
O O16 0.406683 0.345275 0.291223
O O17 0.000000 0.500000 0.500000
#
# Coordination Sequence:
#
# PCOD9059178 Si02
#       8
#     2   2   2   2   2   2   2   2
#     4  12  26  42  67  99 134 170 222 279 332 393
#     4  11  23  43  69  96 132 175 227 267 326 398
#     4  11  24  43  69  99 135 175 221 278 334 384
#     4  11  24  44  68  97 134 179 222 267 330 399
#     4  11  24  44  67  99 134 176 226 268 326 402
#     4  12  26  44  69  98 136 178 217 275 339 388
#     4  11  23  40  69  98 133 177 221 273 325 391
#     4  11  24  44  69  96 135 174 221 276 333 395
#
# _framework density 22.181501999999998
#
# number of rings (size 3 to 8) (size 9 to 14) (size 15 to 20)
#    0.000    0.750    1.250    7.500    5.250    4.000 
#    0.000    1.250    0.000    0.000    0.000    0.000 
#    0.000    0.000    0.000    0.000    0.000    0.000 
#
# Total GULP energy -89629.322413 kJ/mol
# GULP energy per Si atom -5601.832651 kJ/mol
# Density = 2.213102 g / cm^3
# Si number density = 22.181502 Si / 1000 Ang^3
#
#
#
# Elastic Constant Matrix: (Units=GPa)
#
#
# Indices 1 2 3 4 5 6 
#
# 1 81.3075 -7.7059 -17.5089 3.0047 0.2887 2.0443
# 2 -7.7059 109.9579 -1.7042 -17.3545 1.9824 1.8806
# 3 -17.5089 -1.7042 60.4083 -3.0644 11.9594 7.9656
# 4 3.0047 -17.3545 -3.0644 14.9835 -0.8339 8.5190
# 5 0.2887 1.9824 11.9594 -0.8339 31.0499 7.9193
# 6 2.0443 1.8806 7.9656 8.5190 7.9193 35.8938
#
#
#
# Elastic Compliance Matrix: (Units=1/GPa)
#
#
# Indices 1 2 3 4 5 6 
#
# 1 0.013391 0.001107 0.004428 0.000297 -0.001499 -0.001543
# 2 0.001107 0.011998 0.002188 0.017138 0.000189 -0.005287
# 3 0.004428 0.002188 0.020322 0.008579 -0.006373 -0.005507
# 4 0.000297 0.017138 0.008579 0.105131 0.005833 -0.029057
# 5 -0.001499 0.000189 -0.006373 0.005833 0.036867 -0.008029
# 6 -0.001543 -0.005287 -0.005507 -0.029057 -0.008029 0.038115
#
#
# Mechanical properties :
#
#
# Convention : Reuss Voigt Hill
#
# Bulk Modulus (GPa) = 16.35131 21.98175 19.16653
# Shear Modulus (GPa) = 21.66730 34.95828 28.31279
#
# Velocity S-wave (km/s) = 3.12880 3.97421 3.57657
# Velocity P-wave (km/s) = 4.52107 5.56692 5.07103
#
# Compressibility (1/GPa) = 0.06115719
#
# Stress axis : x y z
#
# Youngs Moduli (GPa) = 74.67960 83.34865 49.20727
#
# Poissons Ratio (x) = -0.09229 -0.21787
# Poissons Ratio (y) = -0.08269 -0.10769
# Poissons Ratio (z) = -0.33066 -0.18240
#
# Static dielectric constant tensor:
#      x y z
#    x 1.765360 -0.003830 0.019210 
#    y -0.003830 1.814580 -0.025480 
#    z 0.019210 -0.025480 1.805150 
# 
# From -- ./inp_files/335639.got.cif
#   From: 2010.05.17/outbox.cif.g08.bks.cpg/sg2_168_cif.got.tgz:335639.got - 2010.06.03 11:33:40.
