data_PCOD9059812
_publ_section_title
;
Structure prediction by ZEFSAII (Michael W. Deem and Ramdas Pophale) SiO2 
 PCOD9059812
Probable space group: P -1
;
_chemical_formula_sum "Si O2"
_cell_formula_units_Z 16
_cell_length_a 5.122494
_cell_length_b 16.212571
_cell_length_c 12.096813
_cell_angle_alpha 45.779881
_cell_angle_beta 110.139746
_cell_angle_gamma 95.251439
_cell_volume 659.266367
_symmetry_space_group_name_H-M "P -1"
_symmetry_group_IT_number 2
_symmetry_cell_setting 'triclinic'
loop_
_space_group_symop_operation_xyz
x,y,z
-x,-y,-z
loop_
_atom_site_type_symbol
_atom_site_label
_atom_site_fract_x
_atom_site_fract_y
_atom_site_fract_z
Si Si1 0.596004 0.045729 0.729594
Si Si2 0.945861 0.829253 0.067177
Si Si3 0.700945 0.474542 0.269409
Si Si4 0.195680 0.182680 0.699174
Si Si5 0.255150 0.898223 0.673905
Si Si6 0.627493 0.265864 0.964817
Si Si7 0.363060 0.421139 0.470297
Si Si8 0.311800 0.756112 0.595599
O O1 0.433679 0.070854 0.799533
O O2 0.553891 0.171449 0.544752
O O3 0.471920 0.967334 0.696108
O O4 0.898245 0.959781 0.884657
O O5 0.979550 0.828862 0.204535
O O6 0.647758 0.788289 0.047506
O O7 0.181813 0.744222 0.107600
O O8 0.592029 0.406427 0.419653
O O9 0.035167 0.476794 0.330469
O O10 0.639234 0.385225 0.249884
O O11 0.501741 0.603841 0.128963
O O12 0.329179 0.296753 0.629455
O O13 0.004197 0.210177 0.534994
O O14 0.185858 0.814100 0.839357
O O15 0.358241 0.815973 0.661329
O O16 0.000000 0.000000 0.500000
O O17 0.500000 0.500000 0.500000
#
# Coordination Sequence:
#
# PCOD9059812 Si02
#       8
#     2   2   2   2   2   2   2   2
#     4  11  23  44  70 101 140 186 234 295 356 420
#     4  11  26  43  70 102 144 186 234 286 355 428
#     4  11  24  43  69 101 147 179 237 292 346 422
#     4  11  24  42  67 108 141 180 233 291 357 418
#     4  11  23  46  74 100 137 186 242 296 352 420
#     4  11  26  47  68 104 141 191 233 288 355 415
#     4  11  23  42  69 103 142 194 233 281 345 424
#     4  11  24  42  71 104 137 184 239 291 354 416
#
# _framework density 24.269403000000001
#
# number of rings (size 3 to 8) (size 9 to 14) (size 15 to 20)
#    0.000    1.000    2.500    3.375    3.500    5.000 
#    0.000    0.000    0.000    6.750    0.000    0.000 
#    0.000    0.000    0.000    0.000    0.000    0.000 
#
# Total GULP energy -89362.915870 kJ/mol
# GULP energy per Si atom -5585.182242 kJ/mol
# Density = 2.421416 g / cm^3
# Si number density = 24.269403 Si / 1000 Ang^3
#
#
#
# Elastic Constant Matrix: (Units=GPa)
#
#
# Indices 1 2 3 4 5 6 
#
# 1 114.2937 42.4364 10.1468 0.0142 -7.0715 -3.3162
# 2 42.4364 169.8298 46.9303 -24.6866 -3.8655 6.3145
# 3 10.1468 46.9303 87.0932 -3.2956 3.0480 -0.1910
# 4 0.0142 -24.6866 -3.2956 33.2440 -11.3305 -2.1361
# 5 -7.0715 -3.8655 3.0480 -11.3305 27.8749 -6.7211
# 6 -3.3162 6.3145 -0.1910 -2.1361 -6.7211 38.8460
#
#
#
# Elastic Compliance Matrix: (Units=1/GPa)
#
#
# Indices 1 2 3 4 5 6 
#
# 1 0.009912 -0.002723 0.000200 -0.001226 0.001995 0.001567
# 2 -0.002723 0.008990 -0.004381 0.007551 0.003956 -0.000616
# 3 0.000200 -0.004381 0.013821 -0.002993 -0.003268 0.000067
# 4 -0.001226 0.007551 -0.002993 0.042237 0.019271 0.004310
# 5 0.001995 0.003956 -0.003268 0.019271 0.047228 0.008742
# 6 0.001567 -0.000616 0.000067 0.004310 0.008742 0.027726
#
#
# Mechanical properties :
#
#
# Convention : Reuss Voigt Hill
#
# Bulk Modulus (GPa) = 52.87145 63.36040 58.11593
# Shear Modulus (GPa) = 29.40719 38.10653 33.75686
#
# Velocity S-wave (km/s) = 3.48472 3.96681 3.73355
# Velocity P-wave (km/s) = 6.16633 6.86619 6.52565
#
# Compressibility (1/GPa) = 0.01891380
#
# Stress axis : x y z
#
# Youngs Moduli (GPa) = 100.89060 111.23580 72.35532
#
# Poissons Ratio (x) = 0.30289 -0.01445
# Poissons Ratio (y) = 0.27472 0.31699
# Poissons Ratio (z) = -0.02015 0.48733
#
# Static dielectric constant tensor:
#      x y z
#    x 2.014800 -0.022260 -0.012100 
#    y -0.022260 2.133220 -0.016000 
#    z -0.012100 -0.016000 1.974470 
# 
# From -- ./inp_files/367531.got.cif
#   From: 2010.05.17/outbox.cif.g08.bks.cpg/sg2_184_cif.got.tgz:367531.got - 2010.06.03 11:33:40.
