data_PCOD9059913
_publ_section_title
;
Structure prediction by ZEFSAII (Michael W. Deem and Ramdas Pophale) SiO2 
 PCOD9059913
Probable space group: P -1
;
_chemical_formula_sum "Si O2"
_cell_formula_units_Z 14
_cell_length_a 7.475385
_cell_length_b 17.082192
_cell_length_c 7.548755
_cell_angle_alpha 129.622852
_cell_angle_beta 90.991697
_cell_angle_gamma 115.019848
_cell_volume 613.293173
_symmetry_space_group_name_H-M "P -1"
_symmetry_group_IT_number 2
_symmetry_cell_setting 'triclinic'
loop_
_space_group_symop_operation_xyz
x,y,z
-x,-y,-z
loop_
_atom_site_type_symbol
_atom_site_label
_atom_site_fract_x
_atom_site_fract_y
_atom_site_fract_z
Si Si1 0.148537 0.964420 0.557690
Si Si2 0.201729 0.637201 0.735927
Si Si3 0.381711 0.048607 0.177201
Si Si4 0.508522 0.198878 0.729590
Si Si5 0.781876 0.798845 0.556696
Si Si6 0.404580 0.363820 0.374370
Si Si7 0.049712 0.808473 0.015540
O O1 0.028112 0.896985 0.639859
O O2 0.000000 0.000000 0.500000
O O3 0.381881 0.093116 0.727564
O O4 0.136644 0.859741 0.286129
O O5 0.397486 0.650775 0.651177
O O6 0.127888 0.727154 0.820252
O O7 0.000000 0.500000 0.500000
O O8 0.293674 0.680724 0.000647
O O9 0.532248 0.128238 0.463358
O O10 0.302068 0.132292 0.227126
O O11 0.162511 0.931333 0.081950
O O12 0.500000 0.000000 0.000000
O O13 0.354630 0.231456 0.671881
O O14 0.711299 0.679075 0.496517
O O15 0.500000 0.500000 0.500000
O O16 0.207430 0.269546 0.107483
#
# Coordination Sequence:
#
# PCOD9059913 Si02
#       7
#     2   2   2   2   2   2   2
#     4   9  16  40  66 103 139 169 225 289 357 424
#     4  12  25  46  70  96 143 196 241 284 336 420
#     4   9  19  39  68 109 143 167 230 290 363 420
#     4   8  20  40  68  99 141 181 220 291 354 408
#     4   9  20  40  68 105 136 179 229 289 351 421
#     4  12  25  45  69  93 143 192 237 292 338 411
#     4  11  23  42  71 102 140 187 229 281 368 409
#
# _framework density 22.827580000000001
#
# number of rings (size 3 to 8) (size 9 to 14) (size 15 to 20)
#    0.857    1.143    2.857    2.571    0.000    2.857 
#    5.143    3.571    0.000    0.000    0.000    0.000 
#    0.000    0.000    0.000    0.000    0.000    0.000 
#
# Total GULP energy -78065.788823 kJ/mol
# GULP energy per Si atom -5576.127773 kJ/mol
# Density = 2.277562 g / cm^3
# Si number density = 22.827580 Si / 1000 Ang^3
#
#
#
# Elastic Constant Matrix: (Units=GPa)
#
#
# Indices 1 2 3 4 5 6 
#
# 1 85.8076 29.4947 30.2144 9.0364 -0.3593 18.8028
# 2 29.4947 145.3609 53.8101 9.4182 -6.7739 11.7540
# 3 30.2144 53.8101 139.0502 15.2770 19.0126 12.3212
# 4 9.0364 9.4182 15.2770 34.2057 2.2741 -1.2641
# 5 -0.3593 -6.7739 19.0126 2.2741 41.6118 -7.2512
# 6 18.8028 11.7540 12.3212 -1.2641 -7.2512 29.5282
#
#
#
# Elastic Compliance Matrix: (Units=1/GPa)
#
#
# Indices 1 2 3 4 5 6 
#
# 1 0.014922 -0.001657 -0.001380 -0.003132 -0.000839 -0.008607
# 2 -0.001657 0.008630 -0.003265 -0.000683 0.002859 -0.000345
# 3 -0.001380 -0.003265 0.010180 -0.003040 -0.005654 -0.003588
# 4 -0.003132 -0.000683 -0.003040 0.031767 0.000384 0.004989
# 5 -0.000839 0.002859 -0.005654 0.000384 0.028584 0.008791
# 6 -0.008607 -0.000345 -0.003588 0.004989 0.008791 0.043353
#
#
# Mechanical properties :
#
#
# Convention : Reuss Voigt Hill
#
# Bulk Modulus (GPa) = 47.33108 66.36190 56.84649
# Shear Modulus (GPa) = 31.83073 38.18244 35.00659
#
# Velocity S-wave (km/s) = 3.73821 4.09424 3.92027
# Velocity P-wave (km/s) = 6.27786 7.17526 6.74151
#
# Compressibility (1/GPa) = 0.02112777
#
# Stress axis : x y z
#
# Youngs Moduli (GPa) = 67.01682 115.87952 98.23364
#
# Poissons Ratio (x) = 0.19204 0.13552
# Poissons Ratio (y) = 0.11107 0.32072
# Poissons Ratio (z) = 0.09245 0.37833
#
# Static dielectric constant tensor:
#      x y z
#    x 1.948430 -0.030910 -0.012760 
#    y -0.030910 1.900750 -0.061530 
#    z -0.012760 -0.061530 1.891150 
# 
# From -- ./inp_files/215888.got.cif
#   From: 2010.05.17/outbox.cif.g08.bks.cpg/sg2_108_cif.got.tgz:215888.got - 2010.06.03 11:33:40.
