data_PCOD9059311
_publ_section_title
;
Structure prediction by ZEFSAII (Michael W. Deem and Ramdas Pophale) SiO2 
 PCOD9059311
Probable space group: P -1
;
_chemical_formula_sum "Si O2"
_cell_formula_units_Z 16
_cell_length_a 7.987739
_cell_length_b 9.017971
_cell_length_c 11.712238
_cell_angle_alpha 92.104200
_cell_angle_beta 129.332773
_cell_angle_gamma 88.385036
_cell_volume 652.106804
_symmetry_space_group_name_H-M "P -1"
_symmetry_group_IT_number 2
_symmetry_cell_setting 'triclinic'
loop_
_space_group_symop_operation_xyz
x,y,z
-x,-y,-z
loop_
_atom_site_type_symbol
_atom_site_label
_atom_site_fract_x
_atom_site_fract_y
_atom_site_fract_z
Si Si1 0.507852 0.854631 0.574218
Si Si2 0.820475 0.310400 0.252977
Si Si3 0.030732 0.829001 0.467889
Si Si4 0.466330 0.611924 0.387371
Si Si5 0.341752 0.366089 0.779086
Si Si6 0.370262 0.156918 0.112726
Si Si7 0.753377 0.174754 0.005428
Si Si8 0.024311 0.652715 0.085200
O O1 0.260332 0.818227 0.503014
O O2 0.581359 0.747869 0.501508
O O3 0.634187 0.853189 0.749907
O O4 0.500000 0.000000 0.500000
O O5 0.962097 0.283252 0.424753
O O6 0.761996 0.482707 0.212517
O O7 0.608137 0.213104 0.187928
O O8 0.905563 0.226902 0.175523
O O9 0.832277 0.765434 0.308275
O O10 0.000000 0.000000 0.500000
O O11 0.500000 0.500000 0.500000
O O12 0.568622 0.584566 0.306703
O O13 0.207876 0.627264 0.257460
O O14 0.549877 0.289219 0.924708
O O15 0.318558 0.995043 0.035158
O O16 0.211552 0.280689 0.993567
O O17 0.873146 0.215473 0.942385
O O18 0.000000 0.500000 0.000000
#
# Coordination Sequence:
#
# PCOD9059311 Si02
#       8
#     2   2   2   2   2   2   2   2
#     4  11  23  41  65  93 125 167 211 260 319 380
#     4  11  24  42  65  92 126 170 213 265 323 380
#     4  11  24  41  63  94 130 168 214 266 319 385
#     4  11  23  41  65  93 125 167 211 260 319 380
#     4  11  23  44  64  93 131 165 215 271 319 383
#     4  11  23  44  64  93 131 165 215 271 319 383
#     4  11  24  42  65  92 126 170 213 265 323 380
#     4  11  24  41  63  94 130 168 214 266 319 385
#
# _framework density 24.535857
#
# number of rings (size 3 to 8) (size 9 to 14) (size 15 to 20)
#    0.000    1.000    0.000    9.000    0.000    6.000 
#    0.000    0.000    0.000    0.000    0.000    0.000 
#    0.000    0.000    0.000    0.000    0.000    0.000 
#
# Total GULP energy -89482.990846 kJ/mol
# GULP energy per Si atom -5592.686928 kJ/mol
# Density = 2.448001 g / cm^3
# Si number density = 24.535857 Si / 1000 Ang^3
#
#
#
# Elastic Constant Matrix: (Units=GPa)
#
#
# Indices 1 2 3 4 5 6 
#
# 1 62.7723 -11.9839 15.4541 -5.5499 4.4255 -4.4162
# 2 -11.9839 131.8239 9.3999 17.9058 -4.7572 4.8030
# 3 15.4541 9.3999 118.9748 -4.6759 -16.8011 -5.7368
# 4 -5.5499 17.9058 -4.6759 44.8503 1.0383 -4.7362
# 5 4.4255 -4.7572 -16.8011 1.0383 30.3686 1.2166
# 6 -4.4162 4.8030 -5.7368 -4.7362 1.2166 29.2278
#
#
#
# Elastic Compliance Matrix: (Units=1/GPa)
#
#
# Indices 1 2 3 4 5 6 
#
# 1 0.017458 0.001326 -0.002762 0.001680 -0.004014 0.002317
# 2 0.001326 0.008349 -0.000953 -0.003493 0.000785 -0.001957
# 3 -0.002762 -0.000953 0.009742 0.001095 0.005541 0.001598
# 4 0.001680 -0.003493 0.001095 0.024578 -0.001230 0.005077
# 5 -0.004014 0.000785 0.005541 -0.001230 0.036800 -0.001379
# 6 0.002317 -0.001957 0.001598 0.005077 -0.001379 0.036079
#
#
# Mechanical properties :
#
#
# Convention : Reuss Voigt Hill
#
# Bulk Modulus (GPa) = 32.49614 37.70125 35.09869
# Shear Modulus (GPa) = 33.77495 40.93607 37.35551
#
# Velocity S-wave (km/s) = 3.71422 4.08906 3.90614
# Velocity P-wave (km/s) = 5.62734 6.13946 5.88897
#
# Compressibility (1/GPa) = 0.03077289
#
# Stress axis : x y z
#
# Youngs Moduli (GPa) = 57.27916 119.78187 102.65123
#
# Poissons Ratio (x) = -0.15889 0.28349
# Poissons Ratio (y) = -0.07598 0.09779
# Poissons Ratio (z) = 0.15819 0.11411
#
# Static dielectric constant tensor:
#      x y z
#    x 2.004620 -0.079770 -0.059970 
#    y -0.079770 1.868700 -0.005120 
#    z -0.059970 -0.005120 1.919110 
# 
# From -- ./inp_files/187496.got.cif
#   From: 2010.05.17/outbox.cif.g08.bks.cpg/sg2_94_cif.got.tgz:187496.got - 2010.06.03 11:33:40.
