data_PCOD9059403
_publ_section_title
;
Structure prediction by ZEFSAII (Michael W. Deem and Ramdas Pophale) SiO2 
 PCOD9059403
Probable space group: P -1
;
_chemical_formula_sum "Si O2"
_cell_formula_units_Z 16
_cell_length_a 14.806074
_cell_length_b 17.882226
_cell_length_c 27.366902
_cell_angle_alpha 163.770139
_cell_angle_beta 21.231002
_cell_angle_gamma 160.512575
_cell_volume 646.680413
_symmetry_space_group_name_H-M "P -1"
_symmetry_group_IT_number 2
_symmetry_cell_setting 'triclinic'
loop_
_space_group_symop_operation_xyz
x,y,z
-x,-y,-z
loop_
_atom_site_type_symbol
_atom_site_label
_atom_site_fract_x
_atom_site_fract_y
_atom_site_fract_z
Si Si1 0.787401 0.657022 0.324816
Si Si2 0.361681 0.392683 0.924631
Si Si3 0.257760 0.767674 0.085413
Si Si4 0.295054 0.677147 0.376293
Si Si5 0.304201 0.616220 0.697367
Si Si6 0.847164 0.838464 0.688627
Si Si7 0.821238 0.816823 0.803224
Si Si8 0.265827 0.736544 0.268432
O O1 0.829284 0.599534 0.323644
O O2 0.470786 0.412845 0.318118
O O3 0.798278 0.982266 0.517633
O O4 0.003716 0.601281 0.146941
O O5 0.526996 0.438104 0.818953
O O6 0.513602 0.257670 0.799480
O O7 0.385351 0.688026 0.125562
O O8 0.037224 0.137787 0.920089
O O9 0.482200 0.055477 0.184351
O O10 0.124747 0.874036 0.175041
O O11 0.480809 0.677213 0.892571
O O12 0.131014 0.431000 0.346352
O O13 0.071502 0.731058 0.490821
O O14 0.500000 0.000000 0.500000
O O15 0.500000 0.500000 0.500000
O O16 0.042512 0.562102 0.760910
O O17 0.887183 0.872905 0.748049
#
# Coordination Sequence:
#
# PCOD9059403 Si02
#       8
#     2   2   2   2   2   2   2   2
#     4  11  25  42  72 102 141 184 235 280 358 415
#     4  11  26  45  69 103 141 182 235 291 349 416
#     4  11  25  44  72 103 142 183 233 295 351 414
#     4  12  27  45  75  99 139 189 237 289 355 419
#     4  11  23  41  68 100 135 186 232 285 343 419
#     4  11  26  46  71 105 139 187 236 289 351 428
#     4  12  26  46  72 105 142 182 237 294 355 415
#     4  11  23  45  69  98 143 183 228 290 342 420
#
# _framework density 24.741743
#
# number of rings (size 3 to 8) (size 9 to 14) (size 15 to 20)
#    0.000    0.750    3.750    2.625    7.000    0.500 
#    0.000    1.875    0.000    0.000    0.000    0.000 
#    0.000    0.000    0.000    0.000    0.000    0.000 
#
# Total GULP energy -89561.246558 kJ/mol
# GULP energy per Si atom -5597.577910 kJ/mol
# Density = 2.468543 g / cm^3
# Si number density = 24.741743 Si / 1000 Ang^3
#
#
#
# Elastic Constant Matrix: (Units=GPa)
#
#
# Indices 1 2 3 4 5 6 
#
# 1 108.4011 33.4165 22.4355 -9.0224 -4.6130 -0.9611
# 2 33.4165 73.2937 12.7482 -22.9826 -1.6838 4.2308
# 3 22.4355 12.7482 93.7344 -29.2491 -3.7113 -8.9199
# 4 -9.0224 -22.9826 -29.2491 52.2076 2.0391 -4.2197
# 5 -4.6130 -1.6838 -3.7113 2.0391 49.8291 -9.2419
# 6 -0.9611 4.2308 -8.9199 -4.2197 -9.2419 40.6228
#
#
#
# Elastic Compliance Matrix: (Units=1/GPa)
#
#
# Indices 1 2 3 4 5 6 
#
# 1 0.011243 -0.005245 -0.002469 -0.001759 0.000802 0.000270
# 2 -0.005245 0.018312 0.001042 0.007663 -0.000302 -0.001075
# 3 -0.002469 0.001042 0.014123 0.008224 0.001279 0.004079
# 4 -0.001759 0.007663 0.008224 0.027131 0.000314 0.003856
# 5 0.000802 -0.000302 0.001279 0.000314 0.021176 0.005181
# 6 0.000270 -0.001075 0.004079 0.003856 0.005181 0.027210
#
#
# Mechanical properties :
#
#
# Convention : Reuss Voigt Hill
#
# Bulk Modulus (GPa) = 32.96711 45.84775 39.40743
# Shear Modulus (GPa) = 35.05071 42.32051 38.68561
#
# Velocity S-wave (km/s) = 3.76794 4.14029 3.95850
# Velocity P-wave (km/s) = 5.68184 6.43637 6.07083
#
# Compressibility (1/GPa) = 0.03033326
#
# Stress axis : x y z
#
# Youngs Moduli (GPa) = 88.94371 54.60873 70.80773
#
# Poissons Ratio (x) = 0.28643 0.17483
# Poissons Ratio (y) = 0.46653 -0.07378
# Poissons Ratio (z) = 0.21961 -0.05690
#
# Static dielectric constant tensor:
#      x y z
#    x 1.955560 -0.014090 0.023680 
#    y -0.014090 1.948690 -0.002150 
#    z 0.023680 -0.002150 2.010890 
# 
# From -- ./inp_files/483023.got.cif
#   From: 2010.05.17/outbox.cif.g08.bks.cpg/sg2_242_cif.got.tgz:483023.got - 2010.06.03 11:33:40.
