data_PCOD9059404
_publ_section_title
;
Structure prediction by ZEFSAII (Michael W. Deem and Ramdas Pophale) SiO2 
 PCOD9059404
Probable space group: P -1
;
_chemical_formula_sum "Si O2"
_cell_formula_units_Z 16
_cell_length_a 14.224283
_cell_length_b 8.091819
_cell_length_c 6.610847
_cell_angle_alpha 71.219188
_cell_angle_beta 81.107347
_cell_angle_gamma 102.876426
_cell_volume 680.838469
_symmetry_space_group_name_H-M "P -1"
_symmetry_group_IT_number 2
_symmetry_cell_setting 'triclinic'
loop_
_space_group_symop_operation_xyz
x,y,z
-x,-y,-z
loop_
_atom_site_type_symbol
_atom_site_label
_atom_site_fract_x
_atom_site_fract_y
_atom_site_fract_z
Si Si1 0.966604 0.821620 0.943210
Si Si2 0.924624 0.355767 0.717800
Si Si3 0.326710 0.142401 0.272861
Si Si4 0.244851 0.697245 0.920988
Si Si5 0.864450 0.116009 0.445620
Si Si6 0.401805 0.462783 0.411231
Si Si7 0.268119 0.349482 0.867500
Si Si8 0.607023 0.137236 0.869062
O O1 0.028269 0.865819 0.696945
O O2 0.848629 0.743790 0.018991
O O3 0.010262 0.682548 0.106152
O O4 0.000000 0.000000 0.000000
O O5 0.879180 0.192184 0.639512
O O6 0.000000 0.500000 0.500000
O O7 0.834654 0.403357 0.840759
O O8 0.398764 0.303885 0.313738
O O9 0.216097 0.081169 0.431103
O O10 0.353530 0.954606 0.298739
O O11 0.322910 0.228717 0.020513
O O12 0.187408 0.772959 0.735107
O O13 0.293362 0.551654 0.871513
O O14 0.323397 0.851655 0.961061
O O15 0.500000 0.500000 0.500000
O O16 0.305295 0.378091 0.616470
O O17 0.396151 0.656705 0.250868
O O18 0.500000 0.000000 0.000000
#
# Coordination Sequence:
#
# PCOD9059404 Si02
#       8
#     2   2   2   2   2   2   2   2
#     4  11  25  40  65 103 144 192 244 294 353 425
#     4  11  23  41  68 100 145 191 243 291 357 426
#     4  12  27  48  78 106 150 192 238 301 360 434
#     4  11  25  45  70 108 144 188 244 296 361 433
#     4  11  24  43  69 103 146 197 242 293 359 425
#     4  12  30  51  76 112 143 188 241 301 370 433
#     4  12  26  46  74 107 149 189 243 302 357 429
#     4  12  28  50  79 107 144 190 242 302 367 435
#
# _framework density 23.500436000000001
#
# number of rings (size 3 to 8) (size 9 to 14) (size 15 to 20)
#    0.000    0.500    2.500    4.500    8.750    7.500 
#    0.000    0.000    0.000    0.000    0.000    0.000 
#    0.000    0.000    0.000    0.000    0.000    0.000 
#
# Total GULP energy -89531.181355 kJ/mol
# GULP energy per Si atom -5595.698835 kJ/mol
# Density = 2.344695 g / cm^3
# Si number density = 23.500436 Si / 1000 Ang^3
#
#
#
# Elastic Constant Matrix: (Units=GPa)
#
#
# Indices 1 2 3 4 5 6 
#
# 1 75.7813 19.1930 13.6431 6.7208 1.2739 19.0179
# 2 19.1930 118.4285 10.4214 19.6108 9.7799 14.6990
# 3 13.6431 10.4214 86.1214 -4.5524 -3.4321 2.5280
# 4 6.7208 19.6108 -4.5524 45.0465 2.0414 -3.7899
# 5 1.2739 9.7799 -3.4321 2.0414 39.9575 -2.1325
# 6 19.0179 14.6990 2.5280 -3.7899 -2.1325 37.5153
#
#
#
# Elastic Compliance Matrix: (Units=1/GPa)
#
#
# Indices 1 2 3 4 5 6 
#
# 1 0.016130 -0.000860 -0.002401 -0.002913 -0.000789 -0.008017
# 2 -0.000860 0.010192 -0.001326 -0.004670 -0.002560 -0.004085
# 3 -0.002401 -0.001326 0.012290 0.002216 0.001408 0.001213
# 4 -0.002913 -0.004670 0.002216 0.025355 0.000438 0.005744
# 5 -0.000789 -0.002560 0.001408 0.000438 0.025928 0.002826
# 6 -0.008017 -0.004085 0.001213 0.005744 0.002826 0.032980
#
#
# Mechanical properties :
#
#
# Convention : Reuss Voigt Hill
#
# Bulk Modulus (GPa) = 33.97112 40.76069 37.36591
# Shear Modulus (GPa) = 35.24587 40.30878 37.77732
#
# Velocity S-wave (km/s) = 3.87692 4.14603 4.01373
# Velocity P-wave (km/s) = 5.87602 6.34837 6.11675
#
# Compressibility (1/GPa) = 0.02943677
#
# Stress axis : x y z
#
# Youngs Moduli (GPa) = 61.99783 98.11755 81.36681
#
# Poissons Ratio (x) = 0.08439 0.19538
# Poissons Ratio (y) = 0.05332 0.10790
# Poissons Ratio (z) = 0.14887 0.13011
#
# Static dielectric constant tensor:
#      x y z
#    x 1.927320 -0.003800 -0.031620 
#    y -0.003800 1.920780 0.027440 
#    z -0.031620 0.027440 1.844760 
# 
# From -- ./inp_files/90084.got.cif
#   From: 2010.05.17/outbox.cif.g08.bks.cpg/sg2_46_cif.got.tgz:90084.got - 2010.06.03 11:33:40.
