data_PCOD9059173
_publ_section_title
;
Structure prediction by ZEFSAII (Michael W. Deem and Ramdas Pophale) SiO2 
 PCOD9059173
Probable space group: P -1
;
_chemical_formula_sum "Si O2"
_cell_formula_units_Z 15
_cell_length_a 9.006824
_cell_length_b 18.472169
_cell_length_c 9.889824
_cell_angle_alpha 29.578115
_cell_angle_beta 57.682657
_cell_angle_gamma 56.780574
_cell_volume 672.695645
_symmetry_space_group_name_H-M "P -1"
_symmetry_group_IT_number 2
_symmetry_cell_setting 'triclinic'
loop_
_space_group_symop_operation_xyz
x,y,z
-x,-y,-z
loop_
_atom_site_type_symbol
_atom_site_label
_atom_site_fract_x
_atom_site_fract_y
_atom_site_fract_z
Si Si1 0.742634 0.680331 0.111530
Si Si2 0.561062 0.836634 0.477835
Si Si3 0.000000 0.500000 0.500000
Si Si4 0.824372 0.996333 0.505905
Si Si5 0.796014 0.076495 0.954584
Si Si6 0.434672 0.421619 0.899437
Si Si7 0.819598 0.257854 0.886652
Si Si8 0.461663 0.749948 0.381378
O O1 0.661873 0.597389 0.163931
O O2 0.589992 0.733813 0.213309
O O3 0.901794 0.574739 0.285995
O O4 0.799593 0.826496 0.782542
O O5 0.355333 0.912266 0.485003
O O6 0.567637 0.790521 0.393178
O O7 0.677571 0.960024 0.251866
O O8 0.615344 0.692077 0.781052
O O9 0.015377 0.667933 0.276189
O O10 0.838578 0.092822 0.208606
O O11 0.000000 0.000000 0.500000
O O12 0.776008 0.230521 0.797960
O O13 0.714547 0.125684 0.767516
O O14 0.000000 0.000000 0.000000
O O15 0.648734 0.367247 0.858642
O O16 0.406855 0.590549 0.689226
#
# Coordination Sequence:
#
# PCOD9059173 Si02
#       8
#     2   2   1   2   2   2   2   2
#     4  12  23  42  70  98 133 175 227 274 334 389
#     4  11  26  45  67  99 135 179 221 274 340 399
#     4  12  24  36  68 106 130 168 228 286 318 402
#     4  11  23  40  69  96 130 175 223 274 325 396
#     4  12  27  42  68 100 138 176 226 277 331 394
#     4  11  23  47  68  96 132 179 220 277 338 397
#     4  11  23  42  66 100 131 174 228 277 329 394
#     4  12  24  44  70  98 136 180 221 275 337 400
#
# _framework density 22.298345999999999
#
# number of rings (size 3 to 8) (size 9 to 14) (size 15 to 20)
#    0.000    0.533    5.333    2.800    3.733    2.133 
#    0.000    0.667    0.000    0.000    0.000    0.000 
#    0.000    0.000    0.000    0.000    0.000    0.000 
#
# Total GULP energy -83647.018729 kJ/mol
# GULP energy per Si atom -5576.467915 kJ/mol
# Density = 2.224759 g / cm^3
# Si number density = 22.298346 Si / 1000 Ang^3
#
#
#
# Elastic Constant Matrix: (Units=GPa)
#
#
# Indices 1 2 3 4 5 6 
#
# 1 103.3085 33.4295 39.0287 -1.1972 0.8149 18.9774
# 2 33.4295 42.6964 20.5412 -2.6474 -6.2831 12.5405
# 3 39.0287 20.5412 110.5776 -25.7215 8.3569 -7.4015
# 4 -1.1972 -2.6474 -25.7215 26.0833 5.7122 6.1073
# 5 0.8149 -6.2831 8.3569 5.7122 46.0916 -7.5640
# 6 18.9774 12.5405 -7.4015 6.1073 -7.5640 39.2192
#
#
#
# Elastic Compliance Matrix: (Units=1/GPa)
#
#
# Indices 1 2 3 4 5 6 
#
# 1 0.015155 -0.008327 -0.004911 -0.003567 -0.000927 -0.005221
# 2 -0.008327 0.034784 -0.004496 -0.000679 0.004650 -0.006939
# 3 -0.004911 -0.004496 0.015682 0.014969 -0.004642 0.003547
# 4 -0.003567 -0.000679 0.014969 0.056663 -0.010772 -0.006133
# 5 -0.000927 0.004650 -0.004642 -0.010772 0.025284 0.004640
# 6 -0.005221 -0.006939 0.003547 -0.006133 0.004640 0.032762
#
#
# Mechanical properties :
#
#
# Convention : Reuss Voigt Hill
#
# Bulk Modulus (GPa) = 33.16509 49.17570 41.17040
# Shear Modulus (GPa) = 22.13857 33.18437 27.66147
#
# Velocity S-wave (km/s) = 3.15435 3.86190 3.52592
# Velocity P-wave (km/s) = 5.30775 6.47975 5.92281
#
# Compressibility (1/GPa) = 0.03015218
#
# Stress axis : x y z
#
# Youngs Moduli (GPa) = 65.98640 28.74858 63.76593
#
# Poissons Ratio (x) = 0.23939 0.31316
# Poissons Ratio (y) = 0.54947 0.28672
# Poissons Ratio (z) = 0.32407 0.12927
#
# Static dielectric constant tensor:
#      x y z
#    x 1.822020 -0.028890 -0.011210 
#    y -0.028890 1.833900 0.045760 
#    z -0.011210 0.045760 1.835150 
# 
# From -- ./inp_files/216297.got.cif
#   From: 2010.05.17/outbox.cif.g08.bks.cpg/sg2_109_cif.got.tgz:216297.got - 2010.06.03 11:33:40.
