data_PCOD9059187
_publ_section_title
;
Structure prediction by ZEFSAII (Michael W. Deem and Ramdas Pophale) SiO2 
 PCOD9059187
Probable space group: P -1
;
_chemical_formula_sum "Si O2"
_cell_formula_units_Z 16
_cell_length_a 12.237217
_cell_length_b 4.935034
_cell_length_c 11.558728
_cell_angle_alpha 64.815806
_cell_angle_beta 96.632211
_cell_angle_gamma 77.259558
_cell_volume 598.559092
_symmetry_space_group_name_H-M "P -1"
_symmetry_group_IT_number 2
_symmetry_cell_setting 'triclinic'
loop_
_space_group_symop_operation_xyz
x,y,z
-x,-y,-z
loop_
_atom_site_type_symbol
_atom_site_label
_atom_site_fract_x
_atom_site_fract_y
_atom_site_fract_z
Si Si1 0.390199 0.832585 0.745986
Si Si2 0.790295 0.253550 0.096142
Si Si3 0.319489 0.651003 0.291179
Si Si4 0.183341 0.317887 0.181148
Si Si5 0.640793 0.446837 0.427846
Si Si6 0.426807 0.772380 0.065891
Si Si7 0.103232 0.710187 0.523326
Si Si8 0.005339 0.323277 0.729565
O O1 0.278776 0.729180 0.794529
O O2 0.416574 0.735198 0.633668
O O3 0.496738 0.593356 0.870032
O O4 0.370936 0.202122 0.682672
O O5 0.919653 0.025098 0.165208
O O6 0.804858 0.541015 0.969319
O O7 0.696470 0.143373 0.028058
O O8 0.281776 0.389618 0.262133
O O9 0.379001 0.544423 0.439516
O O10 0.395188 0.800843 0.191889
O O11 0.205006 0.949068 0.239244
O O12 0.066616 0.492112 0.204932
O O13 0.774670 0.236680 0.475233
O O14 0.500000 0.000000 0.000000
O O15 0.105586 0.456596 0.668035
O O16 0.073249 0.623234 0.406075
O O17 0.000000 0.000000 0.500000
#
# Coordination Sequence:
#
# PCOD9059187 Si02
#       8
#     2   2   2   2   2   2   2   2
#     4  12  26  45  74 105 141 189 248 299 360 416
#     4  11  24  47  71 104 145 191 242 294 353 434
#     4  11  25  47  74 105 145 186 238 296 364 422
#     4  11  24  45  70 106 149 189 232 290 354 436
#     4  12  25  45  74 105 146 184 238 302 359 428
#     4  11  26  49  75 104 143 194 245 304 357 422
#     4  11  23  40  70 102 149 187 233 294 350 435
#     4  11  23  42  68 107 140 192 233 285 364 425
#
# _framework density 26.730858999999999
#
# number of rings (size 3 to 8) (size 9 to 14) (size 15 to 20)
#    0.000    0.750    2.500    4.500    1.750    5.000 
#    4.500    3.125    0.000    0.000    0.000    0.000 
#    0.000    0.000    0.000    0.000    0.000    0.000 
#
# Total GULP energy -89596.129089 kJ/mol
# GULP energy per Si atom -5599.758068 kJ/mol
# Density = 2.667002 g / cm^3
# Si number density = 26.730859 Si / 1000 Ang^3
#
#
#
# Elastic Constant Matrix: (Units=GPa)
#
#
# Indices 1 2 3 4 5 6 
#
# 1 76.3449 6.1336 20.1380 8.6230 -9.2128 -15.9456
# 2 6.1336 110.3873 19.3703 -6.7070 -1.4821 -12.5981
# 3 20.1380 19.3703 133.7363 -0.9712 -16.5328 -4.2280
# 4 8.6230 -6.7070 -0.9712 40.1258 -6.4593 -5.5764
# 5 -9.2128 -1.4821 -16.5328 -6.4593 58.3090 2.0170
# 6 -15.9456 -12.5981 -4.2280 -5.5764 2.0170 46.9385
#
#
#
# Elastic Compliance Matrix: (Units=1/GPa)
#
#
# Indices 1 2 3 4 5 6 
#
# 1 0.015013 -0.000103 -0.001948 -0.002435 0.001390 0.004548
# 2 -0.000103 0.009720 -0.001294 0.001988 -0.000009 0.002694
# 3 -0.001948 -0.001294 0.008211 0.000697 0.002074 -0.000276
# 4 -0.002435 0.001988 0.000697 0.026622 0.002715 0.002815
# 5 0.001390 -0.000009 0.002074 0.002715 0.018252 0.000195
# 6 0.004548 0.002694 -0.000276 0.002815 0.000195 0.023874
#
#
# Mechanical properties :
#
#
# Convention : Reuss Voigt Hill
#
# Bulk Modulus (GPa) = 38.08754 45.75026 41.91890
# Shear Modulus (GPa) = 42.68680 47.39644 45.04162
#
# Velocity S-wave (km/s) = 4.00047 4.21539 4.10933
# Velocity P-wave (km/s) = 5.96807 6.39100 6.18315
#
# Compressibility (1/GPa) = 0.02625531
#
# Stress axis : x y z
#
# Youngs Moduli (GPa) = 66.60801 102.88170 121.78981
#
# Poissons Ratio (x) = 0.01056 0.23723
# Poissons Ratio (y) = 0.00683 0.15758
# Poissons Ratio (z) = 0.12974 0.13312
#
# Static dielectric constant tensor:
#      x y z
#    x 2.136400 -0.052040 -0.003290 
#    y -0.052040 2.108020 0.030850 
#    z -0.003290 0.030850 2.152700 
# 
# From -- ./inp_files/118065.got.cif
#   From: 2010.05.17/outbox.cif.g08.bks.cpg/sg2_60_cif.got.tgz:118065.got - 2010.06.03 11:33:40.
