data_PCOD9059701
_publ_section_title
;
Structure prediction by ZEFSAII (Michael W. Deem and Ramdas Pophale) SiO2 
 PCOD9059701
Probable space group: P -1
;
_chemical_formula_sum "Si O2"
_cell_formula_units_Z 14
_cell_length_a 10.338478
_cell_length_b 21.866826
_cell_length_c 22.965855
_cell_angle_alpha 18.923616
_cell_angle_beta 153.624213
_cell_angle_gamma 154.855111
_cell_volume 685.284852
_symmetry_space_group_name_H-M "P -1"
_symmetry_group_IT_number 2
_symmetry_cell_setting 'triclinic'
loop_
_space_group_symop_operation_xyz
x,y,z
-x,-y,-z
loop_
_atom_site_type_symbol
_atom_site_label
_atom_site_fract_x
_atom_site_fract_y
_atom_site_fract_z
Si Si1 0.740664 0.268978 0.674424
Si Si2 0.416297 0.490294 0.697733
Si Si3 0.757157 0.872876 0.567099
Si Si4 0.831779 0.158142 0.019843
Si Si5 0.749079 0.189901 0.095252
Si Si6 0.665998 0.045036 0.589889
Si Si7 0.160674 0.513940 0.359349
O O1 0.570391 0.405805 0.453194
O O2 0.815492 0.343677 0.703374
O O3 0.062569 0.326546 0.715907
O O4 0.524601 0.029165 0.799673
O O5 0.496456 0.676234 0.607747
O O6 0.651748 0.377669 0.900193
O O7 0.592540 0.996564 0.425740
O O8 0.943042 0.795246 0.758921
O O9 0.000000 0.000000 0.500000
O O10 0.787509 0.177748 0.052774
O O11 0.913939 0.373818 0.826732
O O12 0.109222 0.075856 0.199582
O O13 0.500000 0.000000 0.000000
O O14 0.895471 0.286782 0.466023
O O15 0.500000 0.000000 0.500000
O O16 0.500000 0.500000 0.500000
#
# Coordination Sequence:
#
# PCOD9059701 Si02
#       7
#     2   2   2   2   2   2   2
#     4  11  23  42  67 104 134 180 233 291 356 412
#     4  11  25  43  69  98 138 184 234 292 354 421
#     4  12  26  48  70 101 144 193 234 291 358 419
#     4  12  25  43  75 108 135 189 237 291 361 422
#     4  12  24  44  69 101 141 180 239 289 355 424
#     4  12  27  50  72 102 152 187 237 298 352 429
#     4  12  24  43  74 105 142 181 237 297 353 423
#
# _framework density 20.429462000000001
#
# number of rings (size 3 to 8) (size 9 to 14) (size 15 to 20)
#    0.000    0.286    7.143    1.714    0.000    2.857 
#    2.571    0.000    0.000    0.000    0.000    0.000 
#    0.000    0.000    0.000    0.000    0.000    0.000 
#
# Total GULP energy -78335.959039 kJ/mol
# GULP energy per Si atom -5595.425646 kJ/mol
# Density = 2.038296 g / cm^3
# Si number density = 20.429462 Si / 1000 Ang^3
#
#
#
# Elastic Constant Matrix: (Units=GPa)
#
#
# Indices 1 2 3 4 5 6 
#
# 1 105.3389 9.7232 33.9149 9.7149 -4.4394 7.3891
# 2 9.7232 50.0703 0.6647 9.7202 -6.8108 -1.4090
# 3 33.9149 0.6647 123.4471 21.2431 -1.7517 16.2844
# 4 9.7149 9.7202 21.2431 36.6495 3.0007 -4.6240
# 5 -4.4394 -6.8108 -1.7517 3.0007 42.5156 4.7071
# 6 7.3891 -1.4090 16.2844 -4.6240 4.7071 24.9099
#
#
#
# Elastic Compliance Matrix: (Units=1/GPa)
#
#
# Indices 1 2 3 4 5 6 
#
# 1 0.010749 -0.001704 -0.002408 -0.001365 0.001087 -0.002170
# 2 -0.001704 0.022153 0.001809 -0.006998 0.004105 -0.001499
# 3 -0.002408 0.001809 0.011159 -0.007508 0.001940 -0.008239
# 4 -0.001365 -0.006998 -0.007508 0.035898 -0.005504 0.012621
# 5 0.001087 0.004105 0.001940 -0.005504 0.025559 -0.007210
# 6 -0.002170 -0.001499 -0.008239 0.012621 -0.007210 0.049795
#
#
# Mechanical properties :
#
#
# Convention : Reuss Voigt Hill
#
# Bulk Modulus (GPa) = 25.34414 40.82910 33.08662
# Shear Modulus (GPa) = 28.89012 36.45189 32.67101
#
# Velocity S-wave (km/s) = 3.76459 4.22866 4.00335
# Velocity P-wave (km/s) = 5.59721 6.62351 6.13187
#
# Compressibility (1/GPa) = 0.03945685
#
# Stress axis : x y z
#
# Youngs Moduli (GPa) = 93.02805 45.13961 89.61713
#
# Poissons Ratio (x) = 0.07691 0.21576
# Poissons Ratio (y) = 0.15850 -0.16211
# Poissons Ratio (z) = 0.22397 -0.08166
#
# Static dielectric constant tensor:
#      x y z
#    x 1.723780 0.022700 -0.001330 
#    y 0.022700 1.713810 0.004890 
#    z -0.001330 0.004890 1.708030 
# 
# From -- ./inp_files/202754.got.cif
#   From: 2010.05.17/outbox.cif.g08.bks.cpg/sg2_102_cif.got.tgz:202754.got - 2010.06.03 11:33:40.
