data_PCOD9059183
_publ_section_title
;
Structure prediction by ZEFSAII (Michael W. Deem and Ramdas Pophale) SiO2 
 PCOD9059183
Probable space group: P -1
;
_chemical_formula_sum "Si O2"
_cell_formula_units_Z 16
_cell_length_a 13.988994
_cell_length_b 15.510085
_cell_length_c 6.037622
_cell_angle_alpha 67.746697
_cell_angle_beta 54.522595
_cell_angle_gamma 35.913039
_cell_volume 614.176237
_symmetry_space_group_name_H-M "P -1"
_symmetry_group_IT_number 2
_symmetry_cell_setting 'triclinic'
loop_
_space_group_symop_operation_xyz
x,y,z
-x,-y,-z
loop_
_atom_site_type_symbol
_atom_site_label
_atom_site_fract_x
_atom_site_fract_y
_atom_site_fract_z
Si Si1 0.157767 0.105398 0.166225
Si Si2 0.847073 0.026826 0.341011
Si Si3 0.460932 0.823304 0.725358
Si Si4 0.244672 0.733555 0.529998
Si Si5 0.877445 0.575203 0.876393
Si Si6 0.751464 0.303605 0.946085
Si Si7 0.827341 0.474424 0.702180
Si Si8 0.614387 0.866151 0.144860
O O1 0.947957 0.207197 0.278820
O O2 0.181227 0.058624 0.432743
O O3 0.205689 0.182508 0.990614
O O4 0.316947 0.946652 0.984061
O O5 0.675914 0.145843 0.287774
O O6 0.821615 0.119087 0.477509
O O7 0.060248 0.878678 0.110451
O O8 0.643642 0.647421 0.702007
O O9 0.528483 0.877329 0.469383
O O10 0.327020 0.673480 0.222302
O O11 0.339153 0.648754 0.727211
O O12 0.846112 0.490616 0.916551
O O13 0.986188 0.586547 0.575293
O O14 0.673593 0.740471 0.045220
O O15 0.000000 0.500000 0.000000
O O16 0.804921 0.380052 0.778633
O O17 0.500000 0.000000 0.000000
#
# Coordination Sequence:
#
# PCOD9059183 Si02
#       8
#     2   2   2   2   2   2   2   2
#     4  11  23  40  70 100 137 180 234 294 344 418
#     4  11  24  45  73 101 136 181 234 298 354 404
#     4  12  25  42  65 102 143 183 222 293 355 419
#     4  11  25  44  77 106 135 180 246 300 350 405
#     4  11  24  44  66  91 143 186 230 283 341 425
#     4  11  24  45  73 103 133 181 241 292 340 425
#     4  11  27  42  66  99 136 190 232 279 357 424
#     4  12  24  42  67 103 138 178 231 286 353 416
#
# _framework density 26.051152999999999
#
# number of rings (size 3 to 8) (size 9 to 14) (size 15 to 20)
#    0.000    0.750    3.750    4.500    5.250    0.000 
#    0.000    1.250    0.000    0.000    0.000    0.000 
#    0.000    0.000    0.000    0.000    0.000    0.000 
#
# Total GULP energy -89367.627552 kJ/mol
# GULP energy per Si atom -5585.476722 kJ/mol
# Density = 2.599186 g / cm^3
# Si number density = 26.051153 Si / 1000 Ang^3
#
#
#
# Elastic Constant Matrix: (Units=GPa)
#
#
# Indices 1 2 3 4 5 6 
#
# 1 110.4629 20.7497 22.6960 -7.5288 16.8831 10.5056
# 2 20.7497 100.9710 17.3871 -14.6529 24.4365 0.4551
# 3 22.6960 17.3871 109.2958 -5.5991 6.7700 2.2344
# 4 -7.5288 -14.6529 -5.5991 32.7329 4.2756 5.2398
# 5 16.8831 24.4365 6.7700 4.2756 51.3859 -2.9816
# 6 10.5056 0.4551 2.2344 5.2398 -2.9816 55.4307
#
#
#
# Elastic Compliance Matrix: (Units=1/GPa)
#
#
# Indices 1 2 3 4 5 6 
#
# 1 0.010416 -0.000684 -0.001674 0.002596 -0.003227 -0.002320
# 2 -0.000684 0.012659 -0.001149 0.006261 -0.006214 -0.000854
# 3 -0.001674 -0.001149 0.009742 0.000827 -0.000265 -0.000158
# 4 0.002596 0.006261 0.000827 0.035722 -0.007163 -0.004339
# 5 -0.003227 -0.006214 -0.000265 -0.007163 0.024261 0.002655
# 6 -0.002320 -0.000854 -0.000158 -0.004339 0.002655 0.019047
#
#
# Mechanical properties :
#
#
# Convention : Reuss Voigt Hill
#
# Bulk Modulus (GPa) = 38.75443 49.15505 43.95474
# Shear Modulus (GPa) = 39.22787 45.23634 42.23210
#
# Velocity S-wave (km/s) = 3.88468 4.17159 4.03068
# Velocity P-wave (km/s) = 5.91857 6.48941 6.21055
#
# Compressibility (1/GPa) = 0.02580350
#
# Stress axis : x y z
#
# Youngs Moduli (GPa) = 96.00588 78.99761 102.65007
#
# Poissons Ratio (x) = 0.05404 0.17182
# Poissons Ratio (y) = 0.06568 0.11790
# Poissons Ratio (z) = 0.16070 0.09073
#
# Static dielectric constant tensor:
#      x y z
#    x 2.056720 0.025610 0.045400 
#    y 0.025610 2.010300 0.046980 
#    z 0.045400 0.046980 2.266660 
# 
# From -- ./inp_files/97666.got.cif
#   From: 2010.05.17/outbox.cif.g08.bks.cpg/sg2_49_cif.got.tgz:97666.got - 2010.06.03 11:33:40.
