data_PCOD9059341
_publ_section_title
;
Structure prediction by ZEFSAII (Michael W. Deem and Ramdas Pophale) SiO2 
 PCOD9059341
Probable space group: P -1
;
_chemical_formula_sum "Si O2"
_cell_formula_units_Z 10
_cell_length_a 5.835600
_cell_length_b 5.842298
_cell_length_c 15.262493
_cell_angle_alpha 79.386819
_cell_angle_beta 53.499534
_cell_angle_gamma 74.677175
_cell_volume 403.169992
_symmetry_space_group_name_H-M "P -1"
_symmetry_group_IT_number 2
_symmetry_cell_setting 'triclinic'
loop_
_space_group_symop_operation_xyz
x,y,z
-x,-y,-z
loop_
_atom_site_type_symbol
_atom_site_label
_atom_site_fract_x
_atom_site_fract_y
_atom_site_fract_z
Si Si1 0.667800 0.154283 0.548587
Si Si2 0.738146 0.167339 0.340670
Si Si3 0.876827 0.283817 0.994427
Si Si4 0.224595 0.514365 0.367846
Si Si5 0.797454 0.555999 0.820128
O O1 0.718274 0.277578 0.435641
O O2 0.613359 0.289457 0.642733
O O3 0.356307 0.080992 0.603125
O O4 0.000000 0.000000 0.500000
O O5 0.461651 0.273612 0.336953
O O6 0.020379 0.232244 0.230323
O O7 0.538059 0.334424 0.093994
O O8 0.899906 0.353556 0.882600
O O9 0.000000 0.500000 0.000000
O O10 0.000000 0.000000 0.000000
O O11 0.159148 0.550382 0.279404
O O12 0.000000 0.500000 0.500000
#
# Coordination Sequence:
#
# PCOD9059341 Si02
#       5
#     2   2   2   2   2
#     4  11  23  41  66 102 163 207 248 302 374 477
#     4  11  23  44  65 110 152 208 254 306 385 465
#     4  11  28  62  84 114 154 203 277 347 404 466
#     4  12  23  45  66 112 161 200 250 307 389 481
#     4  11  26  50  83 116 149 209 265 330 401 471
#
# _framework density 24.803432999999998
#
# number of rings (size 3 to 8) (size 9 to 14) (size 15 to 20)
#    0.000    0.800    4.000    1.800    0.000    3.200 
#   36.000    0.000    0.000    0.000    0.000    0.000 
#    0.000    0.000    0.000    0.000    0.000    0.000 
#
# Total GULP energy -55717.546038 kJ/mol
# GULP energy per Si atom -5571.754604 kJ/mol
# Density = 2.474698 g / cm^3
# Si number density = 24.803433 Si / 1000 Ang^3
#
#
#
# Elastic Constant Matrix: (Units=GPa)
#
#
# Indices 1 2 3 4 5 6 
#
# 1 127.2945 41.0175 106.3566 -17.1430 5.4213 9.0977
# 2 41.0175 94.7359 53.9512 -13.2575 6.3331 -9.5146
# 3 106.3566 53.9512 189.1104 -30.3470 -1.3661 7.5990
# 4 -17.1430 -13.2575 -30.3470 24.3716 5.2804 0.6317
# 5 5.4213 6.3331 -1.3661 5.2804 81.7862 -6.6973
# 6 9.0977 -9.5146 7.5990 0.6317 -6.6973 46.6313
#
#
#
# Elastic Compliance Matrix: (Units=1/GPa)
#
#
# Indices 1 2 3 4 5 6 
#
# 1 0.015465 -0.002327 -0.007940 0.000040 -0.001174 -0.002367
# 2 -0.002327 0.013677 -0.002238 0.003114 -0.000861 0.003444
# 3 -0.007940 -0.002238 0.011659 0.007667 0.000329 -0.000864
# 4 0.000040 0.003114 0.007667 0.053150 -0.003701 -0.001873
# 5 -0.001174 -0.000861 0.000329 -0.003701 0.012770 0.001884
# 6 -0.002367 0.003444 -0.000864 -0.001873 0.001884 0.023046
#
#
# Mechanical properties :
#
#
# Convention : Reuss Voigt Hill
#
# Bulk Modulus (GPa) = 63.33188 90.42127 76.87657
# Shear Modulus (GPa) = 31.24182 44.54550 37.89366
#
# Velocity S-wave (km/s) = 3.55290 4.24245 3.91290
# Velocity P-wave (km/s) = 6.51305 7.78024 7.17467
#
# Compressibility (1/GPa) = 0.01578984
#
# Stress axis : x y z
#
# Youngs Moduli (GPa) = 64.66393 73.11585 85.76766
#
# Poissons Ratio (x) = 0.17017 0.68102
# Poissons Ratio (y) = 0.15050 0.19194
# Poissons Ratio (z) = 0.51345 0.16363
#
# Static dielectric constant tensor:
#      x y z
#    x 2.076810 0.007770 -0.031540 
#    y 0.007770 2.713100 -0.125420 
#    z -0.031540 -0.125420 1.944080 
# 
# From -- ./inp_files/4177.got.cif
#   From: 2010.05.17/outbox.cif.g08.bks.cpg/sg2_3_cif.got.tgz:4177.got - 2010.06.03 11:33:40.
