data_PCOD9059711
_publ_section_title
;
Structure prediction by ZEFSAII (Michael W. Deem and Ramdas Pophale) SiO2 
 PCOD9059711
Probable space group: P -1
;
_chemical_formula_sum "Si O2"
_cell_formula_units_Z 14
_cell_length_a 7.100288
_cell_length_b 7.872773
_cell_length_c 11.679308
_cell_angle_alpha 100.493256
_cell_angle_beta 81.036015
_cell_angle_gamma 107.550377
_cell_volume 608.506934
_symmetry_space_group_name_H-M "P -1"
_symmetry_group_IT_number 2
_symmetry_cell_setting 'triclinic'
loop_
_space_group_symop_operation_xyz
x,y,z
-x,-y,-z
loop_
_atom_site_type_symbol
_atom_site_label
_atom_site_fract_x
_atom_site_fract_y
_atom_site_fract_z
Si Si1 0.443750 0.418770 0.368039
Si Si2 0.631022 0.380930 0.015019
Si Si3 0.151680 0.600720 0.785432
Si Si4 0.743558 0.323403 0.739145
Si Si5 0.872175 0.979330 0.624213
Si Si6 0.322903 0.087830 0.024521
Si Si7 0.085029 0.995151 0.831056
O O1 0.500000 0.500000 0.500000
O O2 0.649526 0.387997 0.301008
O O3 0.380329 0.568230 0.311933
O O4 0.270120 0.225493 0.368334
O O5 0.692780 0.309539 0.879328
O O6 0.500000 0.500000 0.000000
O O7 0.810120 0.447070 0.092561
O O8 0.448228 0.262056 0.098158
O O9 0.105524 0.793764 0.818183
O O10 0.967943 0.453516 0.731273
O O11 0.747468 0.126994 0.667776
O O12 0.000000 0.000000 0.500000
O O13 0.046495 0.029563 0.709618
O O14 0.118196 0.992694 0.089291
O O15 0.500000 0.000000 0.000000
O O16 0.263836 0.117871 0.903345
#
# Coordination Sequence:
#
# PCOD9059711 Si02
#       7
#     2   2   2   2   2   2   2
#     4  12  29  53  78 106 147 199 252 310 378 438
#     4  12  24  42  72 111 152 193 246 292 373 446
#     4  12  25  48  76 105 155 197 238 310 370 444
#     4  12  28  49  76 111 154 193 248 309 372 446
#     4  12  29  51  77 109 145 196 257 312 371 441
#     4  11  23  42  67 105 146 192 237 295 361 444
#     4  11  25  43  73 105 148 193 243 302 373 429
#
# _framework density 23.007133
#
# number of rings (size 3 to 8) (size 9 to 14) (size 15 to 20)
#    0.000    0.286    4.286    3.857    8.000    2.857 
#    0.000    0.000    0.000    0.000    0.000    0.000 
#    0.000    0.000    0.000    0.000    0.000    0.000 
#
# Total GULP energy -78027.644473 kJ/mol
# GULP energy per Si atom -5573.403177 kJ/mol
# Density = 2.295477 g / cm^3
# Si number density = 23.007133 Si / 1000 Ang^3
#
#
#
# Elastic Constant Matrix: (Units=GPa)
#
#
# Indices 1 2 3 4 5 6 
#
# 1 145.9595 29.6206 54.2421 -1.7726 -1.0321 -10.6865
# 2 29.6206 84.3795 12.9551 9.2950 -8.4546 -19.8834
# 3 54.2421 12.9551 152.1090 5.3493 -1.4919 -7.6987
# 4 -1.7726 9.2950 5.3493 28.3970 -1.4269 0.0018
# 5 -1.0321 -8.4546 -1.4919 -1.4269 43.9336 -0.4798
# 6 -10.6865 -19.8834 -7.6987 0.0018 -0.4798 54.7221
#
#
#
# Elastic Compliance Matrix: (Units=1/GPa)
#
#
# Indices 1 2 3 4 5 6 
#
# 1 0.008510 -0.002737 -0.002860 0.001948 -0.000358 0.000262
# 2 -0.002737 0.014741 0.000165 -0.004893 0.002672 0.004868
# 3 -0.002860 0.000165 0.007670 -0.001669 0.000177 0.000582
# 4 0.001948 -0.004893 -0.001669 0.037265 0.000240 -0.001631
# 5 -0.000358 0.002672 0.000177 0.000240 0.023294 0.001130
# 6 0.000262 0.004868 0.000582 -0.001631 0.001130 0.020186
#
#
# Mechanical properties :
#
#
# Convention : Reuss Voigt Hill
#
# Bulk Modulus (GPa) = 49.85910 64.00929 56.93419
# Shear Modulus (GPa) = 38.69546 44.45256 41.57401
#
# Velocity S-wave (km/s) = 4.10553 4.40036 4.25550
# Velocity P-wave (km/s) = 6.64771 7.32799 6.99612
#
# Compressibility (1/GPa) = 0.02005652
#
# Stress axis : x y z
#
# Youngs Moduli (GPa) = 117.51052 67.84013 130.37766
#
# Poissons Ratio (x) = 0.18567 0.37292
# Poissons Ratio (y) = 0.32161 -0.02154
# Poissons Ratio (z) = 0.33611 -0.01121
#
# Static dielectric constant tensor:
#      x y z
#    x 1.538050 0.031980 -0.192940 
#    y 0.031980 2.243600 0.039360 
#    z -0.192940 0.039360 1.765820 
# 
# From -- ./inp_files/360740.got.cif
#   From: 2010.05.17/outbox.cif.g08.bks.cpg/sg2_181_cif.got.tgz:360740.got - 2010.06.03 11:33:40.
