data_PCOD9059504
_publ_section_title
;
Structure prediction by ZEFSAII (Michael W. Deem and Ramdas Pophale) SiO2 
 PCOD9059504
Probable space group: P -1
;
_chemical_formula_sum "Si O2"
_cell_formula_units_Z 16
_cell_length_a 8.938650
_cell_length_b 17.581123
_cell_length_c 9.210581
_cell_angle_alpha 136.805654
_cell_angle_beta 46.345536
_cell_angle_gamma 132.408453
_cell_volume 672.652372
_symmetry_space_group_name_H-M "P -1"
_symmetry_group_IT_number 2
_symmetry_cell_setting 'triclinic'
loop_
_space_group_symop_operation_xyz
x,y,z
-x,-y,-z
loop_
_atom_site_type_symbol
_atom_site_label
_atom_site_fract_x
_atom_site_fract_y
_atom_site_fract_z
Si Si1 0.215269 0.720580 0.830813
Si Si2 0.196516 0.445470 0.781223
Si Si3 0.879957 0.038399 0.266262
Si Si4 0.573628 0.669798 0.718342
Si Si5 0.753444 0.590220 0.975306
Si Si6 0.151460 0.929029 0.358051
Si Si7 0.345050 0.224231 0.888179
Si Si8 0.600386 0.144830 0.400151
O O1 0.426422 0.698834 0.732063
O O2 0.278806 0.785670 0.724940
O O3 0.154840 0.815310 0.105986
O O4 0.008895 0.595119 0.787765
O O5 0.414994 0.556335 0.753285
O O6 0.213593 0.356305 0.519443
O O7 0.233685 0.392251 0.835512
O O8 0.000000 0.500000 0.000000
O O9 0.943067 0.115060 0.478002
O O10 0.724886 0.090777 0.355067
O O11 0.780522 0.913295 0.240347
O O12 0.000000 0.000000 0.000000
O O13 0.627698 0.764419 0.942337
O O14 0.768725 0.692263 0.990480
O O15 0.500000 0.500000 0.000000
O O16 0.398252 0.027692 0.321641
O O17 0.000000 0.000000 0.500000
O O18 0.550056 0.243322 0.671007
#
# Coordination Sequence:
#
# PCOD9059504 Si02
#       8
#     2   2   2   2   2   2   2   2
#     4  12  24  43  72 107 140 195 246 289 364 427
#     4  11  24  50  70  99 139 180 237 309 360 416
#     4  11  23  42  66 101 144 184 231 289 354 428
#     4  11  24  44  73 102 136 184 241 293 358 430
#     4  12  25  46  69  99 143 182 237 301 356 427
#     4  11  23  41  70 102 145 188 234 298 354 422
#     4  11  23  44  68 102 141 184 231 288 362 427
#     4  11  23  44  68 104 146 184 234 294 352 432
#
# _framework density 23.786431
#
# number of rings (size 3 to 8) (size 9 to 14) (size 15 to 20)
#    0.000    0.750    2.500    7.125    0.000    2.000 
#    4.500    3.125    0.000    0.000    0.000    0.000 
#    0.000    0.000    0.000    0.000    0.000    0.000 
#
# Total GULP energy -89079.823962 kJ/mol
# GULP energy per Si atom -5567.488998 kJ/mol
# Density = 2.373229 g / cm^3
# Si number density = 23.786431 Si / 1000 Ang^3
#
#
#
# Elastic Constant Matrix: (Units=GPa)
#
#
# Indices 1 2 3 4 5 6 
#
# 1 124.5551 23.4266 46.6434 -13.4233 -0.2245 -21.5212
# 2 23.4266 104.8310 10.5000 -21.7245 10.6129 -5.6143
# 3 46.6434 10.5000 143.4232 -24.4180 5.3227 12.2022
# 4 -13.4233 -21.7245 -24.4180 28.4967 -10.3992 5.0642
# 5 -0.2245 10.6129 5.3227 -10.3992 33.3825 0.5058
# 6 -21.5212 -5.6143 12.2022 5.0642 0.5058 38.2745
#
#
#
# Elastic Compliance Matrix: (Units=1/GPa)
#
#
# Indices 1 2 3 4 5 6 
#
# 1 0.011223 -0.001957 -0.004334 -0.000890 0.000998 0.007510
# 2 -0.001957 0.011769 0.001445 0.009049 -0.001151 -0.001017
# 3 -0.004334 0.001445 0.010453 0.009571 0.000930 -0.006836
# 4 -0.000890 0.009049 0.009571 0.056379 0.013303 -0.009859
# 5 0.000998 -0.001151 0.000930 0.013303 0.034356 -0.002118
# 6 0.007510 -0.001017 -0.006836 -0.009859 -0.002118 0.033712
#
#
# Mechanical properties :
#
#
# Convention : Reuss Voigt Hill
#
# Bulk Modulus (GPa) = 42.10192 59.32768 50.71480
# Shear Modulus (GPa) = 28.48954 39.51336 34.00145
#
# Velocity S-wave (km/s) = 3.46457 4.08017 3.78490
# Velocity P-wave (km/s) = 5.80885 6.86972 6.36143
#
# Compressibility (1/GPa) = 0.02375189
#
# Stress axis : x y z
#
# Youngs Moduli (GPa) = 89.10103 84.96817 95.67005
#
# Poissons Ratio (x) = 0.16629 0.41464
# Poissons Ratio (y) = 0.17438 -0.13821
# Poissons Ratio (z) = 0.38617 -0.12275
#
# Static dielectric constant tensor:
#      x y z
#    x 1.933170 0.108790 0.041240 
#    y 0.108790 1.897690 0.027130 
#    z 0.041240 0.027130 1.892600 
# 
# From -- ./inp_files/218511.got.cif
#   From: 2010.05.17/outbox.cif.g08.bks.cpg/sg2_110_cif.got.tgz:218511.got - 2010.06.03 11:33:40.
