data_PCOD9059117
_publ_section_title
;
Structure prediction by ZEFSAII (Michael W. Deem and Ramdas Pophale) SiO2 
 PCOD9059117
Probable space group: P -1
;
_chemical_formula_sum "Si O2"
_cell_formula_units_Z 14
_cell_length_a 6.667105
_cell_length_b 13.608103
_cell_length_c 11.973677
_cell_angle_alpha 62.717422
_cell_angle_beta 99.219145
_cell_angle_gamma 135.052051
_cell_volume 658.341038
_symmetry_space_group_name_H-M "P -1"
_symmetry_group_IT_number 2
_symmetry_cell_setting 'triclinic'
loop_
_space_group_symop_operation_xyz
x,y,z
-x,-y,-z
loop_
_atom_site_type_symbol
_atom_site_label
_atom_site_fract_x
_atom_site_fract_y
_atom_site_fract_z
Si Si1 0.216904 0.999988 0.584182
Si Si2 0.231140 0.191013 0.927227
Si Si3 0.850620 0.350578 0.985421
Si Si4 0.797962 0.251634 0.393053
Si Si5 0.390796 0.590906 0.767334
Si Si6 0.474887 0.519023 0.357162
Si Si7 0.051404 0.208805 0.136996
O O1 0.565937 0.157095 0.523970
O O2 0.182737 0.863130 0.598884
O O3 0.000000 0.000000 0.500000
O O4 0.105524 0.950675 0.726564
O O5 0.541483 0.264589 0.956470
O O6 0.310548 0.302140 0.770850
O O7 0.117298 0.212273 0.013516
O O8 0.000000 0.000000 0.000000
O O9 0.077115 0.425857 0.865262
O O10 0.000000 0.500000 0.000000
O O11 0.846256 0.234865 0.111899
O O12 0.640124 0.288489 0.291794
O O13 0.132980 0.417658 0.359793
O O14 0.465788 0.568021 0.666368
O O15 0.644055 0.651238 0.842959
O O16 0.500000 0.500000 0.500000
#
# Coordination Sequence:
#
# PCOD9059117 Si02
#       7
#     2   2   2   2   2   2   2
#     4  11  23  40  67 109 149 179 228 300 361 430
#     4  12  29  48  70 107 152 196 245 308 372 438
#     4  12  23  42  78 107 139 183 243 302 371 429
#     4  11  23  42  72 103 142 188 240 290 370 429
#     4  12  22  44  74 108 135 183 251 304 361 435
#     4  12  27  49  71 100 148 200 251 302 364 445
#     4  12  24  42  75 106 145 183 238 307 367 432
#
# _framework density 21.265575999999999
#
# number of rings (size 3 to 8) (size 9 to 14) (size 15 to 20)
#    0.000    0.286    7.143    2.143    0.000    4.571 
#    2.571    0.000    0.000    0.000    0.000    0.000 
#    0.000    0.000    0.000    0.000    0.000    0.000 
#
# Total GULP energy -78134.292482 kJ/mol
# GULP energy per Si atom -5581.020892 kJ/mol
# Density = 2.121717 g / cm^3
# Si number density = 21.265576 Si / 1000 Ang^3
#
#
#
# Elastic Constant Matrix: (Units=GPa)
#
#
# Indices 1 2 3 4 5 6 
#
# 1 114.5598 34.8130 54.7956 -2.9542 -2.9357 -12.4462
# 2 34.8130 86.9711 46.8547 -6.1308 -10.0798 -0.4346
# 3 54.7956 46.8547 155.1528 -13.3371 -9.1271 -9.0969
# 4 -2.9542 -6.1308 -13.3371 35.2878 2.6995 -9.3664
# 5 -2.9357 -10.0798 -9.1271 2.6995 47.2189 -15.6977
# 6 -12.4462 -0.4346 -9.0969 -9.3664 -15.6977 30.0298
#
#
#
# Elastic Compliance Matrix: (Units=1/GPa)
#
#
# Indices 1 2 3 4 5 6 
#
# 1 0.011493 -0.002908 -0.002805 0.000534 0.001045 0.004585
# 2 -0.002908 0.014712 -0.003271 0.000740 0.002061 -0.000675
# 3 -0.002805 -0.003271 0.009036 0.003417 0.001865 0.003568
# 4 0.000534 0.000740 0.003417 0.033091 0.003404 0.013367
# 5 0.001045 0.002061 0.001865 0.003404 0.027285 0.016352
# 6 0.004585 -0.000675 0.003568 0.013367 0.016352 0.048989
#
#
# Mechanical properties :
#
#
# Convention : Reuss Voigt Hill
#
# Bulk Modulus (GPa) = 57.88865 69.95670 63.92268
# Shear Modulus (GPa) = 29.70371 37.18866 33.44619
#
# Velocity S-wave (km/s) = 3.74143 4.18637 3.97014
# Velocity P-wave (km/s) = 6.77829 7.50571 7.15126
#
# Compressibility (1/GPa) = 0.01727454
#
# Stress axis : x y z
#
# Youngs Moduli (GPa) = 87.01081 67.97369 110.66752
#
# Poissons Ratio (x) = 0.19765 0.31038
# Poissons Ratio (y) = 0.25300 0.36195
# Poissons Ratio (z) = 0.24404 0.22232
#
# Static dielectric constant tensor:
#      x y z
#    x 1.776540 -0.049360 0.003200 
#    y -0.049360 1.797450 -0.073710 
#    z 0.003200 -0.073710 1.871520 
# 
# From -- ./inp_files/364109.got.cif
#   From: 2010.05.17/outbox.cif.g08.bks.cpg/sg2_183_cif.got.tgz:364109.got - 2010.06.03 11:33:40.
