data_PCOD9059684
_publ_section_title
;
Structure prediction by ZEFSAII (Michael W. Deem and Ramdas Pophale) SiO2 
 PCOD9059684
Probable space group: P -1
;
_chemical_formula_sum "Si O2"
_cell_formula_units_Z 16
_cell_length_a 9.930563
_cell_length_b 17.855176
_cell_length_c 11.871644
_cell_angle_alpha 33.587494
_cell_angle_beta 56.856048
_cell_angle_gamma 41.950046
_cell_volume 763.208666
_symmetry_space_group_name_H-M "P -1"
_symmetry_group_IT_number 2
_symmetry_cell_setting 'triclinic'
loop_
_space_group_symop_operation_xyz
x,y,z
-x,-y,-z
loop_
_atom_site_type_symbol
_atom_site_label
_atom_site_fract_x
_atom_site_fract_y
_atom_site_fract_z
Si Si1 0.681908 0.242528 0.952602
Si Si2 0.053614 0.225099 0.831318
Si Si3 0.014840 0.845217 0.633630
Si Si4 0.364777 0.638007 0.545532
Si Si5 0.312905 0.999973 0.601925
Si Si6 0.023845 0.670050 0.516839
Si Si7 0.076282 0.338599 0.916695
Si Si8 0.555043 0.146755 0.908767
O O1 0.550715 0.446572 0.740295
O O2 0.647690 0.173278 0.942789
O O3 0.916190 0.160733 0.972818
O O4 0.612968 0.185128 0.159118
O O5 0.992688 0.325769 0.615462
O O6 0.008487 0.333791 0.827395
O O7 0.290918 0.055917 0.935935
O O8 0.209661 0.735762 0.598439
O O9 0.816708 0.934802 0.533440
O O10 0.000000 0.000000 0.500000
O O11 0.005417 0.732077 0.872301
O O12 0.438072 0.742848 0.330503
O O13 0.234260 0.625949 0.523556
O O14 0.158079 0.141094 0.589843
O O15 0.500000 0.000000 0.500000
O O16 0.005254 0.526275 0.748014
O O17 0.325150 0.218443 0.950518
#
# Coordination Sequence:
#
# PCOD9059684 Si02
#       8
#     2   2   2   2   2   2   2   2
#     4  12  22  42  70  97 129 172 227 271 325 391
#     4  12  24  42  67 101 134 171 220 276 330 384
#     4  11  26  49  66  95 137 178 216 267 341 399
#     4  11  24  42  73  98 134 176 221 270 328 399
#     4  11  25  42  68  97 130 172 224 274 322 394
#     4  11  23  42  67 100 133 173 219 274 329 387
#     4  12  26  43  68  98 139 174 218 275 331 393
#     4  12  22  43  70 100 131 173 224 273 328 390
#
# _framework density 20.964122
#
# number of rings (size 3 to 8) (size 9 to 14) (size 15 to 20)
#    0.000    0.500    3.750    6.000    1.750    1.000 
#    2.250    1.250    0.000    0.000    0.000    0.000 
#    0.000    0.000    0.000    0.000    0.000    0.000 
#
# Total GULP energy -89544.700005 kJ/mol
# GULP energy per Si atom -5596.543750 kJ/mol
# Density = 2.091641 g / cm^3
# Si number density = 20.964122 Si / 1000 Ang^3
#
#
#
# Elastic Constant Matrix: (Units=GPa)
#
#
# Indices 1 2 3 4 5 6 
#
# 1 57.8233 24.7782 -9.5469 10.3821 4.4000 8.0017
# 2 24.7782 46.7608 17.8813 2.6773 9.8427 2.0716
# 3 -9.5469 17.8813 118.0311 10.8970 -0.0495 1.6295
# 4 10.3821 2.6773 10.8970 32.5429 -5.0246 -0.4464
# 5 4.4000 9.8427 -0.0495 -5.0246 29.9321 2.9464
# 6 8.0017 2.0716 1.6295 -0.4464 2.9464 38.3629
#
#
#
# Elastic Compliance Matrix: (Units=1/GPa)
#
#
# Indices 1 2 3 4 5 6 
#
# 1 0.027429 -0.015930 0.005567 -0.009351 0.000160 -0.005218
# 2 -0.015930 0.033909 -0.006766 0.003278 -0.008513 0.002471
# 3 0.005567 -0.006766 0.010391 -0.004596 0.000785 -0.001351
# 4 -0.009351 0.003278 -0.004596 0.035955 0.006136 0.001916
# 5 0.000160 -0.008513 0.000785 0.006136 0.037454 -0.002412
# 6 -0.005218 0.002471 -0.001351 0.001916 -0.002412 0.027287
#
#
# Mechanical properties :
#
#
# Convention : Reuss Voigt Hill
#
# Bulk Modulus (GPa) = 26.68734 32.09338 29.39036
# Shear Modulus (GPa) = 22.81318 32.80107 27.80712
#
# Velocity S-wave (km/s) = 3.30237 3.95983 3.64595
# Velocity P-wave (km/s) = 5.22480 6.02071 5.63682
#
# Compressibility (1/GPa) = 0.03747095
#
# Stress axis : x y z
#
# Youngs Moduli (GPa) = 36.45837 29.49089 96.23722
#
# Poissons Ratio (x) = 0.46980 -0.53579
# Poissons Ratio (y) = 0.58079 0.65113
# Poissons Ratio (z) = -0.20298 0.19953
#
# Static dielectric constant tensor:
#      x y z
#    x 1.731240 -0.004450 0.004930 
#    y -0.004450 1.747470 0.006180 
#    z 0.004930 0.006180 1.742280 
# 
# From -- ./inp_files/184841.got.cif
#   From: 2010.05.17/outbox.cif.g08.bks.cpg/sg2_93_cif.got.tgz:184841.got - 2010.06.03 11:33:40.
