data_PCOD9059830
_publ_section_title
;
Structure prediction by ZEFSAII (Michael W. Deem and Ramdas Pophale) SiO2 
 PCOD9059830
Probable space group: P -1
;
_chemical_formula_sum "Si O2"
_cell_formula_units_Z 13
_cell_length_a 8.186187
_cell_length_b 8.514925
_cell_length_c 16.630689
_cell_angle_alpha 142.458297
_cell_angle_beta 132.091433
_cell_angle_gamma 50.649965
_cell_volume 510.519181
_symmetry_space_group_name_H-M "P -1"
_symmetry_group_IT_number 2
_symmetry_cell_setting 'triclinic'
loop_
_space_group_symop_operation_xyz
x,y,z
-x,-y,-z
loop_
_atom_site_type_symbol
_atom_site_label
_atom_site_fract_x
_atom_site_fract_y
_atom_site_fract_z
Si Si1 0.353361 0.507096 0.837018
Si Si2 0.085173 0.909933 0.316642
Si Si3 0.000000 0.000000 0.000000
Si Si4 0.858455 0.316200 0.921410
Si Si5 0.244778 0.397664 0.579574
Si Si6 0.644542 0.068149 0.325479
Si Si7 0.340236 0.542002 0.367654
O O1 0.185791 0.737982 0.920764
O O2 0.615483 0.500804 0.936637
O O3 0.297771 0.531938 0.733557
O O4 0.341514 0.212667 0.743631
O O5 0.167722 0.876441 0.239537
O O6 0.149800 0.639561 0.278797
O O7 0.230418 0.102390 0.480405
O O8 0.822133 0.025701 0.293761
O O9 0.020717 0.860547 0.039446
O O10 0.000000 0.500000 0.000000
O O11 0.433490 0.412448 0.581971
O O12 0.000000 0.500000 0.500000
O O13 0.394643 0.229567 0.280046
O O14 0.710140 0.274788 0.495599
#
# Coordination Sequence:
#
# PCOD9059830 Si02
#       7
#     2   2   1   2   2   2   2
#     4  12  27  52  78 113 159 205 266 334 394 477
#     4  12  23  44  77 115 158 204 251 321 402 480
#     4  12  30  54  80 112 152 218 272 334 392 462
#     4  12  29  54  82 113 155 215 279 331 392 473
#     4  12  23  44  75 115 159 199 249 317 408 480
#     4  11  25  41  72 118 157 196 252 312 398 485
#     4  11  23  42  69 112 162 204 238 312 401 478
#
# _framework density 25.464272999999999
#
# number of rings (size 3 to 8) (size 9 to 14) (size 15 to 20)
#    0.000    0.308    4.615    4.154    0.000    3.077 
#    0.000    0.000    0.000    0.000    0.000    0.000 
#    0.000    0.000    0.000    0.000    0.000    0.000 
#
# Total GULP energy -72640.818243 kJ/mol
# GULP energy per Si atom -5587.755249 kJ/mol
# Density = 2.540631 g / cm^3
# Si number density = 25.464273 Si / 1000 Ang^3
#
#
#
# Elastic Constant Matrix: (Units=GPa)
#
#
# Indices 1 2 3 4 5 6 
#
# 1 115.9522 58.4511 23.7087 21.3822 -13.2990 -7.2548
# 2 58.4511 238.6784 39.8549 10.2078 -19.6143 -4.6824
# 3 23.7087 39.8549 58.6384 18.2428 -16.6987 2.3427
# 4 21.3822 10.2078 18.2428 32.7615 1.2562 -16.9222
# 5 -13.2990 -19.6143 -16.6987 1.2562 46.9869 -1.7826
# 6 -7.2548 -4.6824 2.3427 -16.9222 -1.7826 44.4495
#
#
#
# Elastic Compliance Matrix: (Units=1/GPa)
#
#
# Indices 1 2 3 4 5 6 
#
# 1 0.011339 -0.002283 -0.000027 -0.007324 0.002401 -0.001080
# 2 -0.002283 0.005258 -0.003332 0.002346 0.000350 0.001264
# 3 -0.000027 -0.003332 0.028346 -0.019717 0.008861 -0.009000
# 4 -0.007324 0.002346 -0.019717 0.056954 -0.008811 0.021420
# 5 0.002401 0.000350 0.008861 -0.008811 0.025403 -0.002374
# 6 -0.001080 0.001264 -0.009000 0.021420 -0.002374 0.030988
#
#
# Mechanical properties :
#
#
# Convention : Reuss Voigt Hill
#
# Bulk Modulus (GPa) = 29.70896 73.03316 51.37106
# Shear Modulus (GPa) = 27.65594 44.25654 35.95624
#
# Velocity S-wave (km/s) = 3.29913 4.17344 3.76177
# Velocity P-wave (km/s) = 5.11904 7.20877 6.25184
#
# Compressibility (1/GPa) = 0.03365988
#
# Stress axis : x y z
#
# Youngs Moduli (GPa) = 88.19038 190.17280 35.27787
#
# Poissons Ratio (x) = 0.43415 0.00096
# Poissons Ratio (y) = 0.20133 0.11754
# Poissons Ratio (z) = 0.00241 0.63361
#
# Static dielectric constant tensor:
#      x y z
#    x 2.009470 -0.038770 0.128880 
#    y -0.038770 2.091860 0.011400 
#    z 0.128880 0.011400 2.337400 
# 
# From -- ./inp_files/555755.got.cif
#   From: 2010.05.17/outbox.cif.g08.bks.cpg/sg2_278_cif.got.tgz:555755.got - 2010.06.03 11:33:40.
