data_PCOD9059600
_publ_section_title
;
Structure prediction by ZEFSAII (Michael W. Deem and Ramdas Pophale) SiO2 
 PCOD9059600
Probable space group: P -1
;
_chemical_formula_sum "Si O2"
_cell_formula_units_Z 16
_cell_length_a 11.811831
_cell_length_b 8.375928
_cell_length_c 12.836175
_cell_angle_alpha 30.344384
_cell_angle_beta 90.363662
_cell_angle_gamma 83.034291
_cell_volume 621.037780
_symmetry_space_group_name_H-M "P -1"
_symmetry_group_IT_number 2
_symmetry_cell_setting 'triclinic'
loop_
_space_group_symop_operation_xyz
x,y,z
-x,-y,-z
loop_
_atom_site_type_symbol
_atom_site_label
_atom_site_fract_x
_atom_site_fract_y
_atom_site_fract_z
Si Si1 0.494696 0.150242 0.656392
Si Si2 0.707772 0.111672 0.261646
Si Si3 0.230866 0.368738 0.760916
Si Si4 0.079689 0.318776 0.979248
Si Si5 0.085627 0.148556 0.711270
Si Si6 0.644212 0.661868 0.773333
Si Si7 0.862705 0.854402 0.688834
Si Si8 0.558739 0.598194 0.145411
O O1 0.500000 0.500000 0.500000
O O2 0.364935 0.150827 0.616758
O O3 0.578786 0.989978 0.650710
O O4 0.531628 0.887184 0.897863
O O5 0.654517 0.301634 0.257823
O O6 0.845615 0.973578 0.326363
O O7 0.670864 0.387628 0.017203
O O8 0.186771 0.182278 0.772426
O O9 0.369868 0.308299 0.810535
O O10 0.173142 0.755793 0.528671
O O11 0.177923 0.250261 0.931458
O O12 0.137961 0.271854 0.120000
O O13 0.991272 0.083950 0.114734
O O14 0.993225 0.673504 0.757990
O O15 0.000000 0.500000 0.500000
O O16 0.766613 0.714602 0.705493
O O17 0.556766 0.535558 0.767834
#
# Coordination Sequence:
#
# PCOD9059600 Si02
#       8
#     2   2   2   2   2   2   2   2
#     4   9  18  33  67 101 127 169 222 277 331 393
#     4   9  19  39  65  89 130 182 216 260 337 397
#     4  12  26  41  67 103 134 169 229 286 333 389
#     4  11  24  44  66  97 135 177 226 284 331 393
#     4  12  25  43  65  99 137 180 220 279 343 394
#     4   9  18  39  64  93 128 174 219 263 330 403
#     4  11  23  41  74  96 129 181 229 271 336 404
#     4   9  21  41  65  97 135 174 223 273 325 410
#
# _framework density 25.763328999999999
#
# number of rings (size 3 to 8) (size 9 to 14) (size 15 to 20)
#    0.000    1.750    2.500    3.750    3.500    2.500 
#    0.000    5.000    0.000    0.000    0.000    0.000 
#    0.000    0.000    0.000    0.000    0.000    0.000 
#
# Total GULP energy -89686.898757 kJ/mol
# GULP energy per Si atom -5605.431172 kJ/mol
# Density = 2.570469 g / cm^3
# Si number density = 25.763329 Si / 1000 Ang^3
#
#
#
# Elastic Constant Matrix: (Units=GPa)
#
#
# Indices 1 2 3 4 5 6 
#
# 1 163.3381 64.7992 26.0104 -9.2297 -7.0422 30.7248
# 2 64.7992 76.7570 22.3733 -10.3153 -5.6148 23.5765
# 3 26.0104 22.3733 108.5577 -7.1845 -1.4031 11.3103
# 4 -9.2297 -10.3153 -7.1845 38.9147 9.5566 -4.9316
# 5 -7.0422 -5.6148 -1.4031 9.5566 37.5678 -6.6446
# 6 30.7248 23.5765 11.3103 -4.9316 -6.6446 63.7042
#
#
#
# Elastic Compliance Matrix: (Units=1/GPa)
#
#
# Indices 1 2 3 4 5 6 
#
# 1 0.009424 -0.007239 -0.000588 -0.000106 0.000384 -0.001730
# 2 -0.007239 0.021326 -0.002065 0.002997 0.000324 -0.003768
# 3 -0.000588 -0.002065 0.009920 0.001174 -0.000466 -0.000671
# 4 -0.000106 0.002997 0.001174 0.028358 -0.006701 0.000230
# 5 0.000384 0.000324 -0.000466 -0.006701 0.028827 0.002266
# 6 -0.001730 -0.003768 -0.000671 0.000230 0.002266 0.018300
#
#
# Mechanical properties :
#
#
# Convention : Reuss Voigt Hill
#
# Bulk Modulus (GPa) = 47.88272 63.89096 55.88684
# Shear Modulus (GPa) = 34.98951 43.73534 39.36243
#
# Velocity S-wave (km/s) = 3.68926 4.12464 3.91301
# Velocity P-wave (km/s) = 6.06411 6.89468 6.49269
#
# Compressibility (1/GPa) = 0.02088436
#
# Stress axis : x y z
#
# Youngs Moduli (GPa) = 106.11546 46.89205 100.80867
#
# Poissons Ratio (x) = 0.33946 0.05925
# Poissons Ratio (y) = 0.76818 0.20822
# Poissons Ratio (z) = 0.06237 0.09685
#
# Static dielectric constant tensor:
#      x y z
#    x 2.021190 0.008060 0.007260 
#    y 0.008060 2.068890 0.011030 
#    z 0.007260 0.011030 2.008010 
# 
# From -- ./inp_files/514827.got.cif
#   From: 2010.05.17/outbox.cif.g08.bks.cpg/sg2_258_cif.got.tgz:514827.got - 2010.06.03 11:33:40.
