data_PCOD9059301
_publ_section_title
;
Structure prediction by ZEFSAII (Michael W. Deem and Ramdas Pophale) SiO2 
 PCOD9059301
Probable space group: P -1
;
_chemical_formula_sum "Si O2"
_cell_formula_units_Z 16
_cell_length_a 8.647818
_cell_length_b 12.903153
_cell_length_c 9.241901
_cell_angle_alpha 113.565572
_cell_angle_beta 135.484975
_cell_angle_gamma 85.970277
_cell_volume 624.588733
_symmetry_space_group_name_H-M "P -1"
_symmetry_group_IT_number 2
_symmetry_cell_setting 'triclinic'
loop_
_space_group_symop_operation_xyz
x,y,z
-x,-y,-z
loop_
_atom_site_type_symbol
_atom_site_label
_atom_site_fract_x
_atom_site_fract_y
_atom_site_fract_z
Si Si1 0.405734 0.526087 0.105494
Si Si2 0.983807 0.966885 0.639791
Si Si3 0.843808 0.558745 0.599951
Si Si4 0.478826 0.220611 0.777287
Si Si5 0.320636 0.873124 0.386831
Si Si6 0.779012 0.297333 0.289219
Si Si7 0.570407 0.853322 0.826125
Si Si8 0.853652 0.666978 0.972328
O O1 0.593102 0.550117 0.369802
O O2 0.383678 0.653587 0.135739
O O3 0.211492 0.409627 0.968174
O O4 0.500000 0.500000 0.000000
O O5 0.825441 0.037239 0.645056
O O6 0.804077 0.829651 0.456550
O O7 0.000000 0.000000 0.500000
O O8 0.240391 0.025673 0.913823
O O9 0.850071 0.427326 0.487333
O O10 0.849370 0.583118 0.785753
O O11 0.023892 0.666246 0.685634
O O12 0.588356 0.132201 0.718112
O O13 0.546382 0.247303 0.004084
O O14 0.519010 0.879025 0.640968
O O15 0.115367 0.750737 0.212991
O O16 0.686757 0.196240 0.295282
O O17 0.688656 0.748225 0.868510
#
# Coordination Sequence:
#
# PCOD9059301 Si02
#       8
#     2   2   2   2   2   2   2   2
#     4  12  25  40  69 105 143 185 232 284 347 422
#     4  11  26  49  77  98 138 182 234 300 351 405
#     4  11  23  41  65 100 143 186 224 277 346 415
#     4  12  24  48  67 103 141 184 231 291 348 409
#     4  11  27  45  76 104 136 182 239 292 349 416
#     4  11  23  41  66  98 145 180 224 285 343 408
#     4  11  24  47  73 105 136 183 236 290 349 413
#     4  11  24  45  70 103 147 185 227 287 348 417
#
# _framework density 25.616858000000001
#
# number of rings (size 3 to 8) (size 9 to 14) (size 15 to 20)
#    0.000    0.750    5.000    1.500    5.250    1.500 
#    2.250    0.000    0.000    0.000    0.000    0.000 
#    0.000    0.000    0.000    0.000    0.000    0.000 
#
# Total GULP energy -89374.163073 kJ/mol
# GULP energy per Si atom -5585.885192 kJ/mol
# Density = 2.555855 g / cm^3
# Si number density = 25.616858 Si / 1000 Ang^3
#
#
#
# Elastic Constant Matrix: (Units=GPa)
#
#
# Indices 1 2 3 4 5 6 
#
# 1 102.2402 32.8969 23.7263 26.1493 -2.1142 22.3544
# 2 32.8969 88.9129 21.0552 6.6635 -7.8222 18.7119
# 3 23.7263 21.0552 141.8715 8.5266 -2.3694 20.3679
# 4 26.1493 6.6635 8.5266 33.6932 6.9204 7.6355
# 5 -2.1142 -7.8222 -2.3694 6.9204 40.2806 7.1495
# 6 22.3544 18.7119 20.3679 7.6355 7.1495 35.8608
#
#
#
# Elastic Compliance Matrix: (Units=1/GPa)
#
#
# Indices 1 2 3 4 5 6 
#
# 1 0.014785 -0.003138 -0.000537 -0.010012 0.002870 -0.005714
# 2 -0.003138 0.014061 -0.000702 0.000425 0.003475 -0.005766
# 3 -0.000537 -0.000702 0.007856 -0.000797 0.001111 -0.003813
# 4 -0.010012 0.000425 -0.000797 0.039133 -0.007135 -0.000437
# 5 0.002870 0.003475 0.001111 -0.007135 0.028430 -0.008382
# 6 -0.005714 -0.005766 -0.003813 -0.000437 -0.008382 0.038386
#
#
# Mechanical properties :
#
#
# Convention : Reuss Voigt Hill
#
# Bulk Modulus (GPa) = 35.77828 54.26462 45.02145
# Shear Modulus (GPa) = 31.10982 38.98998 35.04990
#
# Velocity S-wave (km/s) = 3.48864 3.90557 3.70298
# Velocity P-wave (km/s) = 5.49768 6.44726 5.99131
#
# Compressibility (1/GPa) = 0.02794992
#
# Stress axis : x y z
#
# Youngs Moduli (GPa) = 67.63793 71.11675 127.28335
#
# Poissons Ratio (x) = 0.22314 0.06833
# Poissons Ratio (y) = 0.21222 0.08933
# Poissons Ratio (z) = 0.03631 0.04991
#
# Static dielectric constant tensor:
#      x y z
#    x 2.050110 -0.041400 0.010430 
#    y -0.041400 2.109260 0.053880 
#    z 0.010430 0.053880 2.048120 
# 
# From -- ./inp_files/208543.got.cif
#   From: 2010.05.17/outbox.cif.g08.bks.cpg/sg2_105_cif.got.tgz:208543.got - 2010.06.03 11:33:40.
