data_PCOD9059105
_publ_section_title
;
Structure prediction by ZEFSAII (Michael W. Deem and Ramdas Pophale) SiO2 
 PCOD9059105
Probable space group: P -1
;
_chemical_formula_sum "Si O2"
_cell_formula_units_Z 16
_cell_length_a 18.039268
_cell_length_b 5.620934
_cell_length_c 12.272172
_cell_angle_alpha 99.940782
_cell_angle_beta 50.843521
_cell_angle_gamma 65.325735
_cell_volume 688.574033
_symmetry_space_group_name_H-M "P -1"
_symmetry_group_IT_number 2
_symmetry_cell_setting 'triclinic'
loop_
_space_group_symop_operation_xyz
x,y,z
-x,-y,-z
loop_
_atom_site_type_symbol
_atom_site_label
_atom_site_fract_x
_atom_site_fract_y
_atom_site_fract_z
Si Si1 0.693196 0.446692 0.977701
Si Si2 0.283296 0.176090 0.500893
Si Si3 0.422529 0.877007 0.566390
Si Si4 0.462169 0.196867 0.231142
Si Si5 0.975527 0.095218 0.655074
Si Si6 0.012754 0.558570 0.724048
Si Si7 0.645873 0.287667 0.803210
Si Si8 0.296218 0.936937 0.896254
O O1 0.725882 0.187621 0.833566
O O2 0.556950 0.802211 0.095735
O O3 0.818957 0.399582 0.847685
O O4 0.677697 0.384624 0.111050
O O5 0.361525 0.930770 0.509474
O O6 0.352142 0.315926 0.430941
O O7 0.305198 0.998261 0.350906
O O8 0.128634 0.431390 0.688913
O O9 0.500000 0.500000 0.500000
O O10 0.500000 0.000000 0.500000
O O11 0.313993 0.051250 0.776512
O O12 0.579271 0.171424 0.157861
O O13 0.376850 0.434832 0.227454
O O14 0.017518 0.778042 0.653922
O O15 0.044285 0.229418 0.630062
O O16 0.000000 0.000000 0.500000
O O17 0.861324 0.799986 0.918784
O O18 0.500000 0.500000 0.000000
#
# Coordination Sequence:
#
# PCOD9059105 Si02
#       8
#     2   2   2   2   2   2   2   2
#     4  11  23  40  67 101 136 187 237 289 349 426
#     4  12  28  44  67 106 140 181 239 293 359 417
#     4  12  27  47  79 107 139 184 237 302 356 420
#     4  12  21  40  67  96 137 178 233 287 352 419
#     4  11  24  44  68  98 144 196 238 283 351 426
#     4  11  27  44  70 100 145 187 237 293 351 426
#     4  12  24  37  64 102 142 181 229 294 358 420
#     4  11  24  47  71 100 141 184 244 286 359 421
#
# _framework density 23.236425000000001
#
# number of rings (size 3 to 8) (size 9 to 14) (size 15 to 20)
#    0.000    0.500    5.000    3.000    3.500    1.500 
#    0.000    0.000    0.000    3.750    0.000    0.000 
#    0.000    0.000    0.000    0.000    0.000    0.000 
#
# Total GULP energy -89079.976780 kJ/mol
# GULP energy per Si atom -5567.498549 kJ/mol
# Density = 2.318354 g / cm^3
# Si number density = 23.236425 Si / 1000 Ang^3
#
#
#
# Elastic Constant Matrix: (Units=GPa)
#
#
# Indices 1 2 3 4 5 6 
#
# 1 84.4568 32.0217 44.8312 4.9643 -34.1389 -1.8426
# 2 32.0217 113.9630 52.2356 -21.1009 -17.8948 5.0201
# 3 44.8312 52.2356 78.3123 -23.6514 -24.5021 8.6285
# 4 4.9643 -21.1009 -23.6514 30.2966 -0.5933 1.4540
# 5 -34.1389 -17.8948 -24.5021 -0.5933 38.1930 -4.8612
# 6 -1.8426 5.0201 8.6285 1.4540 -4.8612 32.4783
#
#
#
# Elastic Compliance Matrix: (Units=1/GPa)
#
#
# Indices 1 2 3 4 5 6 
#
# 1 0.029924 -0.001828 -0.018719 -0.020984 0.014844 0.010114
# 2 -0.001828 0.013018 -0.005904 0.004802 0.000667 -0.000662
# 3 -0.018719 -0.005904 0.039281 0.030252 0.004743 -0.011230
# 4 -0.020984 0.004802 0.030252 0.064051 0.002306 -0.012492
# 5 0.014844 0.000667 0.004743 0.002306 0.043593 0.005901
# 6 0.010114 -0.000662 -0.011230 -0.012492 0.005901 0.035892
#
#
# Mechanical properties :
#
#
# Convention : Reuss Voigt Hill
#
# Bulk Modulus (GPa) = 34.10624 59.43434 46.77029
# Shear Modulus (GPa) = 17.33489 30.03649 23.68569
#
# Velocity S-wave (km/s) = 2.73430 3.59924 3.19617
# Velocity P-wave (km/s) = 4.96773 6.55029 5.81312
#
# Compressibility (1/GPa) = 0.02932014
#
# Stress axis : x y z
#
# Youngs Moduli (GPa) = 33.41803 76.81711 25.45740
#
# Poissons Ratio (x) = 0.14046 0.47653
# Poissons Ratio (y) = 0.06110 0.15031
# Poissons Ratio (z) = 0.62554 0.45356
#
# Static dielectric constant tensor:
#      x y z
#    x 2.019570 -0.044480 0.121020 
#    y -0.044480 2.169100 -0.006680 
#    z 0.121020 -0.006680 2.111710 
# 
# From -- ./inp_files/459500.got.cif
#   From: 2010.05.17/outbox.cif.g08.bks.cpg/sg2_230_cif.got.tgz:459500.got - 2010.06.03 11:33:40.
