data_PCOD9059116
_publ_section_title
;
Structure prediction by ZEFSAII (Michael W. Deem and Ramdas Pophale) SiO2 
 PCOD9059116
Probable space group: P -1
;
_chemical_formula_sum "Si O2"
_cell_formula_units_Z 14
_cell_length_a 21.276173
_cell_length_b 7.968472
_cell_length_c 9.204957
_cell_angle_alpha 114.316821
_cell_angle_beta 154.504555
_cell_angle_gamma 58.429981
_cell_volume 564.410855
_symmetry_space_group_name_H-M "P -1"
_symmetry_group_IT_number 2
_symmetry_cell_setting 'triclinic'
loop_
_space_group_symop_operation_xyz
x,y,z
-x,-y,-z
loop_
_atom_site_type_symbol
_atom_site_label
_atom_site_fract_x
_atom_site_fract_y
_atom_site_fract_z
Si Si1 0.759073 0.926549 0.245462
Si Si2 0.017679 0.321955 0.624893
Si Si3 0.880315 0.230971 0.584348
Si Si4 0.675382 0.599356 0.948830
Si Si5 0.576939 0.425653 0.396323
Si Si6 0.212644 0.044329 0.353203
Si Si7 0.252301 0.378168 0.367614
O O1 0.798214 0.874561 0.477330
O O2 0.893750 0.827435 0.370728
O O3 0.738534 0.155134 0.274694
O O4 0.627816 0.835546 0.906232
O O5 0.938075 0.224065 0.539181
O O6 0.865076 0.506391 0.317569
O O7 0.139600 0.381670 0.997032
O O8 0.839025 0.445542 0.647475
O O9 0.035958 0.086169 0.944432
O O10 0.630159 0.495983 0.682581
O O11 0.597623 0.561542 0.921047
O O12 0.610009 0.560045 0.389175
O O13 0.683164 0.191477 0.512257
O O14 0.283269 0.170868 0.441709
#
# Coordination Sequence:
#
# PCOD9059116 Si02
#       7
#     2   2   2   2   2   2   2
#     4  12  22  38  68 102 134 170 222 277 327 387
#     4  11  23  41  69 100 134 168 227 278 323 386
#     4  11  23  40  67 105 136 170 219 278 336 384
#     4  11  25  43  67  99 132 177 225 272 327 396
#     4  11  25  48  66  95 139 180 218 267 339 397
#     4  11  24  42  72 101 132 176 221 267 336 399
#     4  11  23  46  69 100 134 175 219 276 330 392
#
# _framework density 24.804627
#
# number of rings (size 3 to 8) (size 9 to 14) (size 15 to 20)
#    0.000    0.857    2.857    5.571    4.000    1.714 
#    2.571    2.857    0.000    0.000    0.000    0.000 
#    0.000    0.000    0.000    0.000    0.000    0.000 
#
# Total GULP energy -78317.547418 kJ/mol
# GULP energy per Si atom -5594.110530 kJ/mol
# Density = 2.474817 g / cm^3
# Si number density = 24.804627 Si / 1000 Ang^3
#
#
#
# Elastic Constant Matrix: (Units=GPa)
#
#
# Indices 1 2 3 4 5 6 
#
# 1 158.6202 50.9190 40.6469 15.4180 11.8490 10.2417
# 2 50.9190 114.0080 61.4767 34.4086 9.4143 3.2665
# 3 40.6469 61.4767 65.0333 11.8137 4.3800 -15.8357
# 4 15.4180 34.4086 11.8137 37.0372 -0.2553 5.9492
# 5 11.8490 9.4143 4.3800 -0.2553 46.0461 16.8466
# 6 10.2417 3.2665 -15.8357 5.9492 16.8466 40.6746
#
#
#
# Elastic Compliance Matrix: (Units=1/GPa)
#
#
# Indices 1 2 3 4 5 6 
#
# 1 0.008205 -0.000153 -0.005894 -0.000709 0.000035 -0.004259
# 2 -0.000153 0.027788 -0.025757 -0.015918 0.000400 -0.010058
# 3 -0.005894 -0.025757 0.048461 0.007003 -0.006619 0.024137
# 4 -0.000709 -0.015918 0.007003 0.040442 0.004277 -0.003503
# 5 0.000035 0.000400 -0.006619 0.004277 0.027657 -0.014698
# 6 -0.004259 -0.010058 0.024137 -0.003503 -0.014698 0.042463
#
#
# Mechanical properties :
#
#
# Convention : Reuss Voigt Hill
#
# Bulk Modulus (GPa) = 47.97509 71.52742 59.75126
# Shear Modulus (GPa) = 18.82712 37.05951 27.94332
#
# Velocity S-wave (km/s) = 2.75801 3.86950 3.36003
# Velocity P-wave (km/s) = 5.43372 6.99020 6.26052
#
# Compressibility (1/GPa) = 0.02084415
#
# Stress axis : x y z
#
# Youngs Moduli (GPa) = 121.87228 35.98639 20.63532
#
# Poissons Ratio (x) = 0.00551 0.12163
# Poissons Ratio (y) = 0.01866 0.53151
# Poissons Ratio (z) = 0.71837 0.92692
#
# Static dielectric constant tensor:
#      x y z
#    x 1.969990 0.079930 0.028260 
#    y 0.079930 2.026480 -0.015210 
#    z 0.028260 -0.015210 1.970740 
# 
# From -- ./inp_files/343815.got.cif
#   From: 2010.05.17/outbox.cif.g08.bks.cpg/sg2_172_cif.got.tgz:343815.got - 2010.06.03 11:33:40.
