data_PCOD9059742
_publ_section_title
;
Structure prediction by ZEFSAII (Michael W. Deem and Ramdas Pophale) SiO2 
 PCOD9059742
Probable space group: P -1
;
_chemical_formula_sum "Si O2"
_cell_formula_units_Z 16
_cell_length_a 6.869832
_cell_length_b 21.166623
_cell_length_c 16.588766
_cell_angle_alpha 159.299358
_cell_angle_beta 107.304220
_cell_angle_gamma 83.815503
_cell_volume 702.534574
_symmetry_space_group_name_H-M "P -1"
_symmetry_group_IT_number 2
_symmetry_cell_setting 'triclinic'
loop_
_space_group_symop_operation_xyz
x,y,z
-x,-y,-z
loop_
_atom_site_type_symbol
_atom_site_label
_atom_site_fract_x
_atom_site_fract_y
_atom_site_fract_z
Si Si1 0.708769 0.680881 0.793341
Si Si2 0.378259 0.893795 0.442965
Si Si3 0.332287 0.292922 0.682428
Si Si4 0.852772 0.942259 0.271433
Si Si5 0.831271 0.984781 0.031767
Si Si6 0.217601 0.408174 0.634727
Si Si7 0.587644 0.361961 0.519922
Si Si8 0.980463 0.378272 0.040150
O O1 0.500000 0.500000 0.500000
O O2 0.854800 0.848542 0.943323
O O3 0.759492 0.531408 0.676979
O O4 0.693833 0.824991 0.033281
O O5 0.550129 0.849476 0.464356
O O6 0.500000 0.000000 0.500000
O O7 0.289719 0.024160 0.636551
O O8 0.152413 0.677796 0.127995
O O9 0.304691 0.343871 0.648480
O O10 0.500000 0.500000 0.000000
O O11 0.072572 0.159429 0.529504
O O12 0.959450 0.802513 0.150964
O O13 0.571832 0.853839 0.803081
O O14 0.000000 0.000000 0.000000
O O15 0.953292 0.220494 0.357149
O O16 0.397749 0.425105 0.606714
O O17 0.189636 0.599176 0.888759
O O18 0.768526 0.406961 0.668477
#
# Coordination Sequence:
#
# PCOD9059742 Si02
#       8
#     2   2   2   2   2   2   2   2
#     4   9  18  38  68  97 130 174 223 273 332 403
#     4  12  27  44  68  96 134 181 229 278 342 407
#     4  12  26  42  66  98 138 179 227 279 344 401
#     4  11  25  43  69  97 136 179 231 284 335 409
#     4   9  18  39  67  98 138 176 217 288 340 400
#     4  11  23  42  67  99 139 176 225 283 340 404
#     4   9  22  38  68  95 135 179 225 277 339 406
#     4  11  24  40  69  97 132 177 230 274 341 402
#
# _framework density 22.774678000000002
#
# number of rings (size 3 to 8) (size 9 to 14) (size 15 to 20)
#    0.000    1.500    3.750    0.375    5.250    2.000 
#    0.000    0.000   11.000   19.500    0.000    0.000 
#    0.000    0.000    0.000    0.000    0.000    0.000 
#
# Total GULP energy -89159.690874 kJ/mol
# GULP energy per Si atom -5572.480680 kJ/mol
# Density = 2.272284 g / cm^3
# Si number density = 22.774678 Si / 1000 Ang^3
#
#
#
# Elastic Constant Matrix: (Units=GPa)
#
#
# Indices 1 2 3 4 5 6 
#
# 1 117.3065 52.6811 50.2489 -0.7106 -25.0967 3.7189
# 2 52.6811 97.5380 27.6525 -7.5086 -6.4494 11.0303
# 3 50.2489 27.6525 149.5900 -23.0349 -1.8580 10.9282
# 4 -0.7106 -7.5086 -23.0349 42.1366 -3.7534 4.5176
# 5 -25.0967 -6.4494 -1.8580 -3.7534 48.5595 -3.8908
# 6 3.7189 11.0303 10.9282 4.5176 -3.8908 31.5065
#
#
#
# Elastic Compliance Matrix: (Units=1/GPa)
#
#
# Indices 1 2 3 4 5 6 
#
# 1 0.014785 -0.006954 -0.004336 -0.003144 0.006586 0.003457
# 2 -0.006954 0.014574 0.000475 0.003127 -0.001809 -0.005118
# 3 -0.004336 0.000475 0.009117 0.005247 -0.001727 -0.003782
# 4 -0.003144 0.003127 0.005247 0.027853 0.000626 -0.006460
# 5 0.006586 -0.001809 -0.001727 0.000626 0.024006 0.003329
# 6 0.003457 -0.005118 -0.003782 -0.006460 0.003329 0.035772
#
#
# Mechanical properties :
#
#
# Convention : Reuss Voigt Hill
#
# Bulk Modulus (GPa) = 59.36475 69.51107 64.43791
# Shear Modulus (GPa) = 32.60468 40.03066 36.31767
#
# Velocity S-wave (km/s) = 3.78778 4.19702 3.99764
# Velocity P-wave (km/s) = 6.72699 7.35351 7.04722
#
# Compressibility (1/GPa) = 0.01684501
#
# Stress axis : x y z
#
# Youngs Moduli (GPa) = 67.63456 68.61737 109.69121
#
# Poissons Ratio (x) = 0.47716 0.47562
# Poissons Ratio (y) = 0.47033 -0.05208
# Poissons Ratio (z) = 0.29327 -0.03258
#
# Static dielectric constant tensor:
#      x y z
#    x 1.875170 -0.063320 0.037950 
#    y -0.063320 2.210950 0.022600 
#    z 0.037950 0.022600 1.964000 
# 
# From -- ./inp_files/551302.got.cif
#   From: 2010.05.17/outbox.cif.g08.bks.cpg/sg2_276_cif.got.tgz:551302.got - 2010.06.03 11:33:40.
