data_PCOD9059855
_publ_section_title
;
Structure prediction by ZEFSAII (Michael W. Deem and Ramdas Pophale) SiO2 
 PCOD9059855
Probable space group: P -1
;
_chemical_formula_sum "Si O2"
_cell_formula_units_Z 16
_cell_length_a 8.139776
_cell_length_b 9.965104
_cell_length_c 15.280720
_cell_angle_alpha 40.404044
_cell_angle_beta 69.323449
_cell_angle_gamma 73.452586
_cell_volume 751.388390
_symmetry_space_group_name_H-M "P -1"
_symmetry_group_IT_number 2
_symmetry_cell_setting 'triclinic'
loop_
_space_group_symop_operation_xyz
x,y,z
-x,-y,-z
loop_
_atom_site_type_symbol
_atom_site_label
_atom_site_fract_x
_atom_site_fract_y
_atom_site_fract_z
Si Si1 0.278103 0.492221 0.898695
Si Si2 0.179334 0.872951 0.045430
Si Si3 0.197460 0.744710 0.308054
Si Si4 0.911337 0.480193 0.895128
Si Si5 0.840358 0.848610 0.604980
Si Si6 0.179274 0.275419 0.522500
Si Si7 0.543777 0.095718 0.312641
Si Si8 0.525517 0.921921 0.868763
O O1 0.396087 0.690134 0.760605
O O2 0.121895 0.458213 0.876085
O O3 0.175870 0.549580 0.979591
O O4 0.389189 0.282294 0.999716
O O5 0.193189 0.806883 0.176058
O O6 0.166037 0.676549 0.081734
O O7 0.352949 0.987493 0.923971
O O8 0.000000 0.000000 0.000000
O O9 0.241539 0.499953 0.429997
O O10 0.003542 0.773972 0.370993
O O11 0.335428 0.895959 0.250390
O O12 0.860414 0.706420 0.757043
O O13 0.853196 0.715962 0.579707
O O14 0.648645 0.956040 0.590482
O O15 0.000000 0.000000 0.500000
O O16 0.317165 0.089445 0.606246
O O17 0.527032 0.131151 0.194021
#
# Coordination Sequence:
#
# PCOD9059855 Si02
#       8
#     2   2   2   2   2   2   2   2
#     4  11  24  41  72 106 130 167 218 292 353 389
#     4  12  24  45  67 101 135 177 223 275 337 397
#     4  11  26  46  67  94 139 185 226 270 321 401
#     4  11  23  42  70 101 134 169 218 282 348 397
#     4  12  24  45  67 101 135 177 223 275 337 397
#     4  11  26  46  67  94 139 185 226 270 321 401
#     4  12  24  43  71 100 134 173 224 281 341 395
#     4  12  24  43  71 100 134 173 224 281 341 395
#
# _framework density 21.293914000000001
#
# number of rings (size 3 to 8) (size 9 to 14) (size 15 to 20)
#    0.000    0.500    3.750    4.875    3.500    0.500 
#    2.250    0.000    0.000    0.000    0.000    0.000 
#    0.000    0.000    0.000    0.000    0.000    0.000 
#
# Total GULP energy -89568.688028 kJ/mol
# GULP energy per Si atom -5598.043002 kJ/mol
# Density = 2.124545 g / cm^3
# Si number density = 21.293914 Si / 1000 Ang^3
#
#
#
# Elastic Constant Matrix: (Units=GPa)
#
#
# Indices 1 2 3 4 5 6 
#
# 1 103.0584 15.9061 37.8036 -18.2353 -25.3295 -3.2459
# 2 15.9061 42.9356 7.1993 0.5946 -15.3047 -7.0934
# 3 37.8036 7.1993 67.8970 -15.3908 -21.9707 -4.6362
# 4 -18.2353 0.5946 -15.3908 47.1762 4.0782 1.9480
# 5 -25.3295 -15.3047 -21.9707 4.0782 37.3016 5.9748
# 6 -3.2459 -7.0934 -4.6362 1.9480 5.9748 38.0960
#
#
#
# Elastic Compliance Matrix: (Units=1/GPa)
#
#
# Indices 1 2 3 4 5 6 
#
# 1 0.013768 -0.002640 -0.005058 0.003304 0.005070 -0.000898
# 2 -0.002640 0.028348 0.001664 -0.001890 0.010430 0.003717
# 3 -0.005058 0.001664 0.021357 0.004159 0.009242 0.000816
# 4 0.003304 -0.001890 0.004159 0.023769 0.001481 -0.001012
# 5 0.005070 0.010430 0.009242 0.001481 0.040276 -0.002894
# 6 -0.000898 0.003717 0.000816 -0.001012 -0.002894 0.027470
#
#
# Mechanical properties :
#
#
# Convention : Reuss Voigt Hill
#
# Bulk Modulus (GPa) = 19.45263 37.30097 28.37680
# Shear Modulus (GPa) = 27.14607 34.71357 30.92982
#
# Velocity S-wave (km/s) = 3.57435 4.04197 3.81533
# Velocity P-wave (km/s) = 5.11759 6.27205 5.72400
#
# Compressibility (1/GPa) = 0.05140692
#
# Stress axis : x y z
#
# Youngs Moduli (GPa) = 72.63061 35.27634 46.82312
#
# Poissons Ratio (x) = 0.09311 0.23682
# Poissons Ratio (y) = 0.19171 -0.07793
# Poissons Ratio (z) = 0.36736 -0.05871
#
# Static dielectric constant tensor:
#      x y z
#    x 1.769270 0.007010 -0.035270 
#    y 0.007010 1.787970 -0.021250 
#    z -0.035270 -0.021250 1.810760 
# 
# From -- ./inp_files/494210.got.cif
#   From: 2010.05.17/outbox.cif.g08.bks.cpg/sg2_248_cif.got.tgz:494210.got - 2010.06.03 11:33:40.
