data_PCOD9059500
_publ_section_title
;
Structure prediction by ZEFSAII (Michael W. Deem and Ramdas Pophale) SiO2 
 PCOD9059500
Probable space group: P -1
;
_chemical_formula_sum "Si O2"
_cell_formula_units_Z 16
_cell_length_a 14.183799
_cell_length_b 10.464651
_cell_length_c 14.349180
_cell_angle_alpha 137.932559
_cell_angle_beta 151.077443
_cell_angle_gamma 46.175758
_cell_volume 684.119669
_symmetry_space_group_name_H-M "P -1"
_symmetry_group_IT_number 2
_symmetry_cell_setting 'triclinic'
loop_
_space_group_symop_operation_xyz
x,y,z
-x,-y,-z
loop_
_atom_site_type_symbol
_atom_site_label
_atom_site_fract_x
_atom_site_fract_y
_atom_site_fract_z
Si Si1 0.488267 0.298690 0.489914
Si Si2 0.555672 0.971092 0.924824
Si Si3 0.118302 0.682629 0.846475
Si Si4 0.906522 0.144474 0.285765
Si Si5 0.314710 0.256685 0.734337
Si Si6 0.220105 0.536010 0.505178
Si Si7 0.280944 0.672947 0.449588
Si Si8 0.433918 0.906071 0.298151
O O1 0.436133 0.421933 0.606159
O O2 0.347095 0.443305 0.380932
O O3 0.706247 0.276459 0.621831
O O4 0.411329 0.095495 0.316419
O O5 0.465672 0.154733 0.884566
O O6 0.446221 0.796590 0.700000
O O7 0.789678 0.966389 0.110516
O O8 0.500000 0.000000 0.000000
O O9 0.088189 0.800649 0.788181
O O10 0.240741 0.476358 0.814284
O O11 0.918824 0.627175 0.686711
O O12 0.240383 0.805574 0.085148
O O13 0.794268 0.325666 0.344408
O O14 0.128215 0.138025 0.510425
O O15 0.408662 0.237294 0.701973
O O16 0.143260 0.669514 0.420430
O O17 0.500000 0.000000 0.500000
#
# Coordination Sequence:
#
# PCOD9059500 Si02
#       8
#     2   2   2   2   2   2   2   2
#     4   9  19  38  61  86 125 170 216 267 325 383
#     4  12  22  41  68  97 132 181 222 268 339 390
#     4  11  24  44  67  98 137 174 222 277 344 392
#     4  11  23  41  70 101 132 177 224 274 337 394
#     4  11  25  44  67 101 141 168 224 286 321 405
#     4   9  19  36  65  95 124 169 222 266 326 396
#     4   9  18  37  63  88 124 173 219 265 323 389
#     4  12  26  40  65  97 133 177 220 274 343 398
#
# _framework density 23.387720999999999
#
# number of rings (size 3 to 8) (size 9 to 14) (size 15 to 20)
#    0.750    0.750    3.750    1.875    3.500    2.000 
#    2.250    0.000    0.000    1.500    0.000    0.000 
#    0.000    0.000    0.000    0.000    0.000    0.000 
#
# Total GULP energy -89103.528507 kJ/mol
# GULP energy per Si atom -5568.970532 kJ/mol
# Density = 2.333449 g / cm^3
# Si number density = 23.387721 Si / 1000 Ang^3
#
#
#
# Elastic Constant Matrix: (Units=GPa)
#
#
# Indices 1 2 3 4 5 6 
#
# 1 136.1216 -9.9092 51.7668 -0.3718 4.1252 16.6117
# 2 -9.9092 38.2772 7.3749 13.2658 -1.1248 1.3217
# 3 51.7668 7.3749 93.1244 -1.6848 6.8333 14.7063
# 4 -0.3718 13.2658 -1.6848 19.9737 6.7462 6.3985
# 5 4.1252 -1.1248 6.8333 6.7462 40.7470 15.5102
# 6 16.6117 1.3217 14.7063 6.3985 15.5102 17.2868
#
#
#
# Elastic Compliance Matrix: (Units=1/GPa)
#
#
# Indices 1 2 3 4 5 6 
#
# 1 0.010616 0.004799 -0.005216 -0.001863 0.003512 -0.008592
# 2 0.004799 0.039142 -0.007559 -0.029954 0.004629 0.005760
# 3 -0.005216 -0.007559 0.016383 0.010144 0.000758 -0.012781
# 4 -0.001863 -0.029954 0.010144 0.082184 -0.004002 -0.031377
# 5 0.003512 0.004629 0.000758 -0.004002 0.039410 -0.038251
# 6 -0.008592 0.005760 -0.012781 -0.031377 -0.038251 0.122471
#
#
# Mechanical properties :
#
#
# Convention : Reuss Voigt Hill
#
# Bulk Modulus (GPa) = 19.92432 40.66537 30.29485
# Shear Modulus (GPa) = 14.58201 30.15421 22.36811
#
# Velocity S-wave (km/s) = 2.49969 3.59460 3.09593
# Velocity P-wave (km/s) = 4.10717 5.88672 5.07555
#
# Compressibility (1/GPa) = 0.05018991
#
# Stress axis : x y z
#
# Youngs Moduli (GPa) = 94.19332 25.54787 61.03945
#
# Poissons Ratio (x) = -0.12260 0.31839
# Poissons Ratio (y) = -0.45203 0.46138
# Poissons Ratio (z) = 0.49132 0.19311
#
# Static dielectric constant tensor:
#      x y z
#    x 2.104020 0.029030 -0.019960 
#    y 0.029030 1.926490 -0.047790 
#    z -0.019960 -0.047790 1.879630 
# 
# From -- ./inp_files/532085.got.cif
#   From: 2010.05.17/outbox.cif.g08.bks.cpg/sg2_267_cif.got.tgz:532085.got - 2010.06.03 11:33:40.
