data_PCOD9059720
_publ_section_title
;
Structure prediction by ZEFSAII (Michael W. Deem and Ramdas Pophale) SiO2 
 PCOD9059720
Probable space group: P -1
;
_chemical_formula_sum "Si O2"
_cell_formula_units_Z 14
_cell_length_a 6.481703
_cell_length_b 16.906816
_cell_length_c 9.753774
_cell_angle_alpha 62.947010
_cell_angle_beta 46.463107
_cell_angle_gamma 54.264729
_cell_volume 626.458679
_symmetry_space_group_name_H-M "P -1"
_symmetry_group_IT_number 2
_symmetry_cell_setting 'triclinic'
loop_
_space_group_symop_operation_xyz
x,y,z
-x,-y,-z
loop_
_atom_site_type_symbol
_atom_site_label
_atom_site_fract_x
_atom_site_fract_y
_atom_site_fract_z
Si Si1 0.746729 0.960298 0.609751
Si Si2 0.184971 0.441093 0.597383
Si Si3 0.716718 0.106393 0.045998
Si Si4 0.121686 0.600695 0.734537
Si Si5 0.853111 0.850128 0.369395
Si Si6 0.222217 0.599962 0.996059
Si Si7 0.543678 0.745839 0.732160
O O1 0.886001 0.885117 0.479681
O O2 0.439938 0.056255 0.630009
O O3 0.602285 0.907387 0.824844
O O4 0.000000 0.000000 0.500000
O O5 0.139611 0.519793 0.677766
O O6 0.553592 0.388281 0.442265
O O7 0.000000 0.500000 0.500000
O O8 0.035242 0.373536 0.787422
O O9 0.833452 0.169269 0.843097
O O10 0.679016 0.150864 0.180791
O O11 0.000000 0.000000 0.000000
O O12 0.806780 0.692800 0.768022
O O13 0.111228 0.579206 0.916162
O O14 0.736505 0.764046 0.504857
O O15 0.500000 0.500000 0.000000
O O16 0.355658 0.680713 0.847675
#
# Coordination Sequence:
#
# PCOD9059720 Si02
#       7
#     2   2   2   2   2   2   2
#     4   9  18  36  64  89 118 162 212 264 322 388
#     4  11  23  42  67  94 126 171 217 269 335 394
#     4   9  20  41  64  89 126 173 210 262 331 384
#     4  11  24  41  65  94 131 172 222 272 332 395
#     4   9  20  39  57  87 128 162 207 267 327 383
#     4  12  24  43  66  95 132 176 223 275 334 389
#     4  11  24  39  63  94 131 168 219 276 325 390
#
# _framework density 22.347843000000001
#
# number of rings (size 3 to 8) (size 9 to 14) (size 15 to 20)
#    0.000    1.714    2.857    1.286    0.000    6.286 
#    0.000    5.714    0.000    0.000    0.000    0.000 
#    0.000    0.000    0.000    0.000    0.000    0.000 
#
# Total GULP energy -78141.281169 kJ/mol
# GULP energy per Si atom -5581.520084 kJ/mol
# Density = 2.229698 g / cm^3
# Si number density = 22.347843 Si / 1000 Ang^3
#
#
#
# Elastic Constant Matrix: (Units=GPa)
#
#
# Indices 1 2 3 4 5 6 
#
# 1 96.0704 19.7945 62.6310 -8.4063 -11.5040 19.2163
# 2 19.7945 47.7146 12.4102 -7.6460 -1.4844 18.5866
# 3 62.6310 12.4102 200.8769 -28.6656 -25.8809 25.4536
# 4 -8.4063 -7.6460 -28.6656 40.0053 8.3284 -13.2445
# 5 -11.5040 -1.4844 -25.8809 8.3284 45.2600 -14.8527
# 6 19.2163 18.5866 25.4536 -13.2445 -14.8527 28.8372
#
#
#
# Elastic Compliance Matrix: (Units=1/GPa)
#
#
# Indices 1 2 3 4 5 6 
#
# 1 0.014511 -0.003422 -0.003984 -0.002087 0.000087 -0.004862
# 2 -0.003422 0.030236 0.001112 0.000084 -0.006275 -0.021383
# 3 -0.003984 0.001112 0.007116 0.003498 0.001867 -0.001775
# 4 -0.002087 0.000084 0.003498 0.031261 -0.000172 0.012518
# 5 0.000087 -0.006275 0.001867 -0.000172 0.028583 0.016981
# 6 -0.004862 -0.021383 -0.001775 0.012518 0.016981 0.067762
#
#
# Mechanical properties :
#
#
# Convention : Reuss Voigt Hill
#
# Bulk Modulus (GPa) = 25.46057 59.37037 42.41547
# Shear Modulus (GPa) = 24.37270 39.47558 31.92414
#
# Velocity S-wave (km/s) = 3.30602 4.20743 3.78367
# Velocity P-wave (km/s) = 5.09810 7.08714 6.17325
#
# Compressibility (1/GPa) = 0.03927642
#
# Stress axis : x y z
#
# Youngs Moduli (GPa) = 68.91136 33.07338 140.52490
#
# Poissons Ratio (x) = 0.11317 0.55980
# Poissons Ratio (y) = 0.23579 -0.15624
# Poissons Ratio (z) = 0.27452 -0.03677
#
# Static dielectric constant tensor:
#      x y z
#    x 1.825930 0.033590 -0.028290 
#    y 0.033590 1.799730 -0.136840 
#    z -0.028290 -0.136840 1.767970 
# 
# From -- ./inp_files/138837.got.cif
#   From: 2010.05.17/outbox.cif.g08.bks.cpg/sg2_70_cif.got.tgz:138837.got - 2010.06.03 11:33:40.
