data_PCOD9059201
_publ_section_title
;
Structure prediction by ZEFSAII (Michael W. Deem and Ramdas Pophale) SiO2 
 PCOD9059201
Probable space group: P -1
;
_chemical_formula_sum "Si O2"
_cell_formula_units_Z 12
_cell_length_a 9.360872
_cell_length_b 8.611136
_cell_length_c 9.304111
_cell_angle_alpha 132.440236
_cell_angle_beta 99.035802
_cell_angle_gamma 94.953857
_cell_volume 527.228712
_symmetry_space_group_name_H-M "P -1"
_symmetry_group_IT_number 2
_symmetry_cell_setting 'triclinic'
loop_
_space_group_symop_operation_xyz
x,y,z
-x,-y,-z
loop_
_atom_site_type_symbol
_atom_site_label
_atom_site_fract_x
_atom_site_fract_y
_atom_site_fract_z
Si Si1 0.522318 0.286926 0.795452
Si Si2 0.269077 0.175828 0.444458
Si Si3 0.206443 0.565274 0.535596
Si Si4 0.959116 0.229191 0.152243
Si Si5 0.493078 0.090253 0.216271
Si Si6 0.856698 0.298689 0.877257
O O1 0.408174 0.224293 0.606248
O O2 0.698900 0.328853 0.815577
O O3 0.485174 0.091948 0.783057
O O4 0.500000 0.500000 0.000000
O O5 0.205122 0.383162 0.544005
O O6 0.341290 0.144141 0.280345
O O7 0.149779 0.949750 0.327604
O O8 0.126271 0.741381 0.696710
O O9 0.374651 0.691591 0.608323
O O10 0.110279 0.426853 0.306821
O O11 0.858141 0.272878 0.033772
O O12 0.000000 0.000000 0.000000
O O13 0.500000 0.000000 0.000000
O O14 0.000000 0.500000 0.000000
#
# Coordination Sequence:
#
# PCOD9059201 Si02
#       6
#     2   2   2   2   2   2
#     4  11  25  45  67 100 138 179 231 287 341 411
#     4  11  23  46  69 100 139 176 231 290 340 411
#     4  11  24  42  70 100 132 181 225 286 341 407
#     4  11  24  44  65  97 142 175 227 280 343 407
#     4  11  23  40  70  99 133 177 230 280 343 401
#     4  11  24  42  68  95 136 183 223 278 344 408
#
# _framework density 22.760522000000002
#
# number of rings (size 3 to 8) (size 9 to 14) (size 15 to 20)
#    0.000    1.000    1.667    6.500    4.667    1.333 
#    0.000    1.667    0.000    0.000    0.000    0.000 
#    0.000    0.000    0.000    0.000    0.000    0.000 
#
# Total GULP energy -67062.092228 kJ/mol
# GULP energy per Si atom -5588.507686 kJ/mol
# Density = 2.270872 g / cm^3
# Si number density = 22.760522 Si / 1000 Ang^3
#
#
#
# Elastic Constant Matrix: (Units=GPa)
#
#
# Indices 1 2 3 4 5 6 
#
# 1 67.6063 38.4471 39.0607 17.2670 14.2120 -1.2494
# 2 38.4471 62.2312 29.0386 26.2679 3.9224 3.2516
# 3 39.0607 29.0386 135.0230 15.9492 15.0858 6.0972
# 4 17.2670 26.2679 15.9492 57.8186 -3.0337 11.8586
# 5 14.2120 3.9224 15.0858 -3.0337 61.1510 13.2966
# 6 -1.2494 3.2516 6.0972 11.8586 13.2966 41.8284
#
#
#
# Elastic Compliance Matrix: (Units=1/GPa)
#
#
# Indices 1 2 3 4 5 6 
#
# 1 0.026658 -0.013644 -0.004166 -0.001863 -0.005410 0.004712
# 2 -0.013644 0.028602 -0.001344 -0.008376 0.001360 -0.000492
# 3 -0.004166 -0.001344 0.009118 -0.000537 -0.001033 -0.000869
# 4 -0.001863 -0.008376 -0.000537 0.023484 0.003834 -0.007203
# 5 -0.005410 0.001360 -0.001033 0.003834 0.019583 -0.007429
# 6 0.004712 -0.000492 -0.000869 -0.007203 -0.007429 0.028616
#
#
# Mechanical properties :
#
#
# Convention : Reuss Voigt Hill
#
# Bulk Modulus (GPa) = 38.35936 53.10593 45.73264
# Shear Modulus (GPa) = 27.31339 42.71388 35.01363
#
# Velocity S-wave (km/s) = 3.46791 4.33675 3.92643
# Velocity P-wave (km/s) = 5.73805 6.96130 6.37906
#
# Compressibility (1/GPa) = 0.02606926
#
# Stress axis : x y z
#
# Youngs Moduli (GPa) = 37.51213 34.96292 109.66901
#
# Poissons Ratio (x) = 0.47705 0.45685
# Poissons Ratio (y) = 0.51183 0.14742
# Poissons Ratio (z) = 0.15626 0.04700
#
# Static dielectric constant tensor:
#      x y z
#    x 1.878610 0.007830 0.005770 
#    y 0.007830 1.856520 0.017920 
#    z 0.005770 0.017920 1.918780 
# 
# From -- ./inp_files/160343.got.cif
#   From: 2010.05.17/outbox.cif.g08.bks.cpg/sg2_81_cif.got.tgz:160343.got - 2010.06.03 11:33:40.
