data_PCOD9059782
_publ_section_title
;
Structure prediction by ZEFSAII (Michael W. Deem and Ramdas Pophale) SiO2 
 PCOD9059782
Probable space group: P -1
;
_chemical_formula_sum "Si O2"
_cell_formula_units_Z 16
_cell_length_a 15.208499
_cell_length_b 5.245547
_cell_length_c 15.535329
_cell_angle_alpha 54.208276
_cell_angle_beta 140.496522
_cell_angle_gamma 116.248993
_cell_volume 639.402830
_symmetry_space_group_name_H-M "P -1"
_symmetry_group_IT_number 2
_symmetry_cell_setting 'triclinic'
loop_
_space_group_symop_operation_xyz
x,y,z
-x,-y,-z
loop_
_atom_site_type_symbol
_atom_site_label
_atom_site_fract_x
_atom_site_fract_y
_atom_site_fract_z
Si Si1 0.544854 0.484962 0.846473
Si Si2 0.722723 0.400493 0.274403
Si Si3 0.224584 0.025569 0.899770
Si Si4 0.869463 0.774711 0.464336
Si Si5 0.261820 0.503249 0.309873
Si Si6 0.983859 0.647251 0.752293
Si Si7 0.503445 0.366630 0.406798
Si Si8 0.191676 0.090453 0.051621
O O1 0.434085 0.534496 0.827307
O O2 0.467442 0.537096 0.687048
O O3 0.659129 0.752944 0.875839
O O4 0.635458 0.164296 0.980877
O O5 0.753727 0.607777 0.172316
O O6 0.818117 0.549698 0.393162
O O7 0.753246 0.036909 0.350699
O O8 0.094836 0.916177 0.767704
O O9 0.176303 0.939031 0.975938
O O10 0.911857 0.578442 0.620282
O O11 0.000000 0.000000 0.500000
O O12 0.347549 0.468064 0.293887
O O13 0.381356 0.483064 0.475478
O O14 0.139281 0.278875 0.288254
O O15 0.196033 0.850957 0.180810
O O16 0.075858 0.359628 0.914518
O O17 0.500000 0.000000 0.500000
#
# Coordination Sequence:
#
# PCOD9059782 Si02
#       8
#     2   2   2   2   2   2   2   2
#     4  11  25  45  69 104 136 183 234 290 355 423
#     4  12  28  45  80 103 143 190 240 293 360 418
#     4  11  25  46  67 100 143 183 228 296 345 427
#     4  12  26  49  73 106 145 186 238 300 352 418
#     4  11  24  43  70  99 134 181 234 288 353 427
#     4  11  26  42  70 100 137 186 235 286 360 420
#     4  11  23  42  68  96 137 173 227 295 349 409
#     4  11  24  44  68  97 145 179 232 291 348 425
#
# _framework density 25.023350000000001
#
# number of rings (size 3 to 8) (size 9 to 14) (size 15 to 20)
#    0.000    0.750    3.750    2.625    7.000    2.000 
#    0.000    0.000    0.000    0.000    0.000    0.000 
#    0.000    0.000    0.000    0.000    0.000    0.000 
#
# Total GULP energy -89572.422662 kJ/mol
# GULP energy per Si atom -5598.276416 kJ/mol
# Density = 2.496640 g / cm^3
# Si number density = 25.023350 Si / 1000 Ang^3
#
#
#
# Elastic Constant Matrix: (Units=GPa)
#
#
# Indices 1 2 3 4 5 6 
#
# 1 82.4987 1.6655 22.3905 1.7276 19.6018 14.1088
# 2 1.6655 52.6130 25.0247 -9.6570 3.9509 -1.6067
# 3 22.3905 25.0247 79.9456 1.0915 -2.4391 13.0111
# 4 1.7276 -9.6570 1.0915 25.4651 -2.1473 -4.8158
# 5 19.6018 3.9509 -2.4391 -2.1473 44.2464 5.3723
# 6 14.1088 -1.6067 13.0111 -4.8158 5.3723 34.9665
#
#
#
# Elastic Compliance Matrix: (Units=1/GPa)
#
#
# Indices 1 2 3 4 5 6 
#
# 1 0.015628 0.001806 -0.004538 -0.001461 -0.006961 -0.003666
# 2 0.001806 0.026251 -0.010027 0.011131 -0.003927 0.006345
# 3 -0.004538 -0.010027 0.018236 -0.005188 0.004487 -0.006819
# 4 -0.001461 0.011131 -0.005188 0.045598 0.000458 0.009241
# 5 -0.006961 -0.003927 0.004487 0.000458 0.026678 -0.003077
# 6 -0.003666 0.006345 -0.006819 0.009241 -0.003077 0.034652
#
#
# Mechanical properties :
#
#
# Convention : Reuss Voigt Hill
#
# Bulk Modulus (GPa) = 28.90488 34.80207 31.85347
# Shear Modulus (GPa) = 24.49853 32.00070 28.24961
#
# Velocity S-wave (km/s) = 3.13233 3.57996 3.36360
# Velocity P-wave (km/s) = 4.96571 5.57011 5.27657
#
# Compressibility (1/GPa) = 0.03459623
#
# Stress axis : x y z
#
# Youngs Moduli (GPa) = 63.98760 38.09432 54.83695
#
# Poissons Ratio (x) = -0.06882 0.24886
# Poissons Ratio (y) = -0.11559 0.54987
# Poissons Ratio (z) = 0.29039 0.38199
#
# Static dielectric constant tensor:
#      x y z
#    x 1.999960 -0.074350 -0.003480 
#    y -0.074350 2.005610 0.037290 
#    z -0.003480 0.037290 2.188010 
# 
# From -- ./inp_files/90087.got.cif
#   From: 2010.05.17/outbox.cif.g08.bks.cpg/sg2_46_cif.got.tgz:90087.got - 2010.06.03 11:33:40.
