data_PCOD9059594
_publ_section_title
;
Structure prediction by ZEFSAII (Michael W. Deem and Ramdas Pophale) SiO2 
 PCOD9059594
Probable space group: P -1
;
_chemical_formula_sum "Si O2"
_cell_formula_units_Z 14
_cell_length_a 20.695040
_cell_length_b 8.569092
_cell_length_c 12.131330
_cell_angle_alpha 143.006098
_cell_angle_beta 150.307398
_cell_angle_gamma 39.017180
_cell_volume 615.795076
_symmetry_space_group_name_H-M "P -1"
_symmetry_group_IT_number 2
_symmetry_cell_setting 'triclinic'
loop_
_space_group_symop_operation_xyz
x,y,z
-x,-y,-z
loop_
_atom_site_type_symbol
_atom_site_label
_atom_site_fract_x
_atom_site_fract_y
_atom_site_fract_z
Si Si1 0.086794 0.968385 0.337494
Si Si2 0.951682 0.517228 0.797914
Si Si3 0.851598 0.060009 0.171699
Si Si4 0.271123 0.724475 0.658057
Si Si5 0.771526 0.826816 0.527403
Si Si6 0.382054 0.892495 0.323374
Si Si7 0.448869 0.289948 0.023980
O O1 0.199419 0.945136 0.586064
O O2 0.161479 0.997553 0.352940
O O3 0.954806 0.173255 0.313463
O O4 0.021819 0.719931 0.075297
O O5 0.804469 0.499747 0.615119
O O6 0.904384 0.631298 0.672022
O O7 0.053146 0.218008 0.788966
O O8 0.776596 0.210827 0.252225
O O9 0.737855 0.039658 0.905872
O O10 0.428862 0.677464 0.854067
O O11 0.673549 0.979500 0.567852
O O12 0.679509 0.707120 0.241189
O O13 0.421808 0.564190 0.210519
O O14 0.500000 0.000000 0.500000
O O15 0.500000 0.000000 0.000000
#
# Coordination Sequence:
#
# PCOD9059594 Si02
#       7
#     2   2   2   2   2   2   2
#     4  11  23  43  70 107 147 187 242 304 380 436
#     4  11  23  41  74 104 144 191 242 303 374 442
#     4  11  24  44  71 111 139 194 247 303 375 441
#     4  11  23  46  70 101 143 194 253 300 363 444
#     4  12  26  48  74 112 153 193 246 317 375 446
#     4  12  28  47  78 112 148 201 263 297 370 458
#     4  12  28  51  73 108 154 201 248 315 374 435
#
# _framework density 22.734836000000001
#
# number of rings (size 3 to 8) (size 9 to 14) (size 15 to 20)
#    0.000    0.571    2.857    6.429    2.000    3.429 
#    2.571    2.143    0.000    0.000    0.000    0.000 
#    0.000    0.000    0.000    0.000    0.000    0.000 
#
# Total GULP energy -78014.728807 kJ/mol
# GULP energy per Si atom -5572.480629 kJ/mol
# Density = 2.268309 g / cm^3
# Si number density = 22.734836 Si / 1000 Ang^3
#
#
#
# Elastic Constant Matrix: (Units=GPa)
#
#
# Indices 1 2 3 4 5 6 
#
# 1 152.1833 23.0178 33.6911 11.1644 9.7741 -3.3177
# 2 23.0178 82.3120 15.5841 5.1746 -2.2928 2.9963
# 3 33.6911 15.5841 103.1010 -3.4021 11.9445 0.7864
# 4 11.1644 5.1746 -3.4021 37.7183 -0.6059 -6.6788
# 5 9.7741 -2.2928 11.9445 -0.6059 46.5326 -5.7208
# 6 -3.3177 2.9963 0.7864 -6.6788 -5.7208 27.7618
#
#
#
# Elastic Compliance Matrix: (Units=1/GPa)
#
#
# Indices 1 2 3 4 5 6 
#
# 1 0.007529 -0.001605 -0.002166 -0.002152 -0.001084 0.000393
# 2 -0.001605 0.013114 -0.001638 -0.001762 0.001166 -0.001744
# 3 -0.002166 -0.001638 0.011004 0.001732 -0.002488 -0.000490
# 4 -0.002152 -0.001762 0.001732 0.028815 0.001163 0.007056
# 5 -0.001084 0.001166 -0.002488 0.001163 0.023024 0.004839
# 6 0.000393 -0.001744 -0.000490 0.007056 0.004839 0.038965
#
#
# Mechanical properties :
#
#
# Convention : Reuss Voigt Hill
#
# Bulk Modulus (GPa) = 48.00758 53.57579 50.79168
# Shear Modulus (GPa) = 35.66008 40.08942 37.87475
#
# Velocity S-wave (km/s) = 3.96475 4.20378 4.08601
# Velocity P-wave (km/s) = 6.49008 6.86870 6.68207
#
# Compressibility (1/GPa) = 0.02083004
#
# Stress axis : x y z
#
# Youngs Moduli (GPa) = 132.81336 76.25161 90.87762
#
# Poissons Ratio (x) = 0.12236 0.19687
# Poissons Ratio (y) = 0.21312 0.14885
# Poissons Ratio (z) = 0.28771 0.12489
#
# Static dielectric constant tensor:
#      x y z
#    x 1.882130 0.003060 -0.009360 
#    y 0.003060 2.051610 0.064260 
#    z -0.009360 0.064260 1.842630 
# 
# From -- ./inp_files/469688.got.cif
#   From: 2010.05.17/outbox.cif.g08.bks.cpg/sg2_235_cif.got.tgz:469688.got - 2010.06.03 11:33:40.
