data_PCOD9059560
_publ_section_title
;
Structure prediction by ZEFSAII (Michael W. Deem and Ramdas Pophale) SiO2 
 PCOD9059560
Probable space group: P -1
;
_chemical_formula_sum "Si O2"
_cell_formula_units_Z 14
_cell_length_a 7.311037
_cell_length_b 11.734101
_cell_length_c 11.403128
_cell_angle_alpha 103.774269
_cell_angle_beta 123.832250
_cell_angle_gamma 47.664138
_cell_volume 585.576506
_symmetry_space_group_name_H-M "P -1"
_symmetry_group_IT_number 2
_symmetry_cell_setting 'triclinic'
loop_
_space_group_symop_operation_xyz
x,y,z
-x,-y,-z
loop_
_atom_site_type_symbol
_atom_site_label
_atom_site_fract_x
_atom_site_fract_y
_atom_site_fract_z
Si Si1 0.845276 0.650968 0.903329
Si Si2 0.005393 0.052027 0.671660
Si Si3 0.982337 0.367310 0.468944
Si Si4 0.654323 0.273849 0.415249
Si Si5 0.460863 0.074214 0.723306
Si Si6 0.646972 0.125200 0.041531
Si Si7 0.070720 0.731506 0.818815
O O1 0.652616 0.652980 0.735551
O O2 0.065482 0.657932 0.916690
O O3 0.623386 0.801027 0.946910
O O4 0.000000 0.500000 0.000000
O O5 0.106753 0.887853 0.618738
O O6 0.231566 0.063161 0.694939
O O7 0.066127 0.030275 0.826400
O O8 0.697096 0.203492 0.542472
O O9 0.287759 0.209765 0.596915
O O10 0.897298 0.356571 0.306065
O O11 0.000000 0.500000 0.500000
O O12 0.740322 0.379459 0.462440
O O13 0.581115 0.104400 0.884370
O O14 0.741976 0.905097 0.733079
O O15 0.698232 0.245831 0.087261
#
# Coordination Sequence:
#
# PCOD9059560 Si02
#       7
#     2   2   2   2   2   2   2
#     4  11  25  42  69  99 137 184 229 272 353 413
#     4   9  17  36  71  93 133 173 226 279 341 388
#     4  11  25  43  69 100 142 186 229 286 346 409
#     4   9  18  41  64  95 132 182 219 281 339 395
#     4  11  23  41  72 106 137 182 234 283 345 408
#     4  11  23  43  70 104 144 173 226 296 341 397
#     4  12  24  44  72  99 135 189 235 276 345 414
#
# _framework density 23.908062000000001
#
# number of rings (size 3 to 8) (size 9 to 14) (size 15 to 20)
#    0.000    1.429    5.714    1.286    2.000    2.857 
#    0.000    0.714    0.000    0.000    0.000    0.000 
#    0.000    0.000    0.000    0.000    0.000    0.000 
#
# Total GULP energy -78345.657472 kJ/mol
# GULP energy per Si atom -5596.118391 kJ/mol
# Density = 2.385365 g / cm^3
# Si number density = 23.908062 Si / 1000 Ang^3
#
#
#
# Elastic Constant Matrix: (Units=GPa)
#
#
# Indices 1 2 3 4 5 6 
#
# 1 82.6707 21.9484 22.7818 7.8585 -20.6031 30.0804
# 2 21.9484 78.3756 19.3372 -2.5861 -0.9429 37.5988
# 3 22.7818 19.3372 107.7362 6.2586 2.2459 14.3807
# 4 7.8585 -2.5861 6.2586 47.0750 13.0878 4.4424
# 5 -20.6031 -0.9429 2.2459 13.0878 27.1664 -0.9509
# 6 30.0804 37.5988 14.3807 4.4424 -0.9509 37.6509
#
#
#
# Elastic Compliance Matrix: (Units=1/GPa)
#
#
# Indices 1 2 3 4 5 6 
#
# 1 0.027147 0.004352 -0.003455 -0.008398 0.024261 -0.023111
# 2 0.004352 0.026146 -0.001943 0.003223 0.001794 -0.029179
# 3 -0.003455 -0.001943 0.010346 0.000013 -0.003526 0.000658
# 4 -0.008398 0.003223 0.000013 0.028402 -0.019954 -0.000369
# 5 0.024261 0.001794 -0.003526 -0.019954 0.064623 -0.015842
# 6 -0.023111 -0.029179 0.000658 -0.000369 -0.015842 0.073555
#
#
# Mechanical properties :
#
#
# Convention : Reuss Voigt Hill
#
# Bulk Modulus (GPa) = 16.24769 44.10194 30.17482
# Shear Modulus (GPa) = 19.77654 36.02612 27.90133
#
# Velocity S-wave (km/s) = 2.87921 3.88604 3.41988
# Velocity P-wave (km/s) = 4.22656 6.21463 5.31439
#
# Compressibility (1/GPa) = 0.06154720
#
# Stress axis : x y z
#
# Youngs Moduli (GPa) = 36.83708 38.24733 96.65487
#
# Poissons Ratio (x) = -0.16645 0.33390
# Poissons Ratio (y) = -0.16031 0.18778
# Poissons Ratio (z) = 0.12726 0.07431
#
# Static dielectric constant tensor:
#      x y z
#    x 1.961080 -0.034160 0.019820 
#    y -0.034160 1.935800 -0.030380 
#    z 0.019820 -0.030380 1.910300 
# 
# From -- ./inp_files/387919.got.cif
#   From: 2010.05.17/outbox.cif.g08.bks.cpg/sg2_194_cif.got.tgz:387919.got - 2010.06.03 11:33:40.
