data_PCOD9059822
_publ_section_title
;
Structure prediction by ZEFSAII (Michael W. Deem and Ramdas Pophale) SiO2 
 PCOD9059822
Probable space group: P -1
;
_chemical_formula_sum "Si O2"
_cell_formula_units_Z 12
_cell_length_a 8.906707
_cell_length_b 7.662042
_cell_length_c 8.771682
_cell_angle_alpha 95.549687
_cell_angle_beta 129.599020
_cell_angle_gamma 74.999310
_cell_volume 443.647724
_symmetry_space_group_name_H-M "P -1"
_symmetry_group_IT_number 2
_symmetry_cell_setting 'triclinic'
loop_
_space_group_symop_operation_xyz
x,y,z
-x,-y,-z
loop_
_atom_site_type_symbol
_atom_site_label
_atom_site_fract_x
_atom_site_fract_y
_atom_site_fract_z
Si Si1 0.867675 0.050396 0.568864
Si Si2 0.574501 0.784548 0.367250
Si Si3 0.862532 0.808456 0.039985
Si Si4 0.536885 0.683835 0.676312
Si Si5 0.780821 0.309486 0.957871
Si Si6 0.829318 0.542430 0.267080
O O1 0.030018 0.046271 0.806519
O O2 0.704540 0.246251 0.466183
O O3 0.719193 0.919486 0.483954
O O4 0.000000 0.000000 0.500000
O O5 0.596861 0.690291 0.539247
O O6 0.333100 0.839767 0.185128
O O7 0.644137 0.664229 0.251464
O O8 0.000373 0.728375 0.978598
O O9 0.890482 0.661528 0.183069
O O10 0.632878 0.823399 0.845527
O O11 0.643889 0.491978 0.802626
O O12 0.789511 0.366875 0.143958
O O13 0.000000 0.500000 0.500000
#
# Coordination Sequence:
#
# PCOD9059822 Si02
#       6
#     2   2   2   2   2   2
#     4  12  27  49  67 102 146 187 234 286 344 422
#     4  12  24  43  70 105 139 183 233 284 351 412
#     4  11  24  48  71 104 143 183 235 284 350 417
#     4  11  25  46  76 102 141 186 230 290 350 411
#     4  11  24  45  74 107 140 180 235 291 348 412
#     4  11  23  42  69 105 141 180 235 290 345 408
#
# _framework density 27.048489
#
# number of rings (size 3 to 8) (size 9 to 14) (size 15 to 20)
#    0.000    0.667    3.333    5.500    2.333    1.333 
#    3.000    0.000    0.000    0.000    0.000    0.000 
#    0.000    0.000    0.000    0.000    0.000    0.000 
#
# Total GULP energy -67248.006141 kJ/mol
# GULP energy per Si atom -5604.000512 kJ/mol
# Density = 2.698693 g / cm^3
# Si number density = 27.048489 Si / 1000 Ang^3
#
#
#
# Elastic Constant Matrix: (Units=GPa)
#
#
# Indices 1 2 3 4 5 6 
#
# 1 99.8802 10.5067 41.1853 1.6016 8.2223 -1.6754
# 2 10.5067 48.3750 17.4033 18.1184 -2.8066 9.3234
# 3 41.1853 17.4033 237.2410 23.2894 14.0390 9.3405
# 4 1.6016 18.1184 23.2894 45.1193 -3.2447 6.7268
# 5 8.2223 -2.8066 14.0390 -3.2447 56.1384 10.7697
# 6 -1.6754 9.3234 9.3405 6.7268 10.7697 46.4144
#
#
#
# Elastic Compliance Matrix: (Units=1/GPa)
#
#
# Indices 1 2 3 4 5 6 
#
# 1 0.011175 -0.002613 -0.001842 0.001276 -0.001514 0.001465
# 2 -0.002613 0.025829 -0.000488 -0.009231 0.002094 -0.004332
# 3 -0.001842 -0.000488 0.004869 -0.002269 -0.001031 -0.000380
# 4 0.001276 -0.009231 -0.002269 0.027440 0.001901 -0.002061
# 5 -0.001514 0.002094 -0.001031 0.001901 0.019478 -0.005063
# 6 0.001465 -0.004332 -0.000380 -0.002061 -0.005063 0.024018
#
#
# Mechanical properties :
#
#
# Convention : Reuss Voigt Hill
#
# Bulk Modulus (GPa) = 31.26193 58.18743 44.72468
# Shear Modulus (GPa) = 37.49315 50.62781 44.06048
#
# Velocity S-wave (km/s) = 3.72714 4.33106 4.04040
# Velocity P-wave (km/s) = 5.48679 6.82420 6.19171
#
# Compressibility (1/GPa) = 0.03198779
#
# Stress axis : x y z
#
# Youngs Moduli (GPa) = 89.48553 38.71670 205.36403
#
# Poissons Ratio (x) = 0.10115 0.37821
# Poissons Ratio (y) = 0.23379 0.10029
# Poissons Ratio (z) = 0.16480 0.01891
#
# Static dielectric constant tensor:
#      x y z
#    x 2.104340 0.050280 0.067650 
#    y 0.050280 2.361560 0.023460 
#    z 0.067650 0.023460 2.065390 
# 
# From -- ./inp_files/148626.got.cif
#   From: 2010.05.17/outbox.cif.g08.bks.cpg/sg2_75_cif.got.tgz:148626.got - 2010.06.03 11:33:40.
