data_PCOD9059602
_publ_section_title
;
Structure prediction by ZEFSAII (Michael W. Deem and Ramdas Pophale) SiO2 
 PCOD9059602
Probable space group: P -1
;
_chemical_formula_sum "Si O2"
_cell_formula_units_Z 16
_cell_length_a 20.834871
_cell_length_b 8.881539
_cell_length_c 5.406380
_cell_angle_alpha 55.648876
_cell_angle_beta 51.749981
_cell_angle_gamma 66.795212
_cell_volume 647.088351
_symmetry_space_group_name_H-M "P -1"
_symmetry_group_IT_number 2
_symmetry_cell_setting 'triclinic'
loop_
_space_group_symop_operation_xyz
x,y,z
-x,-y,-z
loop_
_atom_site_type_symbol
_atom_site_label
_atom_site_fract_x
_atom_site_fract_y
_atom_site_fract_z
Si Si1 0.207312 0.032124 0.523573
Si Si2 0.322116 0.213408 0.367952
Si Si3 0.112961 0.818337 0.307799
Si Si4 0.376997 0.586364 0.893079
Si Si5 0.057135 0.144873 0.484481
Si Si6 0.834967 0.566619 0.224035
Si Si7 0.541337 0.066715 0.588258
Si Si8 0.726303 0.340868 0.428895
O O1 0.283907 0.153139 0.256426
O O2 0.123244 0.141079 0.548915
O O3 0.233571 0.862918 0.444400
O O4 0.185887 0.927551 0.922583
O O5 0.241279 0.303628 0.611713
O O6 0.367455 0.033342 0.539130
O O7 0.386914 0.367310 0.054274
O O8 0.141866 0.614246 0.503686
O O9 0.039220 0.817876 0.282376
O O10 0.073271 0.946837 0.500213
O O11 0.324498 0.641802 0.720049
O O12 0.451237 0.716019 0.614479
O O13 0.329478 0.618591 0.236050
O O14 0.088718 0.309802 0.092694
O O15 0.798890 0.479005 0.141640
O O16 0.500000 0.000000 0.500000
O O17 0.500000 0.000000 0.000000
#
# Coordination Sequence:
#
# PCOD9059602 Si02
#       8
#     2   2   2   2   2   2   2   2
#     4  12  22  43  71 102 140 195 244 307 352 430
#     4  11  26  44  79 105 142 185 246 295 356 434
#     4  11  24  44  61 101 148 191 244 307 371 421
#     4  11  25  48  73 111 142 185 235 298 350 436
#     4  11  24  40  67  97 145 196 245 302 373 426
#     4  11  23  44  71 104 137 193 249 308 353 429
#     4  12  29  50  77 109 151 187 225 292 368 440
#     4  11  23  41  75 103 145 181 247 304 350 409
#
# _framework density 24.726144000000001
#
# number of rings (size 3 to 8) (size 9 to 14) (size 15 to 20)
#    0.000    0.750    3.750    3.750    1.750    3.000 
#    0.000    1.250    0.000    0.000    0.000    0.000 
#    0.000    0.000    0.000    0.000    0.000    0.000 
#
# Total GULP energy -89475.471203 kJ/mol
# GULP energy per Si atom -5592.216950 kJ/mol
# Density = 2.466987 g / cm^3
# Si number density = 24.726144 Si / 1000 Ang^3
#
#
#
# Elastic Constant Matrix: (Units=GPa)
#
#
# Indices 1 2 3 4 5 6 
#
# 1 101.6753 19.6709 -2.7807 7.6002 9.8498 13.5626
# 2 19.6709 103.3363 29.1919 -14.6843 -9.0386 10.6787
# 3 -2.7807 29.1919 86.7053 -6.2734 -0.5597 10.0463
# 4 7.6002 -14.6843 -6.2734 39.2828 7.8027 -6.6803
# 5 9.8498 -9.0386 -0.5597 7.8027 39.7682 -9.7516
# 6 13.5626 10.6787 10.0463 -6.6803 -9.7516 38.0375
#
#
#
# Elastic Compliance Matrix: (Units=1/GPa)
#
#
# Indices 1 2 3 4 5 6 
#
# 1 0.011866 -0.003027 0.001779 -0.003224 -0.004324 -0.005526
# 2 -0.003027 0.012145 -0.003891 0.003984 0.002695 0.000088
# 3 0.001779 -0.003891 0.013308 0.000126 -0.002034 -0.003556
# 4 -0.003224 0.003984 0.000126 0.028902 -0.002903 0.004329
# 5 -0.004324 0.002695 -0.002034 -0.002903 0.029419 0.008355
# 6 -0.005526 0.000088 -0.003556 0.004329 0.008355 0.032077
#
#
# Mechanical properties :
#
#
# Convention : Reuss Voigt Hill
#
# Bulk Modulus (GPa) = 36.97849 42.65344 39.81596
# Shear Modulus (GPa) = 34.01130 39.79336 36.90233
#
# Velocity S-wave (km/s) = 3.71282 4.01604 3.86740
# Velocity P-wave (km/s) = 5.77648 6.22837 6.00668
#
# Compressibility (1/GPa) = 0.02704275
#
# Stress axis : x y z
#
# Youngs Moduli (GPa) = 84.27098 82.33740 75.14101
#
# Poissons Ratio (x) = 0.24921 -0.13365
# Poissons Ratio (y) = 0.25506 0.29234
# Poissons Ratio (z) = -0.14989 0.32034
#
# Static dielectric constant tensor:
#      x y z
#    x 2.025220 0.047330 0.020440 
#    y 0.047330 1.966990 -0.002150 
#    z 0.020440 -0.002150 2.000250 
# 
# From -- ./inp_files/116579.got.cif
#   From: 2010.05.17/outbox.cif.g08.bks.cpg/sg2_59_cif.got.tgz:116579.got - 2010.06.03 11:33:40.
