data_PCOD9059575
_publ_section_title
;
Structure prediction by ZEFSAII (Michael W. Deem and Ramdas Pophale) SiO2 
 PCOD9059575
Probable space group: P -1
;
_chemical_formula_sum "Si O2"
_cell_formula_units_Z 11
_cell_length_a 7.226135
_cell_length_b 14.368201
_cell_length_c 9.620965
_cell_angle_alpha 39.000822
_cell_angle_beta 94.184317
_cell_angle_gamma 69.278886
_cell_volume 474.267520
_symmetry_space_group_name_H-M "P -1"
_symmetry_group_IT_number 2
_symmetry_cell_setting 'triclinic'
loop_
_space_group_symop_operation_xyz
x,y,z
-x,-y,-z
loop_
_atom_site_type_symbol
_atom_site_label
_atom_site_fract_x
_atom_site_fract_y
_atom_site_fract_z
Si Si1 0.906559 0.611371 0.183336
Si Si2 0.540154 0.380892 0.777520
Si Si3 0.487751 0.381454 0.254569
Si Si4 0.000000 0.500000 0.000000
Si Si5 0.992235 0.951567 0.215420
Si Si6 0.777469 0.801368 0.232257
O O1 0.688379 0.605759 0.210281
O O2 0.859902 0.766217 0.114793
O O3 0.919884 0.622516 0.006184
O O4 0.158223 0.399450 0.491457
O O5 0.500000 0.500000 0.500000
O O6 0.583328 0.481876 0.777206
O O7 0.772326 0.152834 0.040368
O O8 0.286618 0.369869 0.210327
O O9 0.751826 0.174870 0.544803
O O10 0.500000 0.500000 0.000000
O O11 0.922536 0.816986 0.340404
O O12 0.000000 0.000000 0.000000
O O13 0.500000 0.000000 0.000000
#
# Coordination Sequence:
#
# PCOD9059575 Si02
#       6
#     2   2   2   1   2   2
#     4  11  25  46  70 107 149 193 238 303 366 438
#     4  12  24  47  76 108 148 190 250 311 368 432
#     4  12  27  51  71 106 152 195 242 306 374 443
#     4  12  28  48  72 100 154 200 236 294 378 452
#     4  12  25  43  77 111 139 191 249 307 369 435
#     4  11  23  41  73 107 140 179 248 304 358 430
#
# _framework density 23.193660000000001
#
# number of rings (size 3 to 8) (size 9 to 14) (size 15 to 20)
#    0.000    0.364    7.273    0.000   10.182    0.727 
#    0.000    1.818    0.000    0.000    0.000    0.000 
#    0.000    0.000    0.000    0.000    0.000    0.000 
#
# Total GULP energy -61239.096476 kJ/mol
# GULP energy per Si atom -5567.190589 kJ/mol
# Density = 2.314087 g / cm^3
# Si number density = 23.193660 Si / 1000 Ang^3
#
#
#
# Elastic Constant Matrix: (Units=GPa)
#
#
# Indices 1 2 3 4 5 6 
#
# 1 85.6604 4.9208 43.3783 -2.8523 35.8190 6.5003
# 2 4.9208 185.0213 71.3345 -4.8575 17.3982 4.7351
# 3 43.3783 71.3345 155.2541 -19.8303 45.7417 -0.2774
# 4 -2.8523 -4.8575 -19.8303 64.1363 -1.7146 7.3361
# 5 35.8190 17.3982 45.7417 -1.7146 48.6843 9.0073
# 6 6.5003 4.7351 -0.2774 7.3361 9.0073 33.2629
#
#
#
# Elastic Compliance Matrix: (Units=1/GPa)
#
#
# Indices 1 2 3 4 5 6 
#
# 1 0.017430 0.001476 -0.002288 -0.000046 -0.011088 -0.000623
# 2 0.001476 0.006766 -0.003600 -0.000393 0.000090 -0.001219
# 3 -0.002288 -0.003600 0.011509 0.002654 -0.008250 0.002704
# 4 -0.000046 -0.000393 0.002654 0.016728 -0.001120 -0.003299
# 5 -0.011088 0.000090 -0.008250 -0.001120 0.037842 -0.007915
# 6 -0.000623 -0.001219 0.002704 -0.003299 -0.007915 0.033252
#
#
# Mechanical properties :
#
#
# Convention : Reuss Voigt Hill
#
# Bulk Modulus (GPa) = 37.20202 73.91144 55.55673
# Shear Modulus (GPa) = 35.38235 49.63685 42.50960
#
# Velocity S-wave (km/s) = 3.91003 4.63114 4.28578
# Velocity P-wave (km/s) = 6.03813 7.78029 6.96390
#
# Compressibility (1/GPa) = 0.02688026
#
# Stress axis : x y z
#
# Youngs Moduli (GPa) = 57.37152 147.79870 86.88734
#
# Poissons Ratio (x) = -0.21817 0.19884
# Poissons Ratio (y) = -0.08469 0.31281
# Poissons Ratio (z) = 0.13129 0.53211
#
# Static dielectric constant tensor:
#      x y z
#    x 2.360300 0.058440 -0.129310 
#    y 0.058440 1.902630 -0.012030 
#    z -0.129310 -0.012030 1.849870 
# 
# From -- ./inp_files/195261.got.cif
#   From: 2010.05.17/outbox.cif.g08.bks.cpg/sg2_98_cif.got.tgz:195261.got - 2010.06.03 11:33:40.
