data_PCOD9059238
_publ_section_title
;
Structure prediction by ZEFSAII (Michael W. Deem and Ramdas Pophale) SiO2 
 PCOD9059238
Probable space group: P -1
;
_chemical_formula_sum "Si O2"
_cell_formula_units_Z 14
_cell_length_a 8.128851
_cell_length_b 10.881277
_cell_length_c 14.921740
_cell_angle_alpha 136.704727
_cell_angle_beta 61.018593
_cell_angle_gamma 88.170337
_cell_volume 607.653759
_symmetry_space_group_name_H-M "P -1"
_symmetry_group_IT_number 2
_symmetry_cell_setting 'triclinic'
loop_
_space_group_symop_operation_xyz
x,y,z
-x,-y,-z
loop_
_atom_site_type_symbol
_atom_site_label
_atom_site_fract_x
_atom_site_fract_y
_atom_site_fract_z
Si Si1 0.629220 0.884782 0.307194
Si Si2 0.549405 0.835336 0.788608
Si Si3 0.970622 0.859834 0.858543
Si Si4 0.609395 0.445583 0.658462
Si Si5 0.218107 0.608221 0.998769
Si Si6 0.111354 0.041179 0.276598
Si Si7 0.590864 0.672360 0.506986
O O1 0.663278 0.655938 0.148684
O O2 0.500000 0.000000 0.500000
O O3 0.451069 0.107498 0.408682
O O4 0.918230 0.771415 0.164371
O O5 0.651537 0.626336 0.719158
O O6 0.728990 0.877670 0.729145
O O7 0.477124 0.762989 0.682280
O O8 0.299407 0.057301 0.013012
O O9 0.969644 0.929968 0.792825
O O10 0.152871 0.583399 0.680380
O O11 0.000000 0.000000 0.000000
O O12 0.372532 0.556379 0.840194
O O13 0.546170 0.374350 0.548656
O O14 0.873908 0.210784 0.491688
O O15 0.251717 0.776683 0.129765
#
# Coordination Sequence:
#
# PCOD9059238 Si02
#       7
#     2   2   2   2   2   2   2
#     4  11  24  44  67  99 125 172 227 280 323 378
#     4  12  26  39  64 101 143 176 211 262 338 406
#     4  12  24  38  65  97 138 173 214 268 324 392
#     4  12  22  40  66  98 136 168 216 269 330 395
#     4  11  23  40  73  94 127 172 225 273 325 387
#     4  12  24  42  63 100 139 180 211 263 337 396
#     4  12  24  40  65 100 132 171 216 277 325 384
#
# _framework density 23.039437
#
# number of rings (size 3 to 8) (size 9 to 14) (size 15 to 20)
#    0.000    0.286    7.143    2.143    2.000    0.000 
#    0.000    0.714    0.000    4.286    0.000    0.000 
#    0.000    0.000    0.000    0.000    0.000    0.000 
#
# Total GULP energy -78046.130026 kJ/mol
# GULP energy per Si atom -5574.723573 kJ/mol
# Density = 2.298700 g / cm^3
# Si number density = 23.039437 Si / 1000 Ang^3
#
#
#
# Elastic Constant Matrix: (Units=GPa)
#
#
# Indices 1 2 3 4 5 6 
#
# 1 39.1063 8.6740 28.3434 -1.0533 2.0354 21.2458
# 2 8.6740 113.1721 65.4224 33.4013 0.2529 21.0090
# 3 28.3434 65.4224 190.2705 15.1147 -11.5659 11.7897
# 4 -1.0533 33.4013 15.1147 62.2184 6.7068 4.6351
# 5 2.0354 0.2529 -11.5659 6.7068 22.0446 -0.1625
# 6 21.2458 21.0090 11.7897 4.6351 -0.1625 33.5117
#
#
#
# Elastic Compliance Matrix: (Units=1/GPa)
#
#
# Indices 1 2 3 4 5 6 
#
# 1 0.047978 0.006057 -0.008094 0.002963 -0.009882 -0.031824
# 2 0.006057 0.014953 -0.005032 -0.005724 -0.001708 -0.010660
# 3 -0.008094 -0.005032 0.008205 -0.000405 0.005274 0.005481
# 4 0.002963 -0.005724 -0.000405 0.020069 -0.006533 -0.000955
# 5 -0.009882 -0.001708 0.005274 -0.006533 0.051098 0.006632
# 6 -0.031824 -0.010660 0.005481 -0.000955 0.006632 0.054935
#
#
# Mechanical properties :
#
#
# Convention : Reuss Voigt Hill
#
# Bulk Modulus (GPa) = 17.54457 60.82537 39.18497
# Shear Modulus (GPa) = 21.70369 39.56221 30.63295
#
# Velocity S-wave (km/s) = 3.07257 4.14835 3.65031
# Velocity P-wave (km/s) = 4.49657 7.02872 5.90009
#
# Compressibility (1/GPa) = 0.05699770
#
# Stress axis : x y z
#
# Youngs Moduli (GPa) = 20.84301 66.87567 121.88030
#
# Poissons Ratio (x) = -0.40507 0.98646
# Poissons Ratio (y) = -0.12625 0.61334
# Poissons Ratio (z) = 0.16870 0.33654
#
# Static dielectric constant tensor:
#      x y z
#    x 1.912620 0.013130 -0.003150 
#    y 0.013130 1.905880 0.020810 
#    z -0.003150 0.020810 1.900500 
# 
# From -- ./inp_files/278400.got.cif
#   From: 2010.05.17/outbox.cif.g08.bks.cpg/sg2_140_cif.got.tgz:278400.got - 2010.06.03 11:33:40.
