data_PCOD9059651
_publ_section_title
;
Structure prediction by ZEFSAII (Michael W. Deem and Ramdas Pophale) SiO2 
 PCOD9059651
Probable space group: P -1
;
_chemical_formula_sum "Si O2"
_cell_formula_units_Z 14
_cell_length_a 5.173737
_cell_length_b 18.491808
_cell_length_c 18.603045
_cell_angle_alpha 22.260289
_cell_angle_beta 64.345045
_cell_angle_gamma 56.192360
_cell_volume 540.868958
_symmetry_space_group_name_H-M "P -1"
_symmetry_group_IT_number 2
_symmetry_cell_setting 'triclinic'
loop_
_space_group_symop_operation_xyz
x,y,z
-x,-y,-z
loop_
_atom_site_type_symbol
_atom_site_label
_atom_site_fract_x
_atom_site_fract_y
_atom_site_fract_z
Si Si1 0.311805 0.738676 0.333073
Si Si2 0.217248 0.604931 0.847734
Si Si3 0.155491 0.806894 0.817970
Si Si4 0.107455 0.728595 0.584770
Si Si5 0.058952 0.821544 0.067499
Si Si6 0.784006 0.724609 0.048122
Si Si7 0.735600 0.648707 0.499157
O O1 0.500000 0.500000 0.500000
O O2 0.531492 0.755458 0.354134
O O3 0.984772 0.740651 0.400686
O O4 0.199603 0.933373 0.110558
O O5 0.204671 0.762876 0.767596
O O6 0.103310 0.710960 0.687325
O O7 0.567640 0.402939 0.985848
O O8 0.000000 0.500000 0.000000
O O9 0.832279 0.811798 0.885423
O O10 0.142707 0.033874 0.626988
O O11 0.463795 0.686542 0.555906
O O12 0.062752 0.532757 0.738287
O O13 0.415459 0.799405 0.044272
O O14 0.962530 0.792394 0.024582
O O15 0.075124 0.610835 0.297977
#
# Coordination Sequence:
#
# PCOD9059651 Si02
#       7
#     2   2   2   2   2   2   2
#     4  12  26  46  72 105 140 177 222 274 340 410
#     4  11  24  44  60  97 135 174 227 279 339 397
#     4  11  23  42  65  89 136 177 225 282 339 386
#     4  11  23  44  68  96 128 180 228 276 332 401
#     4  11  24  44  70 101 142 175 223 281 335 392
#     4  11  23  43  69 100 136 180 229 284 331 400
#     4  11  25  44  70 105 134 178 232 270 336 410
#
# _framework density 25.884271999999999
#
# number of rings (size 3 to 8) (size 9 to 14) (size 15 to 20)
#    0.000    0.857    1.429    6.857    0.000    1.714 
#   10.286    0.000    0.000    0.000    0.000    0.000 
#    0.000    0.000    0.000    0.000    0.000    0.000 
#
# Total GULP energy -78506.696477 kJ/mol
# GULP energy per Si atom -5607.621177 kJ/mol
# Density = 2.582536 g / cm^3
# Si number density = 25.884272 Si / 1000 Ang^3
#
#
#
# Elastic Constant Matrix: (Units=GPa)
#
#
# Indices 1 2 3 4 5 6 
#
# 1 72.8799 35.5779 8.0358 0.1811 0.8260 2.4527
# 2 35.5779 81.8164 29.8711 5.1583 -2.0834 -8.2275
# 3 8.0358 29.8711 156.0851 -17.6415 -3.5583 -1.0772
# 4 0.1811 5.1583 -17.6415 40.6927 8.0289 -6.5687
# 5 0.8260 -2.0834 -3.5583 8.0289 35.0323 4.9801
# 6 2.4527 -8.2275 -1.0772 -6.5687 4.9801 24.1496
#
#
#
# Elastic Compliance Matrix: (Units=1/GPa)
#
#
# Indices 1 2 3 4 5 6 
#
# 1 0.017989 -0.008601 0.000759 0.000696 -0.000385 -0.004455
# 2 -0.008601 0.017944 -0.003254 -0.002840 0.000750 0.005915
# 3 0.000759 -0.003254 0.007405 0.003725 -0.000345 0.000229
# 4 0.000696 -0.002840 0.003725 0.029503 -0.007814 0.008764
# 5 -0.000385 0.000750 -0.000345 -0.007814 0.031542 -0.008351
# 6 -0.004455 0.005915 0.000229 0.008764 -0.008351 0.047992
#
#
# Mechanical properties :
#
#
# Convention : Reuss Voigt Hill
#
# Bulk Modulus (GPa) = 47.29269 50.86123 49.07696
# Shear Modulus (GPa) = 27.53064 35.79470 31.66267
#
# Velocity S-wave (km/s) = 3.26483 3.72274 3.50128
# Velocity P-wave (km/s) = 5.70287 6.17823 5.94530
#
# Compressibility (1/GPa) = 0.02114492
#
# Stress axis : x y z
#
# Youngs Moduli (GPa) = 55.58959 55.72933 135.04087
#
# Poissons Ratio (x) = 0.47935 -0.10251
# Poissons Ratio (y) = 0.47815 0.43947
# Poissons Ratio (z) = -0.04220 0.18136
#
# Static dielectric constant tensor:
#      x y z
#    x 2.035550 -0.010120 0.026550 
#    y -0.010120 2.064880 -0.062120 
#    z 0.026550 -0.062120 2.033230 
# 
# From -- ./inp_files/584251.got.cif
#   From: 2010.05.17/outbox.cif.g08.bks.cpg/sg2_293_cif.got.tgz:584251.got - 2010.06.03 11:33:40.
