data_PCOD9059804
_publ_section_title
;
Structure prediction by ZEFSAII (Michael W. Deem and Ramdas Pophale) SiO2 
 PCOD9059804
Probable space group: P -1
;
_chemical_formula_sum "Si O2"
_cell_formula_units_Z 14
_cell_length_a 11.873957
_cell_length_b 10.046123
_cell_length_c 9.548400
_cell_angle_alpha 128.820192
_cell_angle_beta 49.817687
_cell_angle_gamma 141.774677
_cell_volume 520.798803
_symmetry_space_group_name_H-M "P -1"
_symmetry_group_IT_number 2
_symmetry_cell_setting 'triclinic'
loop_
_space_group_symop_operation_xyz
x,y,z
-x,-y,-z
loop_
_atom_site_type_symbol
_atom_site_label
_atom_site_fract_x
_atom_site_fract_y
_atom_site_fract_z
Si Si1 0.021239 0.854960 0.253899
Si Si2 0.231145 0.441033 0.482927
Si Si3 0.198611 0.396482 0.164494
Si Si4 0.845790 0.222063 0.162118
Si Si5 0.557557 0.088511 0.672190
Si Si6 0.352972 0.394454 0.754363
Si Si7 0.564630 0.872781 0.790347
O O1 0.918462 0.742883 0.408327
O O2 0.849386 0.823329 0.286949
O O3 0.240234 0.058069 0.254980
O O4 0.055707 0.722101 0.030779
O O5 0.195409 0.341218 0.290870
O O6 0.195951 0.617547 0.647944
O O7 0.454941 0.565603 0.407616
O O8 0.276386 0.649301 0.276775
O O9 0.985374 0.238312 0.170691
O O10 0.326029 0.398030 0.945205
O O11 0.641788 0.977849 0.157402
O O12 0.500000 0.000000 0.500000
O O13 0.601181 0.968546 0.666368
O O14 0.398831 0.611644 0.785680
O O15 0.500000 0.000000 0.000000
#
# Coordination Sequence:
#
# PCOD9059804 Si02
#       7
#     2   2   2   2   2   2   2
#     4  11  25  43  69  99 134 178 228 273 327 403
#     4  12  24  41  69 102 142 177 218 279 340 397
#     4  11  24  44  69 100 135 179 226 274 333 396
#     4  11  23  42  69 102 132 177 231 275 327 392
#     4  12  24  40  68 101 129 165 229 284 325 387
#     4  11  26  46  67  99 141 179 219 276 344 398
#     4  12  24  44  72  98 128 178 230 277 331 401
#
# _framework density 26.881781
#
# number of rings (size 3 to 8) (size 9 to 14) (size 15 to 20)
#    0.000    0.571    4.286    3.429    4.000    0.571 
#    0.000    2.857    0.000    5.143    0.000    0.000 
#    0.000    0.000    0.000    0.000    0.000    0.000 
#
# Total GULP energy -78383.267503 kJ/mol
# GULP energy per Si atom -5598.804822 kJ/mol
# Density = 2.682060 g / cm^3
# Si number density = 26.881781 Si / 1000 Ang^3
#
#
#
# Elastic Constant Matrix: (Units=GPa)
#
#
# Indices 1 2 3 4 5 6 
#
# 1 117.3226 56.5264 62.6267 -16.5713 15.9341 21.3421
# 2 56.5264 92.4271 22.9816 -11.7653 2.8234 30.1634
# 3 62.6267 22.9816 193.9821 -22.8668 18.6989 -8.9526
# 4 -16.5713 -11.7653 -22.8668 33.6782 6.5144 -5.9339
# 5 15.9341 2.8234 18.6989 6.5144 62.7342 -7.3411
# 6 21.3421 30.1634 -8.9526 -5.9339 -7.3411 45.4379
#
#
#
# Elastic Compliance Matrix: (Units=1/GPa)
#
#
# Indices 1 2 3 4 5 6 
#
# 1 0.015181 -0.006809 -0.003646 0.002608 -0.003143 -0.003496
# 2 -0.006809 0.018025 -0.000159 0.001350 -0.000187 -0.008652
# 3 -0.003646 -0.000159 0.007073 0.003797 -0.001157 0.003520
# 4 0.002608 0.001350 0.003797 0.035467 -0.005256 0.002410
# 5 -0.003143 -0.000187 -0.001157 -0.005256 0.018059 0.003604
# 6 -0.003496 -0.008652 0.003520 0.002410 0.003604 0.030984
#
#
# Mechanical properties :
#
#
# Convention : Reuss Voigt Hill
#
# Bulk Modulus (GPa) = 52.49257 76.44458 64.46857
# Shear Modulus (GPa) = 32.81551 45.80986 39.31268
#
# Velocity S-wave (km/s) = 3.49769 4.13258 3.82832
# Velocity P-wave (km/s) = 5.99011 7.16031 6.60119
#
# Compressibility (1/GPa) = 0.01905031
#
# Stress axis : x y z
#
# Youngs Moduli (GPa) = 65.87041 55.47988 141.39213
#
# Poissons Ratio (x) = 0.37778 0.51545
# Poissons Ratio (y) = 0.44853 0.02252
# Poissons Ratio (z) = 0.24013 0.00883
#
# Static dielectric constant tensor:
#      x y z
#    x 2.113120 -0.047580 0.025950 
#    y -0.047580 2.162860 0.060740 
#    z 0.025950 0.060740 2.104230 
# 
# From -- ./inp_files/262993.got.cif
#   From: 2010.05.17/outbox.cif.g08.bks.cpg/sg2_132_cif.got.tgz:262993.got - 2010.06.03 11:33:40.
