data_PCOD9059395
_publ_section_title
;
Structure prediction by ZEFSAII (Michael W. Deem and Ramdas Pophale) SiO2 
 PCOD9059395
Probable space group: P -1
;
_chemical_formula_sum "Si O2"
_cell_formula_units_Z 16
_cell_length_a 8.823837
_cell_length_b 17.586904
_cell_length_c 20.650175
_cell_angle_alpha 161.484182
_cell_angle_beta 127.720970
_cell_angle_gamma 61.124866
_cell_volume 742.207017
_symmetry_space_group_name_H-M "P -1"
_symmetry_group_IT_number 2
_symmetry_cell_setting 'triclinic'
loop_
_space_group_symop_operation_xyz
x,y,z
-x,-y,-z
loop_
_atom_site_type_symbol
_atom_site_label
_atom_site_fract_x
_atom_site_fract_y
_atom_site_fract_z
Si Si1 0.043965 0.027653 0.958367
Si Si2 0.841230 0.512187 0.165916
Si Si3 0.085381 0.780499 0.325603
Si Si4 0.608828 0.720687 0.568974
Si Si5 0.205054 0.612815 0.447873
Si Si6 0.568970 0.926163 0.601222
Si Si7 0.720722 0.972002 0.541932
Si Si8 0.289929 0.751992 0.730662
O O1 0.124912 0.815808 0.782072
O O2 0.820220 0.971219 0.825405
O O3 0.192168 0.317916 0.213993
O O4 0.000000 0.000000 0.000000
O O5 0.724673 0.710169 0.300641
O O6 0.954408 0.553075 0.157730
O O7 0.019153 0.594708 0.335629
O O8 0.673416 0.220756 0.892662
O O9 0.329469 0.869373 0.476941
O O10 0.099844 0.796117 0.262934
O O11 0.000000 0.000000 0.500000
O O12 0.426696 0.764737 0.595268
O O13 0.550708 0.692157 0.455816
O O14 0.664651 0.495554 0.434220
O O15 0.214331 0.717386 0.608056
O O16 0.721758 0.934756 0.588944
O O17 0.500000 0.000000 0.500000
O O18 0.500000 0.000000 0.000000
#
# Coordination Sequence:
#
# PCOD9059395 Si02
#       8
#     2   2   2   2   2   2   2   2
#     4  12  25  44  70  96 130 185 223 275 339 393
#     4  11  23  41  69  96 133 174 217 275 335 390
#     4   9  20  42  66  93 129 169 212 267 330 398
#     4  12  24  44  66  97 138 175 227 279 331 397
#     4  12  25  44  67  99 138 176 230 276 332 403
#     4  11  23  41  67  98 132 171 221 275 330 391
#     4   9  22  42  66  97 131 166 217 269 325 407
#     4  12  26  45  70  97 137 185 226 278 334 398
#
# _framework density 21.557326
#
# number of rings (size 3 to 8) (size 9 to 14) (size 15 to 20)
#    0.000    1.000    5.000    1.500    1.750    5.000 
#    2.250    3.750    0.000    0.000    0.000    0.000 
#    0.000    0.000    0.000    0.000    0.000    0.000 
#
# Total GULP energy -89174.346466 kJ/mol
# GULP energy per Si atom -5573.396654 kJ/mol
# Density = 2.150826 g / cm^3
# Si number density = 21.557326 Si / 1000 Ang^3
#
#
#
# Elastic Constant Matrix: (Units=GPa)
#
#
# Indices 1 2 3 4 5 6 
#
# 1 136.0284 27.6934 5.5447 -2.3196 -10.0623 11.4409
# 2 27.6934 58.3651 -26.7853 3.8618 -8.0186 24.3994
# 3 5.5447 -26.7853 30.1061 4.6657 -1.5544 -1.7309
# 4 -2.3196 3.8618 4.6657 22.8120 5.2349 3.9282
# 5 -10.0623 -8.0186 -1.5544 5.2349 30.5059 -9.7963
# 6 11.4409 24.3994 -1.7309 3.9282 -9.7963 29.9774
#
#
#
# Elastic Compliance Matrix: (Units=1/GPa)
#
#
# Indices 1 2 3 4 5 6 
#
# 1 0.010984 -0.017076 -0.017785 0.006408 -0.000395 0.007710
# 2 -0.017076 0.090991 0.085566 -0.027135 0.009318 -0.056002
# 3 -0.017785 0.085566 0.116014 -0.034963 0.013377 -0.047205
# 4 0.006408 -0.027135 -0.034963 0.058911 -0.015340 0.004889
# 5 -0.000395 0.009318 0.013377 -0.015340 0.041249 0.008829
# 6 0.007710 -0.056002 -0.047205 0.004889 0.008829 0.075516
#
#
# Mechanical properties :
#
#
# Convention : Reuss Voigt Hill
#
# Bulk Modulus (GPa) = 3.13087 26.37834 14.75461
# Shear Modulus (GPa) = 12.54008 31.19551 21.86780
#
# Velocity S-wave (km/s) = 2.41448 3.80820 3.18842
# Velocity P-wave (km/s) = 3.03784 5.62134 4.51818
#
# Compressibility (1/GPa) = 0.31940000
#
# Stress axis : x y z
#
# Youngs Moduli (GPa) = 91.03958 10.99008 8.61963
#
# Poissons Ratio (x) = 0.18766 0.15330
# Poissons Ratio (y) = 1.55455 -0.73755
# Poissons Ratio (z) = 1.61916 -0.94038
#
# Static dielectric constant tensor:
#      x y z
#    x 1.783000 0.049380 0.001640 
#    y 0.049380 1.734120 0.046240 
#    z 0.001640 0.046240 1.760740 
# 
# From -- ./inp_files/562769.got.cif
#   From: 2010.05.17/outbox.cif.g08.bks.cpg/sg2_282_cif.got.tgz:562769.got - 2010.06.03 11:33:40.
