data_PCOD9059466
_publ_section_title
;
Structure prediction by ZEFSAII (Michael W. Deem and Ramdas Pophale) SiO2 
 PCOD9059466
Probable space group: P -1
;
_chemical_formula_sum "Si O2"
_cell_formula_units_Z 16
_cell_length_a 8.291778
_cell_length_b 16.822654
_cell_length_c 15.590763
_cell_angle_alpha 146.629411
_cell_angle_beta 43.036668
_cell_angle_gamma 145.794485
_cell_volume 666.755123
_symmetry_space_group_name_H-M "P -1"
_symmetry_group_IT_number 2
_symmetry_cell_setting 'triclinic'
loop_
_space_group_symop_operation_xyz
x,y,z
-x,-y,-z
loop_
_atom_site_type_symbol
_atom_site_label
_atom_site_fract_x
_atom_site_fract_y
_atom_site_fract_z
Si Si1 0.179017 0.857502 0.240693
Si Si2 0.630356 0.204317 0.124523
Si Si3 0.191816 0.426867 0.378780
Si Si4 0.208588 0.425541 0.994544
Si Si5 0.684065 0.821276 0.945744
Si Si6 0.380329 0.217705 0.396025
Si Si7 0.685398 0.210955 0.710501
Si Si8 0.886531 0.157090 0.412148
O O1 0.144380 0.841467 0.341943
O O2 0.302266 0.053309 0.336292
O O3 0.429870 0.825947 0.093045
O O4 0.890505 0.708144 0.167528
O O5 0.427915 0.211824 0.139579
O O6 0.635019 0.269713 0.276331
O O7 0.945416 0.310252 0.058189
O O8 0.500000 0.000000 0.000000
O O9 0.261803 0.329086 0.192607
O O10 0.503919 0.599212 0.438853
O O11 0.000000 0.500000 0.500000
O O12 0.017171 0.286005 0.396708
O O13 0.225835 0.600276 0.122241
O O14 0.500000 0.500000 0.000000
O O15 0.000000 0.000000 0.000000
O O16 0.123319 0.158867 0.377756
O O17 0.750041 0.217874 0.590646
O O18 0.354193 0.045325 0.701437
#
# Coordination Sequence:
#
# PCOD9059466 Si02
#       8
#     2   2   2   2   2   2   2   2
#     4  11  25  45  72 104 147 188 243 305 355 434
#     4  11  23  42  75 105 141 182 241 298 358 426
#     4  12  26  43  70 106 142 182 237 303 369 427
#     4  11  24  44  71 104 142 192 241 296 362 432
#     4  11  23  41  69 104 141 183 226 300 367 411
#     4  12  23  44  72 105 141 182 245 299 367 423
#     4  11  25  46  66  98 145 193 249 283 364 441
#     4  11  25  44  73  96 144 196 233 302 360 440
#
# _framework density 23.996814000000001
#
# number of rings (size 3 to 8) (size 9 to 14) (size 15 to 20)
#    0.000    0.750    3.750    4.500    3.500    0.500 
#    2.250    0.000    0.000    0.000    0.000    0.000 
#    0.000    0.000    0.000    0.000    0.000    0.000 
#
# Total GULP energy -89499.097510 kJ/mol
# GULP energy per Si atom -5593.693594 kJ/mol
# Density = 2.394220 g / cm^3
# Si number density = 23.996814 Si / 1000 Ang^3
#
#
#
# Elastic Constant Matrix: (Units=GPa)
#
#
# Indices 1 2 3 4 5 6 
#
# 1 69.6365 47.1235 -5.3156 -6.7585 -7.5765 14.9514
# 2 47.1235 143.4211 26.6551 25.4892 -2.5640 5.8818
# 3 -5.3156 26.6551 79.6175 19.0319 -1.0767 3.4889
# 4 -6.7585 25.4892 19.0319 26.3281 8.9571 2.6278
# 5 -7.5765 -2.5640 -1.0767 8.9571 43.2912 12.0496
# 6 14.9514 5.8818 3.4889 2.6278 12.0496 47.6434
#
#
#
# Elastic Compliance Matrix: (Units=1/GPa)
#
#
# Indices 1 2 3 4 5 6 
#
# 1 0.025881 -0.011322 0.002132 0.015896 0.002993 -0.008514
# 2 -0.011322 0.013711 -0.001696 -0.015658 0.001329 0.002512
# 3 0.002132 -0.001696 0.015834 -0.010191 0.003302 -0.001892
# 4 0.015896 -0.015658 -0.010191 0.068911 -0.011786 -0.003129
# 5 0.002993 0.001329 0.003302 -0.011786 0.028416 -0.007882
# 6 -0.008514 0.002512 -0.001892 -0.003129 -0.007882 0.025656
#
#
# Mechanical properties :
#
#
# Convention : Reuss Voigt Hill
#
# Bulk Modulus (GPa) = 29.71277 47.73344 38.72310
# Shear Modulus (GPa) = 23.65194 38.40002 31.02598
#
# Velocity S-wave (km/s) = 3.14288 4.00461 3.59962
# Velocity P-wave (km/s) = 5.05758 6.42785 5.78344
#
# Compressibility (1/GPa) = 0.03365556
#
# Stress axis : x y z
#
# Youngs Moduli (GPa) = 38.63773 72.93245 63.15595
#
# Poissons Ratio (x) = 0.82577 -0.13468
# Poissons Ratio (y) = 0.43747 0.10708
# Poissons Ratio (z) = -0.08239 0.12366
#
# Static dielectric constant tensor:
#      x y z
#    x 1.995340 0.054390 0.039900 
#    y 0.054390 2.008690 -0.094500 
#    z 0.039900 -0.094500 2.093560 
# 
# From -- ./inp_files/562094.got.cif
#   From: 2010.05.17/outbox.cif.g08.bks.cpg/sg2_282_cif.got.tgz:562094.got - 2010.06.03 11:33:40.
