data_PCOD9059520
_publ_section_title
;
Structure prediction by ZEFSAII (Michael W. Deem and Ramdas Pophale) SiO2 
 PCOD9059520
Probable space group: P -1
;
_chemical_formula_sum "Si O2"
_cell_formula_units_Z 16
_cell_length_a 11.848820
_cell_length_b 9.955156
_cell_length_c 9.209846
_cell_angle_alpha 99.694882
_cell_angle_beta 55.850250
_cell_angle_gamma 118.295279
_cell_volume 784.478648
_symmetry_space_group_name_H-M "P -1"
_symmetry_group_IT_number 2
_symmetry_cell_setting 'triclinic'
loop_
_space_group_symop_operation_xyz
x,y,z
-x,-y,-z
loop_
_atom_site_type_symbol
_atom_site_label
_atom_site_fract_x
_atom_site_fract_y
_atom_site_fract_z
Si Si1 0.822975 0.501855 0.375556
Si Si2 0.523717 0.226615 0.229052
Si Si3 0.028009 0.704518 0.812009
Si Si4 0.288940 0.947040 0.870746
Si Si5 0.516608 0.765249 0.404061
Si Si6 0.016276 0.228443 0.466491
Si Si7 0.285514 0.411569 0.820471
Si Si8 0.220072 0.056840 0.233437
O O1 0.937151 0.439693 0.220823
O O2 0.664023 0.351781 0.504375
O O3 0.897608 0.615742 0.475543
O O4 0.779210 0.585514 0.293540
O O5 0.645080 0.159829 0.124703
O O6 0.458686 0.196985 0.435560
O O7 0.608902 0.410304 0.182025
O O8 0.388738 0.144004 0.197094
O O9 0.152833 0.843966 0.841164
O O10 0.043076 0.744349 0.638896
O O11 0.858868 0.663434 0.982314
O O12 0.423573 0.082551 0.707125
O O13 0.230496 0.019126 0.051907
O O14 0.613883 0.677451 0.273800
O O15 0.134082 0.159861 0.337093
O O16 0.879178 0.102117 0.638284
#
# Coordination Sequence:
#
# PCOD9059520 Si02
#       8
#     2   2   2   2   2   2   2   2
#     4  11  23  43  67  94 133 174 219 265 329 388
#     4  11  23  43  67  94 133 174 219 265 329 388
#     4  12  25  42  67  99 133 171 219 272 326 386
#     4  12  25  42  67  99 133 171 219 272 326 386
#     4  11  23  41  70  98 131 174 219 268 324 390
#     4  11  25  43  66  95 133 174 216 269 331 388
#     4  11  23  41  70  98 131 174 219 268 324 390
#     4  11  25  43  66  95 133 174 216 269 331 388
#
# _framework density 20.395712
#
# number of rings (size 3 to 8) (size 9 to 14) (size 15 to 20)
#    0.000    0.750    2.500    6.750    3.500    5.000 
#    0.000    2.500    0.000    0.000    0.000    0.000 
#    0.000    0.000    0.000    0.000    0.000    0.000 
#
# Total GULP energy -89582.748881 kJ/mol
# GULP energy per Si atom -5598.921805 kJ/mol
# Density = 2.034929 g / cm^3
# Si number density = 20.395712 Si / 1000 Ang^3
#
#
#
# Elastic Constant Matrix: (Units=GPa)
#
#
# Indices 1 2 3 4 5 6 
#
# 1 426.6062 154.7043 -166.8891 215.9567 -188.9378 -162.9211
# 2 154.7043 126.0768 -32.8197 99.8671 -58.7301 -54.4763
# 3 -166.8891 -32.8197 158.2893 -84.2800 98.6682 97.8703
# 4 215.9567 99.8671 -84.2800 155.4860 -119.0812 -99.1685
# 5 -188.9378 -58.7301 98.6682 -119.0812 151.5421 121.3280
# 6 -162.9211 -54.4763 97.8703 -99.1685 121.3280 120.4606
#
#
#
# Elastic Compliance Matrix: (Units=1/GPa)
#
#
# Indices 1 2 3 4 5 6 
#
# 1 0.011206 -0.005734 0.005421 -0.006757 0.004295 -0.001730
# 2 -0.005734 0.021708 -0.006257 -0.012831 -0.010374 0.007032
# 3 0.005421 -0.006257 0.015998 0.000512 0.004050 -0.012155
# 4 -0.006757 -0.012831 0.000512 0.034569 0.015208 -0.002216
# 5 0.004295 -0.010374 0.004050 0.015208 0.046293 -0.036279
# 6 -0.001730 0.007032 -0.012155 -0.002216 -0.036279 0.053733
#
#
# Mechanical properties :
#
#
# Convention : Reuss Voigt Hill
#
# Bulk Modulus (GPa) = 27.95534 68.99593 48.47563
# Shear Modulus (GPa) = 23.97242 135.89619 79.93430
#
# Velocity S-wave (km/s) = 3.43208 8.17156 6.26712
# Velocity P-wave (km/s) = 5.42603 11.08759 8.72859
#
# Compressibility (1/GPa) = 0.03577135
#
# Stress axis : x y z
#
# Youngs Moduli (GPa) = 89.23521 46.06578 62.50680
#
# Poissons Ratio (x) = 0.26413 -0.33882
# Poissons Ratio (y) = 0.51166 0.39113
# Poissons Ratio (z) = -0.48370 0.28825
#
# Static dielectric constant tensor:
#      x y z
#    x 1.691520 -0.017570 -0.005370 
#    y -0.017570 1.699770 -0.002930 
#    z -0.005370 -0.002930 1.700710 
# 
# From -- ./inp_files/218885.got.cif
#   From: 2010.05.17/outbox.cif.g08.bks.cpg/sg2_110_cif.got.tgz:218885.got - 2010.06.03 11:33:40.
