data_PCOD9059673
_publ_section_title
;
Structure prediction by ZEFSAII (Michael W. Deem and Ramdas Pophale) SiO2 
 PCOD9059673
Probable space group: P -1
;
_chemical_formula_sum "Si O2"
_cell_formula_units_Z 16
_cell_length_a 14.466630
_cell_length_b 15.481749
_cell_length_c 8.260902
_cell_angle_alpha 137.269676
_cell_angle_beta 117.651941
_cell_angle_gamma 33.772000
_cell_volume 643.094420
_symmetry_space_group_name_H-M "P -1"
_symmetry_group_IT_number 2
_symmetry_cell_setting 'triclinic'
loop_
_space_group_symop_operation_xyz
x,y,z
-x,-y,-z
loop_
_atom_site_type_symbol
_atom_site_label
_atom_site_fract_x
_atom_site_fract_y
_atom_site_fract_z
Si Si1 0.229525 0.716573 0.237067
Si Si2 0.398458 0.224997 0.552868
Si Si3 0.889674 0.440500 0.696400
Si Si4 0.505022 0.148464 0.890487
Si Si5 0.240999 0.601902 0.747018
Si Si6 0.992693 0.579781 0.774926
Si Si7 0.421152 0.656580 0.801372
Si Si8 0.900817 0.894094 0.329082
O O1 0.421421 0.476676 0.121696
O O2 0.078947 0.808577 0.358227
O O3 0.167328 0.726222 0.027640
O O4 0.248875 0.849238 0.433590
O O5 0.519959 0.119267 0.666007
O O6 0.387633 0.349225 0.583038
O O7 0.199927 0.415967 0.735043
O O8 0.434788 0.049339 0.265820
O O9 0.878034 0.358348 0.420101
O O10 0.058028 0.233366 0.659168
O O11 0.925480 0.543904 0.798733
O O12 0.696697 0.627510 0.891488
O O13 0.623470 0.156300 0.033614
O O14 0.291092 0.683706 0.812959
O O15 0.000000 0.500000 0.500000
O O16 0.887434 0.813612 0.055122
O O17 0.500000 0.500000 0.500000
#
# Coordination Sequence:
#
# PCOD9059673 Si02
#       8
#     2   2   2   2   2   2   2   2
#     4  11  23  42  66  95 131 169 216 268 327 392
#     4  11  24  44  68  97 132 171 220 274 328 388
#     4  12  23  43  70  93 133 174 218 270 329 387
#     4  11  24  44  68  97 132 171 220 274 328 388
#     4  12  23  43  70  93 133 174 218 270 329 387
#     4  12  23  43  68  94 133 173 216 269 329 389
#     4  12  23  43  68  94 133 173 216 269 329 389
#     4  11  23  42  66  95 131 169 216 268 327 392
#
# _framework density 24.879702999999999
#
# number of rings (size 3 to 8) (size 9 to 14) (size 15 to 20)
#    0.000    0.500    7.500    0.750    0.000    4.000 
#    0.000    0.000    0.000    0.000    0.000    0.000 
#    0.000    0.000    0.000    0.000    0.000    0.000 
#
# Total GULP energy -89352.928428 kJ/mol
# GULP energy per Si atom -5584.558027 kJ/mol
# Density = 2.482308 g / cm^3
# Si number density = 24.879703 Si / 1000 Ang^3
#
#
#
# Elastic Constant Matrix: (Units=GPa)
#
#
# Indices 1 2 3 4 5 6 
#
# 1 111.1363 5.7196 25.3859 7.2498 34.0626 14.9438
# 2 5.7196 58.5646 36.8221 -4.7919 3.0972 21.0488
# 3 25.3859 36.8221 163.3079 -0.3144 39.5026 31.8716
# 4 7.2498 -4.7919 -0.3144 46.4760 11.8774 8.5687
# 5 34.0626 3.0972 39.5026 11.8774 42.0420 4.9870
# 6 14.9438 21.0488 31.8716 8.5687 4.9870 25.1391
#
#
#
# Elastic Compliance Matrix: (Units=1/GPa)
#
#
# Indices 1 2 3 4 5 6 
#
# 1 0.013952 0.002329 0.003276 0.004102 -0.014172 -0.012984
# 2 0.002329 0.027248 -0.001145 0.007543 -0.001993 -0.024923
# 3 0.003276 -0.001145 0.012382 0.005972 -0.014000 -0.015945
# 4 0.004102 0.007543 0.005972 0.029901 -0.015149 -0.023512
# 5 -0.014172 -0.001993 -0.014000 -0.015149 0.050113 0.023065
# 6 -0.012984 -0.024923 -0.015945 -0.023512 0.023065 0.092019
#
#
# Mechanical properties :
#
#
# Convention : Reuss Voigt Hill
#
# Bulk Modulus (GPa) = 15.99948 52.09601 34.04775
# Shear Modulus (GPa) = 21.05008 40.40348 30.72678
#
# Velocity S-wave (km/s) = 2.91189 4.03420 3.51809
# Velocity P-wave (km/s) = 4.21310 6.53333 5.49702
#
# Compressibility (1/GPa) = 0.06250203
#
# Stress axis : x y z
#
# Youngs Moduli (GPa) = 71.67577 36.70010 80.76067
#
# Poissons Ratio (x) = -0.08549 -0.26457
# Poissons Ratio (y) = -0.16696 0.09249
# Poissons Ratio (z) = -0.23481 0.04203
#
# Static dielectric constant tensor:
#      x y z
#    x 2.030480 0.040180 0.023240 
#    y 0.040180 2.070930 0.064810 
#    z 0.023240 0.064810 2.028950 
# 
# From -- ./inp_files/314264.got.cif
#   From: 2010.05.17/outbox.cif.g08.bks.cpg/sg2_158_cif.got.tgz:314264.got - 2010.06.03 11:33:40.
