data_PCOD9059324
_publ_section_title
;
Structure prediction by ZEFSAII (Michael W. Deem and Ramdas Pophale) SiO2 
 PCOD9059324
Probable space group: P -1
;
_chemical_formula_sum "Si O2"
_cell_formula_units_Z 16
_cell_length_a 5.284991
_cell_length_b 13.778518
_cell_length_c 14.052673
_cell_angle_alpha 135.962014
_cell_angle_beta 79.604674
_cell_angle_gamma 80.732604
_cell_volume 633.245017
_symmetry_space_group_name_H-M "P -1"
_symmetry_group_IT_number 2
_symmetry_cell_setting 'triclinic'
loop_
_space_group_symop_operation_xyz
x,y,z
-x,-y,-z
loop_
_atom_site_type_symbol
_atom_site_label
_atom_site_fract_x
_atom_site_fract_y
_atom_site_fract_z
Si Si1 0.725894 0.457271 0.274963
Si Si2 0.875629 0.876270 0.425054
Si Si3 0.730746 0.626680 0.051894
Si Si4 0.610326 0.899549 0.769240
Si Si5 0.266878 0.873526 0.947813
Si Si6 0.082524 0.576110 0.459057
Si Si7 0.331736 0.062709 0.723299
Si Si8 0.404894 0.606427 0.223467
O O1 0.784277 0.278263 0.136866
O O2 0.974684 0.495506 0.326861
O O3 0.644163 0.542500 0.240045
O O4 0.417366 0.534780 0.404057
O O5 0.868341 0.850874 0.293794
O O6 0.096744 0.727387 0.360076
O O7 0.591666 0.948194 0.557932
O O8 0.000000 0.000000 0.500000
O O9 0.722115 0.776557 0.108327
O O10 0.499025 0.693329 0.198341
O O11 0.623890 0.535783 0.922840
O O12 0.000000 0.500000 0.000000
O O13 0.512946 0.837573 0.826240
O O14 0.890645 0.759318 0.610783
O O15 0.377283 0.955646 0.738636
O O16 0.671058 0.041995 0.905783
O O17 0.000000 0.000000 0.000000
O O18 0.000000 0.500000 0.500000
#
# Coordination Sequence:
#
# PCOD9059324 Si02
#       8
#     2   2   2   2   2   2   2   2
#     4  12  28  46  81 106 146 189 247 293 369 429
#     4  11  23  41  65  95 140 171 227 284 344 408
#     4  11  23  42  65  93 142 179 230 284 344 411
#     4  11  26  44  73 102 143 187 245 290 372 423
#     4  11  26  48  70 104 144 189 235 309 351 440
#     4  12  26  49  75 107 145 189 238 309 358 428
#     4  11  24  42  69  97 134 184 226 290 344 428
#     4  11  25  43  68 102 135 187 230 292 347 425
#
# _framework density 25.266680000000001
#
# number of rings (size 3 to 8) (size 9 to 14) (size 15 to 20)
#    0.000    0.750    3.750    2.625    7.000    2.000 
#    0.000    0.000    0.000    0.000    0.000    0.000 
#    0.000    0.000    0.000    0.000    0.000    0.000 
#
# Total GULP energy -89325.557075 kJ/mol
# GULP energy per Si atom -5582.847317 kJ/mol
# Density = 2.520917 g / cm^3
# Si number density = 25.266680 Si / 1000 Ang^3
#
#
#
# Elastic Constant Matrix: (Units=GPa)
#
#
# Indices 1 2 3 4 5 6 
#
# 1 41.3140 8.3795 4.4453 -4.9888 1.3225 -3.7514
# 2 8.3795 93.6881 45.0049 2.2816 8.6055 -19.5669
# 3 4.4453 45.0049 87.6260 14.0824 3.6520 8.2220
# 4 -4.9888 2.2816 14.0824 45.7185 -8.4852 1.1707
# 5 1.3225 8.6055 3.6520 -8.4852 46.4445 -2.9835
# 6 -3.7514 -19.5669 8.2220 1.1707 -2.9835 37.4534
#
#
#
# Elastic Compliance Matrix: (Units=1/GPa)
#
#
# Indices 1 2 3 4 5 6 
#
# 1 0.025178 -0.001282 -0.001349 0.003239 0.000352 0.002075
# 2 -0.001282 0.018489 -0.010737 0.001668 -0.001488 0.011717
# 3 -0.001349 -0.010737 0.018818 -0.005354 -0.001059 -0.009792
# 4 0.003239 0.001668 -0.005354 0.024603 0.004641 0.001972
# 5 0.000352 -0.001488 -0.001059 0.004641 0.022803 0.001162
# 6 0.002075 0.011717 -0.009792 0.001972 0.001162 0.035210
#
#
# Mechanical properties :
#
#
# Convention : Reuss Voigt Hill
#
# Bulk Modulus (GPa) = 27.97115 37.58748 32.77932
# Shear Modulus (GPa) = 27.21053 36.90985 32.06019
#
# Velocity S-wave (km/s) = 3.28523 3.82620 3.56599
# Velocity P-wave (km/s) = 5.04824 5.86757 5.47326
#
# Compressibility (1/GPa) = 0.03575112
#
# Stress axis : x y z
#
# Youngs Moduli (GPa) = 39.71676 54.08611 53.14000
#
# Poissons Ratio (x) = 0.06933 0.07168
# Poissons Ratio (y) = 0.05091 0.57054
# Poissons Ratio (z) = 0.05357 0.58070
#
# Static dielectric constant tensor:
#      x y z
#    x 2.327040 0.035090 0.117700 
#    y 0.035090 1.893890 -0.009420 
#    z 0.117700 -0.009420 2.116300 
# 
# From -- ./inp_files/484490.got.cif
#   From: 2010.05.17/outbox.cif.g08.bks.cpg/sg2_243_cif.got.tgz:484490.got - 2010.06.03 11:33:40.
