data_PCOD9059053
_publ_section_title
;
Structure prediction by ZEFSAII (Michael W. Deem and Ramdas Pophale) SiO2 
 PCOD9059053
Probable space group: P -1
;
_chemical_formula_sum "Si O2"
_cell_formula_units_Z 16
_cell_length_a 9.484417
_cell_length_b 19.894237
_cell_length_c 5.274572
_cell_angle_alpha 65.700580
_cell_angle_beta 110.217733
_cell_angle_gamma 128.565042
_cell_volume 703.674135
_symmetry_space_group_name_H-M "P -1"
_symmetry_group_IT_number 2
_symmetry_cell_setting 'triclinic'
loop_
_space_group_symop_operation_xyz
x,y,z
-x,-y,-z
loop_
_atom_site_type_symbol
_atom_site_label
_atom_site_fract_x
_atom_site_fract_y
_atom_site_fract_z
Si Si1 0.242194 0.717083 0.791242
Si Si2 0.712718 0.854101 0.498550
Si Si3 0.939928 0.055893 0.743758
Si Si4 0.998068 0.331318 0.791408
Si Si5 0.847576 0.774319 0.082809
Si Si6 0.504170 0.683796 0.276101
Si Si7 0.398080 0.503591 0.682569
Si Si8 0.462931 0.075619 0.409468
O O1 0.373586 0.825856 0.725476
O O2 0.141485 0.694780 0.490955
O O3 0.369220 0.681086 0.986720
O O4 0.096916 0.674867 0.994271
O O5 0.588685 0.774547 0.349859
O O6 0.611741 0.903737 0.410693
O O7 0.925809 0.910491 0.466079
O O8 0.734903 0.809719 0.829930
O O9 0.996439 0.146515 0.773555
O O10 0.730469 0.980745 0.753594
O O11 0.000000 0.000000 0.000000
O O12 0.057962 0.261959 0.965622
O O13 0.185812 0.424304 0.699416
O O14 0.685974 0.694215 0.267939
O O15 0.410767 0.595981 0.525214
O O16 0.500000 0.500000 0.500000
O O17 0.500000 0.500000 0.000000
O O18 0.500000 0.000000 0.500000
#
# Coordination Sequence:
#
# PCOD9059053 Si02
#       8
#     2   2   2   2   2   2   2   2
#     4  12  28  50  68 109 155 199 240 297 389 443
#     4  11  23  44  72 103 143 194 256 306 373 442
#     4  11  23  40  65 102 135 189 258 309 358 434
#     4  12  28  47  75 109 151 191 243 311 370 440
#     4  11  23  43  73 100 141 195 248 310 367 430
#     4  11  25  46  78 103 150 197 240 303 376 449
#     4  12  26  48  81 121 145 184 256 307 361 446
#     4  12  25  44  69 103 146 194 250 309 367 436
#
# _framework density 22.737797
#
# number of rings (size 3 to 8) (size 9 to 14) (size 15 to 20)
#    0.000    0.500    3.750    4.125    5.250    1.000 
#    0.000    3.750    0.000    0.000    0.000    0.000 
#    0.000    0.000    0.000    0.000    0.000    0.000 
#
# Total GULP energy -89139.219999 kJ/mol
# GULP energy per Si atom -5571.201250 kJ/mol
# Density = 2.268604 g / cm^3
# Si number density = 22.737797 Si / 1000 Ang^3
#
#
#
# Elastic Constant Matrix: (Units=GPa)
#
#
# Indices 1 2 3 4 5 6 
#
# 1 164.1491 73.4409 22.5546 -11.4754 -33.8599 3.8007
# 2 73.4409 136.4885 37.0967 -23.7726 -17.7553 28.6843
# 3 22.5546 37.0967 86.5570 1.3088 1.3804 8.4949
# 4 -11.4754 -23.7726 1.3088 40.9987 14.2191 0.0832
# 5 -33.8599 -17.7553 1.3804 14.2191 61.4398 -2.2283
# 6 3.8007 28.6843 8.4949 0.0832 -2.2283 45.8099
#
#
#
# Elastic Compliance Matrix: (Units=1/GPa)
#
#
# Indices 1 2 3 4 5 6 
#
# 1 0.009103 -0.005136 -0.000478 -0.001831 0.004067 0.002750
# 2 -0.005136 0.013898 -0.003970 0.006976 -0.000615 -0.007583
# 3 -0.000478 -0.003970 0.013436 -0.002468 -0.001142 -0.000017
# 4 -0.001831 0.006976 -0.002468 0.030111 -0.006055 -0.004108
# 5 0.004067 -0.000615 -0.001142 -0.006055 0.019811 0.001234
# 6 0.002750 -0.007583 -0.000017 -0.004108 0.001234 0.026420
#
#
# Mechanical properties :
#
#
# Convention : Reuss Voigt Hill
#
# Bulk Modulus (GPa) = 57.90449 72.59766 65.25108
# Shear Modulus (GPa) = 36.31042 46.58982 41.45012
#
# Velocity S-wave (km/s) = 4.00048 4.53150 4.27425
# Velocity P-wave (km/s) = 6.84543 7.70564 7.28824
#
# Compressibility (1/GPa) = 0.01726982
#
# Stress axis : x y z
#
# Youngs Moduli (GPa) = 109.85773 71.95444 74.42635
#
# Poissons Ratio (x) = 0.36956 0.03557
# Poissons Ratio (y) = 0.56423 0.29544
# Poissons Ratio (z) = 0.05250 0.28562
#
# Static dielectric constant tensor:
#      x y z
#    x 2.057140 -0.069540 -0.597980 
#    y -0.069540 1.928290 0.008390 
#    z -0.597980 0.008390 3.313750 
# 
# From -- ./inp_files/52526.got.cif
#   From: 2010.05.17/outbox.cif.g08.bks.cpg/sg2_27_cif.got.tgz:52526.got - 2010.06.03 11:33:40.
