data_PCOD9059235
_publ_section_title
;
Structure prediction by ZEFSAII (Michael W. Deem and Ramdas Pophale) SiO2 
 PCOD9059235
Probable space group: P -1
;
_chemical_formula_sum "Si O2"
_cell_formula_units_Z 12
_cell_length_a 11.806789
_cell_length_b 6.146298
_cell_length_c 12.028580
_cell_angle_alpha 56.378706
_cell_angle_beta 48.446218
_cell_angle_gamma 51.091712
_cell_volume 494.013957
_symmetry_space_group_name_H-M "P -1"
_symmetry_group_IT_number 2
_symmetry_cell_setting 'triclinic'
loop_
_space_group_symop_operation_xyz
x,y,z
-x,-y,-z
loop_
_atom_site_type_symbol
_atom_site_label
_atom_site_fract_x
_atom_site_fract_y
_atom_site_fract_z
Si Si1 0.592272 0.677062 0.124892
Si Si2 0.473073 0.332590 0.452107
Si Si3 0.978040 0.014236 0.200563
Si Si4 0.047706 0.579683 0.096242
Si Si5 0.112309 0.797051 0.580485
Si Si6 0.361942 0.800683 0.046173
O O1 0.585989 0.416346 0.270325
O O2 0.421112 0.816613 0.128906
O O3 0.754065 0.551660 0.977354
O O4 0.618553 0.929889 0.103041
O O5 0.500000 0.500000 0.500000
O O6 0.277962 0.543459 0.499681
O O7 0.500000 0.000000 0.500000
O O8 0.989458 0.336000 0.239430
O O9 0.863379 0.028423 0.378413
O O10 0.944963 0.828440 0.177897
O O11 0.967426 0.282828 0.054735
O O12 0.174314 0.839631 0.152169
O O13 0.000000 0.000000 0.500000
O O14 0.500000 0.500000 0.000000
#
# Coordination Sequence:
#
# PCOD9059235 Si02
#       6
#     2   2   2   2   2   2
#     4  11  25  47  72 108 145 196 261 311 385 463
#     4  12  32  52  78 113 162 209 257 320 400 470
#     4  11  24  44  76 106 140 196 253 318 373 461
#     4  11  25  44  78 106 139 190 264 311 379 457
#     4  12  28  50  72 112 158 201 252 324 400 465
#     4  11  23  40  73 107 143 187 250 320 377 447
#
# _framework density 24.290811999999999
#
# number of rings (size 3 to 8) (size 9 to 14) (size 15 to 20)
#    0.000    0.667    3.333    2.500   14.000    0.667 
#    0.000    0.000    0.000    0.000    0.000    0.000 
#    0.000    0.000    0.000    0.000    0.000    0.000 
#
# Total GULP energy -66836.753845 kJ/mol
# GULP energy per Si atom -5569.729487 kJ/mol
# Density = 2.423553 g / cm^3
# Si number density = 24.290812 Si / 1000 Ang^3
#
#
#
# Elastic Constant Matrix: (Units=GPa)
#
#
# Indices 1 2 3 4 5 6 
#
# 1 59.1416 7.8657 13.1931 3.3743 12.3337 -22.9844
# 2 7.8657 160.5303 18.3560 19.9250 8.0326 -7.7849
# 3 13.1931 18.3560 67.7879 11.4132 7.8453 0.9855
# 4 3.3743 19.9250 11.4132 33.3255 -5.9609 -8.8380
# 5 12.3337 8.0326 7.8453 -5.9609 42.8646 1.9857
# 6 -22.9844 -7.7849 0.9855 -8.8380 1.9857 39.8393
#
#
#
# Elastic Compliance Matrix: (Units=1/GPa)
#
#
# Indices 1 2 3 4 5 6 
#
# 1 0.025292 0.000170 -0.004699 0.001818 -0.006914 0.015489
# 2 0.000170 0.006952 -0.001062 -0.003936 -0.001737 0.000696
# 3 -0.004699 -0.001062 0.017384 -0.006497 -0.002318 -0.004675
# 4 0.001818 -0.003936 -0.006497 0.037778 0.006263 0.008509
# 5 -0.006914 -0.001737 -0.002318 0.006263 0.027135 -0.004234
# 6 0.015489 0.000696 -0.004675 0.008509 -0.004234 0.036387
#
#
# Mechanical properties :
#
#
# Convention : Reuss Voigt Hill
#
# Bulk Modulus (GPa) = 26.01176 40.69881 33.35529
# Shear Modulus (GPa) = 28.58340 39.74223 34.16281
#
# Velocity S-wave (km/s) = 3.43405 4.04926 3.75428
# Velocity P-wave (km/s) = 5.14348 6.21717 5.70564
#
# Compressibility (1/GPa) = 0.03844414
#
# Stress axis : x y z
#
# Youngs Moduli (GPa) = 39.53826 143.85096 57.52368
#
# Poissons Ratio (x) = -0.02438 0.27033
# Poissons Ratio (y) = -0.00670 0.06108
# Poissons Ratio (z) = 0.18581 0.15275
#
# Static dielectric constant tensor:
#      x y z
#    x 2.121530 0.185870 0.078420 
#    y 0.185870 2.244400 0.039480 
#    z 0.078420 0.039480 1.938760 
# 
# From -- ./inp_files/441603.got.cif
#   From: 2010.05.17/outbox.cif.g08.bks.cpg/sg2_221_cif.got.tgz:441603.got - 2010.06.03 11:33:40.
