data_PCOD9059556
_publ_section_title
;
Structure prediction by ZEFSAII (Michael W. Deem and Ramdas Pophale) SiO2 
 PCOD9059556
Probable space group: P -1
;
_chemical_formula_sum "Si O2"
_cell_formula_units_Z 14
_cell_length_a 11.164816
_cell_length_b 6.826564
_cell_length_c 19.886115
_cell_angle_alpha 48.572229
_cell_angle_beta 32.433663
_cell_angle_gamma 58.520198
_cell_volume 607.011069
_symmetry_space_group_name_H-M "P -1"
_symmetry_group_IT_number 2
_symmetry_cell_setting 'triclinic'
loop_
_space_group_symop_operation_xyz
x,y,z
-x,-y,-z
loop_
_atom_site_type_symbol
_atom_site_label
_atom_site_fract_x
_atom_site_fract_y
_atom_site_fract_z
Si Si1 0.377459 0.216138 0.108810
Si Si2 0.946046 0.744936 0.870313
Si Si3 0.422961 0.312578 0.842724
Si Si4 0.058289 0.778552 0.599686
Si Si5 0.724729 0.754175 0.358494
Si Si6 0.146993 0.338099 0.418370
Si Si7 0.355637 0.463394 0.688320
O O1 0.249118 0.196988 0.102850
O O2 0.178211 0.177046 0.265582
O O3 0.541132 0.990473 0.092923
O O4 0.500000 0.500000 0.000000
O O5 0.111138 0.555875 0.799547
O O6 0.811432 0.635205 0.024456
O O7 0.105730 0.004679 0.754412
O O8 0.625376 0.485286 0.744017
O O9 0.440624 0.380624 0.739859
O O10 0.154761 0.516683 0.638742
O O11 0.009474 0.724311 0.557314
O O12 0.201969 0.053189 0.483442
O O13 0.523702 0.690578 0.521802
O O14 0.651486 0.766864 0.312134
O O15 0.000000 0.500000 0.500000
#
# Coordination Sequence:
#
# PCOD9059556 Si02
#       7
#     2   2   2   2   2   2   2
#     4  12  25  46  73 107 142 188 238 298 365 425
#     4  12  26  50  73 103 149 194 239 296 366 428
#     4  12  26  45  75 107 145 190 238 303 358 432
#     4  11  23  41  72 103 143 188 234 304 349 422
#     4  11  25  48  75 106 144 193 246 291 361 426
#     4  11  23  42  67 110 145 184 245 294 360 422
#     4  11  27  47  72 108 144 193 242 298 354 431
#
# _framework density 23.063829999999999
#
# number of rings (size 3 to 8) (size 9 to 14) (size 15 to 20)
#    0.000    0.571    2.857    4.714    4.000    2.857 
#    2.571    0.000    0.000    0.000    0.000    0.000 
#    0.000    0.000    0.000    0.000    0.000    0.000 
#
# Total GULP energy -78350.053732 kJ/mol
# GULP energy per Si atom -5596.432409 kJ/mol
# Density = 2.301134 g / cm^3
# Si number density = 23.063830 Si / 1000 Ang^3
#
#
#
# Elastic Constant Matrix: (Units=GPa)
#
#
# Indices 1 2 3 4 5 6 
#
# 1 78.7423 24.2645 20.3965 5.5737 4.2226 24.9536
# 2 24.2645 102.3282 54.0460 6.4254 2.0481 10.6221
# 3 20.3965 54.0460 153.4972 5.9003 -5.7137 19.9282
# 4 5.5737 6.4254 5.9003 54.9355 9.1267 -10.1629
# 5 4.2226 2.0481 -5.7137 9.1267 25.7022 8.0029
# 6 24.9536 10.6221 19.9282 -10.1629 8.0029 40.1372
#
#
#
# Elastic Compliance Matrix: (Units=1/GPa)
#
#
# Indices 1 2 3 4 5 6 
#
# 1 0.017381 -0.002966 0.000530 -0.004105 0.002647 -0.011851
# 2 -0.002966 0.012672 -0.004224 -0.000306 -0.001612 0.000832
# 3 0.000530 -0.004224 0.008846 -0.002210 0.004582 -0.005077
# 4 -0.004105 -0.000306 -0.002210 0.023032 -0.011673 0.011890
# 5 0.002647 -0.001612 0.004582 -0.011673 0.048802 -0.016180
# 6 -0.011851 0.000832 -0.005077 0.011890 -0.016180 0.040820
#
#
# Mechanical properties :
#
#
# Convention : Reuss Voigt Hill
#
# Bulk Modulus (GPa) = 39.09555 59.10907 49.10231
# Shear Modulus (GPa) = 28.83524 39.87903 34.35713
#
# Velocity S-wave (km/s) = 3.53970 4.16272 3.86379
# Velocity P-wave (km/s) = 5.80464 6.98487 6.42193
#
# Compressibility (1/GPa) = 0.02557836
#
# Stress axis : x y z
#
# Youngs Moduli (GPa) = 57.53495 78.91529 113.04309
#
# Poissons Ratio (x) = 0.23408 -0.05989
# Poissons Ratio (y) = 0.17066 0.47747
# Poissons Ratio (z) = -0.03048 0.33332
#
# Static dielectric constant tensor:
#      x y z
#    x 1.997690 0.000420 0.017600 
#    y 0.000420 1.887620 -0.016360 
#    z 0.017600 -0.016360 1.859880 
# 
# From -- ./inp_files/592677.got.cif
#   From: 2010.05.17/outbox.cif.g08.bks.cpg/sg2_297_cif.got.tgz:592677.got - 2010.06.03 11:33:40.
