data_PCOD9059788
_publ_section_title
;
Structure prediction by ZEFSAII (Michael W. Deem and Ramdas Pophale) SiO2 
 PCOD9059788
Probable space group: P -1
;
_chemical_formula_sum "Si O2"
_cell_formula_units_Z 13
_cell_length_a 9.964535
_cell_length_b 9.352740
_cell_length_c 9.601885
_cell_angle_alpha 56.635237
_cell_angle_beta 121.885854
_cell_angle_gamma 131.633950
_cell_volume 539.244535
_symmetry_space_group_name_H-M "P -1"
_symmetry_group_IT_number 2
_symmetry_cell_setting 'triclinic'
loop_
_space_group_symop_operation_xyz
x,y,z
-x,-y,-z
loop_
_atom_site_type_symbol
_atom_site_label
_atom_site_fract_x
_atom_site_fract_y
_atom_site_fract_z
Si Si1 0.473939 0.151590 0.495434
Si Si2 0.733581 0.536384 0.928615
Si Si3 0.846547 0.813515 0.605479
Si Si4 0.368800 0.896422 0.116256
Si Si5 0.799578 0.843083 0.032188
Si Si6 0.000000 0.500000 0.000000
Si Si7 0.654534 0.600874 0.337450
O O1 0.270228 0.121875 0.398013
O O2 0.514990 0.134704 0.686667
O O3 0.615841 0.380820 0.405399
O O4 0.500000 0.000000 0.500000
O O5 0.887294 0.681293 0.810110
O O6 0.714649 0.656884 0.978845
O O7 0.847061 0.435164 0.085567
O O8 0.538598 0.419029 0.805737
O O9 0.710598 0.660653 0.494906
O O10 0.000000 0.000000 0.500000
O O11 0.315412 0.049384 0.071839
O O12 0.179077 0.688903 0.088180
O O13 0.500000 0.000000 0.000000
O O14 0.807828 0.766236 0.231092
O O15 0.000000 0.000000 0.000000
#
# Coordination Sequence:
#
# PCOD9059788 Si02
#       7
#     2   2   2   2   2   1   2
#     4  11  25  48  71 103 142 184 235 295 359 419
#     4  11  23  42  68  98 136 184 227 288 343 426
#     4  11  23  43  69  97 136 183 231 277 351 418
#     4  12  26  46  75 106 146 186 241 299 354 428
#     4  12  24  46  69 103 140 183 233 285 357 424
#     4  12  24  40  68 108 140 174 244 288 354 410
#     4  11  24  46  71  99 139 190 230 285 362 422
#
# _framework density 24.107803000000001
#
# number of rings (size 3 to 8) (size 9 to 14) (size 15 to 20)
#    0.000    0.615    1.538    8.769    2.154    1.231 
#    0.000    1.538    0.000    0.000    0.000    0.000 
#    0.000    0.000    0.000    0.000    0.000    0.000 
#
# Total GULP energy -72558.770062 kJ/mol
# GULP energy per Si atom -5581.443851 kJ/mol
# Density = 2.405293 g / cm^3
# Si number density = 24.107803 Si / 1000 Ang^3
#
#
#
# Elastic Constant Matrix: (Units=GPa)
#
#
# Indices 1 2 3 4 5 6 
#
# 1 114.6640 28.2753 0.0534 4.0676 -8.9409 -16.0045
# 2 28.2753 79.4421 -7.9366 5.5363 1.6304 -9.0506
# 3 0.0534 -7.9366 82.7110 0.4688 -9.1700 14.9198
# 4 4.0676 5.5363 0.4688 51.0631 5.5611 -7.9850
# 5 -8.9409 1.6304 -9.1700 5.5611 29.4138 -4.4603
# 6 -16.0045 -9.0506 14.9198 -7.9850 -4.4603 53.1515
#
#
#
# Elastic Compliance Matrix: (Units=1/GPa)
#
#
# Indices 1 2 3 4 5 6 
#
# 1 0.010268 -0.003419 -0.000444 -0.000393 0.003684 0.002885
# 2 -0.003419 0.014100 0.001084 -0.001011 -0.001168 0.000817
# 3 -0.000444 0.001084 0.013239 -0.001150 0.003614 -0.003535
# 4 -0.000393 -0.001011 -0.001150 0.020597 -0.003892 0.002800
# 5 0.003684 -0.001168 0.003614 -0.003892 0.037416 0.002451
# 6 0.002885 0.000817 -0.003535 0.002800 0.002451 0.021441
#
#
# Mechanical properties :
#
#
# Convention : Reuss Voigt Hill
#
# Bulk Modulus (GPa) = 31.20104 35.28904 33.24504
# Shear Modulus (GPa) = 37.50856 43.82068 40.66462
#
# Velocity S-wave (km/s) = 3.94873 4.26807 4.11150
# Velocity P-wave (km/s) = 5.81036 6.24166 6.02987
#
# Compressibility (1/GPa) = 0.03205022
#
# Stress axis : x y z
#
# Youngs Moduli (GPa) = 97.38831 70.91983 75.53191
#
# Poissons Ratio (x) = 0.24245 0.03356
# Poissons Ratio (y) = 0.33294 -0.08188
# Poissons Ratio (z) = 0.04327 -0.07688
#
# Static dielectric constant tensor:
#      x y z
#    x 1.626720 0.089900 -0.237010 
#    y 0.089900 1.996920 0.029850 
#    z -0.237010 0.029850 1.730070 
# 
# From -- ./inp_files/155840.got.cif
#   From: 2010.05.17/outbox.cif.g08.bks.cpg/sg2_78_cif.got.tgz:155840.got - 2010.06.03 11:33:40.
