data_PCOD9059611
_publ_section_title
;
Structure prediction by ZEFSAII (Michael W. Deem and Ramdas Pophale) SiO2 
 PCOD9059611
Probable space group: P -1
;
_chemical_formula_sum "Si O2"
_cell_formula_units_Z 16
_cell_length_a 17.682646
_cell_length_b 7.584798
_cell_length_c 9.953955
_cell_angle_alpha 115.396028
_cell_angle_beta 30.081678
_cell_angle_gamma 115.225003
_cell_volume 600.005590
_symmetry_space_group_name_H-M "P -1"
_symmetry_group_IT_number 2
_symmetry_cell_setting 'triclinic'
loop_
_space_group_symop_operation_xyz
x,y,z
-x,-y,-z
loop_
_atom_site_type_symbol
_atom_site_label
_atom_site_fract_x
_atom_site_fract_y
_atom_site_fract_z
Si Si1 0.559379 0.719867 0.338861
Si Si2 0.360405 0.231825 0.192668
Si Si3 0.036904 0.104057 0.652648
Si Si4 0.048741 0.664034 0.586963
Si Si5 0.294552 0.912241 0.923952
Si Si6 0.317439 0.679049 0.364942
Si Si7 0.018526 0.780152 0.945034
Si Si8 0.514887 0.738333 0.708364
O O1 0.390258 0.785457 0.632802
O O2 0.612185 0.744528 0.422132
O O3 0.543861 0.491546 0.251211
O O4 0.658422 0.868669 0.137295
O O5 0.389500 0.173329 0.282936
O O6 0.200610 0.143955 0.346414
O O7 0.370102 0.845336 0.923712
O O8 0.344001 0.462580 0.295168
O O9 0.019118 0.876995 0.650005
O O10 0.885634 0.142761 0.822581
O O11 0.050969 0.242907 0.809089
O O12 0.224766 0.669950 0.363577
O O13 0.968540 0.638446 0.849849
O O14 0.000000 0.500000 0.500000
O O15 0.199006 0.768789 0.671631
O O16 0.483671 0.790811 0.130426
O O17 0.000000 0.000000 0.000000
#
# Coordination Sequence:
#
# PCOD9059611 Si02
#       8
#     2   2   2   2   2   2   2   2
#     4   8  18  37  64  98 150 198 241 298 383 439
#     4  11  24  44  69 110 151 196 251 304 379 461
#     4  11  23  41  76 118 142 185 254 321 373 434
#     4   9  21  46  74 104 145 196 243 302 377 454
#     4   9  19  40  63 106 153 189 245 313 375 437
#     4   9  23  47  69 101 148 211 239 302 384 457
#     4   8  19  42  70 110 137 189 245 306 369 431
#     4   9  19  39  65 103 146 200 250 299 368 458
#
# _framework density 26.666418
#
# number of rings (size 3 to 8) (size 9 to 14) (size 15 to 20)
#    1.500    1.250    0.000    0.000    1.750    5.000 
#    6.750    1.875    0.000    0.000    0.000    0.000 
#    0.000    0.000    0.000    0.000    0.000    0.000 
#
# Total GULP energy -89522.547802 kJ/mol
# GULP energy per Si atom -5595.159238 kJ/mol
# Density = 2.660572 g / cm^3
# Si number density = 26.666418 Si / 1000 Ang^3
#
#
#
# Elastic Constant Matrix: (Units=GPa)
#
#
# Indices 1 2 3 4 5 6 
#
# 1 113.0073 46.6220 36.7902 -16.4443 -25.3342 -3.5978
# 2 46.6220 116.4840 35.6182 8.3423 -14.2217 -7.1415
# 3 36.7902 35.6182 124.4456 -7.9134 -20.0377 2.1927
# 4 -16.4443 8.3423 -7.9134 32.4505 6.2332 -5.2214
# 5 -25.3342 -14.2217 -20.0377 6.2332 64.8382 5.3496
# 6 -3.5978 -7.1415 2.1927 -5.2214 5.3496 34.5338
#
#
#
# Elastic Compliance Matrix: (Units=1/GPa)
#
#
# Indices 1 2 3 4 5 6 
#
# 1 0.013059 -0.004842 -0.001595 0.007119 0.002772 0.001107
# 2 -0.004842 0.011764 -0.002257 -0.005942 0.000471 0.001100
# 3 -0.001595 -0.002257 0.009563 0.001553 0.001794 -0.001283
# 4 0.007119 -0.005942 0.001553 0.037607 -0.002105 0.005427
# 5 0.002772 0.000471 0.001794 -0.002105 0.017595 -0.002772
# 6 0.001107 0.001100 -0.001283 0.005427 -0.002772 0.030631
#
#
# Mechanical properties :
#
#
# Convention : Reuss Voigt Hill
#
# Bulk Modulus (GPa) = 58.83406 65.77755 62.30580
# Shear Modulus (GPa) = 34.89838 42.02494 38.46166
#
# Velocity S-wave (km/s) = 3.62152 3.97413 3.80192
# Velocity P-wave (km/s) = 6.29270 6.76599 6.53363
#
# Compressibility (1/GPa) = 0.01699696
#
# Stress axis : x y z
#
# Youngs Moduli (GPa) = 76.57773 85.00801 104.56651
#
# Poissons Ratio (x) = 0.41165 0.16680
# Poissons Ratio (y) = 0.37083 0.23597
# Poissons Ratio (z) = 0.12215 0.19184
#
# Static dielectric constant tensor:
#      x y z
#    x 2.096940 0.015230 0.062990 
#    y 0.015230 2.027440 0.003500 
#    z 0.062990 0.003500 2.129230 
# 
# From -- ./inp_files/473721.got.cif
#   From: 2010.05.17/outbox.cif.g08.bks.cpg/sg2_237_cif.got.tgz:473721.got - 2010.06.03 11:33:40.
