data_PCOD9059387
_publ_section_title
;
Structure prediction by ZEFSAII (Michael W. Deem and Ramdas Pophale) SiO2 
 PCOD9059387
Probable space group: P -1
;
_chemical_formula_sum "Si O2"
_cell_formula_units_Z 12
_cell_length_a 8.621358
_cell_length_b 10.115033
_cell_length_c 9.765922
_cell_angle_alpha 137.121552
_cell_angle_beta 113.385387
_cell_angle_gamma 83.285484
_cell_volume 510.849330
_symmetry_space_group_name_H-M "P -1"
_symmetry_group_IT_number 2
_symmetry_cell_setting 'triclinic'
loop_
_space_group_symop_operation_xyz
x,y,z
-x,-y,-z
loop_
_atom_site_type_symbol
_atom_site_label
_atom_site_fract_x
_atom_site_fract_y
_atom_site_fract_z
Si Si1 0.749433 0.923907 0.951336
Si Si2 0.317455 0.705352 0.263130
Si Si3 0.882751 0.572398 0.777874
Si Si4 0.721496 0.912239 0.614052
Si Si5 0.252715 0.489406 0.804991
Si Si6 0.644902 0.303576 0.274008
O O1 0.866337 0.796806 0.967133
O O2 0.785651 0.942073 0.815536
O O3 0.545534 0.799189 0.809073
O O4 0.757498 0.141261 0.182164
O O5 0.190642 0.574904 0.232849
O O6 0.508665 0.815954 0.474150
O O7 0.247969 0.881262 0.303199
O O8 0.333152 0.555892 0.032029
O O9 0.750238 0.489627 0.542965
O O10 0.071281 0.551730 0.787790
O O11 0.784605 0.743810 0.425737
O O12 0.372558 0.619701 0.826707
#
# Coordination Sequence:
#
# PCOD9059387 Si02
#       6
#     2   2   2   2   2   2
#     4  11  23  42  70  95 123 167 215 268 307 368
#     4  11  25  44  64  94 129 168 214 260 312 374
#     4  12  25  42  66  96 132 165 208 263 318 375
#     4  11  23  43  69  92 128 167 213 265 311 368
#     4  12  25  41  66  97 130 169 207 257 324 380
#     4  11  23  41  67  96 123 165 219 255 312 373
#
# _framework density 23.490292
#
# number of rings (size 3 to 8) (size 9 to 14) (size 15 to 20)
#    0.000    0.667    5.000    3.000    0.000    4.000 
#    0.000    0.000    0.000    0.000    0.000    0.000 
#    0.000    0.000    0.000    0.000    0.000    0.000 
#
# Total GULP energy -67263.179031 kJ/mol
# GULP energy per Si atom -5605.264919 kJ/mol
# Density = 2.343683 g / cm^3
# Si number density = 23.490292 Si / 1000 Ang^3
#
#
#
# Elastic Constant Matrix: (Units=GPa)
#
#
# Indices 1 2 3 4 5 6 
#
# 1 61.2155 64.6475 25.8949 15.6595 -12.2616 -0.7307
# 2 64.6475 146.3917 18.1278 18.1911 -24.6613 4.7575
# 3 25.8949 18.1278 58.0119 12.3105 -22.0095 4.1555
# 4 15.6595 18.1911 12.3105 39.7280 -15.4055 -20.5923
# 5 -12.2616 -24.6613 -22.0095 -15.4055 34.6431 6.5502
# 6 -0.7307 4.7575 4.1555 -20.5923 6.5502 45.7657
#
#
#
# Elastic Compliance Matrix: (Units=1/GPa)
#
#
# Indices 1 2 3 4 5 6 
#
# 1 0.040492 -0.017126 -0.015853 -0.006137 -0.011171 0.002704
# 2 -0.017126 0.015432 0.007057 -0.000956 0.009805 -0.004352
# 3 -0.015853 0.007057 0.030515 -0.003223 0.018861 -0.007907
# 4 -0.006137 -0.000956 -0.003223 0.042377 0.010570 0.017849
# 5 -0.011171 0.009805 0.018861 0.010570 0.049567 -0.005249
# 6 0.002704 -0.004352 -0.007907 0.017849 -0.005249 0.031846
#
#
# Mechanical properties :
#
#
# Convention : Reuss Voigt Hill
#
# Bulk Modulus (GPa) = 28.90506 53.66216 41.28361
# Shear Modulus (GPa) = 18.27455 34.49060 26.38258
#
# Velocity S-wave (km/s) = 2.79222 3.83599 3.35494
# Velocity P-wave (km/s) = 4.76730 6.52025 5.71143
#
# Compressibility (1/GPa) = 0.03459602
#
# Stress axis : x y z
#
# Youngs Moduli (GPa) = 24.69632 64.80071 32.77069
#
# Poissons Ratio (x) = 1.10975 0.51950
# Poissons Ratio (y) = 0.42294 -0.23126
# Poissons Ratio (z) = 0.39150 -0.45728
#
# Static dielectric constant tensor:
#      x y z
#    x 1.861750 -0.037750 0.022140 
#    y -0.037750 1.854200 0.014260 
#    z 0.022140 0.014260 1.857080 
# 
# From -- ./inp_files/145559.got.cif
#   From: 2010.05.17/outbox.cif.g08.bks.cpg/sg2_73_cif.got.tgz:145559.got - 2010.06.03 11:33:40.
