data_PCOD9059204
_publ_section_title
;
Structure prediction by ZEFSAII (Michael W. Deem and Ramdas Pophale) SiO2 
 PCOD9059204
Probable space group: P -1
;
_chemical_formula_sum "Si O2"
_cell_formula_units_Z 14
_cell_length_a 13.426050
_cell_length_b 16.071368
_cell_length_c 6.484694
_cell_angle_alpha 51.666335
_cell_angle_beta 132.330196
_cell_angle_gamma 147.422512
_cell_volume 552.054027
_symmetry_space_group_name_H-M "P -1"
_symmetry_group_IT_number 2
_symmetry_cell_setting 'triclinic'
loop_
_space_group_symop_operation_xyz
x,y,z
-x,-y,-z
loop_
_atom_site_type_symbol
_atom_site_label
_atom_site_fract_x
_atom_site_fract_y
_atom_site_fract_z
Si Si1 0.455546 0.538898 0.171522
Si Si2 0.802101 0.421474 0.091355
Si Si3 0.567243 0.248675 0.658153
Si Si4 0.083362 0.089414 0.796068
Si Si5 0.197963 0.745835 0.333207
Si Si6 0.792148 0.019359 0.176729
Si Si7 0.305039 0.298910 0.083314
O O1 0.500000 0.500000 0.500000
O O2 0.693979 0.708026 0.167391
O O3 0.254964 0.355038 0.103704
O O4 0.366118 0.603171 0.995879
O O5 0.801038 0.302043 0.363958
O O6 0.006083 0.589989 0.187815
O O7 0.756828 0.396125 0.825632
O O8 0.621554 0.205813 0.610717
O O9 0.425678 0.106930 0.835983
O O10 0.444883 0.281968 0.374408
O O11 0.176210 0.063095 0.798602
O O12 0.089926 0.107533 0.044220
O O13 0.940467 0.087913 0.474025
O O14 0.195884 0.868808 0.113104
O O15 0.500000 0.500000 0.000000
#
# Coordination Sequence:
#
# PCOD9059204 Si02
#       7
#     2   2   2   2   2   2   2
#     4  11  23  40  71 102 131 181 223 287 342 410
#     4  11  25  45  69  97 142 177 236 284 341 401
#     4  12  23  46  69 100 139 183 228 283 339 417
#     4  11  25  45  69 104 135 170 226 294 345 409
#     4  11  27  46  66  99 138 187 232 281 336 412
#     4  11  27  44  74 100 137 184 230 282 353 410
#     4  11  24  40  69 103 137 171 225 284 354 400
#
# _framework density 25.359836999999999
#
# number of rings (size 3 to 8) (size 9 to 14) (size 15 to 20)
#    0.000    0.857    4.286    1.714    4.000    1.714 
#    2.571    0.000    0.000    0.000    0.000    0.000 
#    0.000    0.000    0.000    0.000    0.000    0.000 
#
# Total GULP energy -78153.739509 kJ/mol
# GULP energy per Si atom -5582.409965 kJ/mol
# Density = 2.530212 g / cm^3
# Si number density = 25.359837 Si / 1000 Ang^3
#
#
#
# Elastic Constant Matrix: (Units=GPa)
#
#
# Indices 1 2 3 4 5 6 
#
# 1 53.2076 17.3262 -14.2698 7.2463 2.8297 13.7737
# 2 17.3262 129.2384 45.2048 3.2489 -14.5573 -15.7875
# 3 -14.2698 45.2048 108.2975 -9.8654 -5.3111 -18.6625
# 4 7.2463 3.2489 -9.8654 46.7924 -4.7003 -7.4869
# 5 2.8297 -14.5573 -5.3111 -4.7003 34.4037 0.4889
# 6 13.7737 -15.7875 -18.6625 -7.4869 0.4889 52.1864
#
#
#
# Elastic Compliance Matrix: (Units=1/GPa)
#
#
# Indices 1 2 3 4 5 6 
#
# 1 0.024478 -0.005914 0.003811 -0.004210 -0.004397 -0.007450
# 2 -0.005914 0.011027 -0.004595 0.000142 0.004416 0.003232
# 3 0.003811 -0.004595 0.012312 0.002706 -0.000022 0.002395
# 4 -0.004210 0.000142 0.002706 0.023867 0.004007 0.005508
# 5 -0.004397 0.004416 -0.000022 0.004007 0.031802 0.002766
# 6 -0.007450 0.003232 0.002395 0.005508 0.002766 0.023727
#
#
# Mechanical properties :
#
#
# Convention : Reuss Voigt Hill
#
# Bulk Modulus (GPa) = 29.05284 43.02955 36.04119
# Shear Modulus (GPa) = 32.87678 42.84200 37.85939
#
# Velocity S-wave (km/s) = 3.60448 4.11465 3.86798
# Velocity P-wave (km/s) = 5.36695 6.29112 5.84732
#
# Compressibility (1/GPa) = 0.03442005
#
# Stress axis : x y z
#
# Youngs Moduli (GPa) = 40.85327 90.69005 81.21913
#
# Poissons Ratio (x) = 0.53634 -0.30953
# Poissons Ratio (y) = 0.24161 0.37323
# Poissons Ratio (z) = -0.15569 0.41675
#
# Static dielectric constant tensor:
#      x y z
#    x 1.675720 0.027070 -0.066360 
#    y 0.027070 2.021090 -0.052020 
#    z -0.066360 -0.052020 1.887680 
# 
# From -- ./inp_files/336689.got.cif
#   From: 2010.05.17/outbox.cif.g08.bks.cpg/sg2_169_cif.got.tgz:336689.got - 2010.06.03 11:33:40.
