data_PCOD9059932
_publ_section_title
;
Structure prediction by ZEFSAII (Michael W. Deem and Ramdas Pophale) SiO2 
 PCOD9059932
Probable space group: P -1
;
_chemical_formula_sum "Si O2"
_cell_formula_units_Z 16
_cell_length_a 22.658527
_cell_length_b 6.792793
_cell_length_c 5.535764
_cell_angle_alpha 105.132780
_cell_angle_beta 96.438005
_cell_angle_gamma 57.016835
_cell_volume 689.456171
_symmetry_space_group_name_H-M "P -1"
_symmetry_group_IT_number 2
_symmetry_cell_setting 'triclinic'
loop_
_space_group_symop_operation_xyz
x,y,z
-x,-y,-z
loop_
_atom_site_type_symbol
_atom_site_label
_atom_site_fract_x
_atom_site_fract_y
_atom_site_fract_z
Si Si1 0.173883 0.519869 0.231180
Si Si2 0.464821 0.389394 0.106498
Si Si3 0.922078 0.175141 0.101273
Si Si4 0.916843 0.592581 0.506235
Si Si5 0.836088 0.090274 0.370053
Si Si6 0.646634 0.143851 0.542570
Si Si7 0.270262 0.991645 0.963680
Si Si8 0.561885 0.928150 0.314789
O O1 0.116456 0.465026 0.296596
O O2 0.202302 0.630203 0.474571
O O3 0.132484 0.749628 0.113036
O O4 0.233456 0.280959 0.052284
O O5 0.418412 0.583220 0.352463
O O6 0.527466 0.142172 0.169963
O O7 0.500000 0.500000 0.000000
O O8 0.420865 0.313694 0.892823
O O9 0.910482 0.428380 0.252499
O O10 0.906355 0.050588 0.268912
O O11 0.000000 0.000000 0.000000
O O12 0.000000 0.500000 0.500000
O O13 0.863589 0.871392 0.501212
O O14 0.789336 0.062904 0.142084
O O15 0.680129 0.112252 0.283675
O O16 0.621311 0.954632 0.476871
O O17 0.695316 0.096497 0.784336
O O18 0.500000 0.000000 0.500000
#
# Coordination Sequence:
#
# PCOD9059932 Si02
#       8
#     2   2   2   2   2   2   2   2
#     4  11  26  46  70  99 147 188 248 307 375 440
#     4  11  24  47  78 113 156 193 241 311 380 426
#     4  11  24  41  71 109 133 179 251 313 380 449
#     4  11  23  42  71 105 140 183 244 312 384 452
#     4  11  26  46  71  97 145 195 238 309 380 430
#     4  12  28  48  76 113 149 200 260 290 365 456
#     4  12  29  49  72 105 153 208 251 298 359 463
#     4  11  25  45  80 113 154 189 240 318 377 417
#
# _framework density 23.206696000000001
#
# number of rings (size 3 to 8) (size 9 to 14) (size 15 to 20)
#    0.000    0.750    2.500    3.375   10.500    5.000 
#    0.000    0.000    0.000    0.000    0.000    0.000 
#    0.000    0.000    0.000    0.000    0.000    0.000 
#
# Total GULP energy -89425.075503 kJ/mol
# GULP energy per Si atom -5589.067219 kJ/mol
# Density = 2.315388 g / cm^3
# Si number density = 23.206696 Si / 1000 Ang^3
#
#
#
# Elastic Constant Matrix: (Units=GPa)
#
#
# Indices 1 2 3 4 5 6 
#
# 1 62.1867 32.9681 34.0763 23.4053 15.5024 16.4150
# 2 32.9681 92.3676 39.1671 11.7554 -10.7578 13.6282
# 3 34.0763 39.1671 115.4414 30.5901 -5.5921 6.5223
# 4 23.4053 11.7554 30.5901 54.0262 -0.9724 1.2463
# 5 15.5024 -10.7578 -5.5921 -0.9724 48.7380 3.2546
# 6 16.4150 13.6282 6.5223 1.2463 3.2546 37.6217
#
#
#
# Elastic Compliance Matrix: (Units=1/GPa)
#
#
# Indices 1 2 3 4 5 6 
#
# 1 0.031713 -0.008510 -0.004014 -0.009630 -0.012037 -0.008698
# 2 -0.008510 0.015896 -0.003025 0.002098 0.006052 -0.002114
# 3 -0.004014 -0.003025 0.012097 -0.004436 0.001859 0.000736
# 4 -0.009630 0.002098 -0.004436 0.024725 0.003303 0.003106
# 5 -0.012037 0.006052 0.001859 0.003303 0.025936 0.000385
# 6 -0.008698 -0.002114 0.000736 0.003106 0.000385 0.030877
#
#
# Mechanical properties :
#
#
# Convention : Reuss Voigt Hill
#
# Bulk Modulus (GPa) = 34.95320 53.60206 44.27763
# Shear Modulus (GPa) = 27.49104 38.99612 33.24358
#
# Velocity S-wave (km/s) = 3.44556 4.10369 3.78894
# Velocity P-wave (km/s) = 5.56090 6.75289 6.18567
#
# Compressibility (1/GPa) = 0.02860969
#
# Stress axis : x y z
#
# Youngs Moduli (GPa) = 31.53294 62.90922 82.66267
#
# Poissons Ratio (x) = 0.53537 0.33177
# Poissons Ratio (y) = 0.26835 0.25002
# Poissons Ratio (z) = 0.12656 0.19027
#
# Static dielectric constant tensor:
#      x y z
#    x 1.901310 -0.010150 0.020630 
#    y -0.010150 1.859460 -0.039820 
#    z 0.020630 -0.039820 1.975390 
# 
# From -- ./inp_files/13424.got.cif
#   From: 2010.05.17/outbox.cif.g08.bks.cpg/sg2_7_cif.got.tgz:13424.got - 2010.06.03 11:33:40.
