data_PCOD9059249
_publ_section_title
;
Structure prediction by ZEFSAII (Michael W. Deem and Ramdas Pophale) SiO2 
 PCOD9059249
Probable space group: P -1
;
_chemical_formula_sum "Si O2"
_cell_formula_units_Z 14
_cell_length_a 8.666724
_cell_length_b 13.338310
_cell_length_c 9.539490
_cell_angle_alpha 34.413245
_cell_angle_beta 108.318893
_cell_angle_gamma 109.984838
_cell_volume 584.616620
_symmetry_space_group_name_H-M "P -1"
_symmetry_group_IT_number 2
_symmetry_cell_setting 'triclinic'
loop_
_space_group_symop_operation_xyz
x,y,z
-x,-y,-z
loop_
_atom_site_type_symbol
_atom_site_label
_atom_site_fract_x
_atom_site_fract_y
_atom_site_fract_z
Si Si1 0.033293 0.702905 0.827295
Si Si2 0.675476 0.777876 0.589039
Si Si3 0.491232 0.482718 0.684943
Si Si4 0.434576 0.165793 0.216394
Si Si5 0.805606 0.110184 0.083586
Si Si6 0.117228 0.915144 0.343715
Si Si7 0.164596 0.628564 0.451645
O O1 0.106212 0.740405 0.956886
O O2 0.141498 0.824146 0.605336
O O3 0.862642 0.778961 0.685287
O O4 0.000000 0.500000 0.000000
O O5 0.619254 0.635738 0.617227
O O6 0.584091 0.726870 0.767839
O O7 0.673780 0.970882 0.292131
O O8 0.500000 0.500000 0.500000
O O9 0.309213 0.511062 0.653929
O O10 0.527732 0.297557 0.976201
O O11 0.500000 0.000000 0.500000
O O12 0.266055 0.078666 0.190737
O O13 0.755199 0.223731 0.809782
O O14 0.945598 0.994396 0.201904
O O15 0.121326 0.754385 0.420764
O O16 0.000000 0.500000 0.500000
#
# Coordination Sequence:
#
# PCOD9059249 Si02
#       7
#     2   2   2   2   2   2   2
#     4  11  23  40  77 107 144 186 249 303 360 427
#     4  11  25  47  72 105 148 188 247 307 363 441
#     4  12  32  48  71 111 151 193 245 306 377 441
#     4  12  26  47  76 100 145 193 248 300 371 441
#     4  11  23  45  75 109 144 191 245 302 369 432
#     4  11  23  44  70 109 138 189 246 301 362 436
#     4  12  28  46  74 104 152 195 244 301 372 442
#
# _framework density 23.947320000000001
#
# number of rings (size 3 to 8) (size 9 to 14) (size 15 to 20)
#    0.000    0.571    2.857    4.286   14.000    0.571 
#    0.000    0.000    0.000    0.000    0.000    0.000 
#    0.000    0.000    0.000    0.000    0.000    0.000 
#
# Total GULP energy -78314.834296 kJ/mol
# GULP energy per Si atom -5593.916735 kJ/mol
# Density = 2.389281 g / cm^3
# Si number density = 23.947320 Si / 1000 Ang^3
#
#
#
# Elastic Constant Matrix: (Units=GPa)
#
#
# Indices 1 2 3 4 5 6 
#
# 1 41.9368 18.2006 15.7737 -1.9987 -0.4054 -1.9638
# 2 18.2006 152.0875 20.7260 -3.1779 -11.4226 -17.2500
# 3 15.7737 20.7260 135.9121 -5.6109 -8.7649 -11.3647
# 4 -1.9987 -3.1779 -5.6109 42.4307 -1.0998 -4.4535
# 5 -0.4054 -11.4226 -8.7649 -1.0998 31.5929 -6.0679
# 6 -1.9638 -17.2500 -11.3647 -4.4535 -6.0679 34.2701
#
#
#
# Elastic Compliance Matrix: (Units=1/GPa)
#
#
# Indices 1 2 3 4 5 6 
#
# 1 0.026141 -0.003005 -0.002766 0.000472 -0.001728 -0.001176
# 2 -0.003005 0.007754 -0.000191 0.000972 0.003597 0.004430
# 3 -0.002766 -0.000191 0.008208 0.001344 0.002823 0.003142
# 4 0.000472 0.000972 0.001344 0.024383 0.002456 0.004566
# 5 -0.001728 0.003597 0.002823 0.002456 0.035579 0.009266
# 6 -0.001176 0.004430 0.003142 0.004566 0.009266 0.034618
#
#
# Mechanical properties :
#
#
# Convention : Reuss Voigt Hill
#
# Bulk Modulus (GPa) = 33.13578 48.81522 40.97550
# Shear Modulus (GPa) = 31.51263 40.00782 35.76022
#
# Velocity S-wave (km/s) = 3.63149 4.09180 3.86850
# Velocity P-wave (km/s) = 5.60808 6.53854 6.09110
#
# Compressibility (1/GPa) = 0.03017886
#
# Stress axis : x y z
#
# Youngs Moduli (GPa) = 38.25481 128.97004 121.83136
#
# Poissons Ratio (x) = 0.38751 0.33697
# Poissons Ratio (y) = 0.11494 0.02329
# Poissons Ratio (z) = 0.10581 0.02465
#
# Static dielectric constant tensor:
#      x y z
#    x 1.976870 -0.100280 -0.014960 
#    y -0.100280 1.877590 -0.014240 
#    z -0.014960 -0.014240 1.924400 
# 
# From -- ./inp_files/183828.got.cif
#   From: 2010.05.17/outbox.cif.g08.bks.cpg/sg2_92_cif.got.tgz:183828.got - 2010.06.03 11:33:40.
