data_PCOD9059480
_publ_section_title
;
Structure prediction by ZEFSAII (Michael W. Deem and Ramdas Pophale) SiO2 
 PCOD9059480
Probable space group: P -1
;
_chemical_formula_sum "Si O2"
_cell_formula_units_Z 12
_cell_length_a 10.819786
_cell_length_b 8.353975
_cell_length_c 8.498856
_cell_angle_alpha 55.548707
_cell_angle_beta 56.611679
_cell_angle_gamma 51.063411
_cell_volume 469.461778
_symmetry_space_group_name_H-M "P -1"
_symmetry_group_IT_number 2
_symmetry_cell_setting 'triclinic'
loop_
_space_group_symop_operation_xyz
x,y,z
-x,-y,-z
loop_
_atom_site_type_symbol
_atom_site_label
_atom_site_fract_x
_atom_site_fract_y
_atom_site_fract_z
Si Si1 0.381983 0.949806 0.492137
Si Si2 0.000482 0.056133 0.650059
Si Si3 0.379762 0.624564 0.872616
Si Si4 0.075862 0.520147 0.599679
Si Si5 0.210454 0.080444 0.930640
Si Si6 0.727290 0.749781 0.890151
O O1 0.444042 0.694124 0.630806
O O2 0.500000 0.000000 0.500000
O O3 0.383605 0.077231 0.261641
O O4 0.180029 0.031821 0.586057
O O5 0.858355 0.310028 0.597780
O O6 0.956087 0.914766 0.880760
O O7 0.000000 0.000000 0.500000
O O8 0.500000 0.500000 0.000000
O O9 0.306934 0.459947 0.963698
O O10 0.280411 0.861214 0.899468
O O11 0.922476 0.641506 0.760880
O O12 0.000000 0.500000 0.500000
O O13 0.185422 0.285640 0.727025
O O14 0.294203 0.114828 0.010962
#
# Coordination Sequence:
#
# PCOD9059480 Si02
#       6
#     2   2   2   2   2   2
#     4  11  23  46  72  99 150 195 237 300 368 440
#     4  11  23  42  74 110 144 185 243 303 367 436
#     4  12  27  46  72 102 146 199 247 302 375 440
#     4  11  23  41  69 107 148 182 231 306 372 428
#     4  12  25  45  75 110 146 189 249 312 366 434
#     4  11  24  44  71 105 145 187 244 301 366 442
#
# _framework density 25.561188999999999
#
# number of rings (size 3 to 8) (size 9 to 14) (size 15 to 20)
#    0.000    0.667    5.000    4.500    2.333    2.667 
#    0.000    0.833    0.000    0.000    0.000    0.000 
#    0.000    0.000    0.000    0.000    0.000    0.000 
#
# Total GULP energy -66862.562093 kJ/mol
# GULP energy per Si atom -5571.880174 kJ/mol
# Density = 2.550301 g / cm^3
# Si number density = 25.561189 Si / 1000 Ang^3
#
#
#
# Elastic Constant Matrix: (Units=GPa)
#
#
# Indices 1 2 3 4 5 6 
#
# 1 143.5322 45.6727 68.5024 -6.1673 9.7748 24.5462
# 2 45.6727 102.5856 54.9715 -7.5728 12.2003 19.3063
# 3 68.5024 54.9715 169.6183 -49.7443 18.2387 9.5789
# 4 -6.1673 -7.5728 -49.7443 54.2153 2.0343 -3.2690
# 5 9.7748 12.2003 18.2387 2.0343 71.6528 -1.5632
# 6 24.5462 19.3063 9.5789 -3.2690 -1.5632 48.5511
#
#
#
# Elastic Compliance Matrix: (Units=1/GPa)
#
#
# Indices 1 2 3 4 5 6 
#
# 1 0.010039 -0.001738 -0.004217 -0.003197 0.000008 -0.003767
# 2 -0.001738 0.013298 -0.003896 -0.002105 -0.001059 -0.003817
# 3 -0.004217 -0.003896 0.011942 0.010127 -0.002046 0.001941
# 4 -0.003197 -0.002105 0.010127 0.027306 -0.002510 0.002214
# 5 0.000008 -0.001059 -0.002046 -0.002510 0.014752 0.001127
# 6 -0.003767 -0.003817 0.001941 0.002214 0.001127 0.023822
#
#
# Mechanical properties :
#
#
# Convention : Reuss Voigt Hill
#
# Bulk Modulus (GPa) = 64.19657 83.78103 73.98880
# Shear Modulus (GPa) = 39.66591 51.32315 45.49453
#
# Velocity S-wave (km/s) = 3.94357 4.48577 4.22338
# Velocity P-wave (km/s) = 6.77532 7.72511 7.26575
#
# Compressibility (1/GPa) = 0.01557716
#
# Stress axis : x y z
#
# Youngs Moduli (GPa) = 99.61136 75.19846 83.74071
#
# Poissons Ratio (x) = 0.13068 0.35314
# Poissons Ratio (y) = 0.17310 0.32625
# Poissons Ratio (z) = 0.42007 0.29297
#
# Static dielectric constant tensor:
#      x y z
#    x 2.024850 -0.047880 -0.058800 
#    y -0.047880 2.164270 0.013610 
#    z -0.058800 0.013610 2.146720 
# 
# From -- ./inp_files/241923.got.cif
#   From: 2010.05.17/outbox.cif.g08.bks.cpg/sg2_121_cif.got.tgz:241923.got - 2010.06.03 11:33:40.
