data_PCOD9059991
_publ_section_title
;
Structure prediction by ZEFSAII (Michael W. Deem and Ramdas Pophale) SiO2 
 PCOD9059991
Probable space group: P -1
;
_chemical_formula_sum "Si O2"
_cell_formula_units_Z 14
_cell_length_a 9.418178
_cell_length_b 17.778885
_cell_length_c 14.676554
_cell_angle_alpha 21.782257
_cell_angle_beta 131.060055
_cell_angle_gamma 132.970674
_cell_volume 664.675996
_symmetry_space_group_name_H-M "P -1"
_symmetry_group_IT_number 2
_symmetry_cell_setting 'triclinic'
loop_
_space_group_symop_operation_xyz
x,y,z
-x,-y,-z
loop_
_atom_site_type_symbol
_atom_site_label
_atom_site_fract_x
_atom_site_fract_y
_atom_site_fract_z
Si Si1 0.236169 0.902943 0.291885
Si Si2 0.069390 0.023319 0.776234
Si Si3 0.141723 0.971556 0.511412
Si Si4 0.494905 0.376553 0.229223
Si Si5 0.553940 0.600089 0.508548
Si Si6 0.593352 0.314944 0.003486
Si Si7 0.159727 0.696102 0.305301
O O1 0.316440 0.705370 0.577776
O O2 0.194267 0.870602 0.203480
O O3 0.054350 0.905112 0.276173
O O4 0.404438 0.117202 0.137279
O O5 0.280812 0.183314 0.674529
O O6 0.956336 0.023601 0.633426
O O7 0.090401 0.797131 0.072705
O O8 0.226199 0.770038 0.790212
O O9 0.324832 0.168206 0.378923
O O10 0.000000 0.000000 0.500000
O O11 0.500000 0.500000 0.000000
O O12 0.452609 0.521187 0.128931
O O13 0.500000 0.500000 0.500000
O O14 0.360259 0.637035 0.432864
O O15 0.631309 0.437342 0.786573
O O16 0.000000 0.500000 0.500000
#
# Coordination Sequence:
#
# PCOD9059991 Si02
#       7
#     2   2   2   2   2   2   2
#     4  11  24  45  71 104 135 182 235 286 348 408
#     4  12  26  44  70 105 144 178 237 289 343 419
#     4  11  27  43  68 105 143 187 227 284 349 410
#     4  11  23  42  72  97 138 183 234 282 339 412
#     4  12  26  45  72 103 139 185 232 287 351 411
#     4  11  24  47  71 100 144 182 233 287 340 417
#     4  12  26  46  74 102 139 186 232 289 352 411
#
# _framework density 21.062894
#
# number of rings (size 3 to 8) (size 9 to 14) (size 15 to 20)
#    0.000    0.571    1.429    6.000    6.000    5.714 
#    0.000    0.000    0.000    0.000    0.000    0.000 
#    0.000    0.000    0.000    0.000    0.000    0.000 
#
# Total GULP energy -78381.906333 kJ/mol
# GULP energy per Si atom -5598.707595 kJ/mol
# Density = 2.101495 g / cm^3
# Si number density = 21.062894 Si / 1000 Ang^3
#
#
#
# Elastic Constant Matrix: (Units=GPa)
#
#
# Indices 1 2 3 4 5 6 
#
# 1 115.6264 37.9898 42.7137 8.7878 -1.4011 10.0981
# 2 37.9898 116.0971 47.5971 12.8050 -0.5552 -14.1467
# 3 42.7137 47.5971 164.9519 28.4460 -8.3342 5.2158
# 4 8.7878 12.8050 28.4460 42.5072 -3.1562 -7.9344
# 5 -1.4011 -0.5552 -8.3342 -3.1562 38.5016 0.7081
# 6 10.0981 -14.1467 5.2158 -7.9344 0.7081 44.6238
#
#
#
# Elastic Compliance Matrix: (Units=1/GPa)
#
#
# Indices 1 2 3 4 5 6 
#
# 1 0.010626 -0.003141 -0.001600 -0.000807 -0.000009 -0.003357
# 2 -0.003141 0.011274 -0.002577 -0.000217 -0.000611 0.004557
# 3 -0.001600 -0.002577 0.008167 -0.004681 0.001330 -0.002263
# 4 -0.000807 -0.000217 -0.004681 0.028026 0.001148 0.005626
# 5 -0.000009 -0.000611 0.001330 0.001148 0.026356 -0.000561
# 6 -0.003357 0.004557 -0.002263 0.005626 -0.000561 0.025888
#
#
# Mechanical properties :
#
#
# Convention : Reuss Voigt Hill
#
# Bulk Modulus (GPa) = 64.81239 72.58630 68.69934
# Shear Modulus (GPa) = 38.42673 43.01816 40.72245
#
# Velocity S-wave (km/s) = 4.27591 4.52416 4.40178
# Velocity P-wave (km/s) = 7.43072 7.86303 7.64993
#
# Compressibility (1/GPa) = 0.01542915
#
# Stress axis : x y z
#
# Youngs Moduli (GPa) = 94.10758 88.69701 122.44967
#
# Poissons Ratio (x) = 0.27860 0.19597
# Poissons Ratio (y) = 0.29560 0.31561
# Poissons Ratio (z) = 0.15061 0.22861
#
# Static dielectric constant tensor:
#      x y z
#    x 1.695550 0.027290 0.006950 
#    y 0.027290 1.725440 0.031450 
#    z 0.006950 0.031450 1.765660 
# 
# From -- ./inp_files/46793.got.cif
#   From: 2010.05.17/outbox.cif.g08.bks.cpg/sg2_24_cif.got.tgz:46793.got - 2010.06.03 11:33:40.
