data_PCOD9059870
_publ_section_title
;
Structure prediction by ZEFSAII (Michael W. Deem and Ramdas Pophale) SiO2 
 PCOD9059870
Probable space group: P -1
;
_chemical_formula_sum "Si O2"
_cell_formula_units_Z 16
_cell_length_a 17.137542
_cell_length_b 5.423068
_cell_length_c 9.376686
_cell_angle_alpha 84.728455
_cell_angle_beta 116.286416
_cell_angle_gamma 111.955724
_cell_volume 721.815553
_symmetry_space_group_name_H-M "P -1"
_symmetry_group_IT_number 2
_symmetry_cell_setting 'triclinic'
loop_
_space_group_symop_operation_xyz
x,y,z
-x,-y,-z
loop_
_atom_site_type_symbol
_atom_site_label
_atom_site_fract_x
_atom_site_fract_y
_atom_site_fract_z
Si Si1 0.514551 0.240538 0.389731
Si Si2 0.173823 0.956225 0.821142
Si Si3 0.272413 0.548867 0.974532
Si Si4 0.869507 0.952709 0.759535
Si Si5 0.661775 0.657222 0.688429
Si Si6 0.946244 0.187810 0.511529
Si Si7 0.990377 0.256755 0.101546
Si Si8 0.550272 0.292273 0.088952
O O1 0.593296 0.492369 0.516595
O O2 0.409899 0.242364 0.289791
O O3 0.551955 0.242607 0.261351
O O4 0.500000 0.000000 0.500000
O O5 0.238344 0.795950 0.928731
O O6 0.156310 0.932907 0.639726
O O7 0.072168 0.780349 0.809548
O O8 0.200103 0.254224 0.886230
O O9 0.351276 0.596851 0.916820
O O10 0.308088 0.519315 0.163481
O O11 0.759022 0.869946 0.694086
O O12 0.905067 0.711942 0.770229
O O13 0.924310 0.149727 0.665708
O O14 0.920049 0.030248 0.950246
O O15 0.000000 0.500000 0.500000
O O16 0.000000 0.000000 0.500000
O O17 0.000000 0.500000 0.000000
O O18 0.500000 0.500000 0.000000
O O19 0.500000 0.000000 0.000000
#
# Coordination Sequence:
#
# PCOD9059870 Si02
#       8
#     2   2   2   2   2   2   2   2
#     4  11  27  47  76 108 151 194 247 314 376 443
#     4  12  26  45  71 104 148 188 248 293 363 437
#     4  12  26  47  73 108 145 197 243 304 361 450
#     4  11  25  42  71 103 141 190 243 295 368 429
#     4  11  25  47  73 107 149 189 251 308 375 436
#     4  12  26  48  69 100 148 194 237 302 365 430
#     4  11  23  42  70 103 140 189 241 297 355 440
#     4  12  26  48  78 107 148 197 246 304 379 445
#
# _framework density 22.166328
#
# number of rings (size 3 to 8) (size 9 to 14) (size 15 to 20)
#    0.000    0.500    3.750    3.750    7.000    2.000 
#    0.000    0.000    0.000    0.000    0.000    0.000 
#    0.000    0.000    0.000    0.000    0.000    0.000 
#
# Total GULP energy -89217.791351 kJ/mol
# GULP energy per Si atom -5576.111959 kJ/mol
# Density = 2.211588 g / cm^3
# Si number density = 22.166328 Si / 1000 Ang^3
#
#
#
# Elastic Constant Matrix: (Units=GPa)
#
#
# Indices 1 2 3 4 5 6 
#
# 1 86.3517 14.9316 14.4164 4.9364 -7.1820 30.7506
# 2 14.9316 85.7041 9.6426 -2.5551 -5.1128 15.1387
# 3 14.4164 9.6426 97.3583 -6.1721 -16.1874 5.5299
# 4 4.9364 -2.5551 -6.1721 39.4980 3.9100 -0.2354
# 5 -7.1820 -5.1128 -16.1874 3.9100 45.7201 -7.8850
# 6 30.7506 15.1387 5.5299 -0.2354 -7.8850 40.0480
#
#
#
# Elastic Compliance Matrix: (Units=1/GPa)
#
#
# Indices 1 2 3 4 5 6 
#
# 1 0.016469 -0.000583 -0.001848 -0.002455 -0.000025 -0.012189
# 2 -0.000583 0.012635 -0.000843 0.000709 0.000245 -0.004160
# 3 -0.001848 -0.000843 0.011281 0.001585 0.003630 0.000904
# 4 -0.002455 0.000709 0.001585 0.026101 -0.001770 0.001203
# 5 -0.000025 0.000245 0.003630 -0.001770 0.024048 0.004150
# 6 -0.012189 -0.004160 0.000904 0.001203 0.004150 0.036601
#
#
# Mechanical properties :
#
#
# Convention : Reuss Voigt Hill
#
# Bulk Modulus (GPa) = 29.55387 38.59948 34.07668
# Shear Modulus (GPa) = 34.49171 40.41478 37.45324
#
# Velocity S-wave (km/s) = 3.94895 4.27459 4.11499
# Velocity P-wave (km/s) = 5.84414 6.46639 6.16312
#
# Compressibility (1/GPa) = 0.03383652
#
# Stress axis : x y z
#
# Youngs Moduli (GPa) = 60.72036 79.14516 88.64292
#
# Poissons Ratio (x) = 0.04613 0.16384
# Poissons Ratio (y) = 0.03539 0.07474
# Poissons Ratio (z) = 0.11223 0.06673
#
# Static dielectric constant tensor:
#      x y z
#    x 1.972050 0.063710 0.012940 
#    y 0.063710 1.631510 -0.201490 
#    z 0.012940 -0.201490 1.693060 
# 
# From -- ./inp_files/38459.got.cif
#   From: 2010.05.17/outbox.cif.g08.bks.cpg/sg2_20_cif.got.tgz:38459.got - 2010.06.03 11:33:40.
