data_PCOD9059973
_publ_section_title
;
Structure prediction by ZEFSAII (Michael W. Deem and Ramdas Pophale) SiO2 
 PCOD9059973
Probable space group: P -1
;
_chemical_formula_sum "Si O2"
_cell_formula_units_Z 16
_cell_length_a 13.506382
_cell_length_b 8.957284
_cell_length_c 17.059031
_cell_angle_alpha 34.534387
_cell_angle_beta 40.794081
_cell_angle_gamma 44.402140
_cell_volume 741.074320
_symmetry_space_group_name_H-M "P -1"
_symmetry_group_IT_number 2
_symmetry_cell_setting 'triclinic'
loop_
_space_group_symop_operation_xyz
x,y,z
-x,-y,-z
loop_
_atom_site_type_symbol
_atom_site_label
_atom_site_fract_x
_atom_site_fract_y
_atom_site_fract_z
Si Si1 0.104792 0.239309 0.092819
Si Si2 0.133034 0.246944 0.352570
Si Si3 0.909610 0.274382 0.341560
Si Si4 0.574374 0.632098 0.128042
Si Si5 0.606651 0.718491 0.335685
Si Si6 0.993903 0.710533 0.340496
Si Si7 0.648002 0.991155 0.359375
Si Si8 0.566737 0.978294 0.835441
O O1 0.052095 0.264176 0.203685
O O2 0.282812 0.250183 0.976961
O O3 0.061428 0.967580 0.208335
O O4 0.000000 0.500000 0.000000
O O5 0.271072 0.152065 0.249150
O O6 0.967948 0.280062 0.392729
O O7 0.111473 0.531969 0.283972
O O8 0.150223 0.999719 0.510732
O O9 0.775902 0.536663 0.290942
O O10 0.440635 0.754389 0.220175
O O11 0.639857 0.311642 0.219691
O O12 0.531304 0.761835 0.012202
O O13 0.500000 0.500000 0.500000
O O14 0.617529 0.864542 0.348703
O O15 0.546130 0.924366 0.212423
O O16 0.815333 0.825613 0.366192
O O17 0.000000 0.500000 0.500000
O O18 0.500000 0.000000 0.500000
#
# Coordination Sequence:
#
# PCOD9059973 Si02
#       8
#     2   2   2   2   2   2   2   2
#     4  12  24  46  76 104 148 195 239 303 372 439
#     4  11  23  45  71 105 145 188 247 301 360 429
#     4  11  23  42  72 103 144 192 240 300 364 435
#     4  11  26  51  73 108 147 196 250 304 382 445
#     4  12  25  44  73 108 146 193 248 303 370 436
#     4  12  27  46  75 115 146 189 254 305 367 439
#     4  12  29  48  74 106 150 194 251 312 365 449
#     4  11  25  47  74 102 148 197 238 305 370 442
#
# _framework density 21.590278000000001
#
# number of rings (size 3 to 8) (size 9 to 14) (size 15 to 20)
#    0.000    0.500    6.250    1.500    3.500    3.500 
#    4.500    1.875    0.000    0.000    0.000    0.000 
#    0.000    0.000    0.000    0.000    0.000    0.000 
#
# Total GULP energy -89393.406068 kJ/mol
# GULP energy per Si atom -5587.087879 kJ/mol
# Density = 2.154114 g / cm^3
# Si number density = 21.590278 Si / 1000 Ang^3
#
#
#
# Elastic Constant Matrix: (Units=GPa)
#
#
# Indices 1 2 3 4 5 6 
#
# 1 132.0337 62.6291 61.8145 -23.7815 18.2097 -7.8495
# 2 62.6291 160.1501 55.1541 -16.4653 5.7895 -11.2721
# 3 61.8145 55.1541 100.0915 -23.8357 10.9021 2.6782
# 4 -23.7815 -16.4653 -23.8357 42.9835 -2.1028 0.8756
# 5 18.2097 5.7895 10.9021 -2.1028 38.4900 -8.4142
# 6 -7.8495 -11.2721 2.6782 0.8756 -8.4142 33.8925
#
#
#
# Elastic Compliance Matrix: (Units=1/GPa)
#
#
# Indices 1 2 3 4 5 6 
#
# 1 0.012251 -0.002486 -0.005205 0.002739 -0.003472 0.001489
# 2 -0.002486 0.008542 -0.003407 0.000021 0.001492 0.002904
# 3 -0.005205 -0.003407 0.016661 0.005025 -0.002429 -0.004388
# 4 0.002739 0.000021 0.005025 0.027523 -0.001396 -0.000813
# 5 -0.003472 0.001492 -0.002429 -0.001396 0.029600 0.007269
# 6 0.001489 0.002904 -0.004388 -0.000813 0.007269 0.032988
#
#
# Mechanical properties :
#
#
# Convention : Reuss Voigt Hill
#
# Bulk Modulus (GPa) = 65.53991 83.49673 74.51832
# Shear Modulus (GPa) = 32.28963 37.25169 34.77066
#
# Velocity S-wave (km/s) = 3.87145 4.15829 4.01743
# Velocity P-wave (km/s) = 7.09974 7.86209 7.49062
#
# Compressibility (1/GPa) = 0.01525788
#
# Stress axis : x y z
#
# Youngs Moduli (GPa) = 81.62671 117.06277 60.01900
#
# Poissons Ratio (x) = 0.29106 0.31241
# Poissons Ratio (y) = 0.20295 0.20448
# Poissons Ratio (z) = 0.42488 0.39882
#
# Static dielectric constant tensor:
#      x y z
#    x 1.748450 0.022700 -0.018930 
#    y 0.022700 1.808670 -0.004100 
#    z -0.018930 -0.004100 1.797590 
# 
# From -- ./inp_files/572790.got.cif
#   From: 2010.05.17/outbox.cif.g08.bks.cpg/sg2_287_cif.got.tgz:572790.got - 2010.06.03 11:33:40.
