data_PCOD9059406
_publ_section_title
;
Structure prediction by ZEFSAII (Michael W. Deem and Ramdas Pophale) SiO2 
 PCOD9059406
Probable space group: P -1
;
_chemical_formula_sum "Si O2"
_cell_formula_units_Z 15
_cell_length_a 7.146206
_cell_length_b 11.434202
_cell_length_c 18.514270
_cell_angle_alpha 28.869765
_cell_angle_beta 78.755982
_cell_angle_gamma 93.573672
_cell_volume 623.611401
_symmetry_space_group_name_H-M "P -1"
_symmetry_group_IT_number 2
_symmetry_cell_setting 'triclinic'
loop_
_space_group_symop_operation_xyz
x,y,z
-x,-y,-z
loop_
_atom_site_type_symbol
_atom_site_label
_atom_site_fract_x
_atom_site_fract_y
_atom_site_fract_z
Si Si1 0.494202 0.649085 0.181120
Si Si2 0.799848 0.167575 0.962192
Si Si3 0.697146 0.362894 0.535651
Si Si4 0.149741 0.369609 0.477380
Si Si5 0.082587 0.800961 0.748531
Si Si6 0.273449 0.614915 0.636386
Si Si7 0.500000 0.000000 0.500000
Si Si8 0.262472 0.811307 0.890505
O O1 0.384452 0.732525 0.080611
O O2 0.325272 0.591530 0.289886
O O3 0.551977 0.396694 0.310992
O O4 0.715699 0.909450 0.053096
O O5 0.028536 0.405974 0.786661
O O6 0.822481 0.098070 0.080714
O O7 0.732450 0.573974 0.483746
O O8 0.651508 0.429709 0.422516
O O9 0.935447 0.394762 0.489891
O O10 0.517697 0.047485 0.740192
O O11 0.070768 0.081248 0.599282
O O12 0.168199 0.809020 0.819730
O O13 0.263749 0.837156 0.657001
O O14 0.850564 0.521229 0.906803
O O15 0.346904 0.930805 0.474272
#
# Coordination Sequence:
#
# PCOD9059406 Si02
#       8
#     2   2   2   2   2   2   1   2
#     4  11  23  41  68 101 132 173 233 275 336 403
#     4  11  24  43  65 100 139 173 222 289 331 403
#     4  11  24  43  72  95 140 174 227 281 335 399
#     4  11  23  43  69 104 129 178 230 279 329 412
#     4  11  25  43  70  97 134 177 228 275 339 405
#     4  12  24  44  69  99 131 185 222 277 342 399
#     4  12  22  42  68  98 128 172 234 268 324 414
#     4  11  23  44  64  97 137 176 217 284 337 397
#
# _framework density 24.053442
#
# number of rings (size 3 to 8) (size 9 to 14) (size 15 to 20)
#    0.000    0.800    6.667    0.400    1.867    1.600 
#    4.800    2.000    0.000    0.000    0.000    0.000 
#    0.000    0.000    0.000    0.000    0.000    0.000 
#
# Total GULP energy -83502.243571 kJ/mol
# GULP energy per Si atom -5566.816238 kJ/mol
# Density = 2.399870 g / cm^3
# Si number density = 24.053442 Si / 1000 Ang^3
#
#
#
# Elastic Constant Matrix: (Units=GPa)
#
#
# Indices 1 2 3 4 5 6 
#
# 1 58.3526 32.4899 10.4601 4.4020 -11.0682 0.8322
# 2 32.4899 127.4948 38.4139 5.3977 -12.2667 4.4010
# 3 10.4601 38.4139 107.9670 -12.9831 -28.3490 5.4155
# 4 4.4020 5.3977 -12.9831 49.8869 7.2424 -9.2921
# 5 -11.0682 -12.2667 -28.3490 7.2424 36.0358 2.6276
# 6 0.8322 4.4010 5.4155 -9.2921 2.6276 28.1085
#
#
#
# Elastic Compliance Matrix: (Units=1/GPa)
#
#
# Indices 1 2 3 4 5 6 
#
# 1 0.021068 -0.004984 0.001177 -0.002175 0.006238 -0.001372
# 2 -0.004984 0.010225 -0.003362 -0.001761 -0.000241 -0.001365
# 3 0.001177 -0.003362 0.013139 0.001898 0.009339 -0.002286
# 4 -0.002175 -0.001761 0.001898 0.023159 -0.005019 0.008100
# 5 0.006238 -0.000241 0.009339 -0.005019 0.038464 -0.007201
# 6 -0.001372 -0.001365 -0.002286 0.008100 -0.007201 0.039622
#
#
# Mechanical properties :
#
#
# Convention : Reuss Voigt Hill
#
# Bulk Modulus (GPa) = 33.22802 50.72693 41.97747
# Shear Modulus (GPa) = 29.40389 36.96961 33.18675
#
# Velocity S-wave (km/s) = 3.50013 3.92468 3.71847
# Velocity P-wave (km/s) = 5.49353 6.45543 5.99380
#
# Compressibility (1/GPa) = 0.03009508
#
# Stress axis : x y z
#
# Youngs Moduli (GPa) = 47.46559 97.80103 76.10883
#
# Poissons Ratio (x) = 0.48744 -0.08960
# Poissons Ratio (y) = 0.23657 0.25586
# Poissons Ratio (z) = -0.05588 0.32878
#
# Static dielectric constant tensor:
#      x y z
#    x 1.962140 0.185060 -0.020600 
#    y 0.185060 1.479170 0.272780 
#    z -0.020600 0.272780 1.734430 
# 
# From -- ./inp_files/400956.got.cif
#   From: 2010.05.17/outbox.cif.g08.bks.cpg/sg2_201_cif.got.tgz:400956.got - 2010.06.03 11:33:40.
