data_PCOD9059657
_publ_section_title
;
Structure prediction by ZEFSAII (Michael W. Deem and Ramdas Pophale) SiO2 
 PCOD9059657
Probable space group: P -1
;
_chemical_formula_sum "Si O2"
_cell_formula_units_Z 12
_cell_length_a 11.827920
_cell_length_b 23.267600
_cell_length_c 11.397562
_cell_angle_alpha 31.268143
_cell_angle_beta 142.078932
_cell_angle_gamma 160.768237
_cell_volume 533.230239
_symmetry_space_group_name_H-M "P -1"
_symmetry_group_IT_number 2
_symmetry_cell_setting 'triclinic'
loop_
_space_group_symop_operation_xyz
x,y,z
-x,-y,-z
loop_
_atom_site_type_symbol
_atom_site_label
_atom_site_fract_x
_atom_site_fract_y
_atom_site_fract_z
Si Si1 0.767190 0.773071 0.699564
Si Si2 0.120915 0.407694 0.956063
Si Si3 0.735733 0.500851 0.819517
Si Si4 0.991003 0.738886 0.380024
Si Si5 0.713231 0.409561 0.589032
Si Si6 0.364481 0.144225 0.996637
O O1 0.519583 0.631758 0.855456
O O2 0.506493 0.653163 0.586165
O O3 0.968521 0.761300 0.863161
O O4 0.000000 0.000000 0.500000
O O5 0.890066 0.383597 0.748777
O O6 0.095482 0.410666 0.069568
O O7 0.947784 0.670827 0.594998
O O8 0.369755 0.381275 0.734908
O O9 0.634132 0.326564 0.994942
O O10 0.997582 0.640181 0.467855
O O11 0.302801 0.983881 0.202141
O O12 0.462654 0.257230 0.760349
O O13 0.000000 0.000000 0.000000
#
# Coordination Sequence:
#
# PCOD9059657 Si02
#       6
#     2   2   2   2   2   2
#     4  11  27  44  66  90 120 168 214 262 315 364
#     4  11  25  43  65  92 126 163 211 262 307 372
#     4   9  18  36  59  89 126 165 198 245 312 365
#     4   9  18  35  62  90 127 163 196 250 305 371
#     4  11  23  42  65  94 127 162 207 260 312 365
#     4   9  20  33  65  97 125 166 201 246 308 377
#
# _framework density 22.504349999999999
#
# number of rings (size 3 to 8) (size 9 to 14) (size 15 to 20)
#    0.000    2.000    1.667    1.500    4.667    4.667 
#    0.000    1.667    0.000    0.000    0.000    0.000 
#    0.000    0.000    0.000    0.000    0.000    0.000 
#
# Total GULP energy -67132.446921 kJ/mol
# GULP energy per Si atom -5594.370577 kJ/mol
# Density = 2.245313 g / cm^3
# Si number density = 22.504350 Si / 1000 Ang^3
#
#
#
# Elastic Constant Matrix: (Units=GPa)
#
#
# Indices 1 2 3 4 5 6 
#
# 1 90.4281 20.5472 41.6899 -8.0566 19.8312 -9.3744
# 2 20.5472 50.9909 33.4527 -8.8151 4.2002 -1.8638
# 3 41.6899 33.4527 117.0940 -20.9702 30.7989 -16.0023
# 4 -8.0566 -8.8151 -20.9702 48.3432 -4.1593 12.0639
# 5 19.8312 4.2002 30.7989 -4.1593 47.3822 4.8769
# 6 -9.3744 -1.8638 -16.0023 12.0639 4.8769 22.7131
#
#
#
# Elastic Compliance Matrix: (Units=1/GPa)
#
#
# Indices 1 2 3 4 5 6 
#
# 1 0.014570 -0.004065 -0.002082 -0.001128 -0.005091 0.005905
# 2 -0.004065 0.026371 -0.008165 0.003126 0.005787 -0.008169
# 3 -0.002082 -0.008165 0.015962 0.001496 -0.009783 0.011023
# 4 -0.001128 0.003126 0.001496 0.025241 0.002793 -0.013162
# 5 -0.005091 0.005787 -0.009783 0.002793 0.031043 -0.016668
# 6 0.005905 -0.008169 0.011023 -0.013162 -0.016668 0.064130
#
#
# Mechanical properties :
#
#
# Convention : Reuss Voigt Hill
#
# Bulk Modulus (GPa) = 35.36264 49.98807 42.67536
# Shear Modulus (GPa) = 23.21598 34.54258 28.87928
#
# Velocity S-wave (km/s) = 3.21537 3.92207 3.58617
# Velocity P-wave (km/s) = 5.43439 6.53995 6.01264
#
# Compressibility (1/GPa) = 0.02827843
#
# Stress axis : x y z
#
# Youngs Moduli (GPa) = 68.63270 37.91978 62.65000
#
# Poissons Ratio (x) = 0.15415 0.13044
# Poissons Ratio (y) = 0.27900 0.51157
# Poissons Ratio (z) = 0.14289 0.30963
#
# Static dielectric constant tensor:
#      x y z
#    x 1.867600 0.035740 0.046040 
#    y 0.035740 1.823660 0.008430 
#    z 0.046040 0.008430 1.825810 
# 
# From -- ./inp_files/185605.got.cif
#   From: 2010.05.17/outbox.cif.g08.bks.cpg/sg2_93_cif.got.tgz:185605.got - 2010.06.03 11:33:40.
