data_PCOD9059198
_publ_section_title
;
Structure prediction by ZEFSAII (Michael W. Deem and Ramdas Pophale) SiO2 
 PCOD9059198
Probable space group: P -1
;
_chemical_formula_sum "Si O2"
_cell_formula_units_Z 16
_cell_length_a 18.317593
_cell_length_b 9.531083
_cell_length_c 9.308161
_cell_angle_alpha 88.608225
_cell_angle_beta 91.720322
_cell_angle_gamma 151.754663
_cell_volume 768.710828
_symmetry_space_group_name_H-M "P -1"
_symmetry_group_IT_number 2
_symmetry_cell_setting 'triclinic'
loop_
_space_group_symop_operation_xyz
x,y,z
-x,-y,-z
loop_
_atom_site_type_symbol
_atom_site_label
_atom_site_fract_x
_atom_site_fract_y
_atom_site_fract_z
Si Si1 0.741046 0.867481 0.447587
Si Si2 0.627761 0.119973 0.428688
Si Si3 0.224750 0.828143 0.079226
Si Si4 0.905688 0.857991 0.141470
Si Si5 0.431268 0.231053 0.354507
Si Si6 0.109123 0.831035 0.829782
Si Si7 0.358198 0.803348 0.898618
Si Si8 0.024933 0.183493 0.581687
O O1 0.616130 0.556241 0.367636
O O2 0.646000 0.761704 0.581886
O O3 0.804156 0.068749 0.313915
O O4 0.895291 0.066875 0.520347
O O5 0.594282 0.056596 0.258150
O O6 0.802129 0.470959 0.441136
O O7 0.500000 0.000000 0.500000
O O8 0.619694 0.967038 0.524886
O O9 0.064714 0.523169 0.160143
O O10 0.359222 0.077407 0.198685
O O11 0.196155 0.913571 0.971520
O O12 0.261953 0.758669 0.980109
O O13 0.739583 0.503863 0.125151
O O14 0.990038 0.895355 0.255632
O O15 0.899221 0.012356 0.176396
O O16 0.000000 0.000000 0.000000
O O17 0.500000 0.000000 0.000000
O O18 0.000000 0.000000 0.500000
#
# Coordination Sequence:
#
# PCOD9059198 Si02
#       8
#     2   2   2   2   2   2   2   2
#     4  11  25  45  66  98 135 173 226 272 338 394
#     4  11  24  42  68  97 136 172 220 274 329 394
#     4  11  25  44  69  98 132 177 225 272 341 390
#     4  11  24  42  66 100 134 169 221 272 334 394
#     4  11  26  44  66  98 135 177 220 279 330 398
#     4  11  24  44  70  97 134 173 224 281 325 410
#     4  11  25  43  65 100 136 175 217 271 333 401
#     4  11  23  40  70  97 128 175 220 273 328 396
#
# _framework density 20.814069
#
# number of rings (size 3 to 8) (size 9 to 14) (size 15 to 20)
#    0.000    1.000    2.500    3.000    5.250    5.500 
#    2.250    0.000    0.000    0.000    0.000    0.000 
#    0.000    0.000    0.000    0.000    0.000    0.000 
#
# Total GULP energy -89323.245516 kJ/mol
# GULP energy per Si atom -5582.702845 kJ/mol
# Density = 2.076670 g / cm^3
# Si number density = 20.814069 Si / 1000 Ang^3
#
#
#
# Elastic Constant Matrix: (Units=GPa)
#
#
# Indices 1 2 3 4 5 6 
#
# 1 48.0662 30.8302 18.8125 3.7775 15.0433 11.9632
# 2 30.8302 75.2122 62.9416 1.3114 26.4160 15.1084
# 3 18.8125 62.9416 131.1736 -2.8036 21.8423 18.5401
# 4 3.7775 1.3114 -2.8036 40.0170 5.0534 2.6893
# 5 15.0433 26.4160 21.8423 5.0534 45.3556 0.7522
# 6 11.9632 15.1084 18.5401 2.6893 0.7522 27.3444
#
#
#
# Elastic Compliance Matrix: (Units=1/GPa)
#
#
# Indices 1 2 3 4 5 6 
#
# 1 0.030987 -0.012093 0.003357 -0.001116 -0.004579 -0.008916
# 2 -0.012093 0.031844 -0.011400 0.000738 -0.009055 -0.004398
# 3 0.003357 -0.011400 0.013435 0.001423 -0.001029 -0.004390
# 4 -0.001116 0.000738 0.001423 0.025845 -0.003569 -0.003328
# 5 -0.004579 -0.009055 -0.001029 -0.003569 0.029614 0.007241
# 6 -0.008916 -0.004398 -0.004390 -0.003328 0.007241 0.046006
#
#
# Mechanical properties :
#
#
# Convention : Reuss Voigt Hill
#
# Bulk Modulus (GPa) = 27.78255 53.29119 40.53687
# Shear Modulus (GPa) = 21.73925 32.00127 26.87026
#
# Velocity S-wave (km/s) = 3.23530 3.92533 3.59690
# Velocity P-wave (km/s) = 5.22811 6.79730 6.06368
#
# Compressibility (1/GPa) = 0.03599381
#
# Stress axis : x y z
#
# Youngs Moduli (GPa) = 32.27170 31.40346 74.43465
#
# Poissons Ratio (x) = 0.37975 -0.24989
# Poissons Ratio (y) = 0.39025 0.84858
# Poissons Ratio (z) = -0.10834 0.35801
#
# Static dielectric constant tensor:
#      x y z
#    x 1.996960 -0.090810 -0.161160 
#    y -0.090810 1.755930 0.021370 
#    z -0.161160 0.021370 1.726250 
# 
# From -- ./inp_files/329042.got.cif
#   From: 2010.05.17/outbox.cif.g08.bks.cpg/sg2_165_cif.got.tgz:329042.got - 2010.06.03 11:33:40.
