data_PCOD9059643
_publ_section_title
;
Structure prediction by ZEFSAII (Michael W. Deem and Ramdas Pophale) SiO2 
 PCOD9059643
Probable space group: P -1
;
_chemical_formula_sum "Si O2"
_cell_formula_units_Z 16
_cell_length_a 20.961661
_cell_length_b 5.203544
_cell_length_c 24.514902
_cell_angle_alpha 74.975345
_cell_angle_beta 17.204434
_cell_angle_gamma 81.767599
_cell_volume 710.984636
_symmetry_space_group_name_H-M "P -1"
_symmetry_group_IT_number 2
_symmetry_cell_setting 'triclinic'
loop_
_space_group_symop_operation_xyz
x,y,z
-x,-y,-z
loop_
_atom_site_type_symbol
_atom_site_label
_atom_site_fract_x
_atom_site_fract_y
_atom_site_fract_z
Si Si1 0.443164 0.157889 0.485130
Si Si2 0.501151 0.999435 0.934490
Si Si3 0.870407 0.660134 0.132129
Si Si4 0.151418 0.087261 0.148578
Si Si5 0.563237 0.026304 0.178034
Si Si6 0.464564 0.408937 0.155695
Si Si7 0.953509 0.668503 0.188195
Si Si8 0.314352 0.884275 0.495636
O O1 0.600862 0.494110 0.345556
O O2 0.170315 0.103379 0.713431
O O3 0.500000 0.000000 0.500000
O O4 0.482318 0.059882 0.397778
O O5 0.590615 0.776620 0.843960
O O6 0.238503 0.911699 0.131009
O O7 0.621806 0.325812 0.794812
O O8 0.500000 0.000000 0.000000
O O9 0.894268 0.588074 0.178959
O O10 0.000000 0.500000 0.000000
O O11 0.000000 0.000000 0.000000
O O12 0.881541 0.981634 0.364466
O O13 0.260680 0.405746 0.067846
O O14 0.306752 0.094848 0.967141
O O15 0.417639 0.836575 0.356415
O O16 0.415775 0.183731 0.257429
O O17 0.778097 0.238699 0.024848
O O18 0.829295 0.415522 0.344070
#
# Coordination Sequence:
#
# PCOD9059643 Si02
#       8
#     2   2   2   2   2   2   2   2
#     4  12  26  47  66  97 135 177 231 302 359 422
#     4   9  17  34  68 102 136 188 229 269 346 402
#     4  12  28  46  70  96 131 175 226 288 363 428
#     4   9  21  41  62  99 142 170 234 282 332 412
#     4  11  23  42  65 101 135 184 228 289 350 416
#     4   9  19  36  63  96 143 173 229 284 328 403
#     4  12  25  44  69  94 136 166 241 288 346 436
#     4  12  25  44  73  98 134 188 228 292 367 415
#
# _framework density 22.504003000000001
#
# number of rings (size 3 to 8) (size 9 to 14) (size 15 to 20)
#    0.750    0.500    3.750    2.250    3.500    1.000 
#    0.000    0.000    0.000    3.750    0.000    0.000 
#    0.000    0.000    0.000    0.000    0.000    0.000 
#
# Total GULP energy -89166.038508 kJ/mol
# GULP energy per Si atom -5572.877407 kJ/mol
# Density = 2.245278 g / cm^3
# Si number density = 22.504003 Si / 1000 Ang^3
#
#
#
# Elastic Constant Matrix: (Units=GPa)
#
#
# Indices 1 2 3 4 5 6 
#
# 1 104.1736 0.6238 20.6028 8.0865 10.5508 12.6005
# 2 0.6238 80.4581 3.9874 -7.3177 -3.7295 10.2418
# 3 20.6028 3.9874 57.7191 -3.6933 14.3434 -3.2890
# 4 8.0865 -7.3177 -3.6933 30.8051 0.9422 2.4996
# 5 10.5508 -3.7295 14.3434 0.9422 15.7993 -1.0660
# 6 12.6005 10.2418 -3.2890 2.4996 -1.0660 31.6145
#
#
#
# Elastic Compliance Matrix: (Units=1/GPa)
#
#
# Indices 1 2 3 4 5 6 
#
# 1 0.011581 0.000238 -0.003444 -0.002848 -0.004717 -0.004985
# 2 0.000238 0.013655 -0.002241 0.003166 0.004583 -0.004848
# 3 -0.003444 -0.002241 0.024146 0.003586 -0.020118 0.003649
# 4 -0.002848 0.003166 0.003586 0.034669 -0.002833 -0.002354
# 5 -0.004717 0.004583 -0.020118 -0.002833 0.086055 0.001428
# 6 -0.004985 -0.004848 0.003649 -0.002354 0.001428 0.035802
#
#
# Mechanical properties :
#
#
# Convention : Reuss Voigt Hill
#
# Bulk Modulus (GPa) = 25.98208 32.53100 29.25654
# Shear Modulus (GPa) = 21.77385 30.11956 25.94670
#
# Velocity S-wave (km/s) = 3.11393 3.66240 3.39924
# Velocity P-wave (km/s) = 4.94968 5.68957 5.33247
#
# Compressibility (1/GPa) = 0.03848807
#
# Stress axis : x y z
#
# Youngs Moduli (GPa) = 86.34891 73.23073 41.41434
#
# Poissons Ratio (x) = -0.01742 0.14264
# Poissons Ratio (y) = -0.02054 0.09280
# Poissons Ratio (z) = 0.29741 0.16410
#
# Static dielectric constant tensor:
#      x y z
#    x 1.851350 -0.056640 -0.073190 
#    y -0.056640 1.840370 -0.070090 
#    z -0.073190 -0.070090 1.784730 
# 
# From -- ./inp_files/613425.got.cif
#   From: 2010.05.17/outbox.cif.g08.bks.cpg/sg2_307_cif.got.tgz:613425.got - 2010.06.03 11:33:40.
