data_PCOD9059882
_publ_section_title
;
Structure prediction by ZEFSAII (Michael W. Deem and Ramdas Pophale) SiO2 
 PCOD9059882
Probable space group: P -1
;
_chemical_formula_sum "Si O2"
_cell_formula_units_Z 16
_cell_length_a 6.647704
_cell_length_b 11.543064
_cell_length_c 14.374635
_cell_angle_alpha 48.609549
_cell_angle_beta 108.970729
_cell_angle_gamma 80.161333
_cell_volume 656.744002
_symmetry_space_group_name_H-M "P -1"
_symmetry_group_IT_number 2
_symmetry_cell_setting 'triclinic'
loop_
_space_group_symop_operation_xyz
x,y,z
-x,-y,-z
loop_
_atom_site_type_symbol
_atom_site_label
_atom_site_fract_x
_atom_site_fract_y
_atom_site_fract_z
Si Si1 0.409968 0.150631 0.182459
Si Si2 0.556399 0.119657 0.808751
Si Si3 0.140898 0.179730 0.848633
Si Si4 0.681539 0.584698 0.536550
Si Si5 0.864070 0.836864 0.523253
Si Si6 0.428578 0.631183 0.661395
Si Si7 0.356430 0.369593 0.905162
Si Si8 0.131742 0.325582 0.218336
O O1 0.166738 0.291381 0.132648
O O2 0.339940 0.023284 0.184492
O O3 0.638827 0.025134 0.350439
O O4 0.522144 0.230947 0.084572
O O5 0.312266 0.129545 0.809971
O O6 0.436026 0.316081 0.633238
O O7 0.765770 0.014144 0.979878
O O8 0.240079 0.272245 0.884619
O O9 0.866844 0.360914 0.685131
O O10 0.829007 0.679842 0.550250
O O11 0.469352 0.635055 0.555807
O O12 0.814529 0.846862 0.620633
O O13 0.143426 0.783143 0.568166
O O14 0.463166 0.444856 0.806563
O O15 0.653190 0.638174 0.738738
O O16 0.134352 0.528589 0.851261
#
# Coordination Sequence:
#
# PCOD9059882 Si02
#       8
#     2   2   2   2   2   2   2   2
#     4  10  20  35  55  83 113 145 186 233 277 334
#     4   9  21  33  61  88 107 148 192 227 283 335
#     4  10  17  38  62  82 112 147 185 236 283 327
#     4  10  18  37  61  83 110 152 187 227 285 334
#     4   9  19  36  55  82 112 146 184 232 281 330
#     4  10  19  35  56  82 113 145 188 224 280 338
#     4  10  20  37  57  82 112 146 186 233 279 332
#     4  10  19  35  58  81 107 150 189 220 284 338
#
# _framework density 24.362611000000001
#
# number of rings (size 3 to 8) (size 9 to 14) (size 15 to 20)
#    0.000    2.250    3.750    1.125    0.000    1.000 
#    2.250    4.375    0.000    2.250    0.000    0.000 
#    0.000    0.000    0.000    0.000    0.000    0.000 
#
# Total GULP energy -89164.196675 kJ/mol
# GULP energy per Si atom -5572.762292 kJ/mol
# Density = 2.430716 g / cm^3
# Si number density = 24.362611 Si / 1000 Ang^3
#
#
#
# Elastic Constant Matrix: (Units=GPa)
#
#
# Indices 1 2 3 4 5 6 
#
# 1 69.0785 -13.2790 22.2571 8.1873 1.4823 -19.8004
# 2 -13.2790 47.1786 11.6928 6.2292 15.8221 -20.8622
# 3 22.2571 11.6928 170.3547 8.9568 -28.3880 -18.1868
# 4 8.1873 6.2292 8.9568 28.6652 -21.4909 -0.8403
# 5 1.4823 15.8221 -28.3880 -21.4909 -0.9973 11.6190
# 6 -19.8004 -20.8622 -18.1868 -0.8403 11.6190 28.8233
#
#
#
# Elastic Compliance Matrix: (Units=1/GPa)
#
#
# Indices 1 2 3 4 5 6 
#
# 1 0.015941 0.002286 0.000599 0.005418 0.013917 0.007531
# 2 0.002286 0.015560 0.002177 0.011086 0.020835 0.006131
# 3 0.000599 0.002177 0.006307 -0.003230 -0.001068 0.006303
# 4 0.005418 0.011086 -0.003230 0.022049 -0.013813 0.015918
# 5 0.013917 0.020835 -0.001068 -0.013813 -0.008585 0.027025
# 6 0.007531 0.006131 0.006303 0.015918 0.027025 0.037852
#
#
# Mechanical properties :
#
#
# Convention : Reuss Voigt Hill
#
# Bulk Modulus (GPa) = 20.86320 36.43927 28.65124
# Shear Modulus (GPa) = 52.64363 29.02763 40.83563
#
# Velocity S-wave (km/s) = 4.65352 3.45553 4.09853
# Velocity P-wave (km/s) = 6.12012 5.55972 5.84664
#
# Compressibility (1/GPa) = 0.04793128
#
# Stress axis : x y z
#
# Youngs Moduli (GPa) = 62.73218 64.26727 158.54638
#
# Poissons Ratio (x) = -0.14692 -0.09491
# Poissons Ratio (y) = -0.14341 -0.34514
# Poissons Ratio (z) = -0.03755 -0.13990
#
# Static dielectric constant tensor:
#      x y z
#    x 1.902430 0.030740 -0.019880 
#    y 0.030740 1.974000 -0.047500 
#    z -0.019880 -0.047500 2.121640 
# 
# From -- ./inp_files/484246.got.cif
#   From: 2010.05.17/outbox.cif.g08.bks.cpg/sg2_243_cif.got.tgz:484246.got - 2010.06.03 11:33:40.
