data_PCOD9059847
_publ_section_title
;
Structure prediction by ZEFSAII (Michael W. Deem and Ramdas Pophale) SiO2 
 PCOD9059847
Probable space group: P -1
;
_chemical_formula_sum "Si O2"
_cell_formula_units_Z 16
_cell_length_a 24.220923
_cell_length_b 8.773342
_cell_length_c 20.469564
_cell_angle_alpha 31.680131
_cell_angle_beta 18.833596
_cell_angle_gamma 33.009376
_cell_volume 723.212635
_symmetry_space_group_name_H-M "P -1"
_symmetry_group_IT_number 2
_symmetry_cell_setting 'triclinic'
loop_
_space_group_symop_operation_xyz
x,y,z
-x,-y,-z
loop_
_atom_site_type_symbol
_atom_site_label
_atom_site_fract_x
_atom_site_fract_y
_atom_site_fract_z
Si Si1 0.466565 0.856428 0.901629
Si Si2 0.915092 0.460673 0.237636
Si Si3 0.386806 0.611557 0.486120
Si Si4 0.958932 0.616819 0.612787
Si Si5 0.201680 0.386773 0.543169
Si Si6 0.858217 0.161432 0.797292
Si Si7 0.739886 0.301575 0.258526
Si Si8 0.649152 0.085885 0.845507
O O1 0.618069 0.040020 0.651912
O O2 0.500000 0.500000 0.000000
O O3 0.325687 0.928922 0.975612
O O4 0.384492 0.975012 0.019514
O O5 0.731138 0.531144 0.380072
O O6 0.880917 0.469109 0.349879
O O7 0.001146 0.130337 0.238458
O O8 0.063525 0.653119 0.990180
O O9 0.591858 0.461363 0.315600
O O10 0.312488 0.583757 0.651729
O O11 0.852731 0.410342 0.766914
O O12 0.066693 0.439839 0.615179
O O13 0.084368 0.714897 0.381464
O O14 0.831055 0.895358 0.685897
O O15 0.347754 0.569525 0.292538
O O16 0.265272 0.043737 0.610054
O O17 0.500000 0.000000 0.000000
#
# Coordination Sequence:
#
# PCOD9059847 Si02
#       8
#     2   2   2   2   2   2   2   2
#     4  12  24  41  69 100 138 179 221 280 342 408
#     4  12  24  46  72  97 135 181 227 281 338 399
#     4  11  26  46  70  97 136 179 230 285 330 399
#     4  11  24  41  67 100 134 180 220 277 343 408
#     4  12  24  45  68 100 136 176 225 276 340 409
#     4  11  23  42  69  99 135 178 225 274 346 405
#     4  11  26  48  68  96 135 181 235 280 331 394
#     4  12  24  42  64 103 141 173 216 279 349 405
#
# _framework density 22.123508999999999
#
# number of rings (size 3 to 8) (size 9 to 14) (size 15 to 20)
#    0.000    0.500    3.750    4.875    3.500    0.500 
#    2.250    0.000    0.000    0.000    0.000    0.000 
#    0.000    0.000    0.000    0.000    0.000    0.000 
#
# Total GULP energy -89528.881486 kJ/mol
# GULP energy per Si atom -5595.555093 kJ/mol
# Density = 2.207315 g / cm^3
# Si number density = 22.123509 Si / 1000 Ang^3
#
#
#
# Elastic Constant Matrix: (Units=GPa)
#
#
# Indices 1 2 3 4 5 6 
#
# 1 116.8854 22.0837 51.4890 2.8070 -15.3048 4.2484
# 2 22.0837 83.7002 7.5314 -7.4963 -8.0994 -12.5792
# 3 51.4890 7.5314 102.6913 -3.3804 -17.3399 -12.3256
# 4 2.8070 -7.4963 -3.3804 21.6915 -2.4380 8.6566
# 5 -15.3048 -8.0994 -17.3399 -2.4380 41.3997 6.5628
# 6 4.2484 -12.5792 -12.3256 8.6566 6.5628 24.4240
#
#
#
# Elastic Compliance Matrix: (Units=1/GPa)
#
#
# Indices 1 2 3 4 5 6 
#
# 1 0.012876 -0.003816 -0.006752 -0.000541 0.002433 -0.008075
# 2 -0.003816 0.014300 0.002091 0.002794 0.001195 0.007773
# 3 -0.006752 0.002091 0.014473 0.000725 0.002657 0.008585
# 4 -0.000541 0.002794 0.000725 0.055965 0.007091 -0.019842
# 5 0.002433 0.001195 0.002657 0.007091 0.028174 -0.008551
# 6 -0.008075 0.007773 0.008585 -0.019842 -0.008551 0.060014
#
#
# Mechanical properties :
#
#
# Convention : Reuss Voigt Hill
#
# Bulk Modulus (GPa) = 40.49389 51.72056 46.10722
# Shear Modulus (GPa) = 23.69807 32.31456 28.00632
#
# Velocity S-wave (km/s) = 3.27643 3.82598 3.56182
# Velocity P-wave (km/s) = 5.71459 6.55335 6.14829
#
# Compressibility (1/GPa) = 0.02469508
#
# Stress axis : x y z
#
# Youngs Moduli (GPa) = 77.66444 69.92919 69.09475
#
# Poissons Ratio (x) = 0.26686 0.46654
# Poissons Ratio (y) = 0.29638 -0.14450
# Poissons Ratio (z) = 0.52440 -0.14625
#
# Static dielectric constant tensor:
#      x y z
#    x 1.779360 -0.015840 -0.014450 
#    y -0.015840 1.845590 0.014000 
#    z -0.014450 0.014000 1.826710 
# 
# From -- ./inp_files/601905.got.cif
#   From: 2010.05.17/outbox.cif.g08.bks.cpg/sg2_301_cif.got.tgz:601905.got - 2010.06.03 11:33:40.
