data_PCOD9059662
_publ_section_title
;
Structure prediction by ZEFSAII (Michael W. Deem and Ramdas Pophale) SiO2 
 PCOD9059662
Probable space group: P -1
;
_chemical_formula_sum "Si O2"
_cell_formula_units_Z 14
_cell_length_a 12.869826
_cell_length_b 21.701318
_cell_length_c 14.774737
_cell_angle_alpha 159.561772
_cell_angle_beta 141.316811
_cell_angle_gamma 26.974306
_cell_volume 613.702840
_symmetry_space_group_name_H-M "P -1"
_symmetry_group_IT_number 2
_symmetry_cell_setting 'triclinic'
loop_
_space_group_symop_operation_xyz
x,y,z
-x,-y,-z
loop_
_atom_site_type_symbol
_atom_site_label
_atom_site_fract_x
_atom_site_fract_y
_atom_site_fract_z
Si Si1 0.620574 0.605210 0.621404
Si Si2 0.351796 0.678050 0.909120
Si Si3 0.132206 0.811216 0.622794
Si Si4 0.708267 0.317454 0.815019
Si Si5 0.004999 0.415462 0.132352
Si Si6 0.557704 0.008580 0.654888
Si Si7 0.894743 0.798336 0.280133
O O1 0.679940 0.460887 0.369742
O O2 0.337726 0.792115 0.708224
O O3 0.764392 0.388772 0.500824
O O4 0.728363 0.717670 0.848126
O O5 0.579291 0.468085 0.840782
O O6 0.397638 0.817937 0.073673
O O7 0.115701 0.904416 0.120860
O O8 0.067997 0.734921 0.389832
O O9 0.803159 0.045935 0.508258
O O10 0.500000 0.500000 0.000000
O O11 0.922988 0.290259 0.941724
O O12 0.803661 0.711344 0.436447
O O13 0.989839 0.412519 0.008600
O O14 0.500000 0.000000 0.500000
O O15 0.336864 0.116180 0.714785
#
# Coordination Sequence:
#
# PCOD9059662 Si02
#       7
#     2   2   2   2   2   2   2
#     4  11  27  41  64 105 143 181 217 274 349 417
#     4  12  24  45  72  99 144 174 224 287 343 398
#     4  11  23  42  65  98 141 179 217 274 344 399
#     4  12  23  49  73 100 132 180 236 285 338 397
#     4  12  25  43  70 102 138 177 231 281 341 404
#     4  12  22  40  70 108 129 174 232 289 334 391
#     4  12  26  44  75 101 137 178 234 289 333 396
#
# _framework density 22.812344
#
# number of rings (size 3 to 8) (size 9 to 14) (size 15 to 20)
#    0.000    0.286    7.143    1.714    4.000    1.143 
#    0.000    3.571    0.000    0.000    0.000    0.000 
#    0.000    0.000    0.000    0.000    0.000    0.000 
#
# Total GULP energy -78489.737569 kJ/mol
# GULP energy per Si atom -5606.409826 kJ/mol
# Density = 2.276042 g / cm^3
# Si number density = 22.812344 Si / 1000 Ang^3
#
#
#
# Elastic Constant Matrix: (Units=GPa)
#
#
# Indices 1 2 3 4 5 6 
#
# 1 118.4632 38.4885 47.9984 -20.2601 5.4244 -36.5505
# 2 38.4885 97.6409 39.2426 -18.2358 3.6988 -26.5531
# 3 47.9984 39.2426 87.3813 -6.6296 6.6435 -11.7139
# 4 -20.2601 -18.2358 -6.6296 44.6987 0.6141 7.9725
# 5 5.4244 3.6988 6.6435 0.6141 36.3424 -4.7717
# 6 -36.5505 -26.5531 -11.7139 7.9725 -4.7717 44.9356
#
#
#
# Elastic Compliance Matrix: (Units=1/GPa)
#
#
# Indices 1 2 3 4 5 6 
#
# 1 0.014710 0.000236 -0.006595 0.004056 0.000189 0.009686
# 2 0.000236 0.015081 -0.005682 0.004180 0.000306 0.006914
# 3 -0.006595 -0.005682 0.017069 -0.002010 -0.002067 -0.004135
# 4 0.004056 0.004180 -0.002010 0.025523 -0.001015 0.000609
# 5 0.000189 0.000306 -0.002067 -0.001015 0.028242 0.002975
# 6 0.009686 0.006914 -0.004135 0.000609 0.002975 0.033348
#
#
# Mechanical properties :
#
#
# Convention : Reuss Voigt Hill
#
# Bulk Modulus (GPa) = 43.89924 61.66050 52.77987
# Shear Modulus (GPa) = 30.18460 37.04572 33.61516
#
# Velocity S-wave (km/s) = 3.64149 4.03418 3.84285
# Velocity P-wave (km/s) = 6.07997 6.98481 6.54804
#
# Compressibility (1/GPa) = 0.02277944
#
# Stress axis : x y z
#
# Youngs Moduli (GPa) = 67.98014 66.30707 58.58701
#
# Poissons Ratio (x) = -0.01567 0.38636
# Poissons Ratio (y) = -0.01607 0.33290
# Poissons Ratio (z) = 0.44830 0.37676
#
# Static dielectric constant tensor:
#      x y z
#    x 1.847770 -0.011530 0.011450 
#    y -0.011530 1.848700 0.009420 
#    z 0.011450 0.009420 1.818530 
# 
# From -- ./inp_files/186583.got.cif
#   From: 2010.05.17/outbox.cif.g08.bks.cpg/sg2_94_cif.got.tgz:186583.got - 2010.06.03 11:33:40.
