data_PCOD9059865
_publ_section_title
;
Structure prediction by ZEFSAII (Michael W. Deem and Ramdas Pophale) SiO2 
 PCOD9059865
Probable space group: P -1
;
_chemical_formula_sum "Si O2"
_cell_formula_units_Z 16
_cell_length_a 9.232924
_cell_length_b 8.648071
_cell_length_c 13.782928
_cell_angle_alpha 137.273101
_cell_angle_beta 69.171849
_cell_angle_gamma 102.499142
_cell_volume 696.173116
_symmetry_space_group_name_H-M "P -1"
_symmetry_group_IT_number 2
_symmetry_cell_setting 'triclinic'
loop_
_space_group_symop_operation_xyz
x,y,z
-x,-y,-z
loop_
_atom_site_type_symbol
_atom_site_label
_atom_site_fract_x
_atom_site_fract_y
_atom_site_fract_z
Si Si1 0.528354 0.189616 0.240125
Si Si2 0.869422 0.182343 0.070613
Si Si3 0.533971 0.877483 0.559348
Si Si4 0.118362 0.283269 0.661518
Si Si5 0.022978 0.834430 0.562011
Si Si6 0.758297 0.076550 0.834727
Si Si7 0.671170 0.411026 0.634967
Si Si8 0.379367 0.642253 0.162587
O O1 0.707124 0.155395 0.152766
O O2 0.514557 0.231781 0.377430
O O3 0.441073 0.396386 0.298180
O O4 0.421149 0.982457 0.142613
O O5 0.908171 0.447915 0.187705
O O6 0.829592 0.139035 0.947880
O O7 0.000000 0.000000 0.000000
O O8 0.703194 0.772959 0.439521
O O9 0.412799 0.818529 0.479092
O O10 0.542194 0.138096 0.711360
O O11 0.016547 0.229274 0.567544
O O12 0.084886 0.090634 0.660797
O O13 0.157482 0.648342 0.475287
O O14 0.864228 0.859463 0.670587
O O15 0.755628 0.263128 0.834976
O O16 0.677466 0.465298 0.773493
O O17 0.500000 0.500000 0.000000
#
# Coordination Sequence:
#
# PCOD9059865 Si02
#       8
#     2   2   2   2   2   2   2   2
#     4  11  25  47  73 104 150 187 242 301 361 440
#     4  12  29  47  75 107 150 191 243 302 375 429
#     4  11  23  45  71 104 141 189 243 300 353 426
#     4  11  23  49  71 104 148 188 245 310 351 431
#     4  11  24  44  75 104 145 191 246 301 360 426
#     4  11  26  51  68 106 149 194 239 299 367 435
#     4  12  24  40  78 108 138 192 246 295 358 425
#     4  11  23  42  70 102 141 187 242 292 361 428
#
# _framework density 22.982792
#
# number of rings (size 3 to 8) (size 9 to 14) (size 15 to 20)
#    0.000    0.750    5.000    2.625    3.500    2.000 
#    4.500    0.000    0.000    0.000    0.000    0.000 
#    0.000    0.000    0.000    0.000    0.000    0.000 
#
# Total GULP energy -89414.911264 kJ/mol
# GULP energy per Si atom -5588.431954 kJ/mol
# Density = 2.293048 g / cm^3
# Si number density = 22.982792 Si / 1000 Ang^3
#
#
#
# Elastic Constant Matrix: (Units=GPa)
#
#
# Indices 1 2 3 4 5 6 
#
# 1 118.6615 36.6013 44.0980 1.2948 -25.3287 -18.9304
# 2 36.6013 87.1712 45.9877 -1.2336 -2.9347 -14.3316
# 3 44.0980 45.9877 113.7636 11.6859 -7.4103 -20.5726
# 4 1.2948 -1.2336 11.6859 33.6907 -4.3602 1.9115
# 5 -25.3287 -2.9347 -7.4103 -4.3602 57.1211 -5.6832
# 6 -18.9304 -14.3316 -20.5726 1.9115 -5.6832 26.1442
#
#
#
# Elastic Compliance Matrix: (Units=1/GPa)
#
#
# Indices 1 2 3 4 5 6 
#
# 1 0.012422 -0.002742 -0.002100 0.000505 0.005837 0.007071
# 2 -0.002742 0.015727 -0.005162 0.002255 -0.000680 0.002261
# 3 -0.002100 -0.005162 0.013501 -0.005069 0.000848 0.006829
# 4 0.000505 0.002255 -0.005069 0.031969 0.001689 -0.004357
# 5 0.005837 -0.000680 0.000848 0.001689 0.021195 0.009004
# 6 0.007071 0.002261 0.006829 -0.004357 0.009004 0.052259
#
#
# Mechanical properties :
#
#
# Convention : Reuss Voigt Hill
#
# Bulk Modulus (GPa) = 46.20224 63.66337 54.93280
# Shear Modulus (GPa) = 28.68728 36.25182 32.46955
#
# Velocity S-wave (km/s) = 3.53683 3.97589 3.76277
# Velocity P-wave (km/s) = 6.06840 6.98839 6.54458
#
# Compressibility (1/GPa) = 0.02164397
#
# Stress axis : x y z
#
# Youngs Moduli (GPa) = 80.50370 63.58608 74.06599
#
# Poissons Ratio (x) = 0.17434 0.15551
# Poissons Ratio (y) = 0.22072 0.38230
# Poissons Ratio (z) = 0.16903 0.32821
#
# Static dielectric constant tensor:
#      x y z
#    x 1.889780 0.054880 -0.014380 
#    y 0.054880 1.989070 0.055180 
#    z -0.014380 0.055180 1.853210 
# 
# From -- ./inp_files/495786.got.cif
#   From: 2010.05.17/outbox.cif.g08.bks.cpg/sg2_248_cif.got.tgz:495786.got - 2010.06.03 11:33:40.
