data_PCOD9059868
_publ_section_title
;
Structure prediction by ZEFSAII (Michael W. Deem and Ramdas Pophale) SiO2 
 PCOD9059868
Probable space group: P -1
;
_chemical_formula_sum "Si O2"
_cell_formula_units_Z 14
_cell_length_a 11.525758
_cell_length_b 18.487244
_cell_length_c 8.759104
_cell_angle_alpha 51.170738
_cell_angle_beta 146.446915
_cell_angle_gamma 142.312165
_cell_volume 627.736531
_symmetry_space_group_name_H-M "P -1"
_symmetry_group_IT_number 2
_symmetry_cell_setting 'triclinic'
loop_
_space_group_symop_operation_xyz
x,y,z
-x,-y,-z
loop_
_atom_site_type_symbol
_atom_site_label
_atom_site_fract_x
_atom_site_fract_y
_atom_site_fract_z
Si Si1 0.484272 0.570244 0.031274
Si Si2 0.924945 0.482777 0.116424
Si Si3 0.898974 0.258776 0.423932
Si Si4 0.283393 0.948913 0.694171
Si Si5 0.721651 0.134374 0.701953
Si Si6 0.333154 0.690655 0.494905
Si Si7 0.919584 0.944802 0.810643
O O1 0.792152 0.672871 0.279544
O O2 0.500000 0.500000 0.000000
O O3 0.305562 0.514043 0.065527
O O4 0.343534 0.621441 0.735804
O O5 0.856290 0.356103 0.239999
O O6 0.201778 0.594440 0.347155
O O7 0.000000 0.500000 0.000000
O O8 0.834675 0.183771 0.299934
O O9 0.713766 0.164067 0.479171
O O10 0.443893 0.033040 0.611799
O O11 0.057397 0.967450 0.409788
O O12 0.500000 0.000000 0.000000
O O13 0.835443 0.260733 0.734171
O O14 0.884717 0.086671 0.965993
O O15 0.634039 0.812413 0.653847
O O16 0.000000 0.000000 0.000000
#
# Coordination Sequence:
#
# PCOD9059868 Si02
#       7
#     2   2   2   2   2   2   2
#     4  12  23  45  73 105 138 187 255 298 351 439
#     4  12  29  46  69 107 153 192 237 308 379 433
#     4  12  24  45  73 103 141 195 246 301 365 442
#     4  11  27  45  68 109 149 185 236 304 378 433
#     4  11  23  43  76  98 141 189 244 300 357 439
#     4  11  23  42  70 103 136 184 242 297 359 431
#     4  11  23  42  73 107 134 182 251 298 353 431
#
# _framework density 22.302351000000002
#
# number of rings (size 3 to 8) (size 9 to 14) (size 15 to 20)
#    0.000    0.571    5.714    1.714    6.000    2.286 
#    2.571    0.000    0.000    0.000    0.000    0.000 
#    0.000    0.000    0.000    0.000    0.000    0.000 
#
# Total GULP energy -77968.384612 kJ/mol
# GULP energy per Si atom -5569.170329 kJ/mol
# Density = 2.225159 g / cm^3
# Si number density = 22.302351 Si / 1000 Ang^3
#
#
#
# Elastic Constant Matrix: (Units=GPa)
#
#
# Indices 1 2 3 4 5 6 
#
# 1 84.4661 35.5875 19.4768 2.3790 -4.7258 -7.7743
# 2 35.5875 106.5303 30.9702 -2.5036 -11.3384 -39.4658
# 3 19.4768 30.9702 68.3817 -3.3605 -13.2453 -25.1072
# 4 2.3790 -2.5036 -3.3605 41.2395 -15.3295 5.8950
# 5 -4.7258 -11.3384 -13.2453 -15.3295 31.2592 2.5377
# 6 -7.7743 -39.4658 -25.1072 5.8950 2.5377 44.2768
#
#
#
# Elastic Compliance Matrix: (Units=1/GPa)
#
#
# Indices 1 2 3 4 5 6 
#
# 1 0.014578 -0.005590 -0.003550 -0.001526 -0.001741 -0.004133
# 2 -0.005590 0.016822 -0.000093 0.001139 0.004676 0.013540
# 3 -0.003550 -0.000093 0.021596 0.004086 0.009737 0.010437
# 4 -0.001526 0.001139 0.004086 0.031578 0.017574 -0.002147
# 5 -0.001741 0.004676 0.009737 0.017574 0.045809 0.004419
# 6 -0.004133 0.013540 0.010437 -0.002147 0.004419 0.039880
#
#
# Mechanical properties :
#
#
# Convention : Reuss Voigt Hill
#
# Bulk Modulus (GPa) = 28.96099 47.93857 38.44978
# Shear Modulus (GPa) = 24.96989 34.91135 29.94062
#
# Velocity S-wave (km/s) = 3.34968 3.96076 3.66797
# Velocity P-wave (km/s) = 5.28908 6.51601 5.93434
#
# Compressibility (1/GPa) = 0.03452920
#
# Stress axis : x y z
#
# Youngs Moduli (GPa) = 68.59586 59.44478 46.30423
#
# Poissons Ratio (x) = 0.33231 0.16439
# Poissons Ratio (y) = 0.38347 0.00432
# Poissons Ratio (z) = 0.24353 0.00555
#
# Static dielectric constant tensor:
#      x y z
#    x 3.343210 0.016140 0.706080 
#    y 0.016140 1.847940 -0.048240 
#    z 0.706080 -0.048240 2.236090 
# 
# From -- ./inp_files/279173.got.cif
#   From: 2010.05.17/outbox.cif.g08.bks.cpg/sg2_140_cif.got.tgz:279173.got - 2010.06.03 11:33:40.
