data_PCOD9059449
_publ_section_title
;
Structure prediction by ZEFSAII (Michael W. Deem and Ramdas Pophale) SiO2 
 PCOD9059449
Probable space group: P -1
;
_chemical_formula_sum "Si O2"
_cell_formula_units_Z 16
_cell_length_a 9.340899
_cell_length_b 13.115581
_cell_length_c 22.567811
_cell_angle_alpha 154.218282
_cell_angle_beta 38.366234
_cell_angle_gamma 130.879182
_cell_volume 732.666198
_symmetry_space_group_name_H-M "P -1"
_symmetry_group_IT_number 2
_symmetry_cell_setting 'triclinic'
loop_
_space_group_symop_operation_xyz
x,y,z
-x,-y,-z
loop_
_atom_site_type_symbol
_atom_site_label
_atom_site_fract_x
_atom_site_fract_y
_atom_site_fract_z
Si Si1 0.704254 0.133050 0.525152
Si Si2 0.476351 0.576246 0.616145
Si Si3 0.153359 0.701826 0.560275
Si Si4 0.499095 0.916068 0.155966
Si Si5 0.972910 0.230710 0.938490
Si Si6 0.100550 0.861234 0.336084
Si Si7 0.626714 0.516582 0.104669
Si Si8 0.999145 0.342627 0.118351
O O1 0.768746 0.259658 0.511682
O O2 0.600363 0.316010 0.706317
O O3 0.500000 0.000000 0.500000
O O4 0.925082 0.952056 0.385867
O O5 0.500000 0.500000 0.500000
O O6 0.632378 0.389388 0.511834
O O7 0.206855 0.611458 0.742941
O O8 0.562607 0.829733 0.723256
O O9 0.000000 0.500000 0.500000
O O10 0.014810 0.956394 0.761892
O O11 0.351814 0.917051 0.264888
O O12 0.433940 0.696828 0.026008
O O13 0.778088 0.860216 0.045025
O O14 0.217123 0.324780 0.898385
O O15 0.785233 0.394323 0.043420
O O16 0.897405 0.270831 0.051701
O O17 0.099503 0.584292 0.201811
O O18 0.000000 0.000000 0.500000
#
# Coordination Sequence:
#
# PCOD9059449 Si02
#       8
#     2   2   2   2   2   2   2   2
#     4  12  24  42  69 102 141 184 231 283 349 413
#     4  12  27  49  71 101 144 188 234 287 354 421
#     4  12  26  45  72 103 141 186 234 288 348 421
#     4  12  26  46  69 102 140 184 237 289 345 416
#     4  11  23  42  68 100 139 179 227 284 350 407
#     4  12  25  42  69 105 140 180 233 289 344 413
#     4  11  23  41  69 100 139 181 225 287 345 410
#     4  12  26  44  71 103 139 186 232 288 355 412
#
# _framework density 21.838049000000002
#
# number of rings (size 3 to 8) (size 9 to 14) (size 15 to 20)
#    0.000    0.250    2.500    7.500    1.750    2.000 
#    0.000    2.500    0.000    0.000    0.000    0.000 
#    0.000    0.000    0.000    0.000    0.000    0.000 
#
# Total GULP energy -89659.882234 kJ/mol
# GULP energy per Si atom -5603.742640 kJ/mol
# Density = 2.178834 g / cm^3
# Si number density = 21.838049 Si / 1000 Ang^3
#
#
#
# Elastic Constant Matrix: (Units=GPa)
#
#
# Indices 1 2 3 4 5 6 
#
# 1 83.6071 7.0099 4.4958 -11.3747 -6.4777 -13.9212
# 2 7.0099 101.7552 12.0747 -5.6888 -1.8694 -8.1138
# 3 4.4958 12.0747 85.0354 -7.1091 0.2870 -12.8352
# 4 -11.3747 -5.6888 -7.1091 53.5683 -0.5451 7.4443
# 5 -6.4777 -1.8694 0.2870 -0.5451 39.3275 -0.6004
# 6 -13.9212 -8.1138 -12.8352 7.4443 -0.6004 30.7061
#
#
#
# Elastic Compliance Matrix: (Units=1/GPa)
#
#
# Indices 1 2 3 4 5 6 
#
# 1 0.013376 -0.000354 0.000364 0.002088 0.002299 0.005662
# 2 -0.000354 0.010177 -0.001085 0.000597 0.000471 0.001940
# 3 0.000364 -0.001085 0.012724 0.000961 0.000005 0.004964
# 4 0.002088 0.000597 0.000961 0.019763 0.000589 -0.003274
# 5 0.002299 0.000471 0.000005 0.000589 0.025860 0.001532
# 6 0.005662 0.001940 0.004964 -0.003274 0.001532 0.038545
#
#
# Mechanical properties :
#
#
# Convention : Reuss Voigt Hill
#
# Bulk Modulus (GPa) = 29.30233 35.28428 32.29330
# Shear Modulus (GPa) = 37.32143 41.17486 39.24815
#
# Velocity S-wave (km/s) = 4.13850 4.34690 4.24398
# Velocity P-wave (km/s) = 6.02357 6.43323 6.23177
#
# Compressibility (1/GPa) = 0.03412698
#
# Stress axis : x y z
#
# Youngs Moduli (GPa) = 74.76266 98.25702 78.58980
#
# Poissons Ratio (x) = 0.03481 -0.02864
# Poissons Ratio (y) = 0.02649 0.08530
# Poissons Ratio (z) = -0.02725 0.10664
#
# Static dielectric constant tensor:
#      x y z
#    x 1.781320 0.011360 -0.006180 
#    y 0.011360 1.774890 -0.062690 
#    z -0.006180 -0.062690 1.871290 
# 
# From -- ./inp_files/589691.got.cif
#   From: 2010.05.17/outbox.cif.g08.bks.cpg/sg2_295_cif.got.tgz:589691.got - 2010.06.03 11:33:40.
