data_PCOD9059622
_publ_section_title
;
Structure prediction by ZEFSAII (Michael W. Deem and Ramdas Pophale) SiO2 
 PCOD9059622
Probable space group: P -1
;
_chemical_formula_sum "Si O2"
_cell_formula_units_Z 16
_cell_length_a 14.792607
_cell_length_b 19.857301
_cell_length_c 9.286972
_cell_angle_alpha 51.825703
_cell_angle_beta 49.317538
_cell_angle_gamma 18.555444
_cell_volume 658.309278
_symmetry_space_group_name_H-M "P -1"
_symmetry_group_IT_number 2
_symmetry_cell_setting 'triclinic'
loop_
_space_group_symop_operation_xyz
x,y,z
-x,-y,-z
loop_
_atom_site_type_symbol
_atom_site_label
_atom_site_fract_x
_atom_site_fract_y
_atom_site_fract_z
Si Si1 0.822606 0.787931 0.375777
Si Si2 0.895437 0.906818 0.618453
Si Si3 0.248593 0.572871 0.447207
Si Si4 0.364137 0.529017 0.854302
Si Si5 0.338663 0.196567 0.927116
Si Si6 0.160309 0.486152 0.194551
Si Si7 0.574463 0.112863 0.076992
Si Si8 0.290384 0.797562 0.320763
O O1 0.060027 0.639088 0.450619
O O2 0.914809 0.650031 0.357063
O O3 0.500000 0.000000 0.500000
O O4 0.808581 0.886758 0.171977
O O5 0.022512 0.770842 0.529238
O O6 0.071973 0.751929 0.777757
O O7 0.988757 0.944902 0.467931
O O8 0.550898 0.119991 0.717744
O O9 0.448686 0.512030 0.236310
O O10 0.474585 0.369582 0.575698
O O11 0.565588 0.357347 0.745871
O O12 0.311827 0.479425 0.069255
O O13 0.021009 0.395254 0.924358
O O14 0.356323 0.214151 0.050949
O O15 0.500000 0.000000 0.000000
O O16 0.407403 0.254188 0.208249
O O17 0.714175 0.104920 0.868127
#
# Coordination Sequence:
#
# PCOD9059622 Si02
#       8
#     2   2   2   2   2   2   2   2
#     4  12  26  42  64  92 133 174 210 257 325 391
#     4   9  16  34  63  94 130 161 211 265 314 373
#     4   9  19  36  64  94 129 172 208 256 322 379
#     4   8  15  34  62  92 124 165 212 263 311 372
#     4  12  21  36  65  98 127 165 214 262 319 376
#     4  11  23  42  63  91 133 168 214 264 317 379
#     4  11  25  43  66  95 126 166 217 269 317 378
#     4   8  18  37  64  96 124 162 214 271 314 365
#
# _framework density 24.304686
#
# number of rings (size 3 to 8) (size 9 to 14) (size 15 to 20)
#    0.000    2.000    2.500    2.625    0.000    2.500 
#    0.000    6.875    0.000    0.000    0.000    0.000 
#    0.000    0.000    0.000    0.000    0.000    0.000 
#
# Total GULP energy -89455.381635 kJ/mol
# GULP energy per Si atom -5590.961352 kJ/mol
# Density = 2.424937 g / cm^3
# Si number density = 24.304686 Si / 1000 Ang^3
#
#
#
# Elastic Constant Matrix: (Units=GPa)
#
#
# Indices 1 2 3 4 5 6 
#
# 1 93.2937 33.0184 26.1379 8.0348 3.7648 24.2243
# 2 33.0184 76.1372 14.1690 8.9251 -0.0596 26.6101
# 3 26.1379 14.1690 84.2589 9.9745 -15.6098 7.9314
# 4 8.0348 8.9251 9.9745 26.0223 6.1982 -2.6026
# 5 3.7648 -0.0596 -15.6098 6.1982 34.0565 5.0652
# 6 24.2243 26.6101 7.9314 -2.6026 5.0652 53.1963
#
#
#
# Elastic Compliance Matrix: (Units=1/GPa)
#
#
# Indices 1 2 3 4 5 6 
#
# 1 0.014410 -0.004061 -0.003720 -0.001421 -0.002480 -0.003809
# 2 -0.004061 0.018439 0.000266 -0.006693 0.003015 -0.008028
# 3 -0.003720 0.000266 0.015766 -0.007402 0.009288 -0.002036
# 4 -0.001421 -0.006693 -0.007402 0.048036 -0.013286 0.008714
# 5 -0.002480 0.003015 0.009288 -0.013286 0.037203 -0.005956
# 6 -0.003809 -0.008028 -0.002036 0.008714 -0.005956 0.025846
#
#
# Mechanical properties :
#
#
# Convention : Reuss Voigt Hill
#
# Bulk Modulus (GPa) = 29.77553 44.48227 37.12890
# Shear Modulus (GPa) = 26.89258 34.67930 30.78594
#
# Velocity S-wave (km/s) = 3.32998 3.78147 3.56289
# Velocity P-wave (km/s) = 5.20217 6.11618 5.67760
#
# Compressibility (1/GPa) = 0.03358463
#
# Stress axis : x y z
#
# Youngs Moduli (GPa) = 69.39733 54.23361 63.42769
#
# Poissons Ratio (x) = 0.22023 0.23594
# Poissons Ratio (y) = 0.28181 -0.01685
# Poissons Ratio (z) = 0.25814 -0.01441
#
# Static dielectric constant tensor:
#      x y z
#    x 1.918320 0.037910 -0.029650 
#    y 0.037910 1.902670 0.104090 
#    z -0.029650 0.104090 2.088820 
# 
# From -- ./inp_files/319240.got.cif
#   From: 2010.05.17/outbox.cif.g08.bks.cpg/sg2_160_cif.got.tgz:319240.got - 2010.06.03 11:33:40.
