data_PCOD9060036
_publ_section_title
;
Structure prediction by ZEFSAII (Michael W. Deem and Ramdas Pophale) SiO2 
 PCOD9060036
Probable space group: P -1
;
_chemical_formula_sum "Si O2"
_cell_formula_units_Z 10
_cell_length_a 13.349869
_cell_length_b 10.558667
_cell_length_c 13.705690
_cell_angle_alpha 38.872009
_cell_angle_beta 21.749730
_cell_angle_gamma 47.296920
_cell_volume 440.807446
_symmetry_space_group_name_H-M "P -1"
_symmetry_group_IT_number 2
_symmetry_cell_setting 'triclinic'
loop_
_space_group_symop_operation_xyz
x,y,z
-x,-y,-z
loop_
_atom_site_type_symbol
_atom_site_label
_atom_site_fract_x
_atom_site_fract_y
_atom_site_fract_z
Si Si1 0.617359 0.410706 0.846996
Si Si2 0.490480 0.050199 0.591272
Si Si3 0.298660 0.640217 0.637405
Si Si4 0.303089 0.022251 0.255695
Si Si5 0.054272 0.188319 0.682402
O O1 0.864536 0.290708 0.719816
O O2 0.769196 0.621123 0.531363
O O3 0.500000 0.500000 0.000000
O O4 0.400885 0.247779 0.080929
O O5 0.595777 0.274451 0.403102
O O6 0.500000 0.000000 0.500000
O O7 0.720265 0.926105 0.498946
O O8 0.179159 0.967263 0.956316
O O9 0.500000 0.500000 0.500000
O O10 0.312985 0.837562 0.434563
O O11 0.000000 0.500000 0.000000
O O12 0.000000 0.000000 0.500000
O O13 0.500000 0.000000 0.000000
#
# Coordination Sequence:
#
# PCOD9060036 Si02
#       5
#     2   2   2   2   2
#     4  11  24  45  77 101 139 185 232 300 361 419
#     4  12  26  46  73 103 142 187 243 291 354 433
#     4  12  27  50  72 102 150 198 236 294 364 435
#     4  12  29  47  74 110 149 188 245 302 362 431
#     4  11  23  42  74 104 138 174 239 290 364 406
#
# _framework density 22.685642000000001
#
# number of rings (size 3 to 8) (size 9 to 14) (size 15 to 20)
#    0.000    0.400    4.000    3.000    8.400    4.800 
#    0.000    0.000    0.000    0.000    0.000    0.000 
#    0.000    0.000    0.000    0.000    0.000    0.000 
#
# Total GULP energy -55893.762472 kJ/mol
# GULP energy per Si atom -5589.376247 kJ/mol
# Density = 2.263401 g / cm^3
# Si number density = 22.685642 Si / 1000 Ang^3
#
#
#
# Elastic Constant Matrix: (Units=GPa)
#
#
# Indices 1 2 3 4 5 6 
#
# 1 85.9665 55.6693 50.0258 -4.5161 -26.1952 24.2784
# 2 55.6693 164.4953 75.5944 -3.8545 -35.6511 23.6254
# 3 50.0258 75.5944 211.2966 -17.3191 -35.5716 33.7803
# 4 -4.5161 -3.8545 -17.3191 51.3133 4.2342 -16.2349
# 5 -26.1952 -35.6511 -35.5716 4.2342 42.5674 -1.6162
# 6 24.2784 23.6254 33.7803 -16.2349 -1.6162 45.6441
#
#
#
# Elastic Compliance Matrix: (Units=1/GPa)
#
#
# Indices 1 2 3 4 5 6 
#
# 1 0.018839 -0.003071 -0.000827 -0.002155 0.008230 -0.008294
# 2 -0.003071 0.009071 -0.001508 -0.001164 0.004480 -0.002201
# 3 -0.000827 -0.001508 0.006665 0.000712 0.003601 -0.003332
# 4 -0.002155 -0.001164 0.000712 0.022644 -0.003611 0.009148
# 5 0.008230 0.004480 0.003601 -0.003611 0.035320 -0.009395
# 6 -0.008294 -0.002201 -0.003332 0.009148 -0.009395 0.032847
#
#
# Mechanical properties :
#
#
# Convention : Reuss Voigt Hill
#
# Bulk Modulus (GPa) = 42.07979 91.59307 66.83643
# Shear Modulus (GPa) = 34.69370 46.60287 40.64828
#
# Velocity S-wave (km/s) = 3.91490 4.53734 4.23757
# Velocity P-wave (km/s) = 6.24697 8.24091 7.31222
#
# Compressibility (1/GPa) = 0.02376438
#
# Stress axis : x y z
#
# Youngs Moduli (GPa) = 53.08021 110.23927 150.03746
#
# Poissons Ratio (x) = 0.33860 0.12403
# Poissons Ratio (y) = 0.16303 0.22618
# Poissons Ratio (z) = 0.04388 0.16619
#
# Static dielectric constant tensor:
#      x y z
#    x 1.944590 -0.033080 0.087560 
#    y -0.033080 1.827060 -0.039380 
#    z 0.087560 -0.039380 1.934640 
# 
# From -- ./inp_files/123216.got.cif
#   From: 2010.05.17/outbox.cif.g08.bks.cpg/sg2_62_cif.got.tgz:123216.got - 2010.06.03 11:33:40.
