data_PCOD9060694
_publ_section_title
;
Structure prediction by ZEFSAII (Michael W. Deem and Ramdas Pophale) SiO2 
 PCOD9060694
Probable space group: P -1
;
_chemical_formula_sum "Si O2"
_cell_formula_units_Z 14
_cell_length_a 10.754591
_cell_length_b 14.095903
_cell_length_c 6.487458
_cell_angle_alpha 112.097660
_cell_angle_beta 102.809375
_cell_angle_gamma 39.155488
_cell_volume 571.241134
_symmetry_space_group_name_H-M "P -1"
_symmetry_group_IT_number 2
_symmetry_cell_setting 'triclinic'
loop_
_space_group_symop_operation_xyz
x,y,z
-x,-y,-z
loop_
_atom_site_type_symbol
_atom_site_label
_atom_site_fract_x
_atom_site_fract_y
_atom_site_fract_z
Si Si1 0.434341 0.423964 0.167034
Si Si2 0.622756 0.715902 0.311039
Si Si3 0.967738 0.263372 0.638649
Si Si4 0.173026 0.455448 0.366869
Si Si5 0.277054 0.941767 0.701630
Si Si6 0.127345 0.848488 0.776737
Si Si7 0.429447 0.145438 0.983251
O O1 0.254077 0.615388 0.247390
O O2 0.365252 0.411278 0.346040
O O3 0.661744 0.315011 0.180826
O O4 0.401068 0.365127 0.919323
O O5 0.814995 0.576682 0.412828
O O6 0.442838 0.839718 0.503559
O O7 0.609085 0.822660 0.245252
O O8 0.981148 0.373165 0.658394
O O9 0.982370 0.182751 0.377144
O O10 0.125835 0.125563 0.745144
O O11 0.234143 0.314738 0.155621
O O12 0.176206 0.893976 0.641769
O O13 0.382901 0.897805 0.923397
O O14 0.000000 0.000000 0.000000
O O15 0.500000 0.000000 0.000000
#
# Coordination Sequence:
#
# PCOD9060694 Si02
#       7
#     2   2   2   2   2   2   2
#     4   9  19  37  55  83 120 160 201 241 290 346
#     4  10  17  39  65  80 120 155 197 249 299 347
#     4  10  22  37  58  88 129 160 198 248 298 354
#     4   8  19  37  58  84 122 149 204 239 294 351
#     4  11  22  40  57  92 125 153 205 255 288 362
#     4  12  22  38  59  89 124 168 208 242 289 354
#     4  10  21  40  68  90 113 156 205 247 305 365
#
# _framework density 24.508037000000002
#
# number of rings (size 3 to 8) (size 9 to 14) (size 15 to 20)
#    0.857    1.143    4.286    1.714    0.000    3.429 
#    0.000    2.857    0.000    1.714    0.000    0.000 
#    0.000    0.000    0.000    0.000    0.000    0.000 
#
# Total GULP energy -78081.956281 kJ/mol
# GULP energy per Si atom -5577.282591 kJ/mol
# Density = 2.445226 g / cm^3
# Si number density = 24.508037 Si / 1000 Ang^3
#
#
#
# Elastic Constant Matrix: (Units=GPa)
#
#
# Indices 1 2 3 4 5 6 
#
# 1 29.2624 27.2855 13.2970 -3.0612 -2.2153 -2.7211
# 2 27.2855 196.3908 54.4695 -9.8851 -2.3105 -7.5432
# 3 13.2970 54.4695 85.0349 -14.2843 -10.2649 -8.9415
# 4 -3.0612 -9.8851 -14.2843 47.1586 -3.0955 0.9747
# 5 -2.2153 -2.3105 -10.2649 -3.0955 26.0502 -3.3317
# 6 -2.7211 -7.5432 -8.9415 0.9747 -3.3317 44.4476
#
#
#
# Elastic Compliance Matrix: (Units=1/GPa)
#
#
# Indices 1 2 3 4 5 6 
#
# 1 0.040177 -0.004709 -0.002714 0.000917 0.002200 0.001259
# 2 -0.004709 0.006773 -0.003778 -0.000116 -0.001301 0.000006
# 3 -0.002714 -0.003778 0.016476 0.004410 0.006824 0.002922
# 4 0.000917 -0.000116 0.004410 0.022863 0.004621 0.000769
# 5 0.002200 -0.001301 0.006824 0.004621 0.042254 0.004353
# 6 0.001259 0.000006 0.002922 0.000769 0.004353 0.023474
#
#
# Mechanical properties :
#
#
# Convention : Reuss Voigt Hill
#
# Bulk Modulus (GPa) = 24.37601 55.64357 40.00979
# Shear Modulus (GPa) = 26.58238 37.90702 32.24470
#
# Velocity S-wave (km/s) = 3.29696 3.93710 3.63116
# Velocity P-wave (km/s) = 4.94580 6.58947 5.82590
#
# Compressibility (1/GPa) = 0.04102395
#
# Stress axis : x y z
#
# Youngs Moduli (GPa) = 24.88980 147.64372 60.69347
#
# Poissons Ratio (x) = 0.69522 0.16474
# Poissons Ratio (y) = 0.11720 0.22931
# Poissons Ratio (z) = 0.06756 0.55782
#
# Static dielectric constant tensor:
#      x y z
#    x 2.091100 -0.002420 0.005660 
#    y -0.002420 2.020090 0.006170 
#    z 0.005660 0.006170 1.938030 
# 
# From -- ./inp_files/96536.got.cif
#   From: 2010.05.17/outbox.cif.g08.bks.cpg/sg2_49_cif.got.tgz:96536.got - 2010.06.03 11:33:40.
