data_PCOD9060460
_publ_section_title
;
Structure prediction by ZEFSAII (Michael W. Deem and Ramdas Pophale) SiO2 
 PCOD9060460
Probable space group: P -1
;
_chemical_formula_sum "Si O2"
_cell_formula_units_Z 15
_cell_length_a 8.847603
_cell_length_b 8.236568
_cell_length_c 13.202223
_cell_angle_alpha 45.241947
_cell_angle_beta 73.390932
_cell_angle_gamma 59.057992
_cell_volume 581.345003
_symmetry_space_group_name_H-M "P -1"
_symmetry_group_IT_number 2
_symmetry_cell_setting 'triclinic'
loop_
_space_group_symop_operation_xyz
x,y,z
-x,-y,-z
loop_
_atom_site_type_symbol
_atom_site_label
_atom_site_fract_x
_atom_site_fract_y
_atom_site_fract_z
Si Si1 0.500000 0.000000 0.500000
Si Si2 0.276387 0.525604 0.193255
Si Si3 0.059304 0.323891 0.941660
Si Si4 0.587801 0.093445 0.028189
Si Si5 0.019665 0.267356 0.668067
Si Si6 0.056077 0.136767 0.247300
Si Si7 0.380987 0.233870 0.672509
Si Si8 0.654881 0.227000 0.483407
O O1 0.379217 0.236085 0.339842
O O2 0.658907 0.102612 0.430373
O O3 0.141913 0.595767 0.092122
O O4 0.139859 0.663068 0.252648
O O5 0.417868 0.632496 0.099681
O O6 0.202672 0.092317 0.951393
O O7 0.071617 0.587575 0.800803
O O8 0.103937 0.232016 0.089953
O O9 0.508086 0.026758 0.172539
O O10 0.500000 0.000000 0.000000
O O11 0.201565 0.217103 0.705732
O O12 0.000000 0.500000 0.500000
O O13 0.026551 0.039044 0.700048
O O14 0.205199 0.956776 0.378974
O O15 0.458918 0.247769 0.541899
O O16 0.365577 0.487512 0.621983
#
# Coordination Sequence:
#
# PCOD9060460 Si02
#       8
#     1   2   2   2   2   2   2   2
#     4  12  26  46  72 102 142 190 226 296 362 396
#     4  12  25  48  71 100 146 184 234 287 346 424
#     4  11  23  45  72 102 142 183 230 292 352 408
#     4  12  24  44  72 105 136 184 234 284 350 418
#     4  12  23  43  71 104 136 184 231 279 349 417
#     4  11  23  43  71 103 140 182 230 293 351 409
#     4  11  24  43  73 101 136 188 234 278 349 423
#     4  11  24  47  67 101 146 181 233 292 344 418
#
# _framework density 25.802233999999999
#
# number of rings (size 3 to 8) (size 9 to 14) (size 15 to 20)
#    0.000    0.533    5.333    3.600    1.867    0.000 
#    9.600    2.667    0.000    0.000    0.000    0.000 
#    0.000    0.000    0.000    0.000    0.000    0.000 
#
# Total GULP energy -83576.890425 kJ/mol
# GULP energy per Si atom -5571.792695 kJ/mol
# Density = 2.574351 g / cm^3
# Si number density = 25.802234 Si / 1000 Ang^3
#
#
#
# Elastic Constant Matrix: (Units=GPa)
#
#
# Indices 1 2 3 4 5 6 
#
# 1 120.1217 18.2911 56.4725 -8.9718 -4.8452 27.8478
# 2 18.2911 43.7091 18.2522 -16.3416 -15.9691 1.3327
# 3 56.4725 18.2522 104.6595 -18.4029 -1.9382 1.0306
# 4 -8.9718 -16.3416 -18.4029 55.8175 17.4443 -16.7222
# 5 -4.8452 -15.9691 -1.9382 17.4443 44.2961 -7.7049
# 6 27.8478 1.3327 1.0306 -16.7222 -7.7049 29.7601
#
#
#
# Elastic Compliance Matrix: (Units=1/GPa)
#
#
# Indices 1 2 3 4 5 6 
#
# 1 0.018334 -0.006358 -0.010053 -0.008293 -0.001199 -0.021494
# 2 -0.006358 0.032177 -0.000571 0.008824 0.009482 0.011941
# 3 -0.010053 -0.000571 0.016319 0.007933 -0.001464 0.012946
# 4 -0.008293 0.008824 0.007933 0.030254 -0.005343 0.022707
# 5 -0.001199 0.009482 -0.001464 -0.005343 0.028808 0.005204
# 6 -0.021494 0.011941 0.012946 0.022707 0.005204 0.066838
#
#
# Mechanical properties :
#
#
# Convention : Reuss Voigt Hill
#
# Bulk Modulus (GPa) = 30.42640 50.50242 40.46441
# Shear Modulus (GPa) = 21.03932 37.67304 29.35618
#
# Velocity S-wave (km/s) = 2.85863 3.82523 3.37670
# Velocity P-wave (km/s) = 4.76586 6.25502 5.56052
#
# Compressibility (1/GPa) = 0.03286619
#
# Stress axis : x y z
#
# Youngs Moduli (GPa) = 54.54255 31.07822 61.27766
#
# Poissons Ratio (x) = 0.19759 0.61602
# Poissons Ratio (y) = 0.34678 0.03500
# Poissons Ratio (z) = 0.54831 0.01775
#
# Static dielectric constant tensor:
#      x y z
#    x -0.563590 -0.899260 -1.378460 
#    y -0.899260 1.101940 -0.456370 
#    z -1.378460 -0.456370 1.345050 
# 
# From -- ./inp_files/199063.got.cif
#   From: 2010.05.17/outbox.cif.g08.bks.cpg/sg2_100_cif.got.tgz:199063.got - 2010.06.03 11:33:40.
