data_PCOD9060558
_publ_section_title
;
Structure prediction by ZEFSAII (Michael W. Deem and Ramdas Pophale) SiO2 
 PCOD9060558
Probable space group: P -1
;
_chemical_formula_sum "Si O2"
_cell_formula_units_Z 12
_cell_length_a 9.625723
_cell_length_b 9.352376
_cell_length_c 13.217362
_cell_angle_alpha 43.107890
_cell_angle_beta 64.531704
_cell_angle_gamma 44.013952
_cell_volume 553.557326
_symmetry_space_group_name_H-M "P -1"
_symmetry_group_IT_number 2
_symmetry_cell_setting 'triclinic'
loop_
_space_group_symop_operation_xyz
x,y,z
-x,-y,-z
loop_
_atom_site_type_symbol
_atom_site_label
_atom_site_fract_x
_atom_site_fract_y
_atom_site_fract_z
Si Si1 0.922624 0.845459 0.141330
Si Si2 0.576079 0.650077 0.449128
Si Si3 0.095966 0.221603 0.171481
Si Si4 0.552691 0.948847 0.128327
Si Si5 0.992794 0.161800 0.657357
Si Si6 0.162720 0.205540 0.376455
O O1 0.703499 0.006124 0.072681
O O2 0.899001 0.866115 0.259442
O O3 0.091864 0.512591 0.239186
O O4 0.000000 0.000000 0.000000
O O5 0.500000 0.500000 0.500000
O O6 0.668677 0.682655 0.304117
O O7 0.760787 0.449306 0.572076
O O8 0.397917 0.931450 0.420212
O O9 0.045299 0.227190 0.301665
O O10 0.329987 0.087700 0.168114
O O11 0.034292 0.064478 0.217189
O O12 0.000000 0.500000 0.000000
O O13 0.500000 0.000000 0.000000
O O14 0.103334 0.149770 0.528988
#
# Coordination Sequence:
#
# PCOD9060558 Si02
#       6
#     2   2   2   2   2   2
#     4  12  27  47  70 103 148 187 234 300 362 412
#     4  11  24  43  73 111 134 181 247 286 349 422
#     4  11  24  44  71 105 138 186 241 284 350 432
#     4  11  23  43  72  97 140 187 231 289 348 423
#     4  12  24  47  73 104 147 180 235 307 348 417
#     4  11  24  43  73 103 141 188 234 287 356 422
#
# _framework density 21.677970999999999
#
# number of rings (size 3 to 8) (size 9 to 14) (size 15 to 20)
#    0.000    0.667    5.000    4.000    0.000    0.667 
#    3.000    4.167    0.000    0.000    0.000    0.000 
#    0.000    0.000    0.000    0.000    0.000    0.000 
#
# Total GULP energy -66813.591832 kJ/mol
# GULP energy per Si atom -5567.799319 kJ/mol
# Density = 2.162863 g / cm^3
# Si number density = 21.677971 Si / 1000 Ang^3
#
#
#
# Elastic Constant Matrix: (Units=GPa)
#
#
# Indices 1 2 3 4 5 6 
#
# 1 130.3115 30.0001 39.5258 13.0786 7.7243 16.6817
# 2 30.0001 114.6230 31.4916 5.7194 -1.5468 4.1813
# 3 39.5258 31.4916 113.5200 8.1907 10.2751 17.6334
# 4 13.0786 5.7194 8.1907 36.5134 12.4596 -4.4120
# 5 7.7243 -1.5468 10.2751 12.4596 52.2758 9.0663
# 6 16.6817 4.1813 17.6334 -4.4120 9.0663 20.4015
#
#
#
# Elastic Compliance Matrix: (Units=1/GPa)
#
#
# Indices 1 2 3 4 5 6 
#
# 1 0.009892 -0.001642 -0.001567 -0.004286 0.001180 -0.007849
# 2 -0.001642 0.009809 -0.002303 -0.000695 0.001027 0.000717
# 3 -0.001567 -0.002303 0.011566 -0.002778 0.000093 -0.008885
# 4 -0.004286 -0.000695 -0.002778 0.035449 -0.010476 0.018369
# 5 0.001180 0.001027 0.000093 -0.010476 0.023918 -0.014151
# 6 -0.007849 0.000717 -0.008885 0.018369 -0.014151 0.073227
#
#
# Mechanical properties :
#
#
# Convention : Reuss Voigt Hill
#
# Bulk Modulus (GPa) = 49.40365 62.27661 55.84013
# Shear Modulus (GPa) = 27.52777 39.00063 33.26420
#
# Velocity S-wave (km/s) = 3.56736 4.24617 3.92148
# Velocity P-wave (km/s) = 6.30931 7.26845 6.80580
#
# Compressibility (1/GPa) = 0.02024142
#
# Stress axis : x y z
#
# Youngs Moduli (GPa) = 101.08876 101.94305 86.46168
#
# Poissons Ratio (x) = 0.16744 0.13550
# Poissons Ratio (y) = 0.16603 0.19916
# Poissons Ratio (z) = 0.15842 0.23482
#
# Static dielectric constant tensor:
#      x y z
#    x 1.437950 0.090630 -0.159850 
#    y 0.090630 1.832380 0.009890 
#    z -0.159850 0.009890 1.781140 
# 
# From -- ./inp_files/239349.got.cif
#   From: 2010.05.17/outbox.cif.g08.bks.cpg/sg2_120_cif.got.tgz:239349.got - 2010.06.03 11:33:40.
