data_PCOD9060875
_publ_section_title
;
Structure prediction by ZEFSAII (Michael W. Deem and Ramdas Pophale) SiO2 
 PCOD9060875
Probable space group: P -1
;
_chemical_formula_sum "Si O2"
_cell_formula_units_Z 16
_cell_length_a 9.743781
_cell_length_b 11.293293
_cell_length_c 9.609475
_cell_angle_alpha 72.778106
_cell_angle_beta 43.436347
_cell_angle_gamma 83.883604
_cell_volume 684.898916
_symmetry_space_group_name_H-M "P -1"
_symmetry_group_IT_number 2
_symmetry_cell_setting 'triclinic'
loop_
_space_group_symop_operation_xyz
x,y,z
-x,-y,-z
loop_
_atom_site_type_symbol
_atom_site_label
_atom_site_fract_x
_atom_site_fract_y
_atom_site_fract_z
Si Si1 0.556685 0.138850 0.337183
Si Si2 0.142731 0.164573 0.486374
Si Si3 0.526590 0.202673 0.814553
Si Si4 0.808625 0.253438 0.356467
Si Si5 0.046958 0.524175 0.142917
Si Si6 0.793036 0.263592 0.864084
Si Si7 0.318721 0.421620 0.750367
Si Si8 0.123978 0.107244 0.210222
O O1 0.352914 0.170201 0.408186
O O2 0.643724 0.234044 0.363490
O O3 0.500000 0.000000 0.500000
O O4 0.720294 0.169039 0.080004
O O5 0.166894 0.184716 0.296090
O O6 0.999576 0.244360 0.643801
O O7 0.018453 0.024082 0.629734
O O8 0.700663 0.175041 0.592843
O O9 0.624650 0.241819 0.875979
O O10 0.420244 0.312583 0.785636
O O11 0.341563 0.089251 0.001641
O O12 0.901144 0.389037 0.302906
O O13 0.995368 0.191368 0.187099
O O14 0.166054 0.594135 0.158532
O O15 0.883080 0.611856 0.185394
O O16 0.218064 0.500368 0.914505
O O17 0.500000 0.500000 0.500000
#
# Coordination Sequence:
#
# PCOD9060875 Si02
#       8
#     2   2   2   2   2   2   2   2
#     4  12  27  47  73 110 146 183 244 307 355 426
#     4  11  26  47  74 105 147 189 236 307 359 431
#     4  12  26  45  75 105 139 196 239 296 359 434
#     4  12  25  48  73 109 144 191 244 292 367 429
#     4  11  26  46  70 103 153 189 238 301 350 441
#     4  12  29  46  71 112 146 189 247 291 361 429
#     4  11  23  44  69 103 138 193 237 285 364 417
#     4  11  24  48  74 104 146 188 243 297 365 428
#
# _framework density 23.361113
#
# number of rings (size 3 to 8) (size 9 to 14) (size 15 to 20)
#    0.000    0.500    6.250    1.500    3.500    2.000 
#    0.000    0.000    0.000    0.000    0.000    0.000 
#    0.000    0.000    0.000    0.000    0.000    0.000 
#
# Total GULP energy -89377.670668 kJ/mol
# GULP energy per Si atom -5586.104417 kJ/mol
# Density = 2.330794 g / cm^3
# Si number density = 23.361113 Si / 1000 Ang^3
#
#
#
# Elastic Constant Matrix: (Units=GPa)
#
#
# Indices 1 2 3 4 5 6 
#
# 1 108.7028 15.3265 13.5158 -3.2527 -11.6039 22.7064
# 2 15.3265 58.6324 10.7396 -1.5255 -5.7128 23.3228
# 3 13.5158 10.7396 120.7806 3.1819 -16.6919 16.9228
# 4 -3.2527 -1.5255 3.1819 27.2730 -2.3801 1.9689
# 5 -11.6039 -5.7128 -16.6919 -2.3801 39.9052 2.5413
# 6 22.7064 23.3228 16.9228 1.9689 2.5413 41.7997
#
#
#
# Elastic Compliance Matrix: (Units=1/GPa)
#
#
# Indices 1 2 3 4 5 6 
#
# 1 0.010973 0.000069 0.000128 0.002088 0.003785 -0.006379
# 2 0.000069 0.022747 0.000374 0.002582 0.004432 -0.013272
# 3 0.000128 0.000374 0.009444 -0.000377 0.004295 -0.004345
# 4 0.002088 0.002582 -0.000377 0.037714 0.003349 -0.004402
# 5 0.003785 0.004432 0.004295 0.003349 0.029314 -0.008208
# 6 -0.006379 -0.013272 -0.004345 -0.004402 -0.008208 0.037260
#
#
# Mechanical properties :
#
#
# Convention : Reuss Voigt Hill
#
# Bulk Modulus (GPa) = 22.57055 40.80886 31.68970
# Shear Modulus (GPa) = 31.04065 38.36452 34.70259
#
# Velocity S-wave (km/s) = 3.64913 4.05685 3.85838
# Velocity P-wave (km/s) = 5.23808 6.28098 5.78308
#
# Compressibility (1/GPa) = 0.04430551
#
# Stress axis : x y z
#
# Youngs Moduli (GPa) = 91.13393 43.96124 105.88450
#
# Poissons Ratio (x) = -0.00303 -0.01354
# Poissons Ratio (y) = -0.00629 -0.03957
# Poissons Ratio (z) = -0.01165 -0.01643
#
# Static dielectric constant tensor:
#      x y z
#    x 1.880730 -0.046080 0.043570 
#    y -0.046080 1.887080 -0.039000 
#    z 0.043570 -0.039000 1.952470 
# 
# From -- ./inp_files/187348.got.cif
#   From: 2010.05.17/outbox.cif.g08.bks.cpg/sg2_94_cif.got.tgz:187348.got - 2010.06.03 11:33:40.
