data_PCOD9060836
_publ_section_title
;
Structure prediction by ZEFSAII (Michael W. Deem and Ramdas Pophale) SiO2 
 PCOD9060836
Probable space group: P -1
;
_chemical_formula_sum "Si O2"
_cell_formula_units_Z 14
_cell_length_a 6.508880
_cell_length_b 14.549489
_cell_length_c 15.056869
_cell_angle_alpha 151.541134
_cell_angle_beta 104.943138
_cell_angle_gamma 87.776946
_cell_volume 599.334636
_symmetry_space_group_name_H-M "P -1"
_symmetry_group_IT_number 2
_symmetry_cell_setting 'triclinic'
loop_
_space_group_symop_operation_xyz
x,y,z
-x,-y,-z
loop_
_atom_site_type_symbol
_atom_site_label
_atom_site_fract_x
_atom_site_fract_y
_atom_site_fract_z
Si Si1 0.315040 0.615537 0.288058
Si Si2 0.753384 0.812284 0.793089
Si Si3 0.100177 0.818564 0.149518
Si Si4 0.826695 0.037281 0.378474
Si Si5 0.391999 0.886557 0.068406
Si Si6 0.498398 0.272468 0.785108
Si Si7 0.582252 0.483573 0.350630
O O1 0.461246 0.736771 0.322511
O O2 0.483455 0.604542 0.374358
O O3 0.154222 0.730585 0.401515
O O4 0.146777 0.380376 0.041655
O O5 0.759798 0.652722 0.581217
O O6 0.632870 0.671789 0.745294
O O7 0.590229 0.925839 0.835860
O O8 0.000000 0.000000 0.000000
O O9 0.191180 0.860111 0.094620
O O10 0.285618 0.758609 0.171861
O O11 0.051000 0.010160 0.346065
O O12 0.626180 0.945361 0.202177
O O13 0.727818 0.900587 0.340417
O O14 0.332327 0.669472 0.824793
O O15 0.500000 0.500000 0.000000
#
# Coordination Sequence:
#
# PCOD9060836 Si02
#       7
#     2   2   2   2   2   2   2
#     4  12  22  43  68  99 136 182 237 280 348 419
#     4  11  25  45  74 107 139 180 238 292 361 429
#     4  11  24  43  67 102 137 185 233 277 348 415
#     4  11  24  42  69  98 139 184 224 286 341 411
#     4  11  23  46  69 101 143 178 228 293 346 416
#     4  11  23  44  68  96 146 181 224 293 342 404
#     4  11  24  46  73 103 142 187 230 296 359 413
#
# _framework density 23.359237
#
# number of rings (size 3 to 8) (size 9 to 14) (size 15 to 20)
#    0.000    0.857    4.286    3.000    0.000    2.286 
#    5.143    0.000    0.000    0.000    0.000    0.000 
#    0.000    0.000    0.000    0.000    0.000    0.000 
#
# Total GULP energy -78470.350486 kJ/mol
# GULP energy per Si atom -5605.025035 kJ/mol
# Density = 2.330607 g / cm^3
# Si number density = 23.359237 Si / 1000 Ang^3
#
#
#
# Elastic Constant Matrix: (Units=GPa)
#
#
# Indices 1 2 3 4 5 6 
#
# 1 80.5939 17.7922 34.9040 -17.5393 -24.7646 0.3788
# 2 17.7922 123.4202 19.5231 -15.0029 -10.8413 6.5666
# 3 34.9040 19.5231 110.0394 -5.1723 -17.5167 1.0187
# 4 -17.5393 -15.0029 -5.1723 29.1624 -3.5848 -11.0103
# 5 -24.7646 -10.8413 -17.5167 -3.5848 63.7849 7.8358
# 6 0.3788 6.5666 1.0187 -11.0103 7.8358 24.2502
#
#
#
# Elastic Compliance Matrix: (Units=1/GPa)
#
#
# Indices 1 2 3 4 5 6 
#
# 1 0.019115 -0.000122 -0.004446 0.012819 0.006451 0.003657
# 2 -0.000122 0.008989 -0.001107 0.004170 0.001532 -0.000987
# 3 -0.004446 -0.001107 0.010804 -0.001639 0.001106 -0.001186
# 4 0.012819 0.004170 -0.001639 0.052360 0.005636 0.020691
# 5 0.006451 0.001532 0.001106 0.005636 0.019596 -0.004335
# 6 0.003657 -0.000987 -0.001186 0.020691 -0.004335 0.052292
#
#
# Mechanical properties :
#
#
# Convention : Reuss Voigt Hill
#
# Bulk Modulus (GPa) = 36.28651 50.94357 43.61504
# Shear Modulus (GPa) = 27.21940 39.56176 33.39058
#
# Velocity S-wave (km/s) = 3.41728 4.11983 3.78489
# Velocity P-wave (km/s) = 5.58017 6.66984 6.14919
#
# Compressibility (1/GPa) = 0.02755845
#
# Stress axis : x y z
#
# Youngs Moduli (GPa) = 52.31484 111.24487 92.55505
#
# Poissons Ratio (x) = 0.01357 0.41150
# Poissons Ratio (y) = 0.00638 0.10247
# Poissons Ratio (z) = 0.23259 0.12316
#
# Static dielectric constant tensor:
#      x y z
#    x 1.848920 -0.003010 -0.008720 
#    y -0.003010 1.851760 -0.017850 
#    z -0.008720 -0.017850 1.870150 
# 
# From -- ./inp_files/484093.got.cif
#   From: 2010.05.17/outbox.cif.g08.bks.cpg/sg2_243_cif.got.tgz:484093.got - 2010.06.03 11:33:40.
