data_PCOD9060820
_publ_section_title
;
Structure prediction by ZEFSAII (Michael W. Deem and Ramdas Pophale) SiO2 
 PCOD9060820
Probable space group: P -1
;
_chemical_formula_sum "Si O2"
_cell_formula_units_Z 16
_cell_length_a 17.622637
_cell_length_b 10.777900
_cell_length_c 8.239851
_cell_angle_alpha 58.589275
_cell_angle_beta 130.530233
_cell_angle_gamma 146.895789
_cell_volume 648.660951
_symmetry_space_group_name_H-M "P -1"
_symmetry_group_IT_number 2
_symmetry_cell_setting 'triclinic'
loop_
_space_group_symop_operation_xyz
x,y,z
-x,-y,-z
loop_
_atom_site_type_symbol
_atom_site_label
_atom_site_fract_x
_atom_site_fract_y
_atom_site_fract_z
Si Si1 0.274548 0.316336 0.808456
Si Si2 0.682580 0.175317 0.669408
Si Si3 0.505389 0.331688 0.651930
Si Si4 0.987461 0.487744 0.682561
Si Si5 0.823849 0.552049 0.869154
Si Si6 0.569868 0.761810 0.751880
Si Si7 0.778636 0.994799 0.315494
Si Si8 0.970780 0.006339 0.768300
O O1 0.398363 0.559831 0.729550
O O2 0.228018 0.141671 0.731445
O O3 0.359518 0.318745 0.066765
O O4 0.126722 0.226678 0.741814
O O5 0.746366 0.355825 0.768703
O O6 0.811928 0.324142 0.606739
O O7 0.500000 0.000000 0.500000
O O8 0.674898 0.996819 0.829941
O O9 0.500000 0.500000 0.500000
O O10 0.679624 0.464178 0.825213
O O11 0.442950 0.208390 0.473498
O O12 0.395585 0.160080 0.763934
O O13 0.000000 0.500000 0.500000
O O14 0.106128 0.744045 0.739310
O O15 0.051017 0.403863 0.890796
O O16 0.911180 0.788765 0.754403
O O17 0.846406 0.991678 0.574284
O O18 0.000000 0.000000 0.000000
#
# Coordination Sequence:
#
# PCOD9060820 Si02
#       8
#     2   2   2   2   2   2   2   2
#     4  11  24  40  70 104 140 186 248 304 371 430
#     4  12  26  48  77 106 152 198 248 298 377 455
#     4  12  23  46  71 107 147 192 247 303 376 433
#     4  12  28  50  73 111 151 196 251 310 373 445
#     4  12  26  49  78 106 149 204 243 303 379 448
#     4  11  23  44  68 105 143 187 240 306 361 444
#     4  12  25  44  71 103 149 186 247 316 357 443
#     4  12  25  44  73 104 141 196 249 307 376 440
#
# _framework density 24.666201999999998
#
# number of rings (size 3 to 8) (size 9 to 14) (size 15 to 20)
#    0.000    0.250    3.750    5.250    1.750    0.500 
#    2.250    0.000    0.000    0.000    0.000    0.000 
#    0.000    0.000    0.000    0.000    0.000    0.000 
#
# Total GULP energy -89658.190900 kJ/mol
# GULP energy per Si atom -5603.636931 kJ/mol
# Density = 2.461006 g / cm^3
# Si number density = 24.666202 Si / 1000 Ang^3
#
#
#
# Elastic Constant Matrix: (Units=GPa)
#
#
# Indices 1 2 3 4 5 6 
#
# 1 114.3411 51.6772 17.0234 12.7497 3.4034 26.1028
# 2 51.6772 153.7626 -6.1793 5.4092 0.7835 6.5647
# 3 17.0234 -6.1793 78.9229 8.8383 14.0864 6.6724
# 4 12.7497 5.4092 8.8383 34.6010 -6.8930 8.0429
# 5 3.4034 0.7835 14.0864 -6.8930 32.7770 7.9736
# 6 26.1028 6.5647 6.6724 8.0429 7.9736 63.1448
#
#
#
# Elastic Compliance Matrix: (Units=1/GPa)
#
#
# Indices 1 2 3 4 5 6 
#
# 1 0.012021 -0.003886 -0.002379 -0.002184 0.000402 -0.004086
# 2 -0.003886 0.007863 0.001585 -0.000539 -0.000770 0.000788
# 3 -0.002379 0.001585 0.015134 -0.004921 -0.007524 0.000796
# 4 -0.002184 -0.000539 -0.004921 0.034126 0.010553 -0.004200
# 5 0.000402 -0.000770 -0.007524 0.010553 0.037237 -0.005337
# 6 -0.004086 0.000788 0.000796 -0.004200 -0.005337 0.018569
#
#
# Mechanical properties :
#
#
# Convention : Reuss Voigt Hill
#
# Bulk Modulus (GPa) = 38.97426 52.45213 45.71320
# Shear Modulus (GPa) = 34.99886 45.07159 40.03523
#
# Velocity S-wave (km/s) = 3.77091 4.27928 4.03312
# Velocity P-wave (km/s) = 5.89870 6.76220 6.34516
#
# Compressibility (1/GPa) = 0.02565796
#
# Stress axis : x y z
#
# Youngs Moduli (GPa) = 83.18882 127.18395 66.07456
#
# Poissons Ratio (x) = 0.49428 0.15717
# Poissons Ratio (y) = 0.32330 -0.10474
# Poissons Ratio (z) = 0.19788 -0.20160
#
# Static dielectric constant tensor:
#      x y z
#    x 1.959090 -0.044520 -0.024360 
#    y -0.044520 1.948180 0.038760 
#    z -0.024360 0.038760 2.052330 
# 
# From -- ./inp_files/333064.got.cif
#   From: 2010.05.17/outbox.cif.g08.bks.cpg/sg2_167_cif.got.tgz:333064.got - 2010.06.03 11:33:40.
