data_PCOD9060379
_publ_section_title
;
Structure prediction by ZEFSAII (Michael W. Deem and Ramdas Pophale) SiO2 
 PCOD9060379
Probable space group: P -1
;
_chemical_formula_sum "Si O2"
_cell_formula_units_Z 15
_cell_length_a 10.018235
_cell_length_b 7.695945
_cell_length_c 16.380088
_cell_angle_alpha 48.160295
_cell_angle_beta 142.789858
_cell_angle_gamma 122.822267
_cell_volume 568.824332
_symmetry_space_group_name_H-M "P -1"
_symmetry_group_IT_number 2
_symmetry_cell_setting 'triclinic'
loop_
_space_group_symop_operation_xyz
x,y,z
-x,-y,-z
loop_
_atom_site_type_symbol
_atom_site_label
_atom_site_fract_x
_atom_site_fract_y
_atom_site_fract_z
Si Si1 0.981076 0.733050 0.599170
Si Si2 0.493186 0.775417 0.302070
Si Si3 0.322436 0.342766 0.276877
Si Si4 0.857925 0.379207 0.104792
Si Si5 0.118223 0.263950 0.751671
Si Si6 0.352957 0.877901 0.370963
Si Si7 0.628567 0.738957 0.961820
Si Si8 0.500000 0.000000 0.000000
O O1 0.722745 0.677985 0.475868
O O2 0.057122 0.696931 0.740221
O O3 0.110259 0.543439 0.667110
O O4 0.000000 0.000000 0.500000
O O5 0.400811 0.609569 0.238259
O O6 0.330706 0.778782 0.300256
O O7 0.513082 0.045873 0.201683
O O8 0.437570 0.231565 0.448279
O O9 0.060285 0.342093 0.155550
O O10 0.392862 0.157518 0.301801
O O11 0.798024 0.648297 0.006012
O O12 0.643998 0.238679 0.013200
O O13 0.866059 0.174928 0.664953
O O14 0.284085 0.150802 0.805293
O O15 0.243588 0.170251 0.923763
O O16 0.500000 0.500000 0.000000
#
# Coordination Sequence:
#
# PCOD9060379 Si02
#       8
#     2   2   2   2   2   2   2   1
#     4  11  24  42  71 101 131 186 244 293 351 424
#     4  12  23  44  72 107 139 180 242 292 356 424
#     4  11  23  43  70 104 141 180 232 295 355 420
#     4  11  23  44  69  94 139 192 229 287 363 417
#     4  11  23  44  69  94 139 192 229 287 363 417
#     4  11  23  43  70 104 141 180 232 295 355 420
#     4  11  24  44  68  96 139 187 231 288 355 426
#     4  12  24  42  68 102 136 190 234 282 360 430
#
# _framework density 26.370177999999999
#
# number of rings (size 3 to 8) (size 9 to 14) (size 15 to 20)
#    0.000    0.800    5.333    3.600    0.000    2.133 
#    2.400    2.000    0.000    0.000    0.000    0.000 
#    0.000    0.000    0.000    0.000    0.000    0.000 
#
# Total GULP energy -83736.339413 kJ/mol
# GULP energy per Si atom -5582.422628 kJ/mol
# Density = 2.631016 g / cm^3
# Si number density = 26.370178 Si / 1000 Ang^3
#
#
#
# Elastic Constant Matrix: (Units=GPa)
#
#
# Indices 1 2 3 4 5 6 
#
# 1 53.9886 26.8750 36.5918 -14.8794 15.7695 -0.9901
# 2 26.8750 125.8896 33.2820 -7.1390 -0.0232 -3.4222
# 3 36.5918 33.2820 150.3381 -13.2173 12.0841 7.1271
# 4 -14.8794 -7.1390 -13.2173 62.2601 7.7632 11.2999
# 5 15.7695 -0.0232 12.0841 7.7632 37.3534 12.0184
# 6 -0.9901 -3.4222 7.1271 11.2999 12.0184 19.8515
#
#
#
# Elastic Compliance Matrix: (Units=1/GPa)
#
#
# Indices 1 2 3 4 5 6 
#
# 1 0.030488 -0.004610 -0.005038 0.006081 -0.015164 0.008253
# 2 -0.004610 0.009229 -0.001205 -0.000733 0.002214 0.000870
# 3 -0.005038 -0.001205 0.008414 0.001190 0.000614 -0.004529
# 4 0.006081 -0.000733 0.001190 0.019840 -0.004175 -0.009016
# 5 -0.015164 0.002214 0.000614 -0.004175 0.041319 -0.023233
# 6 0.008253 0.000870 -0.004529 -0.009016 -0.023233 0.071760
#
#
# Mechanical properties :
#
#
# Convention : Reuss Voigt Hill
#
# Bulk Modulus (GPa) = 37.84191 58.19044 48.01617
# Shear Modulus (GPa) = 23.63343 39.45751 31.54547
#
# Velocity S-wave (km/s) = 2.99694 3.87239 3.46244
# Velocity P-wave (km/s) = 5.13390 6.48911 5.85088
#
# Compressibility (1/GPa) = 0.02642573
#
# Stress axis : x y z
#
# Youngs Moduli (GPa) = 32.79936 108.35831 118.84248
#
# Poissons Ratio (x) = 0.49957 0.59872
# Poissons Ratio (y) = 0.15122 0.14316
# Poissons Ratio (z) = 0.16524 0.13053
#
# Static dielectric constant tensor:
#      x y z
#    x -5.168300 1.686170 -2.428080 
#    y 1.686170 1.710180 0.524370 
#    z -2.428080 0.524370 1.187900 
# 
# From -- ./inp_files/593422.got.cif
#   From: 2010.05.17/outbox.cif.g08.bks.cpg/sg2_297_cif.got.tgz:593422.got - 2010.06.03 11:33:40.
