data_PCOD9060817
_publ_section_title
;
Structure prediction by ZEFSAII (Michael W. Deem and Ramdas Pophale) SiO2 
 PCOD9060817
Probable space group: P -1
;
_chemical_formula_sum "Si O2"
_cell_formula_units_Z 16
_cell_length_a 17.613422
_cell_length_b 9.449626
_cell_length_c 11.745810
_cell_angle_alpha 62.845813
_cell_angle_beta 52.908573
_cell_angle_gamma 30.835815
_cell_volume 790.255111
_symmetry_space_group_name_H-M "P -1"
_symmetry_group_IT_number 2
_symmetry_cell_setting 'triclinic'
loop_
_space_group_symop_operation_xyz
x,y,z
-x,-y,-z
loop_
_atom_site_type_symbol
_atom_site_label
_atom_site_fract_x
_atom_site_fract_y
_atom_site_fract_z
Si Si1 0.076978 0.716055 0.524992
Si Si2 0.717323 0.158047 0.701077
Si Si3 0.645214 0.756474 0.373660
Si Si4 0.562245 0.080454 0.967381
Si Si5 0.837988 0.626085 0.061466
Si Si6 0.647072 0.414115 0.431708
Si Si7 0.734204 0.391388 0.798934
Si Si8 0.042270 0.902780 0.867305
O O1 0.190797 0.516174 0.602137
O O2 0.190961 0.571614 0.363067
O O3 0.000000 0.000000 0.500000
O O4 0.910858 0.838637 0.630854
O O5 0.686871 0.309733 0.563536
O O6 0.697499 0.293494 0.783060
O O7 0.594977 0.176101 0.812198
O O8 0.700282 0.818150 0.216001
O O9 0.589614 0.675802 0.386445
O O10 0.500000 0.000000 0.500000
O O11 0.424521 0.331988 0.088848
O O12 0.739145 0.815750 0.969479
O O13 0.500000 0.000000 0.000000
O O14 0.892892 0.367241 0.095901
O O15 0.000000 0.500000 0.000000
O O16 0.500000 0.500000 0.500000
O O17 0.812009 0.187200 0.286601
O O18 0.879870 0.142618 0.846409
O O19 0.000000 0.000000 0.000000
#
# Coordination Sequence:
#
# PCOD9060817 Si02
#       8
#     2   2   2   2   2   2   2   2
#     4  10  17  39  68  92 120 160 222 268 307 376
#     4  11  22  43  70  94 124 173 230 263 311 398
#     4  11  22  39  66  97 127 160 211 275 321 377
#     4  12  27  42  63  97 140 172 211 275 336 383
#     4  11  24  43  63  93 132 172 213 261 332 389
#     4  11  24  41  66  98 130 173 215 269 329 383
#     4  11  21  42  71  97 122 169 226 266 316 392
#     4  11  24  43  68  96 131 170 214 270 327 392
#
# _framework density 20.246624000000001
#
# number of rings (size 3 to 8) (size 9 to 14) (size 15 to 20)
#    0.000    1.000    3.750    5.625    5.250    1.000 
#    0.000    1.875    0.000    0.000    0.000    0.000 
#    0.000    0.000    0.000    0.000    0.000    0.000 
#
# Total GULP energy -89375.022659 kJ/mol
# GULP energy per Si atom -5585.938916 kJ/mol
# Density = 2.020054 g / cm^3
# Si number density = 20.246624 Si / 1000 Ang^3
#
#
#
# Elastic Constant Matrix: (Units=GPa)
#
#
# Indices 1 2 3 4 5 6 
#
# 1 105.2491 18.8152 43.9550 13.8460 -13.6873 -3.5107
# 2 18.8152 49.6603 12.1048 8.5865 -5.2336 -7.6299
# 3 43.9550 12.1048 136.9939 12.3177 -14.2895 16.5981
# 4 13.8460 8.5865 12.3177 30.1554 -8.4253 5.2579
# 5 -13.6873 -5.2336 -14.2895 -8.4253 38.5523 -4.1693
# 6 -3.5107 -7.6299 16.5981 5.2579 -4.1693 23.3917
#
#
#
# Elastic Compliance Matrix: (Units=1/GPa)
#
#
# Indices 1 2 3 4 5 6 
#
# 1 0.012473 -0.002070 -0.003855 -0.003787 0.002455 0.005221
# 2 -0.002070 0.024399 -0.002052 -0.006622 0.001545 0.010867
# 3 -0.003855 -0.002052 0.009801 0.000065 0.001133 -0.008015
# 4 -0.003787 -0.006622 0.000065 0.040154 0.005383 -0.010840
# 5 0.002455 0.001545 0.001133 0.005383 0.029053 0.004037
# 6 0.005221 0.010867 -0.008015 -0.010840 0.004037 0.055922
#
#
# Mechanical properties :
#
#
# Convention : Reuss Voigt Hill
#
# Bulk Modulus (GPa) = 32.55327 49.07258 40.81292
# Shear Modulus (GPa) = 25.25306 32.88844 29.07075
#
# Velocity S-wave (km/s) = 3.53551 4.03475 3.79335
# Velocity P-wave (km/s) = 5.72535 6.78201 6.27596
#
# Compressibility (1/GPa) = 0.03071888
#
# Stress axis : x y z
#
# Youngs Moduli (GPa) = 80.17298 40.98567 102.02793
#
# Poissons Ratio (x) = 0.08485 0.39332
# Poissons Ratio (y) = 0.16598 0.20934
# Poissons Ratio (z) = 0.30907 0.08409
#
# Static dielectric constant tensor:
#      x y z
#    x 1.832820 -0.058320 0.034700 
#    y -0.058320 1.738130 -0.019590 
#    z 0.034700 -0.019590 1.788650 
# 
# From -- ./inp_files/357781.got.cif
#   From: 2010.05.17/outbox.cif.g08.bks.cpg/sg2_179_cif.got.tgz:357781.got - 2010.06.03 11:33:40.
