data_PCOD9060166
_publ_section_title
;
Structure prediction by ZEFSAII (Michael W. Deem and Ramdas Pophale) SiO2 
 PCOD9060166
Probable space group: P -1
;
_chemical_formula_sum "Si O2"
_cell_formula_units_Z 16
_cell_length_a 18.006850
_cell_length_b 12.519590
_cell_length_c 15.294887
_cell_angle_alpha 151.575834
_cell_angle_beta 148.086832
_cell_angle_gamma 50.222196
_cell_volume 785.745276
_symmetry_space_group_name_H-M "P -1"
_symmetry_group_IT_number 2
_symmetry_cell_setting 'triclinic'
loop_
_space_group_symop_operation_xyz
x,y,z
-x,-y,-z
loop_
_atom_site_type_symbol
_atom_site_label
_atom_site_fract_x
_atom_site_fract_y
_atom_site_fract_z
Si Si1 0.744508 0.272527 0.709637
Si Si2 0.107239 0.984259 0.212742
Si Si3 0.700307 0.056951 0.329733
Si Si4 0.357369 0.707167 0.719950
Si Si5 0.908729 0.795594 0.332850
Si Si6 0.443057 0.348248 0.424712
Si Si7 0.107436 0.909399 0.789149
Si Si8 0.875729 0.576495 0.563768
O O1 0.780172 0.240452 0.621203
O O2 0.576456 0.275416 0.542255
O O3 0.767127 0.064548 0.639811
O O4 0.862840 0.529668 0.053912
O O5 0.170409 0.248540 0.418287
O O6 0.971497 0.981762 0.140126
O O7 0.028735 0.768712 0.906591
O O8 0.730771 0.190748 0.362963
O O9 0.756259 0.840185 0.231456
O O10 0.514885 0.938454 0.072635
O O11 0.410933 0.529938 0.589746
O O12 0.251997 0.561628 0.589495
O O13 0.005915 0.844167 0.552959
O O14 0.000000 0.000000 0.500000
O O15 0.500000 0.500000 0.500000
O O16 0.279953 0.108623 0.081548
O O17 0.105477 0.647876 0.627904
#
# Coordination Sequence:
#
# PCOD9060166 Si02
#       8
#     2   2   2   2   2   2   2   2
#     4  12  24  45  65 100 138 174 222 281 328 397
#     4  11  25  45  70  96 133 181 230 283 329 388
#     4  11  24  40  67  96 140 172 218 274 342 405
#     4  11  23  43  67 100 136 183 216 273 346 405
#     4  12  25  37  64 101 137 171 221 274 337 400
#     4  12  24  42  68 102 139 179 217 268 342 413
#     4  12  24  44  70  99 131 180 225 273 339 401
#     4  11  24  45  69  97 134 177 232 278 332 396
#
# _framework density 20.362832999999998
#
# number of rings (size 3 to 8) (size 9 to 14) (size 15 to 20)
#    0.000    0.500    6.250    2.625    1.750    0.500 
#    0.000    3.125    0.000    0.000    0.000    0.000 
#    0.000    0.000    0.000    0.000    0.000    0.000 
#
# Total GULP energy -89509.203585 kJ/mol
# GULP energy per Si atom -5594.325224 kJ/mol
# Density = 2.031649 g / cm^3
# Si number density = 20.362833 Si / 1000 Ang^3
#
#
#
# Elastic Constant Matrix: (Units=GPa)
#
#
# Indices 1 2 3 4 5 6 
#
# 1 39.6567 20.9600 13.9962 4.0926 3.2605 7.1473
# 2 20.9600 157.1581 47.4602 -1.0609 12.8080 11.1318
# 3 13.9962 47.4602 95.8804 3.8313 -7.3331 10.4310
# 4 4.0926 -1.0609 3.8313 29.5214 -2.3180 -3.3514
# 5 3.2605 12.8080 -7.3331 -2.3180 35.4544 10.5961
# 6 7.1473 11.1318 10.4310 -3.3514 10.5961 34.0568
#
#
#
# Elastic Compliance Matrix: (Units=1/GPa)
#
#
# Indices 1 2 3 4 5 6 
#
# 1 0.028845 -0.002795 -0.002232 -0.004409 -0.001027 -0.004571
# 2 -0.002795 0.008221 -0.004010 0.000960 -0.003580 0.000336
# 3 -0.002232 -0.004010 0.013715 -0.001663 0.005683 -0.004353
# 4 -0.004409 0.000960 -0.001663 0.035288 0.000716 0.004370
# 5 -0.001027 -0.003580 0.005683 0.000716 0.034068 -0.010884
# 6 -0.004571 0.000336 -0.004353 0.004370 -0.010884 0.035362
#
#
# Mechanical properties :
#
#
# Convention : Reuss Voigt Hill
#
# Bulk Modulus (GPa) = 30.57525 50.83643 40.70584
# Shear Modulus (GPa) = 27.10381 33.82512 30.46446
#
# Velocity S-wave (km/s) = 3.65230 4.08011 3.87212
# Velocity P-wave (km/s) = 5.73006 6.87138 6.32651
#
# Compressibility (1/GPa) = 0.03270619
#
# Stress axis : x y z
#
# Youngs Moduli (GPa) = 34.66832 121.63523 72.91177
#
# Poissons Ratio (x) = 0.34000 0.16275
# Poissons Ratio (y) = 0.09691 0.29239
# Poissons Ratio (z) = 0.07738 0.48778
#
# Static dielectric constant tensor:
#      x y z
#    x 1.726620 -0.039980 -0.014810 
#    y -0.039980 1.740970 0.003750 
#    z -0.014810 0.003750 1.715500 
# 
# From -- ./inp_files/208553.got.cif
#   From: 2010.05.17/outbox.cif.g08.bks.cpg/sg2_105_cif.got.tgz:208553.got - 2010.06.03 11:33:40.
