data_PCOD9060596
_publ_section_title
;
Structure prediction by ZEFSAII (Michael W. Deem and Ramdas Pophale) SiO2 
 PCOD9060596
Probable space group: P -1
;
_chemical_formula_sum "Si O2"
_cell_formula_units_Z 12
_cell_length_a 6.682249
_cell_length_b 13.961669
_cell_length_c 8.055883
_cell_angle_alpha 50.928455
_cell_angle_beta 104.947191
_cell_angle_gamma 112.167604
_cell_volume 540.152645
_symmetry_space_group_name_H-M "P -1"
_symmetry_group_IT_number 2
_symmetry_cell_setting 'triclinic'
loop_
_space_group_symop_operation_xyz
x,y,z
-x,-y,-z
loop_
_atom_site_type_symbol
_atom_site_label
_atom_site_fract_x
_atom_site_fract_y
_atom_site_fract_z
Si Si1 0.089926 0.158291 0.340418
Si Si2 0.977357 0.829951 0.313491
Si Si3 0.731775 0.265402 0.031135
Si Si4 0.632737 0.938334 0.966023
Si Si5 0.185335 0.630555 0.418224
Si Si6 0.550356 0.364249 0.193854
O O1 0.339929 0.237808 0.277681
O O2 0.041070 0.203837 0.462091
O O3 0.944905 0.216994 0.124122
O O4 0.000000 0.000000 0.500000
O O5 0.058065 0.732456 0.327199
O O6 0.169677 0.960544 0.190290
O O7 0.751641 0.849356 0.187038
O O8 0.533412 0.136673 0.123561
O O9 0.709475 0.345446 0.101263
O O10 0.709707 0.335157 0.777672
O O11 0.500000 0.000000 0.000000
O O12 0.656168 0.369836 0.393145
O O13 0.000000 0.500000 0.500000
O O14 0.500000 0.500000 0.000000
#
# Coordination Sequence:
#
# PCOD9060596 Si02
#       6
#     2   2   2   2   2   2
#     4  12  27  46  76 113 150 192 246 306 371 437
#     4  11  25  44  72 108 151 187 247 303 363 443
#     4  12  27  47  78 107 150 190 247 307 368 439
#     4  11  23  43  73 110 148 192 240 300 372 438
#     4  12  28  49  76 107 147 199 248 303 370 437
#     4  12  30  52  75 110 148 197 252 304 370 444
#
# _framework density 22.215944
#
# number of rings (size 3 to 8) (size 9 to 14) (size 15 to 20)
#    0.000    0.333    3.333    4.000   11.667    3.333 
#    0.000    0.000    0.000    0.000    0.000    0.000 
#    0.000    0.000    0.000    0.000    0.000    0.000 
#
# Total GULP energy -67084.673196 kJ/mol
# GULP energy per Si atom -5590.389433 kJ/mol
# Density = 2.216538 g / cm^3
# Si number density = 22.215944 Si / 1000 Ang^3
#
#
#
# Elastic Constant Matrix: (Units=GPa)
#
#
# Indices 1 2 3 4 5 6 
#
# 1 88.6853 26.8478 53.7940 11.4461 4.3988 15.9084
# 2 26.8478 92.9801 44.7924 4.7932 1.4378 23.0913
# 3 53.7940 44.7924 127.0988 19.2767 7.2127 -4.8925
# 4 11.4461 4.7932 19.2767 38.5964 -1.7286 -4.8785
# 5 4.3988 1.4378 7.2127 -1.7286 44.9639 9.0969
# 6 15.9084 23.0913 -4.8925 -4.8785 9.0969 43.1223
#
#
#
# Elastic Compliance Matrix: (Units=1/GPa)
#
#
# Indices 1 2 3 4 5 6 
#
# 1 0.017418 0.000820 -0.007671 -0.002429 0.001073 -0.008236
# 2 0.000820 0.016207 -0.006574 -0.000158 0.002529 -0.010278
# 3 -0.007671 -0.006574 0.014415 -0.003202 -0.003152 0.008288
# 4 -0.002429 -0.000158 -0.003202 0.028758 0.001127 0.003633
# 5 0.001073 0.002529 -0.003152 0.001127 0.024029 -0.007050
# 6 -0.008236 -0.010278 0.008288 0.003633 -0.007050 0.034571
#
#
# Mechanical properties :
#
#
# Convention : Reuss Voigt Hill
#
# Bulk Modulus (GPa) = 47.19084 62.18139 54.68611
# Shear Modulus (GPa) = 29.53160 37.55852 33.54506
#
# Velocity S-wave (km/s) = 3.64991 4.11616 3.89003
# Velocity P-wave (km/s) = 6.24903 7.11623 6.69668
#
# Compressibility (1/GPa) = 0.02119056
#
# Stress axis : x y z
#
# Youngs Moduli (GPa) = 57.41153 61.70266 69.37375
#
# Poissons Ratio (x) = -0.05059 0.53214
# Poissons Ratio (y) = -0.04707 0.45605
# Poissons Ratio (z) = 0.44038 0.40562
#
# Static dielectric constant tensor:
#      x y z
#    x 1.873150 0.042860 -0.007320 
#    y 0.042860 1.824720 -0.041090 
#    z -0.007320 -0.041090 1.893040 
# 
# From -- ./inp_files/133905.got.cif
#   From: 2010.05.17/outbox.cif.g08.bks.cpg/sg2_67_cif.got.tgz:133905.got - 2010.06.03 11:33:40.
