data_PCOD9060892
_publ_section_title
;
Structure prediction by ZEFSAII (Michael W. Deem and Ramdas Pophale) SiO2 
 PCOD9060892
Probable space group: P -1
;
_chemical_formula_sum "Si O2"
_cell_formula_units_Z 16
_cell_length_a 12.584556
_cell_length_b 14.800689
_cell_length_c 13.079919
_cell_angle_alpha 99.732481
_cell_angle_beta 99.068552
_cell_angle_gamma 19.287212
_cell_volume 793.112426
_symmetry_space_group_name_H-M "P -1"
_symmetry_group_IT_number 2
_symmetry_cell_setting 'triclinic'
loop_
_space_group_symop_operation_xyz
x,y,z
-x,-y,-z
loop_
_atom_site_type_symbol
_atom_site_label
_atom_site_fract_x
_atom_site_fract_y
_atom_site_fract_z
Si Si1 0.325033 0.540756 0.494498
Si Si2 0.832080 0.537490 0.978304
Si Si3 0.327676 0.921188 0.622789
Si Si4 0.581962 0.174745 0.829131
Si Si5 0.266447 0.235316 0.426352
Si Si6 0.811625 0.928466 0.138012
Si Si7 0.119107 0.803192 0.995880
Si Si8 0.911775 0.347238 0.305275
O O1 0.500000 0.500000 0.500000
O O2 0.494468 0.319259 0.417213
O O3 0.266351 0.554588 0.605071
O O4 0.968931 0.838193 0.453262
O O5 0.059338 0.272464 0.923717
O O6 0.550076 0.769350 0.897385
O O7 0.668529 0.653667 0.086898
O O8 0.000000 0.500000 0.000000
O O9 0.547714 0.834126 0.619631
O O10 0.184432 0.052589 0.738817
O O11 0.365973 0.420369 0.779444
O O12 0.753905 0.973298 0.732369
O O13 0.907690 0.928106 0.898099
O O14 0.000000 0.500000 0.500000
O O15 0.061730 0.327093 0.346968
O O16 0.500000 0.000000 0.500000
O O17 0.014909 0.840800 0.092241
O O18 0.500000 0.500000 0.000000
O O19 0.000000 0.000000 0.000000
#
# Coordination Sequence:
#
# PCOD9060892 Si02
#       8
#     2   2   2   2   2   2   2   2
#     4  12  27  47  67  98 140 178 224 283 334 399
#     4  11  24  43  63  97 139 172 210 271 332 395
#     4  12  25  46  69 101 134 179 228 274 339 404
#     4  11  25  41  67 101 133 169 227 269 331 400
#     4  12  23  43  70  96 136 178 223 283 330 396
#     4  11  25  43  66  99 130 172 226 269 326 401
#     4  11  23  44  69  93 130 174 222 279 324 383
#     4  12  24  43  68 100 136 177 223 275 339 401
#
# _framework density 20.173684000000002
#
# number of rings (size 3 to 8) (size 9 to 14) (size 15 to 20)
#    0.000    0.500    2.500    6.750    3.500    3.000 
#    0.000    0.000    0.000    0.000    0.000    0.000 
#    0.000    0.000    0.000    0.000    0.000    0.000 
#
# Total GULP energy -89190.726760 kJ/mol
# GULP energy per Si atom -5574.420422 kJ/mol
# Density = 2.012777 g / cm^3
# Si number density = 20.173684 Si / 1000 Ang^3
#
#
#
# Elastic Constant Matrix: (Units=GPa)
#
#
# Indices 1 2 3 4 5 6 
#
# 1 159.7562 124.8355 45.6733 8.8724 28.0912 9.0700
# 2 124.8355 471.3968 4.1333 -50.3306 187.0218 67.3590
# 3 45.6733 4.1333 100.0994 -2.5741 -19.5679 -4.0777
# 4 8.8724 -50.3306 -2.5741 21.1811 11.2387 14.8179
# 5 28.0912 187.0218 -19.5679 11.2387 98.2172 22.9378
# 6 9.0700 67.3590 -4.0777 14.8179 22.9378 52.6170
#
#
#
# Elastic Compliance Matrix: (Units=1/GPa)
#
#
# Indices 1 2 3 4 5 6 
#
# 1 0.007051 0.001865 -0.004523 0.006436 -0.006524 -0.002922
# 2 0.001865 -0.003154 0.000282 -0.015208 0.006007 0.005402
# 3 -0.004523 0.000282 0.012699 0.003015 0.003131 -0.000811
# 4 0.006436 -0.015208 0.003015 -0.012815 0.026720 0.010553
# 5 -0.006524 0.006007 0.003131 0.026720 0.001569 -0.014532
# 6 -0.002922 0.005402 -0.000811 0.010553 -0.014532 0.015893
#
#
# Mechanical properties :
#
#
# Convention : Reuss Voigt Hill
#
# Bulk Modulus (GPa) = 84.42427 120.05962 102.24195
# Shear Modulus (GPa) = 166.98961 71.51041 119.25001
#
# Velocity S-wave (km/s) = 9.10800 5.96023 7.69675
# Velocity P-wave (km/s) = 12.35100 10.34447 11.39199
#
# Compressibility (1/GPa) = 0.01184494
#
# Stress axis : x y z
#
# Youngs Moduli (GPa) = 141.83365 -317.06950 78.74914
#
# Poissons Ratio (x) = 0.59148 0.35617
# Poissons Ratio (y) = -0.26458 -0.02223
# Poissons Ratio (z) = 0.64149 0.08950
#
# Static dielectric constant tensor:
#      x y z
#    x 1.698020 0.018270 0.016220 
#    y 0.018270 1.672770 0.034290 
#    z 0.016220 0.034290 1.730120 
# 
# From -- ./inp_files/434045.got.cif
#   From: 2010.05.17/outbox.cif.g08.bks.cpg/sg2_218_cif.got.tgz:434045.got - 2010.06.03 11:33:40.
