data_PCOD9060740
_publ_section_title
;
Structure prediction by ZEFSAII (Michael W. Deem and Ramdas Pophale) SiO2 
 PCOD9060740
Probable space group: P -1
;
_chemical_formula_sum "Si O2"
_cell_formula_units_Z 16
_cell_length_a 11.586640
_cell_length_b 26.221240
_cell_length_c 6.310448
_cell_angle_alpha 112.212480
_cell_angle_beta 124.178500
_cell_angle_gamma 30.669484
_cell_volume 783.523659
_symmetry_space_group_name_H-M "P -1"
_symmetry_group_IT_number 2
_symmetry_cell_setting 'triclinic'
loop_
_space_group_symop_operation_xyz
x,y,z
-x,-y,-z
loop_
_atom_site_type_symbol
_atom_site_label
_atom_site_fract_x
_atom_site_fract_y
_atom_site_fract_z
Si Si1 0.948660 0.780451 0.627841
Si Si2 0.496821 0.565592 0.061020
Si Si3 0.999336 0.423219 0.076021
Si Si4 0.896570 0.050274 0.221971
Si Si5 0.688035 0.581388 0.635171
Si Si6 0.739260 0.884169 0.985072
Si Si7 0.695554 0.787733 0.059670
Si Si8 0.142469 0.806274 0.546153
O O1 0.004940 0.811994 0.579683
O O2 0.734555 0.872711 0.716071
O O3 0.852981 0.757634 0.376669
O O4 0.219421 0.675769 0.856012
O O5 0.551339 0.581497 0.352745
O O6 0.500000 0.500000 0.000000
O O7 0.736605 0.499329 0.050786
O O8 0.900664 0.479027 0.835738
O O9 0.170611 0.311435 0.051704
O O10 0.169300 0.416429 0.336217
O O11 0.904290 0.114096 0.336310
O O12 0.601670 0.125705 0.048625
O O13 0.000000 0.000000 0.500000
O O14 0.000000 0.000000 0.000000
O O15 0.450991 0.689929 0.686137
O O16 0.725091 0.829372 0.996218
O O17 0.001394 0.831794 0.226079
O O18 0.500000 0.000000 0.000000
#
# Coordination Sequence:
#
# PCOD9060740 Si02
#       8
#     2   2   2   2   2   2   2   2
#     4  11  25  42  69 102 138 189 238 301 368 441
#     4  12  24  40  69 100 140 188 239 297 366 442
#     4  11  24  44  66  98 141 182 239 295 368 438
#     4  12  30  52  79 110 149 197 248 311 378 439
#     4  11  23  44  66 100 139 186 236 293 371 439
#     4  11  25  44  71  97 141 182 247 298 367 433
#     4  11  26  45  69 106 141 186 244 305 364 442
#     4  11  24  46  72 102 140 189 239 303 364 451
#
# _framework density 20.420569
#
# number of rings (size 3 to 8) (size 9 to 14) (size 15 to 20)
#    0.000    0.750    3.750    2.625    8.750    2.000 
#    0.000    0.000    0.000    0.000    0.000    0.000 
#    0.000    0.000    0.000    0.000    0.000    0.000 
#
# Total GULP energy -89240.432076 kJ/mol
# GULP energy per Si atom -5577.527005 kJ/mol
# Density = 2.037409 g / cm^3
# Si number density = 20.420569 Si / 1000 Ang^3
#
#
#
# Elastic Constant Matrix: (Units=GPa)
#
#
# Indices 1 2 3 4 5 6 
#
# 1 87.3779 37.4184 40.9887 13.3270 30.4502 13.3865
# 2 37.4184 111.7959 29.1534 14.4914 5.3789 11.7367
# 3 40.9887 29.1534 121.7619 5.3308 31.0327 20.8748
# 4 13.3270 14.4914 5.3308 35.5703 -2.3520 8.0896
# 5 30.4502 5.3789 31.0327 -2.3520 41.4420 7.2402
# 6 13.3865 11.7367 20.8748 8.0896 7.2402 44.6140
#
#
#
# Elastic Compliance Matrix: (Units=1/GPa)
#
#
# Indices 1 2 3 4 5 6 
#
# 1 0.019779 -0.004670 -0.001930 -0.005906 -0.012700 -0.000671
# 2 -0.004670 0.011160 -0.001691 -0.002124 0.003284 -0.000891
# 3 -0.001930 -0.001691 0.011454 0.000027 -0.006360 -0.003308
# 4 -0.005906 -0.002124 0.000027 0.032763 0.007294 -0.004806
# 5 -0.012700 0.003284 -0.006360 0.007294 0.038500 -0.001648
# 6 -0.000671 -0.000891 -0.003308 -0.004806 -0.001648 0.025537
#
#
# Mechanical properties :
#
#
# Convention : Reuss Voigt Hill
#
# Bulk Modulus (GPa) = 38.74281 59.56187 49.15234
# Shear Modulus (GPa) = 30.41778 38.55027 34.48403
#
# Velocity S-wave (km/s) = 3.86368 4.34961 4.11383
# Velocity P-wave (km/s) = 6.23840 7.37946 6.83279
#
# Compressibility (1/GPa) = 0.02581124
#
# Stress axis : x y z
#
# Youngs Moduli (GPa) = 50.55913 89.60821 87.30363
#
# Poissons Ratio (x) = 0.41845 0.16847
# Poissons Ratio (y) = 0.23610 0.14766
# Poissons Ratio (z) = 0.09757 0.15155
#
# Static dielectric constant tensor:
#      x y z
#    x 2.061060 0.064750 -0.159050 
#    y 0.064750 1.705550 -0.027600 
#    z -0.159050 -0.027600 1.812170 
# 
# From -- ./inp_files/46207.got.cif
#   From: 2010.05.17/outbox.cif.g08.bks.cpg/sg2_24_cif.got.tgz:46207.got - 2010.06.03 11:33:40.
