data_PCOD9060678
_publ_section_title
;
Structure prediction by ZEFSAII (Michael W. Deem and Ramdas Pophale) SiO2 
 PCOD9060678
Probable space group: P -1
;
_chemical_formula_sum "Si O2"
_cell_formula_units_Z 16
_cell_length_a 11.688709
_cell_length_b 5.577098
_cell_length_c 11.891759
_cell_angle_alpha 93.263200
_cell_angle_beta 94.925810
_cell_angle_gamma 121.463239
_cell_volume 654.056947
_symmetry_space_group_name_H-M "P -1"
_symmetry_group_IT_number 2
_symmetry_cell_setting 'triclinic'
loop_
_space_group_symop_operation_xyz
x,y,z
-x,-y,-z
loop_
_atom_site_type_symbol
_atom_site_label
_atom_site_fract_x
_atom_site_fract_y
_atom_site_fract_z
Si Si1 0.421510 0.711208 0.553557
Si Si2 0.299612 0.224235 0.379309
Si Si3 0.011348 0.747109 0.930362
Si Si4 0.461249 0.984293 0.776704
Si Si5 0.916077 0.156562 0.478604
Si Si6 0.230802 0.083422 0.780402
Si Si7 0.611486 0.428468 0.048548
Si Si8 0.732699 0.499243 0.814911
O O1 0.304305 0.469584 0.463217
O O2 0.542679 0.669030 0.599919
O O3 0.372802 0.756192 0.668595
O O4 0.500000 0.000000 0.500000
O O5 0.267975 0.256000 0.249878
O O6 0.195954 0.949040 0.433102
O O7 0.885668 0.586869 0.829668
O O8 0.144996 0.873681 0.869018
O O9 0.000000 0.500000 0.000000
O O10 0.000000 0.000000 0.000000
O O11 0.381632 0.142425 0.787343
O O12 0.467256 0.853524 0.890654
O O13 0.612517 0.198958 0.749481
O O14 0.842314 0.031928 0.347858
O O15 0.000000 0.500000 0.500000
O O16 0.000000 0.000000 0.500000
O O17 0.267495 0.377376 0.847574
O O18 0.500000 0.500000 0.000000
O O19 0.689145 0.464880 0.940124
#
# Coordination Sequence:
#
# PCOD9060678 Si02
#       8
#     2   2   2   2   2   2   2   2
#     4  11  23  43  75 111 151 194 253 321 396 453
#     4  11  26  47  74 110 152 198 258 322 386 464
#     4  12  29  51  77 108 155 205 258 314 384 465
#     4  12  26  44  78 111 153 200 256 328 388 465
#     4  12  31  53  81 114 158 212 265 323 391 471
#     4  12  28  50  78 110 156 205 258 325 394 466
#     4  12  25  44  74 113 155 197 256 319 394 468
#     4  12  25  47  75 112 149 200 258 318 388 464
#
# _framework density 24.462700000000002
#
# number of rings (size 3 to 8) (size 9 to 14) (size 15 to 20)
#    0.000    0.250    3.750    4.125    8.750    3.000 
#    0.000    0.000    0.000    0.000    0.000    0.000 
#    0.000    0.000    0.000    0.000    0.000    0.000 
#
# Total GULP energy -89329.145228 kJ/mol
# GULP energy per Si atom -5583.071577 kJ/mol
# Density = 2.440702 g / cm^3
# Si number density = 24.462700 Si / 1000 Ang^3
#
#
#
# Elastic Constant Matrix: (Units=GPa)
#
#
# Indices 1 2 3 4 5 6 
#
# 1 37.6665 4.4204 -5.8754 5.1216 17.0113 -0.3433
# 2 4.4204 125.4105 52.6028 -11.6286 5.4082 18.8431
# 3 -5.8754 52.6028 151.4765 -7.0237 4.3417 -6.0498
# 4 5.1216 -11.6286 -7.0237 49.7795 1.9401 -0.6593
# 5 17.0113 5.4082 4.3417 1.9401 42.0667 -7.2770
# 6 -0.3433 18.8431 -6.0498 -0.6593 -7.2770 37.6013
#
#
#
# Elastic Compliance Matrix: (Units=1/GPa)
#
#
# Indices 1 2 3 4 5 6 
#
# 1 0.033632 -0.001534 0.002038 -0.003014 -0.013699 -0.001301
# 2 -0.001534 0.010914 -0.003961 0.002125 -0.001577 -0.006389
# 3 0.002038 -0.003961 0.008206 0.000089 -0.000611 0.003207
# 4 -0.003014 0.002125 0.000089 0.020904 -0.000156 -0.000742
# 5 -0.013699 -0.001577 -0.000611 -0.000156 0.030710 0.006508
# 6 -0.001301 -0.006389 0.003207 -0.000742 0.006508 0.031547
#
#
# Mechanical properties :
#
#
# Convention : Reuss Voigt Hill
#
# Bulk Modulus (GPa) = 21.81554 46.31656 34.06605
# Shear Modulus (GPa) = 31.62423 43.44989 37.53706
#
# Velocity S-wave (km/s) = 3.59939 4.21903 3.92147
# Velocity P-wave (km/s) = 5.11970 6.53516 5.87025
#
# Compressibility (1/GPa) = 0.04583889
#
# Stress axis : x y z
#
# Youngs Moduli (GPa) = 29.73377 91.62247 121.86152
#
# Poissons Ratio (x) = 0.14051 -0.24835
# Poissons Ratio (y) = 0.04560 0.48270
# Poissons Ratio (z) = -0.06060 0.36292
#
# Static dielectric constant tensor:
#      x y z
#    x 2.030880 -0.240620 -0.119230 
#    y -0.240620 3.312040 0.486290 
#    z -0.119230 0.486290 2.077090 
# 
# From -- ./inp_files/410587.got.cif
#   From: 2010.05.17/outbox.cif.g08.bks.cpg/sg2_206_cif.got.tgz:410587.got - 2010.06.03 11:33:40.
