data_PCOD9060192
_publ_section_title
;
Structure prediction by ZEFSAII (Michael W. Deem and Ramdas Pophale) SiO2 
 PCOD9060192
Probable space group: P -1
;
_chemical_formula_sum "Si O2"
_cell_formula_units_Z 16
_cell_length_a 14.380172
_cell_length_b 14.257087
_cell_length_c 11.500605
_cell_angle_alpha 142.038058
_cell_angle_beta 121.844531
_cell_angle_gamma 30.692051
_cell_volume 649.905253
_symmetry_space_group_name_H-M "P -1"
_symmetry_group_IT_number 2
_symmetry_cell_setting 'triclinic'
loop_
_space_group_symop_operation_xyz
x,y,z
-x,-y,-z
loop_
_atom_site_type_symbol
_atom_site_label
_atom_site_fract_x
_atom_site_fract_y
_atom_site_fract_z
Si Si1 0.310114 0.748891 0.337425
Si Si2 0.660140 0.106421 0.021317
Si Si3 0.519405 0.772554 0.363516
Si Si4 0.899082 0.292422 0.483497
Si Si5 0.411322 0.206821 0.820558
Si Si6 0.035624 0.641466 0.657811
Si Si7 0.575896 0.190169 0.317917
Si Si8 0.813620 0.614496 0.953904
O O1 0.467167 0.430111 0.161223
O O2 0.430381 0.722908 0.305840
O O3 0.292939 0.863409 0.558590
O O4 0.088718 0.972977 0.353050
O O5 0.647029 0.130401 0.174220
O O6 0.605727 0.001395 0.835022
O O7 0.869137 0.905569 0.898214
O O8 0.538079 0.752107 0.217732
O O9 0.742254 0.561361 0.351065
O O10 0.378289 0.079135 0.616830
O O11 0.670824 0.485965 0.508800
O O12 0.981823 0.269318 0.396171
O O13 0.854378 0.476070 0.728628
O O14 0.224379 0.449371 0.023449
O O15 0.000000 0.500000 0.500000
O O16 0.622547 0.958289 0.149588
O O17 0.000000 0.500000 0.000000
#
# Coordination Sequence:
#
# PCOD9060192 Si02
#       8
#     2   2   2   2   2   2   2   2
#     4  12  27  50  70 105 148 190 237 295 358 426
#     4  12  28  46  73 103 147 190 238 292 361 428
#     4  11  24  44  71 102 148 179 239 300 348 423
#     4  12  25  45  75 102 145 191 235 298 361 415
#     4  11  23  43  67 106 139 186 237 293 351 421
#     4  12  25  43  73 108 137 188 240 295 357 419
#     4  12  25  48  72 108 145 186 244 293 348 430
#     4  12  23  41  76 109 141 186 240 299 356 416
#
# _framework density 24.618974000000001
#
# number of rings (size 3 to 8) (size 9 to 14) (size 15 to 20)
#    0.000    0.250    6.250    2.250    5.250    3.000 
#    2.250    0.000    0.000    0.000    0.000    0.000 
#    0.000    0.000    0.000    0.000    0.000    0.000 
#
# Total GULP energy -89530.819402 kJ/mol
# GULP energy per Si atom -5595.676213 kJ/mol
# Density = 2.456294 g / cm^3
# Si number density = 24.618974 Si / 1000 Ang^3
#
#
#
# Elastic Constant Matrix: (Units=GPa)
#
#
# Indices 1 2 3 4 5 6 
#
# 1 103.8694 39.1184 58.2426 -21.0728 -42.3480 25.5428
# 2 39.1184 101.9824 20.6753 4.7782 -25.7475 12.1418
# 3 58.2426 20.6753 75.5421 6.8139 -31.9539 26.3129
# 4 -21.0728 4.7782 6.8139 41.2976 13.0153 -11.7221
# 5 -42.3480 -25.7475 -31.9539 13.0153 49.1680 -8.6358
# 6 25.5428 12.1418 26.3129 -11.7221 -8.6358 46.8287
#
#
#
# Elastic Compliance Matrix: (Units=1/GPa)
#
#
# Indices 1 2 3 4 5 6 
#
# 1 0.029045 -0.007576 -0.023089 0.020312 0.001448 0.004447
# 2 -0.007576 0.014311 0.008420 -0.011137 0.008415 -0.005545
# 3 -0.023089 0.008420 0.047695 -0.033039 0.020601 -0.020860
# 4 0.020312 -0.011137 -0.033039 0.053433 -0.020444 0.019978
# 5 0.001448 0.008415 0.020601 -0.020444 0.042722 -0.011787
# 6 0.004447 -0.005545 -0.020860 0.019978 -0.011787 0.034915
#
#
# Mechanical properties :
#
#
# Convention : Reuss Voigt Hill
#
# Bulk Modulus (GPa) = 21.47694 57.49627 39.48660
# Shear Modulus (GPa) = 17.72230 38.34936 28.03583
#
# Velocity S-wave (km/s) = 2.68594 3.95107 3.37826
# Velocity P-wave (km/s) = 4.28505 6.64980 5.59381
#
# Compressibility (1/GPa) = 0.04656157
#
# Stress axis : x y z
#
# Youngs Moduli (GPa) = 34.42967 69.87549 20.96665
#
# Poissons Ratio (x) = 0.52936 0.48409
# Poissons Ratio (y) = 0.26083 -0.17653
# Poissons Ratio (z) = 0.79493 -0.58833
#
# Static dielectric constant tensor:
#      x y z
#    x 1.979230 0.007200 0.031600 
#    y 0.007200 1.977350 0.057920 
#    z 0.031600 0.057920 2.054930 
# 
# From -- ./inp_files/455621.got.cif
#   From: 2010.05.17/outbox.cif.g08.bks.cpg/sg2_228_cif.got.tgz:455621.got - 2010.06.03 11:33:40.
