data_PCOD9060932
_publ_section_title
;
Structure prediction by ZEFSAII (Michael W. Deem and Ramdas Pophale) SiO2 
 PCOD9060932
Probable space group: P -1
;
_chemical_formula_sum "Si O2"
_cell_formula_units_Z 14
_cell_length_a 7.955796
_cell_length_b 23.660861
_cell_length_c 8.347842
_cell_angle_alpha 38.759214
_cell_angle_beta 36.287212
_cell_angle_gamma 42.200648
_cell_volume 554.872727
_symmetry_space_group_name_H-M "P -1"
_symmetry_group_IT_number 2
_symmetry_cell_setting 'triclinic'
loop_
_space_group_symop_operation_xyz
x,y,z
-x,-y,-z
loop_
_atom_site_type_symbol
_atom_site_label
_atom_site_fract_x
_atom_site_fract_y
_atom_site_fract_z
Si Si1 0.158035 0.026987 0.160049
Si Si2 0.349193 0.498271 0.942755
Si Si3 0.700441 0.207636 0.000891
Si Si4 0.575436 0.068056 0.157184
Si Si5 0.155749 0.240265 0.955235
Si Si6 0.683902 0.614147 0.243588
Si Si7 0.534102 0.717699 0.684016
O O1 0.000000 0.000000 0.500000
O O2 0.992247 0.137373 0.011744
O O3 0.500000 0.000000 0.000000
O O4 0.194910 0.977624 0.061943
O O5 0.573902 0.530562 0.584757
O O6 0.500000 0.500000 0.000000
O O7 0.324729 0.394329 0.158654
O O8 0.014899 0.568431 0.020430
O O9 0.604628 0.317402 0.780259
O O10 0.675114 0.147056 0.001235
O O11 0.455054 0.221296 0.300910
O O12 0.500000 0.000000 0.500000
O O13 0.265607 0.134287 0.174180
O O14 0.241653 0.315532 0.837954
O O15 0.335382 0.244519 0.649159
O O16 0.808493 0.271544 0.116983
#
# Coordination Sequence:
#
# PCOD9060932 Si02
#       7
#     2   2   2   2   2   2   2
#     4  12  26  49  77 105 140 190 246 296 354 439
#     4  12  22  42  74 104 138 188 250 287 361 426
#     4  11  28  46  69 109 149 186 239 299 378 421
#     4  11  26  48  77 106 149 192 242 304 375 438
#     4  11  23  44  70 103 139 190 244 297 358 426
#     4  11  24  43  70 103 140 187 236 305 356 429
#     4  12  25  43  71 103 145 186 243 301 350 439
#
# _framework density 25.231012
#
# number of rings (size 3 to 8) (size 9 to 14) (size 15 to 20)
#    0.000    0.571    2.857    4.286    0.000   10.286 
#    0.000    0.000    0.000    0.000    0.000    0.000 
#    0.000    0.000    0.000    0.000    0.000    0.000 
#
# Total GULP energy -78241.637782 kJ/mol
# GULP energy per Si atom -5588.688413 kJ/mol
# Density = 2.517359 g / cm^3
# Si number density = 25.231012 Si / 1000 Ang^3
#
#
#
# Elastic Constant Matrix: (Units=GPa)
#
#
# Indices 1 2 3 4 5 6 
#
# 1 94.8216 69.9801 44.8973 2.5157 10.4877 -11.4667
# 2 69.9801 175.3743 50.9720 6.3617 4.0334 -4.7568
# 3 44.8973 50.9720 169.7195 12.9269 1.6267 -8.4361
# 4 2.5157 6.3617 12.9269 38.8064 0.9029 9.4340
# 5 10.4877 4.0334 1.6267 0.9029 39.9833 9.5756
# 6 -11.4667 -4.7568 -8.4361 9.4340 9.5756 57.7075
#
#
#
# Elastic Compliance Matrix: (Units=1/GPa)
#
#
# Indices 1 2 3 4 5 6 
#
# 1 0.016945 -0.005835 -0.002525 0.000010 -0.004536 0.003268
# 2 -0.005835 0.008285 -0.000948 -0.000520 0.000908 -0.000681
# 3 -0.002525 -0.000948 0.007048 -0.002221 0.000340 0.000757
# 4 0.000010 -0.000520 -0.002221 0.027799 0.000717 -0.005029
# 5 -0.004536 0.000908 0.000340 0.000717 0.027381 -0.005437
# 6 0.003268 -0.000681 0.000757 -0.005029 -0.005437 0.019757
#
#
# Mechanical properties :
#
#
# Convention : Reuss Voigt Hill
#
# Bulk Modulus (GPa) = 73.19097 85.73490 79.46293
# Shear Modulus (GPa) = 38.34797 45.57050 41.95924
#
# Velocity S-wave (km/s) = 3.90279 4.25447 4.08242
# Velocity P-wave (km/s) = 7.02711 7.62809 7.33376
#
# Compressibility (1/GPa) = 0.01366289
#
# Stress axis : x y z
#
# Youngs Moduli (GPa) = 59.01571 120.69401 141.88080
#
# Poissons Ratio (x) = 0.70425 0.35824
# Poissons Ratio (y) = 0.34436 0.13446
# Poissons Ratio (z) = 0.14901 0.11438
#
# Static dielectric constant tensor:
#      x y z
#    x 2.233140 0.115100 0.015280 
#    y 0.115100 2.068070 -0.060940 
#    z 0.015280 -0.060940 1.939390 
# 
# From -- ./inp_files/225200.got.cif
#   From: 2010.05.17/outbox.cif.g08.bks.cpg/sg2_113_cif.got.tgz:225200.got - 2010.06.03 11:33:40.
