data_PCOD9060262
_publ_section_title
;
Structure prediction by ZEFSAII (Michael W. Deem and Ramdas Pophale) SiO2 
 PCOD9060262
Probable space group: P -1
;
_chemical_formula_sum "Si O2"
_cell_formula_units_Z 12
_cell_length_a 8.769994
_cell_length_b 8.256482
_cell_length_c 12.064512
_cell_angle_alpha 91.778526
_cell_angle_beta 50.263448
_cell_angle_gamma 125.274781
_cell_volume 462.088358
_symmetry_space_group_name_H-M "P -1"
_symmetry_group_IT_number 2
_symmetry_cell_setting 'triclinic'
loop_
_space_group_symop_operation_xyz
x,y,z
-x,-y,-z
loop_
_atom_site_type_symbol
_atom_site_label
_atom_site_fract_x
_atom_site_fract_y
_atom_site_fract_z
Si Si1 0.886349 0.650779 0.647592
Si Si2 0.185194 0.273172 0.764532
Si Si3 0.483007 0.206701 0.960844
Si Si4 0.745421 0.028103 0.340941
Si Si5 0.031778 0.378341 0.630931
Si Si6 0.824118 0.531720 0.015984
O O1 0.592580 0.424390 0.840320
O O2 0.064668 0.587176 0.587060
O O3 0.046131 0.881858 0.648734
O O4 0.907305 0.687178 0.508558
O O5 0.197074 0.404786 0.659643
O O6 0.343351 0.196006 0.673109
O O7 0.721186 0.583294 0.164878
O O8 0.845423 0.023275 0.919357
O O9 0.693270 0.185899 0.821075
O O10 0.413759 0.684661 0.960822
O O11 0.944625 0.239544 0.164507
O O12 0.500000 0.000000 0.500000
O O13 0.000000 0.500000 0.000000
#
# Coordination Sequence:
#
# PCOD9060262 Si02
#       6
#     2   2   2   2   2   2
#     4   8  19  38  61  92 132 170 204 259 324 380
#     4  12  23  40  69  99 126 171 218 263 323 379
#     4   9  20  39  68  95 129 163 213 261 319 387
#     4  11  26  43  60  93 135 172 218 271 315 376
#     4   9  18  38  66  97 126 166 211 259 322 389
#     4  11  23  43  68  97 131 167 210 270 327 382
#
# _framework density 25.969056999999999
#
# number of rings (size 3 to 8) (size 9 to 14) (size 15 to 20)
#    1.000    1.000    1.667    1.000    2.333    3.333 
#    0.000    6.667    0.000    0.000    0.000    0.000 
#    0.000    0.000    0.000    0.000    0.000    0.000 
#
# Total GULP energy -67155.538322 kJ/mol
# GULP energy per Si atom -5596.294860 kJ/mol
# Density = 2.590995 g / cm^3
# Si number density = 25.969057 Si / 1000 Ang^3
#
#
#
# Elastic Constant Matrix: (Units=GPa)
#
#
# Indices 1 2 3 4 5 6 
#
# 1 129.5572 23.5025 55.7362 9.9045 21.3604 -4.1627
# 2 23.5025 94.5516 49.6939 21.9160 12.0342 9.4854
# 3 55.7362 49.6939 145.6593 19.7381 20.6533 11.6085
# 4 9.9045 21.9160 19.7381 36.5356 12.4603 -7.1329
# 5 21.3604 12.0342 20.6533 12.4603 63.2375 15.0966
# 6 -4.1627 9.4854 11.6085 -7.1329 15.0966 36.4533
#
#
#
# Elastic Compliance Matrix: (Units=1/GPa)
#
#
# Indices 1 2 3 4 5 6 
#
# 1 0.010010 -0.001031 -0.003591 0.001854 -0.003411 0.004330
# 2 -0.001031 0.014850 -0.003341 -0.008341 0.001490 -0.005167
# 3 -0.003591 -0.003341 0.010071 -0.003105 -0.000030 -0.003343
# 4 0.001854 -0.008341 -0.003105 0.039707 -0.009442 0.015050
# 5 -0.003411 0.001490 -0.000030 -0.009442 0.021281 -0.011428
# 6 0.004330 -0.005167 -0.003343 0.015050 -0.011428 0.038014
#
#
# Mechanical properties :
#
#
# Convention : Reuss Voigt Hill
#
# Bulk Modulus (GPa) = 52.61755 69.73704 61.17729
# Shear Modulus (GPa) = 32.01123 43.30098 37.65611
#
# Velocity S-wave (km/s) = 3.51475 4.08782 3.81207
# Velocity P-wave (km/s) = 6.06439 7.01374 6.55627
#
# Compressibility (1/GPa) = 0.01900507
#
# Stress axis : x y z
#
# Youngs Moduli (GPa) = 99.89521 67.33780 99.29435
#
# Poissons Ratio (x) = 0.06940 0.35661
# Poissons Ratio (y) = 0.10295 0.33179
# Poissons Ratio (z) = 0.35877 0.22501
#
# Static dielectric constant tensor:
#      x y z
#    x 2.056450 -0.000160 -0.066230 
#    y -0.000160 2.066770 0.018550 
#    z -0.066230 0.018550 2.087630 
# 
# From -- ./inp_files/176197.got.cif
#   From: 2010.05.17/outbox.cif.g08.bks.cpg/sg2_89_cif.got.tgz:176197.got - 2010.06.03 11:33:40.
