data_PCOD9060723
_publ_section_title
;
Structure prediction by ZEFSAII (Michael W. Deem and Ramdas Pophale) SiO2 
 PCOD9060723
Probable space group: P -1
;
_chemical_formula_sum "Si O2"
_cell_formula_units_Z 16
_cell_length_a 5.175289
_cell_length_b 14.454087
_cell_length_c 13.890305
_cell_angle_alpha 42.041118
_cell_angle_beta 89.689009
_cell_angle_gamma 75.052940
_cell_volume 643.854368
_symmetry_space_group_name_H-M "P -1"
_symmetry_group_IT_number 2
_symmetry_cell_setting 'triclinic'
loop_
_space_group_symop_operation_xyz
x,y,z
-x,-y,-z
loop_
_atom_site_type_symbol
_atom_site_label
_atom_site_fract_x
_atom_site_fract_y
_atom_site_fract_z
Si Si1 0.371249 0.518301 0.381849
Si Si2 0.180236 0.288980 0.358635
Si Si3 0.266759 0.427775 0.801843
Si Si4 0.801476 0.986346 0.830261
Si Si5 0.589120 0.174311 0.129583
Si Si6 0.127066 0.197212 0.849312
Si Si7 0.779925 0.167808 0.352625
Si Si8 0.719206 0.765118 0.392127
O O1 0.500000 0.500000 0.500000
O O2 0.599316 0.471464 0.333629
O O3 0.197280 0.412288 0.471604
O O4 0.193029 0.691392 0.229437
O O5 0.499588 0.223673 0.374386
O O6 0.183542 0.206312 0.525094
O O7 0.037266 0.467031 0.240177
O O8 0.970857 0.260604 0.305689
O O9 0.260720 0.301254 0.824580
O O10 0.459415 0.338884 0.957191
O O11 0.635032 0.899594 0.839206
O O12 0.119390 0.920260 0.849311
O O13 0.617904 0.156828 0.674643
O O14 0.795626 0.948993 0.972678
O O15 0.662562 0.179016 0.236646
O O16 0.189554 0.181549 0.748163
O O17 0.000000 0.000000 0.500000
#
# Coordination Sequence:
#
# PCOD9060723 Si02
#       8
#     2   2   2   2   2   2   2   2
#     4  12  22  40  68  95 143 191 233 278 345 410
#     4  12  26  42  72 104 138 176 242 291 340 425
#     4  11  24  44  67 104 140 188 234 285 354 420
#     4  11  25  45  72 105 140 188 238 288 351 428
#     4  11  25  48  74  96 146 185 231 298 363 416
#     4  11  23  44  64 101 146 188 230 283 356 415
#     4  12  26  48  71 101 137 183 231 297 364 413
#     4  12  24  43  68 108 140 188 239 292 344 418
#
# _framework density 24.850337
#
# number of rings (size 3 to 8) (size 9 to 14) (size 15 to 20)
#    0.000    0.500    3.750    4.875    0.000    3.000 
#    0.000    2.500    0.000    0.000    0.000    0.000 
#    0.000    0.000    0.000    0.000    0.000    0.000 
#
# Total GULP energy -89576.831174 kJ/mol
# GULP energy per Si atom -5598.551948 kJ/mol
# Density = 2.479378 g / cm^3
# Si number density = 24.850337 Si / 1000 Ang^3
#
#
#
# Elastic Constant Matrix: (Units=GPa)
#
#
# Indices 1 2 3 4 5 6 
#
# 1 122.3172 45.1344 26.4852 4.7030 20.2768 -15.9976
# 2 45.1344 93.7609 49.8767 14.0427 8.1474 -12.3631
# 3 26.4852 49.8767 155.5558 15.0366 29.8335 -8.6515
# 4 4.7030 14.0427 15.0366 44.0042 -0.8187 14.5909
# 5 20.2768 8.1474 29.8335 -0.8187 38.4419 0.4046
# 6 -15.9976 -12.3631 -8.6515 14.5909 0.4046 59.0849
#
#
#
# Elastic Compliance Matrix: (Units=1/GPa)
#
#
# Indices 1 2 3 4 5 6 
#
# 1 0.011042 -0.004917 0.000978 -0.000827 -0.005584 0.002347
# 2 -0.004917 0.015961 -0.004239 -0.003844 0.002394 0.002321
# 3 0.000978 -0.004239 0.009259 -0.002508 -0.006871 0.001400
# 4 -0.000827 -0.003844 -0.002508 0.027710 0.003874 -0.008265
# 5 -0.005584 0.002394 -0.006871 0.003874 0.033900 -0.003206
# 6 0.002347 0.002321 0.001400 -0.008265 -0.003206 0.020314
#
#
# Mechanical properties :
#
#
# Convention : Reuss Voigt Hill
#
# Bulk Modulus (GPa) = 50.23582 68.29183 59.26383
# Shear Modulus (GPa) = 35.41609 44.98206 40.19908
#
# Velocity S-wave (km/s) = 3.77925 4.25916 4.02636
# Velocity P-wave (km/s) = 6.26920 7.19223 6.74652
#
# Compressibility (1/GPa) = 0.01990611
#
# Stress axis : x y z
#
# Youngs Moduli (GPa) = 90.55922 62.65189 107.99889
#
# Poissons Ratio (x) = 0.30808 -0.10561
# Poissons Ratio (y) = 0.44531 0.45781
# Poissons Ratio (z) = -0.08855 0.26558
#
# Static dielectric constant tensor:
#      x y z
#    x 2.033280 0.022780 -0.019130 
#    y 0.022780 2.013890 -0.011060 
#    z -0.019130 -0.011060 1.926950 
# 
# From -- ./inp_files/364320.got.cif
#   From: 2010.05.17/outbox.cif.g08.bks.cpg/sg2_183_cif.got.tgz:364320.got - 2010.06.03 11:33:40.
