data_PCOD9060351
_publ_section_title
;
Structure prediction by ZEFSAII (Michael W. Deem and Ramdas Pophale) SiO2 
 PCOD9060351
Probable space group: P -1
;
_chemical_formula_sum "Si O2"
_cell_formula_units_Z 16
_cell_length_a 8.376960
_cell_length_b 8.406438
_cell_length_c 13.236271
_cell_angle_alpha 131.744361
_cell_angle_beta 106.972302
_cell_angle_gamma 86.157944
_cell_volume 654.496301
_symmetry_space_group_name_H-M "P -1"
_symmetry_group_IT_number 2
_symmetry_cell_setting 'triclinic'
loop_
_space_group_symop_operation_xyz
x,y,z
-x,-y,-z
loop_
_atom_site_type_symbol
_atom_site_label
_atom_site_fract_x
_atom_site_fract_y
_atom_site_fract_z
Si Si1 0.382224 0.312130 0.088875
Si Si2 0.492357 0.247385 0.631201
Si Si3 0.559312 0.282714 0.449987
Si Si4 0.184755 0.069118 0.260343
Si Si5 0.360274 0.873699 0.801836
Si Si6 0.999542 0.354981 0.038985
Si Si7 0.973891 0.399036 0.279375
Si Si8 0.910632 0.845679 0.506529
O O1 0.444980 0.571528 0.195800
O O2 0.486508 0.235293 0.170218
O O3 0.181977 0.285077 0.053591
O O4 0.405441 0.132189 0.933416
O O5 0.615586 0.334824 0.596473
O O6 0.290317 0.240620 0.587200
O O7 0.500000 0.000000 0.500000
O O8 0.500000 0.500000 0.500000
O O9 0.382513 0.111119 0.340456
O O10 0.669784 0.195996 0.349157
O O11 0.084761 0.035331 0.334390
O O12 0.125385 0.275022 0.285032
O O13 0.136169 0.861828 0.094592
O O14 0.195943 0.767265 0.790191
O O15 0.965503 0.453523 0.182236
O O16 0.000000 0.500000 0.000000
O O17 0.983338 0.624506 0.433905
O O18 0.000000 0.000000 0.500000
#
# Coordination Sequence:
#
# PCOD9060351 Si02
#       8
#     2   2   2   2   2   2   2   2
#     4  11  24  46  71 100 138 179 231 289 348 411
#     4  11  26  44  68  99 138 183 225 271 353 419
#     4  11  23  43  70 100 137 177 229 284 337 414
#     4  11  25  44  69 104 134 185 233 277 351 415
#     4  11  23  44  73 107 134 174 237 294 342 399
#     4  12  28  46  69  99 142 186 225 284 360 417
#     4  12  24  45  71 102 136 178 236 291 341 417
#     4  11  25  45  68 101 143 179 227 289 344 410
#
# _framework density 24.446280000000002
#
# number of rings (size 3 to 8) (size 9 to 14) (size 15 to 20)
#    0.000    0.750    3.750    3.000    8.750    1.000 
#    2.250    1.250    0.000    0.000    0.000    0.000 
#    0.000    0.000    0.000    0.000    0.000    0.000 
#
# Total GULP energy -89381.677342 kJ/mol
# GULP energy per Si atom -5586.354834 kJ/mol
# Density = 2.439064 g / cm^3
# Si number density = 24.446280 Si / 1000 Ang^3
#
#
#
# Elastic Constant Matrix: (Units=GPa)
#
#
# Indices 1 2 3 4 5 6 
#
# 1 88.4808 22.5816 37.3918 -12.5137 6.6383 -3.4493
# 2 22.5816 71.2423 12.4428 5.5600 -5.8552 13.3877
# 3 37.3918 12.4428 133.1656 19.5746 -5.5788 -0.2466
# 4 -12.5137 5.5600 19.5746 46.3659 -0.3440 -10.2878
# 5 6.6383 -5.8552 -5.5788 -0.3440 42.6262 -6.5812
# 6 -3.4493 13.3877 -0.2466 -10.2878 -6.5812 31.3702
#
#
#
# Elastic Compliance Matrix: (Units=1/GPa)
#
#
# Indices 1 2 3 4 5 6 
#
# 1 0.017352 -0.006862 -0.005751 0.009517 -0.003203 0.007240
# 2 -0.006862 0.018691 0.001272 -0.006958 0.002116 -0.010559
# 3 -0.005751 0.001272 0.010044 -0.006564 0.001892 -0.002852
# 4 0.009517 -0.006958 -0.006564 0.030814 -0.000905 0.013880
# 5 -0.003203 0.002116 0.001892 -0.000905 0.025064 0.003721
# 6 0.007240 -0.010559 -0.002852 0.013880 0.003721 0.042489
#
#
# Mechanical properties :
#
#
# Convention : Reuss Voigt Hill
#
# Bulk Modulus (GPa) = 42.72528 48.63568 45.68048
# Shear Modulus (GPa) = 28.58166 38.77064 33.67615
#
# Velocity S-wave (km/s) = 3.42301 3.98672 3.71557
# Velocity P-wave (km/s) = 5.75655 6.41327 6.09376
#
# Compressibility (1/GPa) = 0.02340535
#
# Stress axis : x y z
#
# Youngs Moduli (GPa) = 57.63058 53.50296 99.56051
#
# Poissons Ratio (x) = 0.36714 0.57255
# Poissons Ratio (y) = 0.39547 -0.12666
# Poissons Ratio (z) = 0.33142 -0.06807
#
# Static dielectric constant tensor:
#      x y z
#    x 1.679450 -0.395660 -0.412040 
#    y -0.395660 1.346530 -0.721400 
#    z -0.412040 -0.721400 1.192280 
# 
# From -- ./inp_files/495900.got.cif
#   From: 2010.05.17/outbox.cif.g08.bks.cpg/sg2_248_cif.got.tgz:495900.got - 2010.06.03 11:33:40.
