data_PCOD9060304
_publ_section_title
;
Structure prediction by ZEFSAII (Michael W. Deem and Ramdas Pophale) SiO2 
 PCOD9060304
Probable space group: P -1
;
_chemical_formula_sum "Si O2"
_cell_formula_units_Z 14
_cell_length_a 9.426284
_cell_length_b 19.950298
_cell_length_c 8.890401
_cell_angle_alpha 154.071535
_cell_angle_beta 47.017066
_cell_angle_gamma 130.191479
_cell_volume 532.080471
_symmetry_space_group_name_H-M "P -1"
_symmetry_group_IT_number 2
_symmetry_cell_setting 'triclinic'
loop_
_space_group_symop_operation_xyz
x,y,z
-x,-y,-z
loop_
_atom_site_type_symbol
_atom_site_label
_atom_site_fract_x
_atom_site_fract_y
_atom_site_fract_z
Si Si1 0.173613 0.238893 0.951019
Si Si2 0.787090 0.344897 0.955774
Si Si3 0.261690 0.836248 0.823769
Si Si4 0.102112 0.419271 0.118628
Si Si5 0.376360 0.932539 0.268456
Si Si6 0.566345 0.417684 0.992806
Si Si7 0.807713 0.052376 0.178681
O O1 0.337368 0.386872 0.138938
O O2 0.258967 0.087491 0.654738
O O3 0.121631 0.249948 0.832847
O O4 0.957655 0.247171 0.189126
O O5 0.686583 0.216432 0.884075
O O6 0.663059 0.449256 0.151506
O O7 0.847309 0.232724 0.554084
O O8 0.960919 0.423093 0.085954
O O9 0.408302 0.746716 0.438307
O O10 0.226523 0.980923 0.039008
O O11 0.343104 0.868833 0.994121
O O12 0.313707 0.476531 0.006540
O O13 0.000000 0.500000 0.500000
O O14 0.600218 0.983376 0.252672
O O15 0.000000 0.000000 0.000000
#
# Coordination Sequence:
#
# PCOD9060304 Si02
#       7
#     2   2   2   2   2   2   2
#     4  12  24  42  75  98 142 179 232 285 346 407
#     4  11  24  44  70  99 140 182 223 296 342 413
#     4  11  23  43  69 103 144 178 229 282 342 427
#     4  12  25  48  72  96 135 189 244 281 338 409
#     4  12  23  43  68 107 142 180 227 279 363 413
#     4  11  25  46  70 100 139 184 233 289 339 405
#     4  11  25  39  68 104 149 177 222 284 355 421
#
# _framework density 26.311812
#
# number of rings (size 3 to 8) (size 9 to 14) (size 15 to 20)
#    0.000    0.571    5.714    3.000    4.000    0.000 
#    0.000    2.143    0.000    0.000    0.000    0.000 
#    0.000    0.000    0.000    0.000    0.000    0.000 
#
# Total GULP energy -77944.685957 kJ/mol
# GULP energy per Si atom -5567.477568 kJ/mol
# Density = 2.625192 g / cm^3
# Si number density = 26.311812 Si / 1000 Ang^3
#
#
#
# Elastic Constant Matrix: (Units=GPa)
#
#
# Indices 1 2 3 4 5 6 
#
# 1 144.2035 56.5325 32.0756 -33.3278 4.6216 14.7574
# 2 56.5325 165.1592 17.5600 -19.7423 -2.5454 8.8157
# 3 32.0756 17.5600 53.2732 -10.7363 9.7968 5.0710
# 4 -33.3278 -19.7423 -10.7363 22.8408 -3.5264 1.8384
# 5 4.6216 -2.5454 9.7968 -3.5264 39.5393 -7.3930
# 6 14.7574 8.8157 5.0710 1.8384 -7.3930 68.9848
#
#
#
# Elastic Compliance Matrix: (Units=1/GPa)
#
#
# Indices 1 2 3 4 5 6 
#
# 1 0.012060 -0.001883 -0.003509 0.014545 0.000178 -0.002450
# 2 -0.001883 0.007217 -0.000727 0.003352 0.001082 -0.000440
# 3 -0.003509 -0.000727 0.023131 0.004437 -0.005260 -0.001539
# 4 0.014545 0.003352 0.004437 0.070845 0.002713 -0.005463
# 5 0.000178 0.001082 -0.005260 0.002713 0.027462 0.003081
# 6 -0.002450 -0.000440 -0.001539 -0.005463 0.003081 0.015665
#
#
# Mechanical properties :
#
#
# Convention : Reuss Voigt Hill
#
# Bulk Modulus (GPa) = 33.14395 63.88579 48.51487
# Shear Modulus (GPa) = 27.98388 43.37084 35.67736
#
# Velocity S-wave (km/s) = 3.26475 4.06438 3.68631
# Velocity P-wave (km/s) = 5.18029 6.80871 6.04954
#
# Compressibility (1/GPa) = 0.03017142
#
# Stress axis : x y z
#
# Youngs Moduli (GPa) = 82.92013 138.55633 43.23146
#
# Poissons Ratio (x) = 0.26087 0.15169
# Poissons Ratio (y) = 0.15612 0.03143
# Poissons Ratio (z) = 0.29095 0.10072
#
# Static dielectric constant tensor:
#      x y z
#    x 2.349720 -0.090820 -0.208010 
#    y -0.090820 2.242300 0.103980 
#    z -0.208010 0.103980 2.229890 
# 
# From -- ./inp_files/224326.got.cif
#   From: 2010.05.17/outbox.cif.g08.bks.cpg/sg2_113_cif.got.tgz:224326.got - 2010.06.03 11:33:40.
