data_PCOD9060090
_publ_section_title
;
Structure prediction by ZEFSAII (Michael W. Deem and Ramdas Pophale) SiO2 
 PCOD9060090
Probable space group: P -1
;
_chemical_formula_sum "Si O2"
_cell_formula_units_Z 14
_cell_length_a 11.893075
_cell_length_b 11.982299
_cell_length_c 9.034785
_cell_angle_alpha 122.605825
_cell_angle_beta 42.158853
_cell_angle_gamma 144.433788
_cell_volume 495.805696
_symmetry_space_group_name_H-M "P -1"
_symmetry_group_IT_number 2
_symmetry_cell_setting 'triclinic'
loop_
_space_group_symop_operation_xyz
x,y,z
-x,-y,-z
loop_
_atom_site_type_symbol
_atom_site_label
_atom_site_fract_x
_atom_site_fract_y
_atom_site_fract_z
Si Si1 0.342196 0.532617 0.293004
Si Si2 0.850063 0.854287 0.904202
Si Si3 0.076197 0.772705 0.146529
Si Si4 0.764262 0.924349 0.546446
Si Si5 0.485476 0.000654 0.339067
Si Si6 0.607792 0.480224 0.211078
Si Si7 0.117930 0.598806 0.233632
O O1 0.180082 0.322102 0.221918
O O2 0.485324 0.531470 0.280677
O O3 0.156069 0.534623 0.535264
O O4 0.565394 0.722438 0.116210
O O5 0.997337 0.989320 0.713539
O O6 0.000000 0.000000 0.000000
O O7 0.142995 0.913089 0.311344
O O8 0.120833 0.660529 0.109491
O O9 0.800829 0.628365 0.255270
O O10 0.258242 0.881874 0.908187
O O11 0.605536 0.907961 0.564135
O O12 0.596138 0.730603 0.666994
O O13 0.291175 0.788118 0.302637
O O14 0.500000 0.000000 0.500000
O O15 0.774648 0.485027 0.944364
#
# Coordination Sequence:
#
# PCOD9060090 Si02
#       7
#     2   2   2   2   2   2   2
#     4  11  28  51  77 120 164 205 270 336 394 480
#     4  11  27  50  77 109 170 211 255 336 406 465
#     4  11  23  46  78 112 162 204 268 330 392 477
#     4  11  24  50  76 114 164 208 267 338 391 483
#     4  11  23  42  78 113 155 214 260 329 407 465
#     4  12  27  45  88 119 149 219 272 318 411 480
#     4  11  23  53  75 114 166 204 267 341 383 486
#
# _framework density 28.236868000000001
#
# number of rings (size 3 to 8) (size 9 to 14) (size 15 to 20)
#    0.000    0.857    5.714    1.286    4.000    3.429 
#    0.000    5.000    0.000    0.000    0.000    0.000 
#    0.000    0.000    0.000    0.000    0.000    0.000 
#
# Total GULP energy -78715.535976 kJ/mol
# GULP energy per Si atom -5622.538284 kJ/mol
# Density = 2.817260 g / cm^3
# Si number density = 28.236868 Si / 1000 Ang^3
#
#
#
# Elastic Constant Matrix: (Units=GPa)
#
#
# Indices 1 2 3 4 5 6 
#
# 1 199.2259 70.1626 61.5321 1.6621 15.3585 4.5698
# 2 70.1626 153.7611 58.4605 -9.5539 7.3499 35.8544
# 3 61.5321 58.4605 227.6843 -16.1392 -10.8592 5.8690
# 4 1.6621 -9.5539 -16.1392 57.8711 6.4880 10.5876
# 5 15.3585 7.3499 -10.8592 6.4880 58.4780 6.9369
# 6 4.5698 35.8544 5.8690 10.5876 6.9369 46.4367
#
#
#
# Elastic Compliance Matrix: (Units=1/GPa)
#
#
# Indices 1 2 3 4 5 6 
#
# 1 0.006577 -0.003112 -0.001216 -0.001300 -0.001710 0.002461
# 2 -0.003112 0.010625 -0.001466 0.002981 -0.000128 -0.008372
# 3 -0.001216 -0.001466 0.005233 0.001076 0.001339 0.000145
# 4 -0.001300 0.002981 0.001076 0.019446 -0.001212 -0.006562
# 5 -0.001710 -0.000128 0.001339 -0.001212 0.018227 -0.002349
# 6 0.002461 -0.008372 0.000145 -0.006562 -0.002349 0.029586
#
#
# Mechanical properties :
#
#
# Convention : Reuss Voigt Hill
#
# Bulk Modulus (GPa) = 92.18315 106.77577 99.47946
# Shear Modulus (GPa) = 47.66616 58.59156 53.12886
#
# Velocity S-wave (km/s) = 4.11309 4.56016 4.34238
# Velocity P-wave (km/s) = 7.43464 8.10081 7.77486
#
# Compressibility (1/GPa) = 0.01084797
#
# Stress axis : x y z
#
# Youngs Moduli (GPa) = 152.04510 94.12169 191.08257
#
# Poissons Ratio (x) = 0.29290 0.23227
# Poissons Ratio (y) = 0.47315 0.28012
# Poissons Ratio (z) = 0.18482 0.13798
#
# Static dielectric constant tensor:
#      x y z
#    x 2.203640 -0.050430 -0.032680 
#    y -0.050430 2.190880 0.056280 
#    z -0.032680 0.056280 2.194500 
# 
# From -- ./inp_files/310145.got.cif
#   From: 2010.05.17/outbox.cif.g08.bks.cpg/sg2_156_cif.got.tgz:310145.got - 2010.06.03 11:33:40.
