data_PCOD9060086
_publ_section_title
;
Structure prediction by ZEFSAII (Michael W. Deem and Ramdas Pophale) SiO2 
 PCOD9060086
Probable space group: P -1
;
_chemical_formula_sum "Si O2"
_cell_formula_units_Z 12
_cell_length_a 4.782730
_cell_length_b 12.589863
_cell_length_c 11.683743
_cell_angle_alpha 40.287323
_cell_angle_beta 76.713692
_cell_angle_gamma 78.732438
_cell_volume 442.511538
_symmetry_space_group_name_H-M "P -1"
_symmetry_group_IT_number 2
_symmetry_cell_setting 'triclinic'
loop_
_space_group_symop_operation_xyz
x,y,z
-x,-y,-z
loop_
_atom_site_type_symbol
_atom_site_label
_atom_site_fract_x
_atom_site_fract_y
_atom_site_fract_z
Si Si1 0.961539 0.280494 0.804973
Si Si2 0.446676 0.206938 0.421895
Si Si3 0.427514 0.463667 0.744292
Si Si4 0.113868 0.991039 0.343659
Si Si5 0.637589 0.965604 0.139937
Si Si6 0.219085 0.345294 0.090988
O O1 0.843382 0.119518 0.013564
O O2 0.681480 0.385324 0.707716
O O3 0.135475 0.403669 0.766104
O O4 0.166793 0.199420 0.756357
O O5 0.541428 0.346845 0.386742
O O6 0.713200 0.075960 0.504808
O O7 0.373582 0.295212 0.236041
O O8 0.161240 0.116132 0.562672
O O9 0.435323 0.382904 0.936798
O O10 0.056042 0.184355 0.199066
O O11 0.367507 0.965582 0.248016
O O12 0.500000 0.000000 0.000000
O O13 0.000000 0.500000 0.000000
#
# Coordination Sequence:
#
# PCOD9060086 Si02
#       6
#     2   2   2   2   2   2
#     4  11  23  42  77 107 140 183 264 301 358 430
#     4  12  29  48  71 114 161 201 241 309 394 437
#     4  12  25  47  74 108 148 197 251 305 355 453
#     4  12  28  49  76 111 160 192 246 324 383 440
#     4  11  24  45  79 112 140 195 257 310 371 447
#     4  12  26  49  82 110 147 207 262 303 361 458
#
# _framework density 27.117937000000001
#
# number of rings (size 3 to 8) (size 9 to 14) (size 15 to 20)
#    0.000    0.333    3.333    4.500    7.000    4.000 
#    0.000    5.000    0.000    0.000    0.000    0.000 
#    0.000    0.000    0.000    0.000    0.000    0.000 
#
# Total GULP energy -67384.364593 kJ/mol
# GULP energy per Si atom -5615.363716 kJ/mol
# Density = 2.705621 g / cm^3
# Si number density = 27.117937 Si / 1000 Ang^3
#
#
#
# Elastic Constant Matrix: (Units=GPa)
#
#
# Indices 1 2 3 4 5 6 
#
# 1 170.1309 40.8381 53.4545 -23.3741 -28.1372 7.5889
# 2 40.8381 124.1929 59.6956 -20.4296 -18.6099 -10.8285
# 3 53.4545 59.6956 131.7260 -26.4689 -19.8619 2.6323
# 4 -23.3741 -20.4296 -26.4689 52.8388 -2.2788 -3.4924
# 5 -28.1372 -18.6099 -19.8619 -2.2788 63.2599 -14.2558
# 6 7.5889 -10.8285 2.6323 -3.4924 -14.2558 57.8332
#
#
#
# Elastic Compliance Matrix: (Units=1/GPa)
#
#
# Indices 1 2 3 4 5 6 
#
# 1 0.007360 -0.000871 -0.001791 0.002107 0.002460 -0.000314
# 2 -0.000871 0.011278 -0.003987 0.002293 0.002472 0.003155
# 3 -0.001791 -0.003987 0.011006 0.003215 0.001501 -0.000448
# 4 0.002107 0.002293 0.003215 0.022681 0.003969 0.002354
# 5 0.002460 0.002472 0.001501 0.003969 0.019391 0.005091
# 6 -0.000314 0.003155 -0.000448 0.002354 0.005091 0.019341
#
#
# Mechanical properties :
#
#
# Convention : Reuss Voigt Hill
#
# Bulk Modulus (GPa) = 61.17954 81.55849 71.36901
# Shear Modulus (GPa) = 45.53576 52.92382 49.22979
#
# Velocity S-wave (km/s) = 4.10222 4.42250 4.26537
# Velocity P-wave (km/s) = 6.71172 7.49792 7.11568
#
# Compressibility (1/GPa) = 0.01634533
#
# Stress axis : x y z
#
# Youngs Moduli (GPa) = 135.86695 88.67201 90.85644
#
# Poissons Ratio (x) = 0.07726 0.16275
# Poissons Ratio (y) = 0.11838 0.36222
# Poissons Ratio (z) = 0.24338 0.35351
#
# Static dielectric constant tensor:
#      x y z
#    x 2.090640 0.030050 0.019440 
#    y 0.030050 2.157830 0.051700 
#    z 0.019440 0.051700 2.153530 
# 
# From -- ./inp_files/25085.got.cif
#   From: 2010.05.17/outbox.cif.g08.bks.cpg/sg2_13_cif.got.tgz:25085.got - 2010.06.03 11:33:40.
