data_PCOD9060120
_publ_section_title
;
Structure prediction by ZEFSAII (Michael W. Deem and Ramdas Pophale) SiO2 
 PCOD9060120
Probable space group: P -1
;
_chemical_formula_sum "Si O2"
_cell_formula_units_Z 14
_cell_length_a 15.725836
_cell_length_b 15.328547
_cell_length_c 7.832226
_cell_angle_alpha 73.611048
_cell_angle_beta 121.585779
_cell_angle_gamma 153.888165
_cell_volume 612.254629
_symmetry_space_group_name_H-M "P -1"
_symmetry_group_IT_number 2
_symmetry_cell_setting 'triclinic'
loop_
_space_group_symop_operation_xyz
x,y,z
-x,-y,-z
loop_
_atom_site_type_symbol
_atom_site_label
_atom_site_fract_x
_atom_site_fract_y
_atom_site_fract_z
Si Si1 0.912931 0.083526 0.252135
Si Si2 0.123918 0.444079 0.377190
Si Si3 0.421007 0.076542 0.264281
Si Si4 0.078730 0.429857 0.946328
Si Si5 0.778837 0.771141 0.783762
Si Si6 0.278559 0.774764 0.775032
Si Si7 0.485876 0.357155 0.715371
O O1 0.073050 0.294091 0.402329
O O2 0.084620 0.172815 0.251928
O O3 0.758022 0.885052 0.313776
O O4 0.708714 0.970571 0.992192
O O5 0.404035 0.712402 0.557016
O O6 0.047173 0.418869 0.123587
O O7 0.943860 0.337896 0.388985
O O8 0.597952 0.151489 0.313840
O O9 0.188184 0.834148 0.246771
O O10 0.295270 0.534606 0.104651
O O11 0.167500 0.592079 0.849821
O O12 0.599116 0.545623 0.806563
O O13 0.604211 0.696763 0.542285
O O14 0.000000 0.000000 0.000000
O O15 0.500000 0.000000 0.000000
#
# Coordination Sequence:
#
# PCOD9060120 Si02
#       7
#     2   2   2   2   2   2   2
#     4  11  23  46  66  97 133 169 211 270 322 383
#     4  11  24  42  67  94 135 174 214 267 315 378
#     4  11  24  41  65  95 133 171 222 259 313 384
#     4  11  23  43  65  96 132 173 213 266 321 378
#     4  11  26  43  69  98 128 166 218 268 326 392
#     4  12  22  45  65  95 136 174 215 266 317 376
#     4  11  23  44  67  96 131 169 211 268 330 381
#
# _framework density 22.866304
#
# number of rings (size 3 to 8) (size 9 to 14) (size 15 to 20)
#    0.000    0.857    7.143    1.286    2.000    2.286 
#    5.143    0.000    0.000    0.000    0.000    0.000 
#    0.000    0.000    0.000    0.000    0.000    0.000 
#
# Total GULP energy -78372.672202 kJ/mol
# GULP energy per Si atom -5598.048014 kJ/mol
# Density = 2.281426 g / cm^3
# Si number density = 22.866304 Si / 1000 Ang^3
#
#
#
# Elastic Constant Matrix: (Units=GPa)
#
#
# Indices 1 2 3 4 5 6 
#
# 1 108.3259 51.9941 29.3256 16.4040 3.3183 -13.9350
# 2 51.9941 187.7416 51.2835 37.3522 -11.3284 -32.7636
# 3 29.3256 51.2835 86.1789 42.2741 -16.8879 -27.7574
# 4 16.4040 37.3522 42.2741 48.7916 -12.4867 -7.8648
# 5 3.3183 -11.3284 -16.8879 -12.4867 21.0805 13.0835
# 6 -13.9350 -32.7636 -27.7574 -7.8648 13.0835 39.2269
#
#
#
# Elastic Compliance Matrix: (Units=1/GPa)
#
#
# Indices 1 2 3 4 5 6 
#
# 1 0.011838 -0.002246 -0.002513 -0.001623 -0.007800 0.002827
# 2 -0.002246 0.007706 -0.000318 -0.004445 -0.001513 0.005026
# 3 -0.002513 -0.000318 0.026938 -0.019613 0.001913 0.013333
# 4 -0.001623 -0.004445 -0.019613 0.043415 0.017332 -0.015244
# 5 -0.007800 -0.001513 0.001913 0.017332 0.074601 -0.024088
# 6 0.002827 0.005026 0.013333 -0.015244 -0.024088 0.045108
#
#
# Mechanical properties :
#
#
# Convention : Reuss Voigt Hill
#
# Bulk Modulus (GPa) = 27.52792 71.93920 49.73356
# Shear Modulus (GPa) = 21.56367 38.46270 30.01319
#
# Velocity S-wave (km/s) = 3.07422 4.10575 3.62684
# Velocity P-wave (km/s) = 4.96647 7.34883 6.27181
#
# Compressibility (1/GPa) = 0.03632675
#
# Stress axis : x y z
#
# Youngs Moduli (GPa) = 84.47037 129.77265 37.12159
#
# Poissons Ratio (x) = 0.29152 0.09330
# Poissons Ratio (y) = 0.18975 0.01181
# Poissons Ratio (z) = 0.21231 0.04128
#
# Static dielectric constant tensor:
#      x y z
#    x 1.860600 0.003540 0.014030 
#    y 0.003540 1.863420 -0.003400 
#    z 0.014030 -0.003400 1.869910 
# 
# From -- ./inp_files/313215.got.cif
#   From: 2010.05.17/outbox.cif.g08.bks.cpg/sg2_157_cif.got.tgz:313215.got - 2010.06.03 11:33:40.
