data_PCOD9060455
_publ_section_title
;
Structure prediction by ZEFSAII (Michael W. Deem and Ramdas Pophale) SiO2 
 PCOD9060455
Probable space group: P -1
;
_chemical_formula_sum "Si O2"
_cell_formula_units_Z 14
_cell_length_a 11.901163
_cell_length_b 14.005533
_cell_length_c 10.730140
_cell_angle_alpha 59.638478
_cell_angle_beta 129.101147
_cell_angle_gamma 151.744518
_cell_volume 650.927559
_symmetry_space_group_name_H-M "P -1"
_symmetry_group_IT_number 2
_symmetry_cell_setting 'triclinic'
loop_
_space_group_symop_operation_xyz
x,y,z
-x,-y,-z
loop_
_atom_site_type_symbol
_atom_site_label
_atom_site_fract_x
_atom_site_fract_y
_atom_site_fract_z
Si Si1 0.970509 0.713347 0.139315
Si Si2 0.219994 0.825566 0.491111
Si Si3 0.161076 0.026629 0.426410
Si Si4 0.811926 0.456060 0.978754
Si Si5 0.584418 0.667966 0.381269
Si Si6 0.733932 0.788954 0.883945
Si Si7 0.465293 0.803576 0.826613
O O1 0.996310 0.694189 0.314925
O O2 0.256854 0.955477 0.156550
O O3 0.951572 0.605051 0.095518
O O4 0.751421 0.667922 0.986906
O O5 0.229210 0.722760 0.650820
O O6 0.500000 0.000000 0.500000
O O7 0.222479 0.938478 0.498966
O O8 0.328779 0.185998 0.551319
O O9 0.236988 0.147081 0.278085
O O10 0.847049 0.827685 0.372367
O O11 0.665601 0.450778 0.793993
O O12 0.586825 0.241608 0.034191
O O13 0.000000 0.500000 0.000000
O O14 0.500000 0.500000 0.500000
O O15 0.506533 0.711202 0.849365
O O16 0.000000 0.000000 0.000000
#
# Coordination Sequence:
#
# PCOD9060455 Si02
#       7
#     2   2   2   2   2   2   2
#     4  10  22  42  68  97 130 165 215 272 330 383
#     4  10  20  40  71 100 124 169 215 268 336 376
#     4  11  22  44  73  93 134 169 223 271 314 391
#     4  12  29  44  61  99 137 173 220 264 325 397
#     4  11  27  46  66  95 131 183 222 256 322 393
#     4  10  17  38  70  96 122 159 211 271 326 373
#     4  10  23  42  66  97 129 170 214 266 334 378
#
# _framework density 21.507771000000002
#
# number of rings (size 3 to 8) (size 9 to 14) (size 15 to 20)
#    0.000    1.429    4.286    2.571    6.000    2.857 
#    2.571    0.000    0.000    0.000    0.000    0.000 
#    0.000    0.000    0.000    0.000    0.000    0.000 
#
# Total GULP energy -78208.486342 kJ/mol
# GULP energy per Si atom -5586.320453 kJ/mol
# Density = 2.145882 g / cm^3
# Si number density = 21.507771 Si / 1000 Ang^3
#
#
#
# Elastic Constant Matrix: (Units=GPa)
#
#
# Indices 1 2 3 4 5 6 
#
# 1 181.7801 29.2902 60.1053 -6.5581 4.7820 -9.8132
# 2 29.2902 50.5240 14.1013 0.3435 4.6695 -4.0767
# 3 60.1053 14.1013 129.3945 -30.6429 19.3666 -0.8551
# 4 -6.5581 0.3435 -30.6429 29.9850 -6.3123 -7.9340
# 5 4.7820 4.6695 19.3666 -6.3123 32.3898 -7.2397
# 6 -9.8132 -4.0767 -0.8551 -7.9340 -7.2397 36.0201
#
#
#
# Elastic Compliance Matrix: (Units=1/GPa)
#
#
# Indices 1 2 3 4 5 6 
#
# 1 0.007172 -0.003194 -0.003503 -0.001223 0.001607 0.001563
# 2 -0.003194 0.022257 -0.001172 -0.002498 -0.002392 0.000590
# 3 -0.003503 -0.001172 0.012959 0.011765 -0.004570 0.000894
# 4 -0.001223 -0.002498 0.011765 0.049446 0.005760 0.011713
# 5 0.001607 -0.002392 -0.004570 0.005760 0.036786 0.008721
# 6 0.001563 0.000590 0.000894 0.011713 0.008721 0.032609
#
#
# Mechanical properties :
#
#
# Convention : Reuss Voigt Hill
#
# Bulk Modulus (GPa) = 37.52294 63.18802 50.35548
# Shear Modulus (GPa) = 26.90321 36.89243 31.89782
#
# Velocity S-wave (km/s) = 3.54059 4.14612 3.85526
# Velocity P-wave (km/s) = 5.84794 7.23625 6.57882
#
# Compressibility (1/GPa) = 0.02665036
#
# Stress axis : x y z
#
# Youngs Moduli (GPa) = 139.42758 44.92977 77.16366
#
# Poissons Ratio (x) = 0.14352 0.27033
# Poissons Ratio (y) = 0.44537 0.09040
# Poissons Ratio (z) = 0.48846 0.05264
#
# Static dielectric constant tensor:
#      x y z
#    x 1.741830 -0.054250 0.045120 
#    y -0.054250 1.695540 0.013650 
#    z 0.045120 0.013650 1.779070 
# 
# From -- ./inp_files/272238.got.cif
#   From: 2010.05.17/outbox.cif.g08.bks.cpg/sg2_137_cif.got.tgz:272238.got - 2010.06.03 11:33:40.
