data_PCOD9060565
_publ_section_title
;
Structure prediction by ZEFSAII (Michael W. Deem and Ramdas Pophale) SiO2 
 PCOD9060565
Probable space group: P -1
;
_chemical_formula_sum "Si O2"
_cell_formula_units_Z 14
_cell_length_a 12.652945
_cell_length_b 9.258995
_cell_length_c 18.013050
_cell_angle_alpha 46.034242
_cell_angle_beta 150.960535
_cell_angle_gamma 142.710411
_cell_volume 620.596581
_symmetry_space_group_name_H-M "P -1"
_symmetry_group_IT_number 2
_symmetry_cell_setting 'triclinic'
loop_
_space_group_symop_operation_xyz
x,y,z
-x,-y,-z
loop_
_atom_site_type_symbol
_atom_site_label
_atom_site_fract_x
_atom_site_fract_y
_atom_site_fract_z
Si Si1 0.872967 0.732765 0.043293
Si Si2 0.569085 0.687261 0.170489
Si Si3 0.655170 0.752650 0.460201
Si Si4 0.346167 0.174352 0.983613
Si Si5 0.715313 0.280421 0.887091
Si Si6 0.051826 0.611112 0.720144
Si Si7 0.972389 0.311543 0.488572
O O1 0.727577 0.703009 0.043215
O O2 0.053296 0.629093 0.209944
O O3 0.656796 0.564943 0.910812
O O4 0.000000 0.000000 0.000000
O O5 0.739351 0.823262 0.153718
O O6 0.430320 0.786081 0.098963
O O7 0.756390 0.666612 0.347970
O O8 0.500000 0.500000 0.500000
O O9 0.469602 0.709632 0.291307
O O10 0.918289 0.757578 0.601881
O O11 0.754375 0.020852 0.458268
O O12 0.643638 0.255401 0.125205
O O13 0.226990 0.913472 0.034945
O O14 0.000000 0.500000 0.000000
O O15 0.040266 0.581663 0.635492
O O16 0.000000 0.500000 0.500000
#
# Coordination Sequence:
#
# PCOD9060565 Si02
#       7
#     2   2   2   2   2   2   2
#     4  11  25  45  72 107 150 193 238 303 373 427
#     4  11  24  42  68 106 135 189 252 287 357 439
#     4  12  29  47  72 109 150 195 241 306 382 422
#     4  11  23  43  72  99 140 192 245 289 357 433
#     4  12  26  44  69 103 147 188 241 304 363 434
#     4  11  23  47  73 100 146 193 243 300 357 445
#     4  12  24  47  75 105 144 189 247 304 357 443
#
# _framework density 22.558937
#
# number of rings (size 3 to 8) (size 9 to 14) (size 15 to 20)
#    0.000    0.571    2.857    6.000    8.000    0.000 
#    2.571    1.429    0.000    0.000    0.000    0.000 
#    0.000    0.000    0.000    0.000    0.000    0.000 
#
# Total GULP energy -78023.149281 kJ/mol
# GULP energy per Si atom -5573.082091 kJ/mol
# Density = 2.250759 g / cm^3
# Si number density = 22.558937 Si / 1000 Ang^3
#
#
#
# Elastic Constant Matrix: (Units=GPa)
#
#
# Indices 1 2 3 4 5 6 
#
# 1 93.8660 43.3603 5.4261 1.2043 -1.7101 -15.2352
# 2 43.3603 157.4810 65.7542 -12.5703 -14.4125 -17.1660
# 3 5.4261 65.7542 89.3900 1.6447 -13.8965 -2.3469
# 4 1.2043 -12.5703 1.6447 22.3004 1.6818 -5.6646
# 5 -1.7101 -14.4125 -13.8965 1.6818 39.6231 -11.1305
# 6 -15.2352 -17.1660 -2.3469 -5.6646 -11.1305 34.2562
#
#
#
# Elastic Compliance Matrix: (Units=1/GPa)
#
#
# Indices 1 2 3 4 5 6 
#
# 1 0.013245 -0.004541 0.002850 -0.002619 0.001078 0.003727
# 2 -0.004541 0.013042 -0.008888 0.009671 0.002825 0.006424
# 3 0.002850 -0.008888 0.018082 -0.007277 0.002922 -0.002201
# 4 -0.002619 0.009671 -0.007277 0.054067 0.002160 0.012825
# 5 0.001078 0.002825 0.002922 0.002160 0.030740 0.012440
# 6 0.003727 0.006424 -0.002201 0.012825 0.012440 0.040081
#
#
# Mechanical properties :
#
#
# Convention : Reuss Voigt Hill
#
# Bulk Modulus (GPa) = 43.08362 63.31314 53.19838
# Shear Modulus (GPa) = 25.23332 34.31569 29.77450
#
# Velocity S-wave (km/s) = 3.34810 3.90443 3.63692
# Velocity P-wave (km/s) = 5.83833 6.96080 6.42413
#
# Compressibility (1/GPa) = 0.02321068
#
# Stress axis : x y z
#
# Youngs Moduli (GPa) = 75.50300 76.67512 55.30272
#
# Poissons Ratio (x) = 0.34816 -0.15760
# Poissons Ratio (y) = 0.34284 0.49153
# Poissons Ratio (z) = -0.21516 0.68149
#
# Static dielectric constant tensor:
#      x y z
#    x 1.782960 0.424170 0.053380 
#    y 0.424170 0.856740 -0.188760 
#    z 0.053380 -0.188760 1.804730 
# 
# From -- ./inp_files/298757.got.cif
#   From: 2010.05.17/outbox.cif.g08.bks.cpg/sg2_150_cif.got.tgz:298757.got - 2010.06.03 11:33:40.
