data_PCOD9060872
_publ_section_title
;
Structure prediction by ZEFSAII (Michael W. Deem and Ramdas Pophale) SiO2 
 PCOD9060872
Probable space group: P -1
;
_chemical_formula_sum "Si O2"
_cell_formula_units_Z 16
_cell_length_a 18.551969
_cell_length_b 9.179786
_cell_length_c 9.065059
_cell_angle_alpha 49.975041
_cell_angle_beta 135.174992
_cell_angle_gamma 135.694058
_cell_volume 730.789852
_symmetry_space_group_name_H-M "P -1"
_symmetry_group_IT_number 2
_symmetry_cell_setting 'triclinic'
loop_
_space_group_symop_operation_xyz
x,y,z
-x,-y,-z
loop_
_atom_site_type_symbol
_atom_site_label
_atom_site_fract_x
_atom_site_fract_y
_atom_site_fract_z
Si Si1 0.496284 0.289758 0.713042
Si Si2 0.476237 0.767769 0.677425
Si Si3 0.674105 0.152088 0.398019
Si Si4 0.882675 0.017280 0.323275
Si Si5 0.882545 0.368292 0.323363
Si Si6 0.681320 0.659805 0.434459
Si Si7 0.751270 0.596855 0.895990
Si Si8 0.265033 0.076407 0.110152
O O1 0.500000 0.500000 0.500000
O O2 0.410092 0.247853 0.751475
O O3 0.629912 0.371383 0.886242
O O4 0.430534 0.076771 0.660369
O O5 0.392390 0.717411 0.730075
O O6 0.397943 0.588580 0.561641
O O7 0.604854 0.791399 0.859705
O O8 0.500000 0.000000 0.500000
O O9 0.775702 0.252226 0.359913
O O10 0.728438 0.096019 0.656493
O O11 0.781796 0.786764 0.383517
O O12 0.889307 0.197713 0.331412
O O13 0.834771 0.039873 0.080186
O O14 0.000000 0.000000 0.500000
O O15 0.000000 0.500000 0.500000
O O16 0.854661 0.539247 0.086637
O O17 0.739633 0.688276 0.661293
O O18 0.757241 0.758476 0.928013
#
# Coordination Sequence:
#
# PCOD9060872 Si02
#       8
#     2   2   2   2   2   2   2   2
#     4  10  17  39  70 100 129 169 210 256 324 412
#     4  10  22  37  69 108 138 166 210 269 328 397
#     4  11  23  43  69  98 139 173 211 266 332 394
#     4  12  29  47  66  94 130 174 231 277 317 384
#     4  12  29  48  65  94 129 176 232 275 316 387
#     4  11  22  44  70  97 138 175 212 261 335 396
#     4  11  22  41  73  97 133 174 212 265 334 396
#     4  11  22  43  69 100 134 172 212 267 335 392
#
# _framework density 21.894120000000001
#
# number of rings (size 3 to 8) (size 9 to 14) (size 15 to 20)
#    0.000    1.000    5.000    3.000    8.750    3.000 
#    0.000    3.750    0.000    0.000    0.000    0.000 
#    0.000    0.000    0.000    0.000    0.000    0.000 
#
# Total GULP energy -89440.576201 kJ/mol
# GULP energy per Si atom -5590.036013 kJ/mol
# Density = 2.184429 g / cm^3
# Si number density = 21.894120 Si / 1000 Ang^3
#
#
#
# Elastic Constant Matrix: (Units=GPa)
#
#
# Indices 1 2 3 4 5 6 
#
# 1 96.5841 12.3094 32.1862 2.1215 7.1043 -27.2415
# 2 12.3094 76.0050 27.6640 22.9964 0.2557 -25.5199
# 3 32.1862 27.6640 115.3710 22.9627 13.7234 -11.4356
# 4 2.1215 22.9964 22.9627 28.3614 -2.2202 -5.6833
# 5 7.1043 0.2557 13.7234 -2.2202 37.4522 1.2077
# 6 -27.2415 -25.5199 -11.4356 -5.6833 1.2077 38.7667
#
#
#
# Elastic Compliance Matrix: (Units=1/GPa)
#
#
# Indices 1 2 3 4 5 6 
#
# 1 0.014427 0.001872 -0.003707 0.002420 -0.001592 0.010681
# 2 0.001872 0.022282 -0.001523 -0.014373 -0.001236 0.013466
# 3 -0.003707 -0.001523 0.012243 -0.008971 -0.004266 -0.001178
# 4 0.002420 -0.014373 -0.008971 0.053942 0.006211 -0.002693
# 5 -0.001592 -0.001236 -0.004266 0.006211 0.029045 -0.003185
# 6 0.010681 0.013466 -0.001178 -0.002693 -0.003185 0.041523
#
#
# Mechanical properties :
#
#
# Convention : Reuss Voigt Hill
#
# Bulk Modulus (GPa) = 23.67586 48.03103 35.85345
# Shear Modulus (GPa) = 25.73897 35.30276 30.52087
#
# Velocity S-wave (km/s) = 3.43244 4.01987 3.73771
# Velocity P-wave (km/s) = 5.15229 6.59782 5.91935
#
# Compressibility (1/GPa) = 0.04223711
#
# Stress axis : x y z
#
# Youngs Moduli (GPa) = 69.31380 44.87831 81.67708
#
# Poissons Ratio (x) = -0.08403 0.30281
# Poissons Ratio (y) = -0.12979 0.12439
# Poissons Ratio (z) = 0.25698 0.06835
#
# Static dielectric constant tensor:
#      x y z
#    x 1.876990 0.000370 -0.042700 
#    y 0.000370 1.782140 -0.016910 
#    z -0.042700 -0.016910 1.844030 
# 
# From -- ./inp_files/214527.got.cif
#   From: 2010.05.17/outbox.cif.g08.bks.cpg/sg2_108_cif.got.tgz:214527.got - 2010.06.03 11:33:40.
