data_PCOD9060921
_publ_section_title
;
Structure prediction by ZEFSAII (Michael W. Deem and Ramdas Pophale) SiO2 
 PCOD9060921
Probable space group: P -1
;
_chemical_formula_sum "Si O2"
_cell_formula_units_Z 16
_cell_length_a 17.931815
_cell_length_b 9.236369
_cell_length_c 12.829373
_cell_angle_alpha 128.767263
_cell_angle_beta 149.800539
_cell_angle_gamma 61.742905
_cell_volume 820.836036
_symmetry_space_group_name_H-M "P -1"
_symmetry_group_IT_number 2
_symmetry_cell_setting 'triclinic'
loop_
_space_group_symop_operation_xyz
x,y,z
-x,-y,-z
loop_
_atom_site_type_symbol
_atom_site_label
_atom_site_fract_x
_atom_site_fract_y
_atom_site_fract_z
Si Si1 0.369282 0.454633 0.238355
Si Si2 0.404886 0.168038 0.976760
Si Si3 0.544913 0.538358 0.188788
Si Si4 0.610249 0.198665 0.744757
Si Si5 0.065196 0.979359 0.453029
Si Si6 0.086994 0.954628 0.918034
Si Si7 0.121862 0.272791 0.270118
Si Si8 0.965348 0.561524 0.101755
O O1 0.500000 0.500000 0.500000
O O2 0.378483 0.640840 0.259669
O O3 0.391864 0.266293 0.117997
O O4 0.206965 0.418455 0.080713
O O5 0.232746 0.097403 0.702088
O O6 0.486510 0.345006 0.090121
O O7 0.500000 0.000000 0.000000
O O8 0.461075 0.702795 0.202658
O O9 0.720127 0.606704 0.452983
O O10 0.500000 0.500000 0.000000
O O11 0.500000 0.000000 0.500000
O O12 0.774498 0.156211 0.952107
O O13 0.068714 0.759477 0.341462
O O14 0.000000 0.000000 0.500000
O O15 0.964029 0.029771 0.256133
O O16 0.945869 0.856902 0.773718
O O17 0.138365 0.151248 0.130911
O O18 0.004552 0.406348 0.158471
O O19 0.000000 0.500000 0.000000
#
# Coordination Sequence:
#
# PCOD9060921 Si02
#       8
#     2   2   2   2   2   2   2   2
#     4  11  27  45  69 104 138 179 237 286 342 420
#     4  11  26  47  67  99 138 181 228 283 349 414
#     4  11  25  45  67 100 136 178 227 280 346 411
#     4  11  24  44  70 100 139 181 228 282 345 409
#     4  12  26  45  69 103 142 180 235 292 352 416
#     4  11  24  43  70 103 137 180 233 285 346 419
#     4  11  23  44  70 101 137 180 232 285 343 417
#     4  12  25  44  71 102 136 184 233 288 350 411
#
# _framework density 19.492321
#
# number of rings (size 3 to 8) (size 9 to 14) (size 15 to 20)
#    0.000    0.750    5.000    1.500    7.000    3.000 
#    0.000    2.500    0.000    0.000    0.000    0.000 
#    0.000    0.000    0.000    0.000    0.000    0.000 
#
# Total GULP energy -89382.081704 kJ/mol
# GULP energy per Si atom -5586.380107 kJ/mol
# Density = 1.944796 g / cm^3
# Si number density = 19.492321 Si / 1000 Ang^3
#
#
#
# Elastic Constant Matrix: (Units=GPa)
#
#
# Indices 1 2 3 4 5 6 
#
# 1 123.4557 39.3914 71.5799 -0.3109 -15.2376 -14.8081
# 2 39.3914 105.0092 47.9962 1.7121 -16.6001 -21.7402
# 3 71.5799 47.9962 158.8394 1.8028 -7.4361 -7.6295
# 4 -0.3109 1.7121 1.8028 45.3762 0.1797 0.3550
# 5 -15.2376 -16.6001 -7.4361 0.1797 41.4453 0.5929
# 6 -14.8081 -21.7402 -7.6295 0.3550 0.5929 34.3917
#
#
#
# Elastic Compliance Matrix: (Units=1/GPa)
#
#
# Indices 1 2 3 4 5 6 
#
# 1 0.012006 -0.001163 -0.004760 0.000277 0.003045 0.003323
# 2 -0.001163 0.013547 -0.003008 -0.000474 0.004356 0.007325
# 3 -0.004760 -0.003008 0.009202 -0.000265 -0.001276 -0.001885
# 4 0.000277 -0.000474 -0.000265 0.022073 -0.000225 -0.000463
# 5 0.003045 0.004356 -0.001276 -0.000225 0.026717 0.003324
# 6 0.003323 0.007325 -0.001885 -0.000463 0.003324 0.034667
#
#
# Mechanical properties :
#
#
# Convention : Reuss Voigt Hill
#
# Bulk Modulus (GPa) = 59.19631 78.35990 68.77811
# Shear Modulus (GPa) = 35.28411 39.46511 37.37461
#
# Velocity S-wave (km/s) = 4.25921 4.50449 4.38356
# Velocity P-wave (km/s) = 7.39072 8.20619 7.80911
#
# Compressibility (1/GPa) = 0.01689295
#
# Stress axis : x y z
#
# Youngs Moduli (GPa) = 83.28994 73.81631 108.66712
#
# Poissons Ratio (x) = 0.08588 0.51725
# Poissons Ratio (y) = 0.09690 0.32688
# Poissons Ratio (z) = 0.39646 0.22205
#
# Static dielectric constant tensor:
#      x y z
#    x 1.750690 0.002390 -0.014310 
#    y 0.002390 1.679020 0.017280 
#    z -0.014310 0.017280 1.673080 
# 
# From -- ./inp_files/184282.got.cif
#   From: 2010.05.17/outbox.cif.g08.bks.cpg/sg2_93_cif.got.tgz:184282.got - 2010.06.03 11:33:40.
