data_PCOD9060099
_publ_section_title
;
Structure prediction by ZEFSAII (Michael W. Deem and Ramdas Pophale) SiO2 
 PCOD9060099
Probable space group: P -1
;
_chemical_formula_sum "Si O2"
_cell_formula_units_Z 16
_cell_length_a 8.267985
_cell_length_b 5.897789
_cell_length_c 24.429089
_cell_angle_alpha 130.476599
_cell_angle_beta 130.201294
_cell_angle_gamma 55.068417
_cell_volume 667.465666
_symmetry_space_group_name_H-M "P -1"
_symmetry_group_IT_number 2
_symmetry_cell_setting 'triclinic'
loop_
_space_group_symop_operation_xyz
x,y,z
-x,-y,-z
loop_
_atom_site_type_symbol
_atom_site_label
_atom_site_fract_x
_atom_site_fract_y
_atom_site_fract_z
Si Si1 0.124710 0.682363 0.013381
Si Si2 0.312789 0.479178 0.770102
Si Si3 0.524621 0.014079 0.816887
Si Si4 0.402624 0.774509 0.404835
Si Si5 0.284960 0.674181 0.249183
Si Si6 0.946494 0.354043 0.610379
Si Si7 0.787294 0.889034 0.132555
Si Si8 0.178429 0.650747 0.535281
O O1 0.233110 0.404179 0.952103
O O2 0.305465 0.782383 0.104568
O O3 0.000000 0.500000 0.000000
O O4 0.000000 0.000000 0.000000
O O5 0.326176 0.170994 0.758422
O O6 0.538619 0.370380 0.768142
O O7 0.111416 0.551711 0.695112
O O8 0.262932 0.761391 0.847260
O O9 0.398850 0.022441 0.847857
O O10 0.667870 0.681943 0.777329
O O11 0.343062 0.861925 0.342690
O O12 0.200671 0.699023 0.379924
O O13 0.601744 0.468735 0.401806
O O14 0.500000 0.000000 0.500000
O O15 0.037826 0.793778 0.193360
O O16 0.804158 0.456414 0.540994
O O17 0.101312 0.017543 0.576528
O O18 0.000000 0.500000 0.500000
#
# Coordination Sequence:
#
# PCOD9060099 Si02
#       8
#     2   2   2   2   2   2   2   2
#     4  12  27  48  82 116 158 200 247 306 375 446
#     4  11  26  43  72 103 138 194 238 304 360 443
#     4  11  25  48  74 105 147 191 244 291 371 434
#     4  12  25  41  67  96 133 183 237 296 366 433
#     4  11  25  46  68 100 146 185 239 303 364 439
#     4  11  25  42  66  96 131 181 235 291 370 425
#     4  11  26  46  75 108 146 191 241 296 368 441
#     4  11  23  43  63  90 133 171 231 297 354 432
#
# _framework density 23.971270000000001
#
# number of rings (size 3 to 8) (size 9 to 14) (size 15 to 20)
#    0.000    0.750    2.500    3.750    7.000    6.500 
#    0.000    0.000    0.000    0.000    0.000    0.000 
#    0.000    0.000    0.000    0.000    0.000    0.000 
#
# Total GULP energy -89342.058021 kJ/mol
# GULP energy per Si atom -5583.878626 kJ/mol
# Density = 2.391671 g / cm^3
# Si number density = 23.971270 Si / 1000 Ang^3
#
#
#
# Elastic Constant Matrix: (Units=GPa)
#
#
# Indices 1 2 3 4 5 6 
#
# 1 69.7065 4.3272 11.1837 3.9748 3.4152 -13.6191
# 2 4.3272 84.8194 17.5297 14.4127 -7.2407 -11.3525
# 3 11.1837 17.5297 103.8398 13.7389 -5.4455 -11.6464
# 4 3.9748 14.4127 13.7389 45.9342 -7.8747 -5.6357
# 5 3.4152 -7.2407 -5.4455 -7.8747 39.4326 -3.8603
# 6 -13.6191 -11.3525 -11.6464 -5.6357 -3.8603 24.9066
#
#
#
# Elastic Compliance Matrix: (Units=1/GPa)
#
#
# Indices 1 2 3 4 5 6 
#
# 1 0.016163 0.000493 -0.000860 -0.000372 -0.000673 0.008472
# 2 0.000493 0.013426 -0.001208 -0.002833 0.002231 0.005529
# 3 -0.000860 -0.001208 0.010683 -0.002068 0.001278 0.003705
# 4 -0.000372 -0.002833 -0.002068 0.024546 0.004499 0.003790
# 5 -0.000673 0.002231 0.001278 0.004499 0.027542 0.006533
# 6 0.008472 0.005529 0.003705 0.003790 0.006533 0.050905
#
#
# Mechanical properties :
#
#
# Convention : Reuss Voigt Hill
#
# Bulk Modulus (GPa) = 26.93785 36.04965 31.49375
# Shear Modulus (GPa) = 31.48834 37.07635 34.28235
#
# Velocity S-wave (km/s) = 3.62828 3.93708 3.78583
# Velocity P-wave (km/s) = 5.36791 5.97819 5.68125
#
# Compressibility (1/GPa) = 0.03712248
#
# Stress axis : x y z
#
# Youngs Moduli (GPa) = 61.87105 74.48154 93.60786
#
# Poissons Ratio (x) = -0.03670 0.08048
# Poissons Ratio (y) = -0.03049 0.11304
# Poissons Ratio (z) = 0.05320 0.08994
#
# Static dielectric constant tensor:
#      x y z
#    x 1.918110 0.069390 0.037360 
#    y 0.069390 1.979310 0.087390 
#    z 0.037360 0.087390 1.980120 
# 
# From -- ./inp_files/141105.got.cif
#   From: 2010.05.17/outbox.cif.g08.bks.cpg/sg2_71_cif.got.tgz:141105.got - 2010.06.03 11:33:40.
