data_PCOD9060656
_publ_section_title
;
Structure prediction by ZEFSAII (Michael W. Deem and Ramdas Pophale) SiO2 
 PCOD9060656
Probable space group: P -1
;
_chemical_formula_sum "Si O2"
_cell_formula_units_Z 12
_cell_length_a 18.488751
_cell_length_b 12.316948
_cell_length_c 8.993173
_cell_angle_alpha 144.403376
_cell_angle_beta 139.073174
_cell_angle_gamma 26.061204
_cell_volume 521.188121
_symmetry_space_group_name_H-M "P -1"
_symmetry_group_IT_number 2
_symmetry_cell_setting 'triclinic'
loop_
_space_group_symop_operation_xyz
x,y,z
-x,-y,-z
loop_
_atom_site_type_symbol
_atom_site_label
_atom_site_fract_x
_atom_site_fract_y
_atom_site_fract_z
Si Si1 0.227184 0.876687 0.016875
Si Si2 0.759722 0.015847 0.517337
Si Si3 0.470566 0.235023 0.135114
Si Si4 0.858826 0.465861 0.141537
Si Si5 0.386774 0.998414 0.229144
Si Si6 0.119556 0.612265 0.554392
O O1 0.259669 0.840985 0.204081
O O2 0.355718 0.846695 0.100148
O O3 0.043339 0.196020 0.072541
O O4 0.210859 0.685226 0.727155
O O5 0.804899 0.747296 0.342568
O O6 0.922413 0.869332 0.514826
O O7 0.589266 0.224396 0.396316
O O8 0.273462 0.499860 0.107974
O O9 0.500000 0.000000 0.000000
O O10 0.535091 0.136428 0.958138
O O11 0.858739 0.433768 0.283496
O O12 0.210613 0.323895 0.301296
O O13 0.500000 0.000000 0.500000
#
# Coordination Sequence:
#
# PCOD9060656 Si02
#       6
#     2   2   2   2   2   2
#     4  11  22  39  69  91 119 162 210 248 295 369
#     4  10  18  38  64  94 122 163 200 250 306 359
#     4  10  22  38  66  91 120 166 202 247 317 357
#     4  10  17  39  63  91 122 163 201 246 300 366
#     4  12  22  42  66  88 124 160 206 258 297 361
#     4  11  21  38  66  95 119 162 209 246 302 363
#
# _framework density 23.024314
#
# number of rings (size 3 to 8) (size 9 to 14) (size 15 to 20)
#    0.000    1.333    5.000    4.000    0.000    1.333 
#    0.000    4.167    7.333    0.000    0.000    0.000 
#    0.000    0.000    0.000    0.000    0.000    0.000 
#
# Total GULP energy -67180.655349 kJ/mol
# GULP energy per Si atom -5598.387946 kJ/mol
# Density = 2.297191 g / cm^3
# Si number density = 23.024314 Si / 1000 Ang^3
#
#
#
# Elastic Constant Matrix: (Units=GPa)
#
#
# Indices 1 2 3 4 5 6 
#
# 1 111.3994 16.6524 22.0284 -0.3018 27.6958 -11.8895
# 2 16.6524 91.2238 27.2659 -21.6793 6.8808 -2.4743
# 3 22.0284 27.2659 72.8643 -23.5175 25.4335 -5.0315
# 4 -0.3018 -21.6793 -23.5175 50.9950 -0.7296 18.0692
# 5 27.6958 6.8808 25.4335 -0.7296 37.7178 1.3283
# 6 -11.8895 -2.4743 -5.0315 18.0692 1.3283 22.7167
#
#
#
# Elastic Compliance Matrix: (Units=1/GPa)
#
#
# Indices 1 2 3 4 5 6 
#
# 1 0.012907 -0.002411 -0.000851 -0.005414 -0.008961 0.011135
# 2 -0.002411 0.013599 -0.003409 0.006198 0.001905 -0.005577
# 3 -0.000851 -0.003409 0.023245 0.010075 -0.014132 -0.002856
# 4 -0.005414 0.006198 0.010075 0.037257 -0.002191 -0.029434
# 5 -0.008961 0.001905 -0.014132 -0.002191 0.042526 -0.008356
# 6 0.011135 -0.005577 -0.002856 -0.029434 -0.008356 0.072509
#
#
# Mechanical properties :
#
#
# Convention : Reuss Voigt Hill
#
# Bulk Modulus (GPa) = 27.46590 45.26453 36.36521
# Shear Modulus (GPa) = 21.97603 36.25528 29.11566
#
# Velocity S-wave (km/s) = 3.09280 3.97249 3.55992
# Velocity P-wave (km/s) = 4.97080 6.38303 5.72066
#
# Compressibility (1/GPa) = 0.03640879
#
# Stress axis : x y z
#
# Youngs Moduli (GPa) = 77.47838 73.53381 43.02088
#
# Poissons Ratio (x) = 0.17726 0.03660
# Poissons Ratio (y) = 0.18677 0.14668
# Poissons Ratio (z) = 0.06592 0.25071
#
# Static dielectric constant tensor:
#      x y z
#    x 1.839130 0.004790 0.078400 
#    y 0.004790 1.903150 -0.009710 
#    z 0.078400 -0.009710 1.863920 
# 
# From -- ./inp_files/167117.got.cif
#   From: 2010.05.17/outbox.cif.g08.bks.cpg/sg2_84_cif.got.tgz:167117.got - 2010.06.03 11:33:40.
