data_PCOD9060309
_publ_section_title
;
Structure prediction by ZEFSAII (Michael W. Deem and Ramdas Pophale) SiO2 
 PCOD9060309
Probable space group: P -1
;
_chemical_formula_sum "Si O2"
_cell_formula_units_Z 16
_cell_length_a 17.228599
_cell_length_b 12.700269
_cell_length_c 15.996723
_cell_angle_alpha 153.023025
_cell_angle_beta 149.894552
_cell_angle_gamma 46.950358
_cell_volume 733.960657
_symmetry_space_group_name_H-M "P -1"
_symmetry_group_IT_number 2
_symmetry_cell_setting 'triclinic'
loop_
_space_group_symop_operation_xyz
x,y,z
-x,-y,-z
loop_
_atom_site_type_symbol
_atom_site_label
_atom_site_fract_x
_atom_site_fract_y
_atom_site_fract_z
Si Si1 0.123697 0.392228 0.202928
Si Si2 0.463168 0.818529 0.259979
Si Si3 0.808518 0.422505 0.288183
Si Si4 0.320452 0.289784 0.162417
Si Si5 0.101447 0.300073 0.811877
Si Si6 0.354295 0.764064 0.818045
Si Si7 0.197989 0.067595 0.420257
Si Si8 0.678771 0.691202 0.130666
O O1 0.206710 0.279373 0.129968
O O2 0.262440 0.559580 0.516560
O O3 0.031356 0.570381 0.209365
O O4 0.965284 0.156193 0.923760
O O5 0.623730 0.944265 0.439602
O O6 0.500000 0.000000 0.500000
O O7 0.303394 0.779427 0.026395
O O8 0.424434 0.544456 0.071744
O O9 0.751513 0.326783 0.259582
O O10 0.781063 0.677701 0.427071
O O11 0.000000 0.500000 0.500000
O O12 0.500000 0.500000 0.500000
O O13 0.230620 0.361514 0.051891
O O14 0.345211 0.032948 0.981485
O O15 0.210345 0.378989 0.883905
O O16 0.000000 0.000000 0.500000
O O17 0.542561 0.779366 0.022209
O O18 0.194730 0.105114 0.543690
#
# Coordination Sequence:
#
# PCOD9060309 Si02
#       8
#     2   2   2   2   2   2   2   2
#     4  12  28  46  74 106 143 184 243 295 360 430
#     4  11  23  43  69 105 144 190 237 284 358 427
#     4  11  24  42  70 102 148 184 226 293 347 420
#     4  12  29  49  74 106 139 188 243 298 364 420
#     4  12  26  47  74 102 140 187 239 304 360 413
#     4  12  26  48  71 105 147 186 238 291 358 428
#     4  11  23  46  68 106 141 187 235 283 356 429
#     4  11  24  45  72 100 144 189 236 293 356 428
#
# _framework density 21.799534000000001
#
# number of rings (size 3 to 8) (size 9 to 14) (size 15 to 20)
#    0.000    0.500    3.750    4.125    8.750    4.500 
#    0.000    0.000    0.000    0.000    0.000    0.000 
#    0.000    0.000    0.000    0.000    0.000    0.000 
#
# Total GULP energy -89489.328386 kJ/mol
# GULP energy per Si atom -5593.083024 kJ/mol
# Density = 2.174992 g / cm^3
# Si number density = 21.799534 Si / 1000 Ang^3
#
#
#
# Elastic Constant Matrix: (Units=GPa)
#
#
# Indices 1 2 3 4 5 6 
#
# 1 63.6153 -13.4409 17.5797 -10.2849 0.8336 -3.0637
# 2 -13.4409 31.7055 -7.5477 -6.8719 -4.2469 2.7638
# 3 17.5797 -7.5477 104.5323 -1.7220 -4.5478 4.2923
# 4 -10.2849 -6.8719 -1.7220 33.5930 -1.6627 -2.0180
# 5 0.8336 -4.2469 -4.5478 -1.6627 42.6077 -7.3122
# 6 -3.0637 2.7638 4.2923 -2.0180 -7.3122 29.5468
#
#
#
# Elastic Compliance Matrix: (Units=1/GPa)
#
#
# Indices 1 2 3 4 5 6 
#
# 1 0.019837 0.009476 -0.002572 0.008070 0.000999 0.002342
# 2 0.009476 0.039001 0.001631 0.011099 0.004116 -0.001126
# 3 -0.002572 0.001631 0.010229 0.000022 0.001022 -0.001651
# 4 0.008070 0.011099 0.000022 0.034821 0.002802 0.002867
# 5 0.000999 0.004116 0.001022 0.002802 0.025104 0.005974
# 6 0.002342 -0.001126 -0.001651 0.002867 0.005974 0.036107
#
#
# Mechanical properties :
#
#
# Convention : Reuss Voigt Hill
#
# Bulk Modulus (GPa) = 11.60953 21.44836 16.52894
# Shear Modulus (GPa) = 28.28988 34.70029 31.49509
#
# Velocity S-wave (km/s) = 3.60631 3.99405 3.80512
# Velocity P-wave (km/s) = 4.76212 5.57945 5.18691
#
# Compressibility (1/GPa) = 0.08613616
#
# Stress axis : x y z
#
# Youngs Moduli (GPa) = 50.41164 25.64065 97.75888
#
# Poissons Ratio (x) = -0.24297 0.25140
# Poissons Ratio (y) = -0.47770 -0.15940
# Poissons Ratio (z) = 0.12964 -0.04181
#
# Static dielectric constant tensor:
#      x y z
#    x 1.718110 0.039680 0.008100 
#    y 0.039680 1.751170 0.039290 
#    z 0.008100 0.039290 1.772730 
# 
# From -- ./inp_files/378832.got.cif
#   From: 2010.05.17/outbox.cif.g08.bks.cpg/sg2_190_cif.got.tgz:378832.got - 2010.06.03 11:33:40.
