data_PCOD9060537
_publ_section_title
;
Structure prediction by ZEFSAII (Michael W. Deem and Ramdas Pophale) SiO2 
 PCOD9060537
Probable space group: P -1
;
_chemical_formula_sum "Si O2"
_cell_formula_units_Z 14
_cell_length_a 9.274878
_cell_length_b 17.721675
_cell_length_c 9.719041
_cell_angle_alpha 119.652016
_cell_angle_beta 72.071195
_cell_angle_gamma 152.235460
_cell_volume 612.501494
_symmetry_space_group_name_H-M "P -1"
_symmetry_group_IT_number 2
_symmetry_cell_setting 'triclinic'
loop_
_space_group_symop_operation_xyz
x,y,z
-x,-y,-z
loop_
_atom_site_type_symbol
_atom_site_label
_atom_site_fract_x
_atom_site_fract_y
_atom_site_fract_z
Si Si1 0.250444 0.257024 0.988653
Si Si2 0.216769 0.909970 0.431098
Si Si3 0.075411 0.465761 0.061752
Si Si4 0.463904 0.483550 0.334021
Si Si5 0.263866 0.876855 0.090535
Si Si6 0.755348 0.440762 0.590728
Si Si7 0.032668 0.041745 0.366978
O O1 0.615033 0.430328 0.987283
O O2 0.074429 0.250067 0.968319
O O3 0.291483 0.306432 0.178420
O O4 0.067980 0.079695 0.825656
O O5 0.336262 0.970248 0.290963
O O6 0.835930 0.683121 0.343662
O O7 0.185690 0.983189 0.591830
O O8 0.500000 0.000000 0.500000
O O9 0.195754 0.557019 0.260052
O O10 0.000000 0.500000 0.000000
O O11 0.785142 0.248685 0.968537
O O12 0.500000 0.500000 0.500000
O O13 0.236776 0.450235 0.326309
O O14 0.500000 0.000000 0.000000
O O15 0.415382 0.252893 0.442032
O O16 0.000000 0.500000 0.500000
O O17 0.000000 0.000000 0.500000
#
# Coordination Sequence:
#
# PCOD9060537 Si02
#       7
#     2   2   2   2   2   2   2
#     4  12  24  48  76 102 156 192 265 309 388 458
#     4  11  26  46  72 106 155 190 255 314 386 458
#     4  12  27  47  77 111 151 210 256 316 391 459
#     4  11  26  48  76 106 143 208 251 316 390 459
#     4  12  27  47  77 111 151 210 256 316 391 459
#     4  11  26  46  72 106 155 190 255 314 386 458
#     4  11  23  43  72 105 137 202 241 309 379 450
#
# _framework density 22.857088000000001
#
# number of rings (size 3 to 8) (size 9 to 14) (size 15 to 20)
#    0.000    0.571    5.714    1.286    8.000    1.143 
#    0.000    3.571    0.000    0.000    0.000    0.000 
#    0.000    0.000    0.000    0.000    0.000    0.000 
#
# Total GULP energy -78098.233664 kJ/mol
# GULP energy per Si atom -5578.445262 kJ/mol
# Density = 2.280506 g / cm^3
# Si number density = 22.857088 Si / 1000 Ang^3
#
#
#
# Elastic Constant Matrix: (Units=GPa)
#
#
# Indices 1 2 3 4 5 6 
#
# 1 177.4723 66.1539 72.0943 -12.9937 -5.2348 24.8107
# 2 66.1539 63.7399 34.3526 -17.4738 -18.2451 4.3664
# 3 72.0943 34.3526 231.1611 -3.7052 -23.7778 -7.2628
# 4 -12.9937 -17.4738 -3.7052 36.1053 -12.1944 -11.2100
# 5 -5.2348 -18.2451 -23.7778 -12.1944 42.7397 -0.5722
# 6 24.8107 4.3664 -7.2628 -11.2100 -0.5722 35.2802
#
#
#
# Elastic Compliance Matrix: (Units=1/GPa)
#
#
# Indices 1 2 3 4 5 6 
#
# 1 0.015058 -0.019882 -0.003652 -0.012904 -0.012533 -0.013184
# 2 -0.019882 0.052172 0.002907 0.035294 0.031790 0.019853
# 3 -0.003652 0.002907 0.005777 0.003903 0.005184 0.004722
# 4 -0.012904 0.035294 0.003903 0.059395 0.032937 0.024917
# 5 -0.012533 0.031790 0.005184 0.032937 0.047945 0.017190
# 6 -0.013184 0.019853 0.004722 0.024917 0.017190 0.044327
#
#
# Mechanical properties :
#
#
# Convention : Reuss Voigt Hill
#
# Bulk Modulus (GPa) = 31.49288 90.84163 61.16726
# Shear Modulus (GPa) = 18.08237 42.80986 30.44611
#
# Velocity S-wave (km/s) = 2.81571 4.33244 3.65365
# Velocity P-wave (km/s) = 4.93751 8.05334 6.67965
#
# Compressibility (1/GPa) = 0.03175321
#
# Stress axis : x y z
#
# Youngs Moduli (GPa) = 66.40961 19.16730 173.09680
#
# Poissons Ratio (x) = 0.38109 0.63213
# Poissons Ratio (y) = 1.32037 -0.50320
# Poissons Ratio (z) = 0.24252 -0.05572
#
# Static dielectric constant tensor:
#      x y z
#    x 1.889640 -0.000360 -0.055390 
#    y -0.000360 1.885600 0.051530 
#    z -0.055390 0.051530 2.014620 
# 
# From -- ./inp_files/218223.got.cif
#   From: 2010.05.17/outbox.cif.g08.bks.cpg/sg2_110_cif.got.tgz:218223.got - 2010.06.03 11:33:40.
