data_PCOD9060790
_publ_section_title
;
Structure prediction by ZEFSAII (Michael W. Deem and Ramdas Pophale) SiO2 
 PCOD9060790
Probable space group: P -1
;
_chemical_formula_sum "Si O2"
_cell_formula_units_Z 14
_cell_length_a 12.867368
_cell_length_b 12.821051
_cell_length_c 12.243202
_cell_angle_alpha 38.782113
_cell_angle_beta 147.124881
_cell_angle_gamma 144.765993
_cell_volume 603.638647
_symmetry_space_group_name_H-M "P -1"
_symmetry_group_IT_number 2
_symmetry_cell_setting 'triclinic'
loop_
_space_group_symop_operation_xyz
x,y,z
-x,-y,-z
loop_
_atom_site_type_symbol
_atom_site_label
_atom_site_fract_x
_atom_site_fract_y
_atom_site_fract_z
Si Si1 0.568657 0.311099 0.048267
Si Si2 0.735668 0.548161 0.708117
Si Si3 0.977768 0.422877 0.663571
Si Si4 0.183362 0.984076 0.099934
Si Si5 0.993543 0.904217 0.759633
Si Si6 0.722741 0.172205 0.096742
Si Si7 0.824005 0.677684 0.441467
O O1 0.777835 0.494870 0.134197
O O2 0.672594 0.207593 0.148792
O O3 0.406887 0.175691 0.112651
O O4 0.401730 0.337186 0.794923
O O5 0.500000 0.500000 0.500000
O O6 0.789126 0.700676 0.726715
O O7 0.856983 0.638346 0.628256
O O8 0.763242 0.368721 0.913412
O O9 0.000000 0.500000 0.500000
O O10 0.818162 0.198736 0.700950
O O11 0.860611 0.521741 0.541947
O O12 0.096891 0.907094 0.964473
O O13 0.000000 0.000000 0.000000
O O14 0.129243 0.904152 0.773062
O O15 0.997006 0.104339 0.599616
O O16 0.500000 0.000000 0.000000
#
# Coordination Sequence:
#
# PCOD9060790 Si02
#       7
#     2   2   2   2   2   2   2
#     4  11  25  48  72 102 143 186 228 293 357 409
#     4  12  23  38  64 105 138 177 228 278 351 417
#     4  12  27  48  72 103 138 184 240 293 346 416
#     4  11  25  47  75 101 136 187 237 288 354 412
#     4  11  23  44  67  98 142 182 227 291 344 418
#     4  12  21  42  70  98 141 183 227 282 351 413
#     4  11  24  44  68 104 141 181 235 286 347 419
#
# _framework density 23.192684
#
# number of rings (size 3 to 8) (size 9 to 14) (size 15 to 20)
#    0.000    0.571    4.286    5.143    0.000    4.000 
#    0.000    0.000    0.000    0.000    0.000    0.000 
#    0.000    0.000    0.000    0.000    0.000    0.000 
#
# Total GULP energy -77984.995185 kJ/mol
# GULP energy per Si atom -5570.356799 kJ/mol
# Density = 2.313990 g / cm^3
# Si number density = 23.192684 Si / 1000 Ang^3
#
#
#
# Elastic Constant Matrix: (Units=GPa)
#
#
# Indices 1 2 3 4 5 6 
#
# 1 78.4321 -28.9511 -14.5533 1.5874 1.4616 8.7343
# 2 -28.9511 60.4793 -3.5610 -4.6770 9.4459 11.9709
# 3 -14.5533 -3.5610 85.4132 -14.6925 1.9271 6.6738
# 4 1.5874 -4.6770 -14.6925 49.7098 1.9548 -10.5728
# 5 1.4616 9.4459 1.9271 1.9548 43.9318 -7.5904
# 6 8.7343 11.9709 6.6738 -10.5728 -7.5904 35.9654
#
#
#
# Elastic Compliance Matrix: (Units=1/GPa)
#
#
# Indices 1 2 3 4 5 6 
#
# 1 0.019724 0.012792 0.004867 -0.000144 -0.005543 -0.011163
# 2 0.012792 0.027355 0.004819 0.000802 -0.009110 -0.014793
# 3 0.004867 0.004819 0.013777 0.003433 -0.002806 -0.004925
# 4 -0.000144 0.000802 0.003433 0.022427 -0.000339 0.005652
# 5 -0.005543 -0.009110 -0.002806 -0.000339 0.026852 0.010466
# 6 -0.011163 -0.014793 -0.004925 0.005652 0.010466 0.040224
#
#
# Mechanical properties :
#
#
# Convention : Reuss Voigt Hill
#
# Bulk Modulus (GPa) = 9.45068 14.46600 11.95834
# Shear Modulus (GPa) = 35.54351 44.01407 39.77879
#
# Velocity S-wave (km/s) = 3.91900 4.36105 4.14592
# Velocity P-wave (km/s) = 4.95599 5.62221 5.29958
#
# Compressibility (1/GPa) = 0.10581249
#
# Stress axis : x y z
#
# Youngs Moduli (GPa) = 50.69904 36.55656 72.58712
#
# Poissons Ratio (x) = -0.46765 -0.35325
# Poissons Ratio (y) = -0.64857 -0.34983
# Poissons Ratio (z) = -0.24673 -0.17618
#
# Static dielectric constant tensor:
#      x y z
#    x 1.759330 -0.010840 -0.076020 
#    y -0.010840 1.777670 -0.029910 
#    z -0.076020 -0.029910 1.930030 
# 
# From -- ./inp_files/427468.got.cif
#   From: 2010.05.17/outbox.cif.g08.bks.cpg/sg2_214_cif.got.tgz:427468.got - 2010.06.03 11:33:40.
