data_PCOD9060326
_publ_section_title
;
Structure prediction by ZEFSAII (Michael W. Deem and Ramdas Pophale) SiO2 
 PCOD9060326
Probable space group: P -1
;
_chemical_formula_sum "Si O2"
_cell_formula_units_Z 15
_cell_length_a 24.360550
_cell_length_b 14.522827
_cell_length_c 12.057541
_cell_angle_alpha 30.146064
_cell_angle_beta 29.726239
_cell_angle_gamma 18.238602
_cell_volume 639.672213
_symmetry_space_group_name_H-M "P -1"
_symmetry_group_IT_number 2
_symmetry_cell_setting 'triclinic'
loop_
_space_group_symop_operation_xyz
x,y,z
-x,-y,-z
loop_
_atom_site_type_symbol
_atom_site_label
_atom_site_fract_x
_atom_site_fract_y
_atom_site_fract_z
Si Si1 0.148678 0.437270 0.251554
Si Si2 0.500000 0.000000 0.500000
Si Si3 0.986699 0.222237 0.436785
Si Si4 0.386638 0.791692 0.819956
Si Si5 0.205036 0.271247 0.073160
Si Si6 0.587845 0.725562 0.879627
Si Si7 0.101555 0.932551 0.056366
Si Si8 0.740576 0.427801 0.467884
O O1 0.199130 0.293806 0.191988
O O2 0.316182 0.250286 0.235360
O O3 0.000000 0.500000 0.500000
O O4 0.050734 0.762143 0.063567
O O5 0.632348 0.001334 0.292095
O O6 0.448737 0.151701 0.306749
O O7 0.048604 0.347334 0.217374
O O8 0.974912 0.132183 0.667794
O O9 0.792542 0.445430 0.480450
O O10 0.134613 0.912340 0.426390
O O11 0.529292 0.649525 0.617995
O O12 0.500000 0.500000 0.000000
O O13 0.195380 0.958968 0.944768
O O14 0.212648 0.467355 0.805520
O O15 0.395400 0.927539 0.060315
O O16 0.728135 0.372614 0.992028
#
# Coordination Sequence:
#
# PCOD9060326 Si02
#       8
#     2   1   2   2   2   2   2   2
#     4  12  28  52  74 106 154 203 253 310 374 454
#     4  12  24  42  76 108 146 188 244 308 368 440
#     4  11  24  43  72 112 153 194 251 309 380 434
#     4  12  23  41  71 111 149 196 245 305 374 436
#     4  12  26  48  75 109 150 203 249 307 376 448
#     4  12  26  48  75 111 148 194 254 307 373 445
#     4  12  25  48  76 110 151 196 252 309 374 451
#     4  11  23  43  69 111 155 196 245 317 364 452
#
# _framework density 23.44951
#
# number of rings (size 3 to 8) (size 9 to 14) (size 15 to 20)
#    0.000    0.267    5.333    3.600    0.000    1.067 
#    2.400    1.333    0.000    0.000    0.000    0.000 
#    0.000    0.000    0.000    0.000    0.000    0.000 
#
# Total GULP energy -83819.368301 kJ/mol
# GULP energy per Si atom -5587.957887 kJ/mol
# Density = 2.339614 g / cm^3
# Si number density = 23.449510 Si / 1000 Ang^3
#
#
#
# Elastic Constant Matrix: (Units=GPa)
#
#
# Indices 1 2 3 4 5 6 
#
# 1 124.6161 21.4780 35.9875 6.1564 1.1551 -3.0987
# 2 21.4780 78.8072 9.4184 4.9535 10.9197 2.0757
# 3 35.9875 9.4184 110.7978 17.1001 6.2958 -2.2336
# 4 6.1564 4.9535 17.1001 26.0891 -1.3651 -7.2371
# 5 1.1551 10.9197 6.2958 -1.3651 49.4675 0.7814
# 6 -3.0987 2.0757 -2.2336 -7.2371 0.7814 40.0127
#
#
#
# Elastic Compliance Matrix: (Units=1/GPa)
#
#
# Indices 1 2 3 4 5 6 
#
# 1 0.009251 -0.002311 -0.002891 0.000388 0.000661 0.000732
# 2 -0.002311 0.013937 0.000135 -0.002719 -0.003094 -0.001326
# 3 -0.002891 0.000135 0.011093 -0.006927 -0.001552 -0.000834
# 4 0.000388 -0.002719 -0.006927 0.045648 0.002606 0.007990
# 5 0.000661 -0.003094 -0.001552 0.002606 0.021149 0.000183
# 6 0.000732 -0.001326 -0.000834 0.007990 0.000183 0.026513
#
#
# Mechanical properties :
#
#
# Convention : Reuss Voigt Hill
#
# Bulk Modulus (GPa) = 41.41334 49.77656 45.59495
# Shear Modulus (GPa) = 34.29938 39.60301 36.95119
#
# Velocity S-wave (km/s) = 3.82866 4.11404 3.97391
# Velocity P-wave (km/s) = 6.10278 6.62120 6.36726
#
# Compressibility (1/GPa) = 0.02414681
#
# Stress axis : x y z
#
# Youngs Moduli (GPa) = 108.09967 71.74904 90.14289
#
# Poissons Ratio (x) = 0.16581 0.26060
# Poissons Ratio (y) = 0.24982 -0.01213
# Poissons Ratio (z) = 0.31251 -0.00965
#
# Static dielectric constant tensor:
#      x y z
#    x 1.992380 0.190550 -0.034360 
#    y 0.190550 2.160640 -0.039670 
#    z -0.034360 -0.039670 1.847840 
# 
# From -- ./inp_files/261115.got.cif
#   From: 2010.05.17/outbox.cif.g08.bks.cpg/sg2_131_cif.got.tgz:261115.got - 2010.06.03 11:33:40.
