data_PCOD9060953
_publ_section_title
;
Structure prediction by ZEFSAII (Michael W. Deem and Ramdas Pophale) SiO2 
 PCOD9060953
Probable space group: P -1
;
_chemical_formula_sum "Si O2"
_cell_formula_units_Z 14
_cell_length_a 23.253773
_cell_length_b 19.624371
_cell_length_c 9.472459
_cell_angle_alpha 41.352390
_cell_angle_beta 145.063246
_cell_angle_gamma 164.309194
_cell_volume 648.382583
_symmetry_space_group_name_H-M "P -1"
_symmetry_group_IT_number 2
_symmetry_cell_setting 'triclinic'
loop_
_space_group_symop_operation_xyz
x,y,z
-x,-y,-z
loop_
_atom_site_type_symbol
_atom_site_label
_atom_site_fract_x
_atom_site_fract_y
_atom_site_fract_z
Si Si1 0.430180 0.013209 0.216436
Si Si2 0.576665 0.374808 0.868898
Si Si3 0.144767 0.938501 0.145608
Si Si4 0.784881 0.236895 0.389106
Si Si5 0.114488 0.551014 0.016286
Si Si6 0.906634 0.023559 0.323335
Si Si7 0.399094 0.617039 0.434082
O O1 0.521262 0.037287 0.222924
O O2 0.500000 0.000000 0.500000
O O3 0.564556 0.249954 0.110433
O O4 0.134489 0.751974 0.051981
O O5 0.561738 0.344695 0.716178
O O6 0.330681 0.202310 0.697491
O O7 0.847042 0.680116 0.975467
O O8 0.176666 0.845667 0.370990
O O9 0.351564 0.181023 0.291305
O O10 0.186335 0.008831 0.957692
O O11 0.000000 0.500000 0.500000
O O12 0.828540 0.310186 0.202537
O O13 0.330244 0.667947 0.268732
O O14 0.000000 0.500000 0.000000
O O15 0.152312 0.312983 0.431852
O O16 0.000000 0.000000 0.500000
#
# Coordination Sequence:
#
# PCOD9060953 Si02
#       7
#     2   2   2   2   2   2   2
#     4  12  21  36  64  90 132 187 225 263 325 392
#     4  11  23  44  70  93 137 178 223 282 343 398
#     4  11  25  42  69 103 136 178 226 280 342 407
#     4  12  21  39  60  96 141 182 225 268 321 405
#     4  12  25  38  60 100 142 184 224 269 329 396
#     4  11  26  50  74  98 131 174 229 294 354 407
#     4  11  25  45  67 102 140 175 230 282 336 413
#
# _framework density 21.592189999999999
#
# number of rings (size 3 to 8) (size 9 to 14) (size 15 to 20)
#    0.000    0.571    5.714    2.571    2.000    6.286 
#    0.000    1.429    0.000    0.000    0.000    0.000 
#    0.000    0.000    0.000    0.000    0.000    0.000 
#
# Total GULP energy -78249.361089 kJ/mol
# GULP energy per Si atom -5589.240078 kJ/mol
# Density = 2.154304 g / cm^3
# Si number density = 21.592190 Si / 1000 Ang^3
#
#
#
# Elastic Constant Matrix: (Units=GPa)
#
#
# Indices 1 2 3 4 5 6 
#
# 1 129.5068 38.9107 55.0011 8.1893 10.5363 22.8762
# 2 38.9107 75.2303 52.8755 33.6977 -2.7929 16.3671
# 3 55.0011 52.8755 73.5008 29.6408 -13.7415 1.2652
# 4 8.1893 33.6977 29.6408 37.6208 -2.0745 0.8833
# 5 10.5363 -2.7929 -13.7415 -2.0745 43.1117 0.7906
# 6 22.8762 16.3671 1.2652 0.8833 0.7906 44.8575
#
#
#
# Elastic Compliance Matrix: (Units=1/GPa)
#
#
# Indices 1 2 3 4 5 6 
#
# 1 0.017624 0.002971 -0.020966 0.009685 -0.010158 -0.009492
# 2 0.002971 0.039911 -0.025281 -0.016498 -0.006719 -0.014921
# 3 -0.020966 -0.025281 0.058345 -0.018038 0.020880 0.018258
# 4 0.009685 -0.016498 -0.018038 0.053080 -0.006643 0.000661
# 5 -0.010158 -0.006719 0.020880 -0.006643 0.031457 0.006619
# 6 -0.009492 -0.014921 0.018258 0.000661 0.006619 0.031933
#
#
# Mechanical properties :
#
#
# Convention : Reuss Voigt Hill
#
# Bulk Modulus (GPa) = 34.09817 63.53472 48.81644
# Shear Modulus (GPa) = 15.21243 33.88139 24.54691
#
# Velocity S-wave (km/s) = 2.65719 3.96555 3.37537
# Velocity P-wave (km/s) = 5.02398 7.10325 6.15209
#
# Compressibility (1/GPa) = 0.02932709
#
# Stress axis : x y z
#
# Youngs Moduli (GPa) = 56.74048 25.05578 17.13950
#
# Poissons Ratio (x) = -0.07443 0.35935
# Poissons Ratio (y) = -0.16856 0.43330
# Poissons Ratio (z) = 1.18965 0.63343
#
# Static dielectric constant tensor:
#      x y z
#    x 1.906510 0.028600 0.045500 
#    y 0.028600 2.087870 0.114490 
#    z 0.045500 0.114490 1.831210 
# 
# From -- ./inp_files/348380.got.cif
#   From: 2010.05.17/outbox.cif.g08.bks.cpg/sg2_175_cif.got.tgz:348380.got - 2010.06.03 11:33:40.
