data_PCOD9060128
_publ_section_title
;
Structure prediction by ZEFSAII (Michael W. Deem and Ramdas Pophale) SiO2 
 PCOD9060128
Probable space group: P -1
;
_chemical_formula_sum "Si O2"
_cell_formula_units_Z 12
_cell_length_a 10.451279
_cell_length_b 13.977778
_cell_length_c 7.261252
_cell_angle_alpha 102.087105
_cell_angle_beta 98.550184
_cell_angle_gamma 31.956620
_cell_volume 548.129715
_symmetry_space_group_name_H-M "P -1"
_symmetry_group_IT_number 2
_symmetry_cell_setting 'triclinic'
loop_
_space_group_symop_operation_xyz
x,y,z
-x,-y,-z
loop_
_atom_site_type_symbol
_atom_site_label
_atom_site_fract_x
_atom_site_fract_y
_atom_site_fract_z
Si Si1 0.364129 0.483488 0.301551
Si Si2 0.610784 0.078608 0.582564
Si Si3 0.874287 0.179340 0.470536
Si Si4 0.591732 0.956743 0.207642
Si Si5 0.937864 0.425808 0.990835
Si Si6 0.838230 0.511190 0.401150
O O1 0.648704 0.304262 0.337579
O O2 0.250450 0.665765 0.347332
O O3 0.228414 0.517161 0.458168
O O4 0.312872 0.451175 0.098031
O O5 0.419262 0.286979 0.651619
O O6 0.529065 0.045127 0.686283
O O7 0.891539 0.919039 0.607338
O O8 0.567982 0.073308 0.357839
O O9 0.000000 0.000000 0.500000
O O10 0.873306 0.753614 0.165665
O O11 0.500000 0.000000 0.000000
O O12 0.966527 0.386103 0.197200
O O13 0.000000 0.500000 0.000000
O O14 0.000000 0.500000 0.500000
#
# Coordination Sequence:
#
# PCOD9060128 Si02
#       6
#     2   2   2   2   2   2
#     4  11  25  46  70  99 141 184 226 287 347 405
#     4  11  23  43  65  99 134 180 235 276 341 414
#     4  11  24  47  73  93 137 195 236 276 336 416
#     4  11  24  39  66 101 139 172 225 290 345 405
#     4  12  23  41  66 105 137 170 223 281 354 412
#     4  12  23  40  72 101 137 179 222 286 357 406
#
# _framework density 21.892628999999999
#
# number of rings (size 3 to 8) (size 9 to 14) (size 15 to 20)
#    0.000    0.667    6.667    1.000    4.667    0.000 
#    0.000    5.833    0.000    0.000    0.000    0.000 
#    0.000    0.000    0.000    0.000    0.000    0.000 
#
# Total GULP energy -67025.641785 kJ/mol
# GULP energy per Si atom -5585.470149 kJ/mol
# Density = 2.184280 g / cm^3
# Si number density = 21.892629 Si / 1000 Ang^3
#
#
#
# Elastic Constant Matrix: (Units=GPa)
#
#
# Indices 1 2 3 4 5 6 
#
# 1 56.1852 32.9851 49.9557 -5.3414 15.0389 -17.5884
# 2 32.9851 118.3612 13.7965 -1.1043 9.3420 -12.3421
# 3 49.9557 13.7965 125.2548 -7.4808 12.7847 -13.3867
# 4 -5.3414 -1.1043 -7.4808 30.9865 -7.8397 2.0344
# 5 15.0389 9.3420 12.7847 -7.8397 37.9386 -3.6145
# 6 -17.5884 -12.3421 -13.3867 2.0344 -3.6145 44.3908
#
#
#
# Elastic Compliance Matrix: (Units=1/GPa)
#
#
# Indices 1 2 3 4 5 6 
#
# 1 0.038621 -0.007728 -0.012760 0.000675 -0.008147 0.008611
# 2 -0.007728 0.010433 0.001971 -0.000576 -0.000247 0.000439
# 3 -0.012760 0.001971 0.012808 0.001113 0.000424 -0.000662
# 4 0.000675 -0.000576 0.001113 0.034330 0.006536 -0.000598
# 5 -0.008147 -0.000247 0.000424 0.006536 0.030764 -0.000963
# 6 0.008611 0.000439 -0.000662 -0.000598 -0.000963 0.025811
#
#
# Mechanical properties :
#
#
# Convention : Reuss Voigt Hill
#
# Bulk Modulus (GPa) = 40.27836 54.80840 47.54338
# Shear Modulus (GPa) = 25.24267 36.20077 30.72172
#
# Velocity S-wave (km/s) = 3.39930 4.07081 3.75012
# Velocity P-wave (km/s) = 5.81765 6.86912 6.36513
#
# Compressibility (1/GPa) = 0.02482723
#
# Stress axis : x y z
#
# Youngs Moduli (GPa) = 25.89260 95.85311 78.07480
#
# Poissons Ratio (x) = 0.74079 0.99623
# Poissons Ratio (y) = 0.20011 -0.15388
# Poissons Ratio (z) = 0.33039 -0.18892
#
# Static dielectric constant tensor:
#      x y z
#    x 1.889150 -0.010930 0.056280 
#    y -0.010930 1.879880 -0.021500 
#    z 0.056280 -0.021500 1.801440 
# 
# From -- ./inp_files/74806.got.cif
#   From: 2010.05.17/outbox.cif.g08.bks.cpg/sg2_38_cif.got.tgz:74806.got - 2010.06.03 11:33:40.
