data_PCOD9060060
_publ_section_title
;
Structure prediction by ZEFSAII (Michael W. Deem and Ramdas Pophale) SiO2 
 PCOD9060060
Probable space group: P -1
;
_chemical_formula_sum "Si O2"
_cell_formula_units_Z 11
_cell_length_a 9.250597
_cell_length_b 8.550308
_cell_length_c 9.174820
_cell_angle_alpha 131.056935
_cell_angle_beta 109.157589
_cell_angle_gamma 103.202867
_cell_volume 404.228971
_symmetry_space_group_name_H-M "P -1"
_symmetry_group_IT_number 2
_symmetry_cell_setting 'triclinic'
loop_
_space_group_symop_operation_xyz
x,y,z
-x,-y,-z
loop_
_atom_site_type_symbol
_atom_site_label
_atom_site_fract_x
_atom_site_fract_y
_atom_site_fract_z
Si Si1 0.854835 0.630108 0.496330
Si Si2 0.551823 0.742378 0.765440
Si Si3 0.099404 0.879810 0.299997
Si Si4 0.099663 0.715153 0.886610
Si Si5 0.500000 0.000000 0.500000
Si Si6 0.660899 0.583774 0.982167
O O1 0.656240 0.350044 0.308923
O O2 0.937999 0.542804 0.350651
O O3 0.982748 0.758887 0.762379
O O4 0.818458 0.827990 0.548626
O O5 0.500000 0.500000 0.500000
O O6 0.654760 0.745393 0.947922
O O7 0.675628 0.015795 0.885163
O O8 0.287213 0.921205 0.451457
O O9 0.047846 0.706603 0.029719
O O10 0.884919 0.754130 0.215207
O O11 0.399606 0.689876 0.266674
O O12 0.500000 0.500000 0.000000
#
# Coordination Sequence:
#
# PCOD9060060 Si02
#       6
#     2   2   2   2   1   2
#     4  11  23  42  74 115 146 191 247 319 380 448
#     4  12  22  46  76 108 151 193 247 314 377 444
#     4  12  25  49  75 110 150 197 255 311 374 448
#     4  11  24  43  77 113 146 189 248 322 381 443
#     4  12  28  50  72 104 148 212 250 304 370 448
#     4  12  29  49  75 106 154 203 253 310 374 454
#
# _framework density 27.212301
#
# number of rings (size 3 to 8) (size 9 to 14) (size 15 to 20)
#    0.000    0.364    5.455    2.727    2.545    2.182 
#    3.273    0.000    0.000    0.000    0.000    0.000 
#    0.000    0.000    0.000    0.000    0.000    0.000 
#
# Total GULP energy -61418.029296 kJ/mol
# GULP energy per Si atom -5583.457209 kJ/mol
# Density = 2.715036 g / cm^3
# Si number density = 27.212301 Si / 1000 Ang^3
#
#
#
# Elastic Constant Matrix: (Units=GPa)
#
#
# Indices 1 2 3 4 5 6 
#
# 1 157.4583 30.7857 15.5555 1.9472 18.0787 21.2330
# 2 30.7857 87.6607 11.9214 4.2983 3.0573 24.5427
# 3 15.5555 11.9214 92.1447 0.0783 2.7976 8.7543
# 4 1.9472 4.2983 0.0783 48.2721 11.4258 2.1918
# 5 18.0787 3.0573 2.7976 11.4258 60.8356 19.9625
# 6 21.2330 24.5427 8.7543 2.1918 19.9625 37.8066
#
#
#
# Elastic Compliance Matrix: (Units=1/GPa)
#
#
# Indices 1 2 3 4 5 6 
#
# 1 0.007209 -0.001854 -0.000750 0.000304 -0.001439 -0.001929
# 2 -0.001854 0.014996 -0.000756 -0.001623 0.003510 -0.010278
# 3 -0.000750 -0.000756 0.011245 0.000083 0.000345 -0.001879
# 4 0.000304 -0.001623 0.000083 0.021893 -0.004828 0.002144
# 5 -0.001439 0.003510 0.000345 -0.004828 0.021768 -0.012764
# 6 -0.001929 -0.010278 -0.001879 0.002144 -0.012764 0.041256
#
#
# Mechanical properties :
#
#
# Convention : Reuss Voigt Hill
#
# Bulk Modulus (GPa) = 37.41227 50.42099 43.91663
# Shear Modulus (GPa) = 37.31366 47.98292 42.64829
#
# Velocity S-wave (km/s) = 3.70700 4.20370 3.96314
# Velocity P-wave (km/s) = 5.66574 6.49080 6.09225
#
# Compressibility (1/GPa) = 0.02672920
#
# Stress axis : x y z
#
# Youngs Moduli (GPa) = 138.71262 66.68313 88.92913
#
# Poissons Ratio (x) = 0.12365 0.06673
# Poissons Ratio (y) = 0.25722 0.06722
# Poissons Ratio (z) = 0.10409 0.05040
#
# Static dielectric constant tensor:
#      x y z
#    x 2.159100 0.035580 0.002210 
#    y 0.035580 2.228360 -0.118160 
#    z 0.002210 -0.118160 2.214930 
# 
# From -- ./inp_files/156329.got.cif
#   From: 2010.05.17/outbox.cif.g08.bks.cpg/sg2_79_cif.got.tgz:156329.got - 2010.06.03 11:33:40.
