data_PCOD9060582
_publ_section_title
;
Structure prediction by ZEFSAII (Michael W. Deem and Ramdas Pophale) SiO2 
 PCOD9060582
Probable space group: P -1
;
_chemical_formula_sum "Si O2"
_cell_formula_units_Z 14
_cell_length_a 21.353192
_cell_length_b 21.438429
_cell_length_c 9.049181
_cell_angle_alpha 29.957106
_cell_angle_beta 28.115867
_cell_angle_gamma 20.208533
_cell_volume 655.030123
_symmetry_space_group_name_H-M "P -1"
_symmetry_group_IT_number 2
_symmetry_cell_setting 'triclinic'
loop_
_space_group_symop_operation_xyz
x,y,z
-x,-y,-z
loop_
_atom_site_type_symbol
_atom_site_label
_atom_site_fract_x
_atom_site_fract_y
_atom_site_fract_z
Si Si1 0.136000 0.024273 0.133252
Si Si2 0.672465 0.917413 0.193746
Si Si3 0.961941 0.768267 0.389190
Si Si4 0.528310 0.610397 0.133706
Si Si5 0.413020 0.442206 0.217013
Si Si6 0.414255 0.932956 0.246455
Si Si7 0.899235 0.518483 0.524818
O O1 0.361363 0.821779 0.097214
O O2 0.147980 0.133877 0.993958
O O3 0.080447 0.109268 0.910988
O O4 0.000000 0.000000 0.500000
O O5 0.761293 0.728234 0.327521
O O6 0.500000 0.000000 0.500000
O O7 0.589316 0.053701 0.950208
O O8 0.179169 0.621152 0.309535
O O9 0.958690 0.635690 0.582048
O O10 0.805278 0.911941 0.545297
O O11 0.500000 0.500000 0.500000
O O12 0.494941 0.619905 0.009945
O O13 0.746611 0.514541 0.893459
O O14 0.470170 0.271364 0.523920
O O15 0.500000 0.500000 0.000000
O O16 0.500000 0.000000 0.000000
O O17 0.000000 0.500000 0.500000
#
# Coordination Sequence:
#
# PCOD9060582 Si02
#       7
#     2   2   2   2   2   2   2
#     4  12  24  43  72 104 143 186 241 296 357 428
#     4  12  26  46  73 106 139 188 245 297 359 432
#     4  11  25  49  71 103 148 186 242 295 361 435
#     4  11  24  44  69 102 145 186 237 295 354 423
#     4  11  27  47  71 104 145 190 237 296 365 428
#     4  12  27  48  74 104 150 194 234 302 366 432
#     4  11  23  43  73 105 142 185 240 301 352 423
#
# _framework density 21.373062000000001
#
# number of rings (size 3 to 8) (size 9 to 14) (size 15 to 20)
#    0.000    0.571    4.286    4.286    4.000    4.000 
#    0.000    0.000    0.000    0.000    0.000    0.000 
#    0.000    0.000    0.000    0.000    0.000    0.000 
#
# Total GULP energy -78249.462001 kJ/mol
# GULP energy per Si atom -5589.247286 kJ/mol
# Density = 2.132442 g / cm^3
# Si number density = 21.373062 Si / 1000 Ang^3
#
#
#
# Elastic Constant Matrix: (Units=GPa)
#
#
# Indices 1 2 3 4 5 6 
#
# 1 144.3241 19.1239 67.8129 -3.0921 -0.8079 -13.7192
# 2 19.1239 98.2953 35.6659 -20.4120 10.0247 -8.6349
# 3 67.8129 35.6659 142.5767 -25.7004 11.4509 -7.3132
# 4 -3.0921 -20.4120 -25.7004 35.7647 -3.5924 5.7657
# 5 -0.8079 10.0247 11.4509 -3.5924 48.9995 -5.1405
# 6 -13.7192 -8.6349 -7.3132 5.7657 -5.1405 28.5278
#
#
#
# Elastic Compliance Matrix: (Units=1/GPa)
#
#
# Indices 1 2 3 4 5 6 
#
# 1 0.009709 -0.000615 -0.005037 -0.003647 0.001639 0.004225
# 2 -0.000615 0.012300 -0.001601 0.005392 -0.001585 0.001641
# 3 -0.005037 -0.001601 0.011091 0.006703 -0.002043 -0.001787
# 4 -0.003647 0.005392 0.006703 0.036421 -0.000677 -0.005886
# 5 0.001639 -0.001585 -0.002043 -0.000677 0.021587 0.003811
# 6 0.004225 0.001641 -0.001787 -0.005886 0.003811 0.039000
#
#
# Mechanical properties :
#
#
# Convention : Reuss Voigt Hill
#
# Bulk Modulus (GPa) = 53.77822 70.04461 61.91141
# Shear Modulus (GPa) = 33.15412 40.16463 36.65937
#
# Velocity S-wave (km/s) = 3.94281 4.33970 4.14601
# Velocity P-wave (km/s) = 6.77820 7.61276 7.20757
#
# Compressibility (1/GPa) = 0.01859489
#
# Stress axis : x y z
#
# Youngs Moduli (GPa) = 102.99235 81.30403 90.16716
#
# Poissons Ratio (x) = 0.05000 0.45413
# Poissons Ratio (y) = 0.06333 0.14434
# Poissons Ratio (z) = 0.51873 0.13015
#
# Static dielectric constant tensor:
#      x y z
#    x 1.755840 0.003890 -0.000720 
#    y 0.003890 1.888710 0.031030 
#    z -0.000720 0.031030 1.782220 
# 
# From -- ./inp_files/281363.got.cif
#   From: 2010.05.17/outbox.cif.g08.bks.cpg/sg2_141_cif.got.tgz:281363.got - 2010.06.03 11:33:40.
