data_PCOD9060878
_publ_section_title
;
Structure prediction by ZEFSAII (Michael W. Deem and Ramdas Pophale) SiO2 
 PCOD9060878
Probable space group: P -1
;
_chemical_formula_sum "Si O2"
_cell_formula_units_Z 12
_cell_length_a 14.331983
_cell_length_b 10.257897
_cell_length_c 11.047853
_cell_angle_alpha 140.478695
_cell_angle_beta 138.322317
_cell_angle_gamma 33.128418
_cell_volume 540.580092
_symmetry_space_group_name_H-M "P -1"
_symmetry_group_IT_number 2
_symmetry_cell_setting 'triclinic'
loop_
_space_group_symop_operation_xyz
x,y,z
-x,-y,-z
loop_
_atom_site_type_symbol
_atom_site_label
_atom_site_fract_x
_atom_site_fract_y
_atom_site_fract_z
Si Si1 0.638163 0.778025 0.880428
Si Si2 0.536776 0.663596 0.275624
Si Si3 0.716040 0.096689 0.018485
Si Si4 0.163825 0.446493 0.694306
Si Si5 0.122488 0.726527 0.098411
Si Si6 0.613539 0.140176 0.486728
O O1 0.801871 0.527393 0.928821
O O2 0.529507 0.705919 0.647228
O O3 0.500000 0.000000 0.000000
O O4 0.694506 0.905169 0.932688
O O5 0.590641 0.382656 0.162932
O O6 0.701083 0.583089 0.294301
O O7 0.497512 0.817378 0.469898
O O8 0.364634 0.834847 0.145895
O O9 0.923661 0.963949 0.116617
O O10 0.000000 0.500000 0.500000
O O11 0.265902 0.162275 0.648922
O O12 0.118921 0.649629 0.901095
O O13 0.257962 0.791308 0.300061
#
# Coordination Sequence:
#
# PCOD9060878 Si02
#       6
#     2   2   2   2   2   2
#     4  12  24  48  71  97 139 188 231 276 346 412
#     4  11  23  44  69 104 137 179 232 279 349 399
#     4  11  24  44  73 100 141 181 224 289 338 410
#     4  12  25  43  73 104 141 178 229 289 339 410
#     4  12  26  46  68 108 140 178 234 281 339 409
#     4  12  25  44  73 100 137 184 228 284 343 406
#
# _framework density 22.198377000000001
#
# number of rings (size 3 to 8) (size 9 to 14) (size 15 to 20)
#    0.000    0.333    3.333    6.500    2.333    2.000 
#    0.000    1.667    0.000    0.000    0.000    0.000 
#    0.000    0.000    0.000    0.000    0.000    0.000 
#
# Total GULP energy -67166.762010 kJ/mol
# GULP energy per Si atom -5597.230167 kJ/mol
# Density = 2.214785 g / cm^3
# Si number density = 22.198377 Si / 1000 Ang^3
#
#
#
# Elastic Constant Matrix: (Units=GPa)
#
#
# Indices 1 2 3 4 5 6 
#
# 1 87.5577 30.1791 47.9138 -10.0970 9.8161 -1.2943
# 2 30.1791 100.4109 14.4282 -15.0372 4.1267 1.7740
# 3 47.9138 14.4282 126.4290 -14.0606 2.0070 -8.7575
# 4 -10.0970 -15.0372 -14.0606 47.8412 -1.0358 6.8006
# 5 9.8161 4.1267 2.0070 -1.0358 35.6701 7.6899
# 6 -1.2943 1.7740 -8.7575 6.8006 7.6899 31.2504
#
#
#
# Elastic Compliance Matrix: (Units=1/GPa)
#
#
# Indices 1 2 3 4 5 6 
#
# 1 0.016304 -0.003871 -0.005616 0.000473 -0.003739 0.000138
# 2 -0.003871 0.011556 0.000398 0.003135 0.000102 -0.001412
# 3 -0.005616 0.000398 0.010320 0.001678 0.000505 0.002147
# 4 0.000473 0.003135 0.001678 0.023221 0.001171 -0.005030
# 5 -0.003739 0.000102 0.000505 0.001171 0.030748 -0.007840
# 6 0.000138 -0.001412 0.002147 -0.005030 -0.007840 0.035711
#
#
# Mechanical properties :
#
#
# Convention : Reuss Voigt Hill
#
# Bulk Modulus (GPa) = 49.99711 55.49331 52.74521
# Shear Modulus (GPa) = 32.74278 37.74411 35.24345
#
# Velocity S-wave (km/s) = 3.84475 4.12795 3.98887
# Velocity P-wave (km/s) = 6.50240 6.91181 6.71023
#
# Compressibility (1/GPa) = 0.02000116
#
# Stress axis : x y z
#
# Youngs Moduli (GPa) = 61.33399 86.53708 96.90121
#
# Poissons Ratio (x) = 0.33501 0.54415
# Poissons Ratio (y) = 0.23744 -0.03853
# Poissons Ratio (z) = 0.34442 -0.03441
#
# Static dielectric constant tensor:
#      x y z
#    x 1.804880 0.048500 0.037700 
#    y 0.048500 1.819020 0.031000 
#    z 0.037700 0.031000 1.829070 
# 
# From -- ./inp_files/463331.got.cif
#   From: 2010.05.17/outbox.cif.g08.bks.cpg/sg2_232_cif.got.tgz:463331.got - 2010.06.03 11:33:40.
