data_PCOD9060245
_publ_section_title
;
Structure prediction by ZEFSAII (Michael W. Deem and Ramdas Pophale) SiO2 
 PCOD9060245
Probable space group: P -1
;
_chemical_formula_sum "Si O2"
_cell_formula_units_Z 16
_cell_length_a 12.036584
_cell_length_b 12.160607
_cell_length_c 11.330869
_cell_angle_alpha 142.125767
_cell_angle_beta 99.274641
_cell_angle_gamma 107.234518
_cell_volume 718.671059
_symmetry_space_group_name_H-M "P -1"
_symmetry_group_IT_number 2
_symmetry_cell_setting 'triclinic'
loop_
_space_group_symop_operation_xyz
x,y,z
-x,-y,-z
loop_
_atom_site_type_symbol
_atom_site_label
_atom_site_fract_x
_atom_site_fract_y
_atom_site_fract_z
Si Si1 0.117375 0.937717 0.173045
Si Si2 0.529931 0.663809 0.471590
Si Si3 0.449850 0.922316 0.290105
Si Si4 0.575002 0.686012 0.059207
Si Si5 0.904405 0.501325 0.194188
Si Si6 0.188546 0.248280 0.166413
Si Si7 0.109344 0.953786 0.462324
Si Si8 0.014055 0.303813 0.368624
O O1 0.155183 0.995070 0.368069
O O2 0.283742 0.169257 0.332261
O O3 0.085927 0.694879 0.937910
O O4 0.951111 0.844553 0.030490
O O5 0.375045 0.480231 0.372810
O O6 0.529312 0.865902 0.592042
O O7 0.485807 0.474750 0.202871
O O8 0.546399 0.865458 0.206132
O O9 0.500000 0.000000 0.500000
O O10 0.269881 0.661363 0.022947
O O11 0.756036 0.863207 0.265284
O O12 0.500000 0.500000 0.000000
O O13 0.022070 0.680846 0.261725
O O14 0.939569 0.649264 0.445282
O O15 0.139040 0.327631 0.332375
O O16 0.143758 0.986052 0.932310
O O17 0.000000 0.000000 0.500000
O O18 0.000000 0.500000 0.500000
#
# Coordination Sequence:
#
# PCOD9060245 Si02
#       8
#     2   2   2   2   2   2   2   2
#     4  11  23  43  68 104 146 178 226 289 347 430
#     4  11  25  43  65 106 139 180 235 276 354 419
#     4  11  24  40  64  99 145 182 222 283 344 421
#     4  12  21  38  60  90 142 185 217 281 334 408
#     4  11  24  42  70 101 135 186 234 286 352 414
#     4  11  26  46  79  99 136 188 232 297 354 410
#     4  12  24  38  66 104 139 185 232 276 354 431
#     4  11  24  50  76 101 135 180 245 299 345 408
#
# _framework density 22.263316
#
# number of rings (size 3 to 8) (size 9 to 14) (size 15 to 20)
#    0.000    0.750    3.750    4.125    5.250    1.000 
#    0.000    5.000    2.750    0.000    0.000    0.000 
#    0.000    0.000    0.000    0.000    0.000    0.000 
#
# Total GULP energy -89308.816339 kJ/mol
# GULP energy per Si atom -5581.801021 kJ/mol
# Density = 2.221264 g / cm^3
# Si number density = 22.263316 Si / 1000 Ang^3
#
#
#
# Elastic Constant Matrix: (Units=GPa)
#
#
# Indices 1 2 3 4 5 6 
#
# 1 98.4766 14.1104 49.0088 11.3160 -0.7471 -6.3106
# 2 14.1104 86.7033 39.6567 7.9058 6.3564 18.5805
# 3 49.0088 39.6567 140.6722 -7.8427 1.2869 4.6482
# 4 11.3160 7.9058 -7.8427 48.6610 6.8766 3.5938
# 5 -0.7471 6.3564 1.2869 6.8766 53.5526 1.4598
# 6 -6.3106 18.5805 4.6482 3.5938 1.4598 34.4652
#
#
#
# Elastic Compliance Matrix: (Units=1/GPa)
#
#
# Indices 1 2 3 4 5 6 
#
# 1 0.013392 -0.000404 -0.004918 -0.004230 0.000794 0.003741
# 2 -0.000404 0.015371 -0.004063 -0.002329 -0.001228 -0.007518
# 3 -0.004918 -0.004063 0.010181 0.003515 -0.000270 -0.000438
# 4 -0.004230 -0.002329 0.003515 0.023038 -0.002763 -0.002278
# 5 0.000794 -0.001228 -0.000270 -0.002763 0.019183 0.000320
# 6 0.003741 -0.007518 -0.000438 -0.002278 0.000320 0.034036
#
#
# Mechanical properties :
#
#
# Convention : Reuss Voigt Hill
#
# Bulk Modulus (GPa) = 49.57031 59.04488 54.30759
# Shear Modulus (GPa) = 35.53792 42.20751 38.87271
#
# Velocity S-wave (km/s) = 3.99965 4.35884 4.18310
# Velocity P-wave (km/s) = 6.60632 7.20495 6.91212
#
# Compressibility (1/GPa) = 0.02017337
#
# Stress axis : x y z
#
# Youngs Moduli (GPa) = 74.67055 65.05725 98.22675
#
# Poissons Ratio (x) = 0.02628 0.48313
# Poissons Ratio (y) = 0.03017 0.39907
# Poissons Ratio (z) = 0.36727 0.26431
#
# Static dielectric constant tensor:
#      x y z
#    x 1.765930 0.041920 -0.054710 
#    y 0.041920 1.892360 0.131760 
#    z -0.054710 0.131760 1.795740 
# 
# From -- ./inp_files/434360.got.cif
#   From: 2010.05.17/outbox.cif.g08.bks.cpg/sg2_218_cif.got.tgz:434360.got - 2010.06.03 11:33:40.
