data_PCOD9060858
_publ_section_title
;
Structure prediction by ZEFSAII (Michael W. Deem and Ramdas Pophale) SiO2 
 PCOD9060858
Probable space group: P -1
;
_chemical_formula_sum "Si O2"
_cell_formula_units_Z 12
_cell_length_a 12.813693
_cell_length_b 8.426470
_cell_length_c 11.129701
_cell_angle_alpha 63.356166
_cell_angle_beta 46.579372
_cell_angle_gamma 35.151713
_cell_volume 483.650884
_symmetry_space_group_name_H-M "P -1"
_symmetry_group_IT_number 2
_symmetry_cell_setting 'triclinic'
loop_
_space_group_symop_operation_xyz
x,y,z
-x,-y,-z
loop_
_atom_site_type_symbol
_atom_site_label
_atom_site_fract_x
_atom_site_fract_y
_atom_site_fract_z
Si Si1 0.725896 0.971258 0.112685
Si Si2 0.649975 0.392814 0.301196
Si Si3 0.633927 0.433034 0.038048
Si Si4 0.933809 0.402304 0.211966
Si Si5 0.201576 0.477333 0.459134
Si Si6 0.973987 0.754987 0.311061
O O1 0.856215 0.682426 0.170588
O O2 0.801788 0.099193 0.032010
O O3 0.463359 0.222265 0.286433
O O4 0.797458 0.873821 0.948256
O O5 0.500000 0.500000 0.500000
O O6 0.527228 0.546355 0.217271
O O7 0.793582 0.428823 0.212842
O O8 0.796618 0.068164 0.293539
O O9 0.500000 0.500000 0.000000
O O10 0.786672 0.455994 0.879817
O O11 0.853019 0.406585 0.402703
O O12 0.125365 0.345130 0.569052
O O13 0.047304 0.730256 0.398153
#
# Coordination Sequence:
#
# PCOD9060858 Si02
#       6
#     2   2   2   2   2   2
#     4  11  23  44  69 101 137 188 228 283 349 413
#     4  12  26  44  72 105 140 180 234 290 349 413
#     4  12  25  47  73  98 138 185 233 284 350 414
#     4  11  25  41  72 104 141 180 233 290 345 410
#     4  11  24  46  69 101 145 184 232 285 347 414
#     4  11  25  45  71 100 141 186 229 282 350 413
#
# _framework density 24.811285999999999
#
# number of rings (size 3 to 8) (size 9 to 14) (size 15 to 20)
#    0.000    0.667    3.333    4.000    4.667    2.000 
#    0.000    2.500    0.000    0.000    0.000    0.000 
#    0.000    0.000    0.000    0.000    0.000    0.000 
#
# Total GULP energy -66960.430314 kJ/mol
# GULP energy per Si atom -5580.035859 kJ/mol
# Density = 2.475481 g / cm^3
# Si number density = 24.811286 Si / 1000 Ang^3
#
#
#
# Elastic Constant Matrix: (Units=GPa)
#
#
# Indices 1 2 3 4 5 6 
#
# 1 88.5775 10.2153 46.7015 -11.6156 6.8931 -12.2621
# 2 10.2153 46.2841 25.8025 -13.8222 14.1828 -6.7273
# 3 46.7015 25.8025 230.3376 -4.0853 19.1607 -33.0685
# 4 -11.6156 -13.8222 -4.0853 40.2143 -2.5795 -0.5324
# 5 6.8931 14.1828 19.1607 -2.5795 64.4647 -20.7729
# 6 -12.2621 -6.7273 -33.0685 -0.5324 -20.7729 30.4371
#
#
#
# Elastic Compliance Matrix: (Units=1/GPa)
#
#
# Indices 1 2 3 4 5 6 
#
# 1 0.013371 -0.000335 -0.002168 0.003605 0.000520 0.003375
# 2 -0.000335 0.027100 -0.002397 0.008666 -0.004834 0.000103
# 3 -0.002168 -0.002397 0.005739 -0.000749 0.000739 0.005323
# 4 0.003605 0.008666 -0.000749 0.028858 0.000091 0.003120
# 5 0.000520 -0.004834 0.000739 0.000091 0.020878 0.014194
# 6 0.003375 0.000103 0.005323 0.003120 0.014194 0.049762
#
#
# Mechanical properties :
#
#
# Convention : Reuss Voigt Hill
#
# Bulk Modulus (GPa) = 27.46525 58.95976 43.21251
# Shear Modulus (GPa) = 29.82487 45.85519 37.84003
#
# Velocity S-wave (km/s) = 3.47085 4.30369 3.90951
# Velocity P-wave (km/s) = 5.21115 6.96495 6.15088
#
# Compressibility (1/GPa) = 0.03640964
#
# Stress axis : x y z
#
# Youngs Moduli (GPa) = 74.78983 36.90009 174.24417
#
# Poissons Ratio (x) = 0.01235 0.37781
# Poissons Ratio (y) = 0.02502 0.41773
# Poissons Ratio (z) = 0.16216 0.08846
#
# Static dielectric constant tensor:
#      x y z
#    x 2.048270 -0.054990 0.055990 
#    y -0.054990 1.939030 0.031730 
#    z 0.055990 0.031730 2.072840 
# 
# From -- ./inp_files/176343.got.cif
#   From: 2010.05.17/outbox.cif.g08.bks.cpg/sg2_89_cif.got.tgz:176343.got - 2010.06.03 11:33:40.
