data_PCOD9060543
_publ_section_title
;
Structure prediction by ZEFSAII (Michael W. Deem and Ramdas Pophale) SiO2 
 PCOD9060543
Probable space group: P -1
;
_chemical_formula_sum "Si O2"
_cell_formula_units_Z 16
_cell_length_a 9.335359
_cell_length_b 9.258635
_cell_length_c 15.456084
_cell_angle_alpha 94.231989
_cell_angle_beta 43.863217
_cell_angle_gamma 64.840201
_cell_volume 666.257728
_symmetry_space_group_name_H-M "P -1"
_symmetry_group_IT_number 2
_symmetry_cell_setting 'triclinic'
loop_
_space_group_symop_operation_xyz
x,y,z
-x,-y,-z
loop_
_atom_site_type_symbol
_atom_site_label
_atom_site_fract_x
_atom_site_fract_y
_atom_site_fract_z
Si Si1 0.097703 0.724250 0.757597
Si Si2 0.304851 0.051572 0.667458
Si Si3 0.545266 0.138545 0.802740
Si Si4 0.880817 0.257151 0.454186
Si Si5 0.307633 0.363780 0.750300
Si Si6 0.353693 0.725554 0.064648
Si Si7 0.634939 0.102559 0.088411
Si Si8 0.449760 0.322366 0.352730
O O1 0.035918 0.753774 0.684031
O O2 0.088339 0.577310 0.806856
O O3 0.408895 0.641235 0.634624
O O4 0.914393 0.923569 0.903896
O O5 0.241317 0.232485 0.749992
O O6 0.993161 0.133258 0.786238
O O7 0.500000 0.000000 0.500000
O O8 0.512704 0.849385 0.625553
O O9 0.351905 0.331043 0.832688
O O10 0.585328 0.204532 0.876733
O O11 0.455130 0.014838 0.850327
O O12 0.863283 0.953066 0.620850
O O13 0.610017 0.280364 0.579839
O O14 0.827770 0.441122 0.530103
O O15 0.500000 0.500000 0.000000
O O16 0.507300 0.732189 0.917155
O O17 0.618039 0.213492 0.184627
#
# Coordination Sequence:
#
# PCOD9060543 Si02
#       8
#     2   2   2   2   2   2   2   2
#     4  11  23  44  75 100 142 197 243 296 365 445
#     4  12  24  47  73 111 143 191 251 307 358 444
#     4  12  26  49  70 108 148 198 237 311 372 442
#     4  11  24  46  74 104 149 198 245 300 378 434
#     4  11  25  42  75 108 140 186 254 304 357 434
#     4  12  30  47  75 107 156 192 240 310 389 438
#     4  12  26  46  71 101 145 193 243 293 371 444
#     4  11  23  43  72 106 137 192 248 304 352 433
#
# _framework density 24.014728999999999
#
# number of rings (size 3 to 8) (size 9 to 14) (size 15 to 20)
#    0.000    0.500    3.750    4.875    5.250    2.000 
#    0.000    0.000    0.000    0.000    0.000    0.000 
#    0.000    0.000    0.000    0.000    0.000    0.000 
#
# Total GULP energy -89206.331302 kJ/mol
# GULP energy per Si atom -5575.395706 kJ/mol
# Density = 2.396007 g / cm^3
# Si number density = 24.014729 Si / 1000 Ang^3
#
#
#
# Elastic Constant Matrix: (Units=GPa)
#
#
# Indices 1 2 3 4 5 6 
#
# 1 57.9377 24.3046 21.9891 -17.9495 10.5821 19.8510
# 2 24.3046 168.2403 24.4122 -9.9263 18.9692 -0.4810
# 3 21.9891 24.4122 83.6470 -3.0210 12.6937 -6.6806
# 4 -17.9495 -9.9263 -3.0210 48.0322 0.0211 8.9925
# 5 10.5821 18.9692 12.6937 0.0211 33.9276 4.0888
# 6 19.8510 -0.4810 -6.6806 8.9925 4.0888 30.2568
#
#
#
# Elastic Compliance Matrix: (Units=1/GPa)
#
#
# Indices 1 2 3 4 5 6 
#
# 1 0.043026 -0.002965 -0.012205 0.021632 -0.002747 -0.037029
# 2 -0.002965 0.006782 -0.000570 -0.000186 -0.002941 0.002380
# 3 -0.012205 -0.000570 0.016815 -0.006258 -0.003860 0.014093
# 4 0.021632 -0.000186 -0.006258 0.033203 -0.001276 -0.025273
# 5 -0.002747 -0.002941 -0.003860 -0.001276 0.033817 -0.003287
# 6 -0.037029 0.002380 0.014093 -0.025273 -0.003287 0.068449
#
#
# Mechanical properties :
#
#
# Convention : Reuss Voigt Hill
#
# Bulk Modulus (GPa) = 28.45437 50.13741 39.29589
# Shear Modulus (GPa) = 20.38429 38.38460 29.38445
#
# Velocity S-wave (km/s) = 2.91662 4.00231 3.50180
# Velocity P-wave (km/s) = 4.81837 6.50239 5.72266
#
# Compressibility (1/GPa) = 0.03514399
#
# Stress axis : x y z
#
# Youngs Moduli (GPa) = 23.24168 147.44262 59.47008
#
# Poissons Ratio (x) = 0.43711 0.72582
# Poissons Ratio (y) = 0.06890 0.03393
# Poissons Ratio (z) = 0.28366 0.08412
#
# Static dielectric constant tensor:
#      x y z
#    x 2.243800 -0.136040 0.077240 
#    y -0.136040 2.031570 0.099080 
#    z 0.077240 0.099080 2.213460 
# 
# From -- ./inp_files/299187.got.cif
#   From: 2010.05.17/outbox.cif.g08.bks.cpg/sg2_150_cif.got.tgz:299187.got - 2010.06.03 11:33:40.
