data_PCOD9060324
_publ_section_title
;
Structure prediction by ZEFSAII (Michael W. Deem and Ramdas Pophale) SiO2 
 PCOD9060324
Probable space group: P -1
;
_chemical_formula_sum "Si O2"
_cell_formula_units_Z 16
_cell_length_a 22.649386
_cell_length_b 4.984372
_cell_length_c 5.966645
_cell_angle_alpha 80.886700
_cell_angle_beta 92.203872
_cell_angle_gamma 93.800104
_cell_volume 663.359972
_symmetry_space_group_name_H-M "P -1"
_symmetry_group_IT_number 2
_symmetry_cell_setting 'triclinic'
loop_
_space_group_symop_operation_xyz
x,y,z
-x,-y,-z
loop_
_atom_site_type_symbol
_atom_site_label
_atom_site_fract_x
_atom_site_fract_y
_atom_site_fract_z
Si Si1 0.305130 0.970943 0.672206
Si Si2 0.937637 0.951455 0.121673
Si Si3 0.937259 0.393283 0.401409
Si Si4 0.562882 0.639683 0.044273
Si Si5 0.318060 0.447262 0.947272
Si Si6 0.845663 0.298506 0.796512
Si Si7 0.567611 0.901019 0.516765
Si Si8 0.770995 0.795558 0.715306
O O1 0.284121 0.666528 0.776827
O O2 0.321993 0.160722 0.860993
O O3 0.365195 0.960990 0.533096
O O4 0.249357 0.116523 0.542904
O O5 0.944700 0.097188 0.341679
O O6 0.923485 0.630643 0.190934
O O7 0.888827 0.130112 0.977976
O O8 0.000000 0.000000 0.000000
O O9 0.883965 0.354166 0.571163
O O10 0.000000 0.500000 0.500000
O O11 0.614806 0.431733 0.051979
O O12 0.562628 0.729992 0.297250
O O13 0.500000 0.500000 0.000000
O O14 0.573744 0.817387 0.793314
O O15 0.286935 0.372824 0.181373
O O16 0.822439 0.594946 0.799193
O O17 0.789105 0.085427 0.790468
O O18 0.500000 0.000000 0.500000
#
# Coordination Sequence:
#
# PCOD9060324 Si02
#       8
#     2   2   2   2   2   2   2   2
#     4  11  25  46  72 100 142 192 240 302 367 432
#     4  12  26  45  74 106 145 186 233 295 363 428
#     4  12  26  45  74 106 145 186 233 295 363 428
#     4  11  23  43  69 111 147 193 250 315 383 456
#     4  11  25  46  72 100 142 192 240 302 367 432
#     4  12  28  44  74 106 142 186 242 292 358 436
#     4  11  23  43  69 111 147 193 250 315 383 456
#     4  12  26  48  68 104 142 190 240 292 354 446
#
# _framework density 24.119637000000001
#
# number of rings (size 3 to 8) (size 9 to 14) (size 15 to 20)
#    0.000    0.500    2.500    5.250    1.750    8.000 
#    2.250    0.000    0.000    0.000    0.000    0.000 
#    0.000    0.000    0.000    0.000    0.000    0.000 
#
# Total GULP energy -89127.951303 kJ/mol
# GULP energy per Si atom -5570.496956 kJ/mol
# Density = 2.406474 g / cm^3
# Si number density = 24.119637 Si / 1000 Ang^3
#
#
#
# Elastic Constant Matrix: (Units=GPa)
#
#
# Indices 1 2 3 4 5 6 
#
# 1 58.7446 8.3470 6.5733 -9.2134 20.2374 -11.6463
# 2 8.3470 99.8013 21.9657 -15.6022 -2.0600 -11.5313
# 3 6.5733 21.9657 83.1847 -20.6463 11.4604 -10.7177
# 4 -9.2134 -15.6022 -20.6463 38.3289 -4.6031 6.6310
# 5 20.2374 -2.0600 11.4604 -4.6031 37.3772 -7.4087
# 6 -11.6463 -11.5313 -10.7177 6.6310 -7.4087 40.4184
#
#
#
# Elastic Compliance Matrix: (Units=1/GPa)
#
#
# Indices 1 2 3 4 5 6 
#
# 1 0.022305 -0.001454 0.001574 0.003595 -0.011455 0.003740
# 2 -0.001454 0.011440 -0.002260 0.003048 0.002939 0.002284
# 3 0.001574 -0.002260 0.015000 0.006686 -0.004378 0.001887
# 4 0.003595 0.003048 0.006686 0.032051 -0.000202 -0.001617
# 5 -0.011455 0.002939 -0.004378 -0.000202 0.034996 0.002825
# 6 0.003740 0.002284 0.001887 -0.001617 0.002825 0.027754
#
#
# Mechanical properties :
#
#
# Convention : Reuss Voigt Hill
#
# Bulk Modulus (GPa) = 22.49049 35.05585 28.77317
# Shear Modulus (GPa) = 30.74114 36.88121 33.81117
#
# Velocity S-wave (km/s) = 3.57393 3.91461 3.74814
# Velocity P-wave (km/s) = 5.13570 5.91590 5.53955
#
# Compressibility (1/GPa) = 0.04446323
#
# Stress axis : x y z
#
# Youngs Moduli (GPa) = 44.83298 87.41261 66.66856
#
# Poissons Ratio (x) = 0.12712 -0.10492
# Poissons Ratio (y) = 0.06520 0.15068
# Poissons Ratio (z) = -0.07055 0.19756
#
# Static dielectric constant tensor:
#      x y z
#    x 1.719060 0.003650 0.132120 
#    y 0.003650 1.890090 0.023310 
#    z 0.132120 0.023310 1.950620 
# 
# From -- ./inp_files/114543.got.cif
#   From: 2010.05.17/outbox.cif.g08.bks.cpg/sg2_58_cif.got.tgz:114543.got - 2010.06.03 11:33:40.
