data_PCOD9060115
_publ_section_title
;
Structure prediction by ZEFSAII (Michael W. Deem and Ramdas Pophale) SiO2 
 PCOD9060115
Probable space group: P -1
;
_chemical_formula_sum "Si O2"
_cell_formula_units_Z 16
_cell_length_a 22.212170
_cell_length_b 8.966529
_cell_length_c 5.436691
_cell_angle_alpha 52.112192
_cell_angle_beta 98.818372
_cell_angle_gamma 117.706450
_cell_volume 742.911204
_symmetry_space_group_name_H-M "P -1"
_symmetry_group_IT_number 2
_symmetry_cell_setting 'triclinic'
loop_
_space_group_symop_operation_xyz
x,y,z
-x,-y,-z
loop_
_atom_site_type_symbol
_atom_site_label
_atom_site_fract_x
_atom_site_fract_y
_atom_site_fract_z
Si Si1 0.067926 0.728519 0.311786
Si Si2 0.344705 0.497284 0.013671
Si Si3 0.572635 0.005380 0.503190
Si Si4 0.568357 0.658938 0.523620
Si Si5 0.669619 0.860217 0.984317
Si Si6 0.930199 0.022522 0.438408
Si Si7 0.208122 0.434570 0.211678
Si Si8 0.203062 0.670094 0.468295
O O1 0.069320 0.856630 0.430767
O O2 0.132882 0.684792 0.398361
O O3 0.000000 0.500000 0.500000
O O4 0.069515 0.852211 0.936661
O O5 0.415938 0.491217 0.131330
O O6 0.317527 0.317169 0.967711
O O7 0.280944 0.433547 0.224285
O O8 0.370305 0.745346 0.714397
O O9 0.500000 0.000000 0.500000
O O10 0.561106 0.862611 0.399009
O O11 0.604001 0.886790 0.815866
O O12 0.500000 0.500000 0.500000
O O13 0.642871 0.771434 0.324733
O O14 0.734786 0.089854 0.766753
O O15 0.859955 0.795671 0.618593
O O16 0.000000 0.000000 0.500000
O O17 0.206572 0.535565 0.372339
O O18 0.206513 0.571831 0.834239
#
# Coordination Sequence:
#
# PCOD9060115 Si02
#       8
#     2   2   2   2   2   2   2   2
#     4  12  25  45  72 104 145 187 232 293 347 409
#     4  11  25  42  66  96 134 179 231 289 353 414
#     4  11  23  43  65  94 132 174 229 287 354 420
#     4  11  25  41  65  97 131 177 231 291 353 425
#     4  11  25  42  66  95 135 176 232 289 351 420
#     4  12  25  45  72 105 143 186 238 285 349 416
#     4  12  26  45  71 103 139 186 233 290 350 418
#     4  12  26  45  71 102 141 183 235 287 355 413
#
# _framework density 21.536894
#
# number of rings (size 3 to 8) (size 9 to 14) (size 15 to 20)
#    0.000    0.500    1.250    6.750    5.250    6.000 
#    0.000    0.000    0.000    0.000    0.000    0.000 
#    0.000    0.000    0.000    0.000    0.000    0.000 
#
# Total GULP energy -89364.765991 kJ/mol
# GULP energy per Si atom -5585.297874 kJ/mol
# Density = 2.148787 g / cm^3
# Si number density = 21.536894 Si / 1000 Ang^3
#
#
#
# Elastic Constant Matrix: (Units=GPa)
#
#
# Indices 1 2 3 4 5 6 
#
# 1 175.9868 36.7389 25.1749 -3.5297 5.9970 -12.9505
# 2 36.7389 124.0060 41.8234 -15.6359 -4.0050 -21.3151
# 3 25.1749 41.8234 107.8503 -15.7562 0.4502 1.6717
# 4 -3.5297 -15.6359 -15.7562 40.0884 3.2682 -9.7155
# 5 5.9970 -4.0050 0.4502 3.2682 35.1140 -2.0833
# 6 -12.9505 -21.3151 1.6717 -9.7155 -2.0833 53.3873
#
#
#
# Elastic Compliance Matrix: (Units=1/GPa)
#
#
# Indices 1 2 3 4 5 6 
#
# 1 0.006215 -0.001418 -0.000918 -0.000051 -0.001152 0.000916
# 2 -0.001418 0.011040 -0.003464 0.003897 0.001476 0.004939
# 3 -0.000918 -0.003464 0.011248 0.002685 -0.000721 -0.001497
# 4 -0.000051 0.003897 0.002685 0.029299 -0.001910 0.006717
# 5 -0.001152 0.001476 -0.000721 -0.001910 0.029097 0.001120
# 6 0.000916 0.004939 -0.001497 0.006717 0.001120 0.022238
#
#
# Mechanical properties :
#
#
# Convention : Reuss Voigt Hill
#
# Bulk Modulus (GPa) = 59.15521 68.36861 63.76191
# Shear Modulus (GPa) = 39.56567 45.99167 42.77867
#
# Velocity S-wave (km/s) = 4.29080 4.62614 4.46162
# Velocity P-wave (km/s) = 7.21627 7.76844 7.49744
#
# Compressibility (1/GPa) = 0.01690468
#
# Stress axis : x y z
#
# Youngs Moduli (GPa) = 160.89580 90.57596 88.90429
#
# Poissons Ratio (x) = 0.12844 0.08159
# Poissons Ratio (y) = 0.22815 0.30795
# Poissons Ratio (z) = 0.14765 0.31374
#
# Static dielectric constant tensor:
#      x y z
#    x 1.723070 0.020860 -0.011970 
#    y 0.020860 1.790820 0.098790 
#    z -0.011970 0.098790 1.854650 
# 
# From -- ./inp_files/10601.got.cif
#   From: 2010.05.17/outbox.cif.g08.bks.cpg/sg2_6_cif.got.tgz:10601.got - 2010.06.03 11:33:40.
