data_PCOD9060949
_publ_section_title
;
Structure prediction by ZEFSAII (Michael W. Deem and Ramdas Pophale) SiO2 
 PCOD9060949
Probable space group: P -1
;
_chemical_formula_sum "Si O2"
_cell_formula_units_Z 15
_cell_length_a 9.453068
_cell_length_b 12.034815
_cell_length_c 11.735135
_cell_angle_alpha 36.790433
_cell_angle_beta 128.777839
_cell_angle_gamma 123.995025
_cell_volume 618.560887
_symmetry_space_group_name_H-M "P -1"
_symmetry_group_IT_number 2
_symmetry_cell_setting 'triclinic'
loop_
_space_group_symop_operation_xyz
x,y,z
-x,-y,-z
loop_
_atom_site_type_symbol
_atom_site_label
_atom_site_fract_x
_atom_site_fract_y
_atom_site_fract_z
Si Si1 0.472885 0.215261 0.282553
Si Si2 0.622186 0.104117 0.236962
Si Si3 0.000000 0.000000 0.500000
Si Si4 0.586686 0.319833 0.820345
Si Si5 0.690762 0.492751 0.340626
Si Si6 0.067632 0.430245 0.212718
Si Si7 0.905572 0.711723 0.069587
Si Si8 0.279994 0.839635 0.208728
O O1 0.599189 0.253502 0.201640
O O2 0.544363 0.366795 0.289147
O O3 0.500000 0.000000 0.500000
O O4 0.263505 0.225502 0.136782
O O5 0.776156 0.970154 0.445077
O O6 0.416770 0.996969 0.209305
O O7 0.668393 0.200093 0.059399
O O8 0.008808 0.213288 0.373301
O O9 0.396400 0.367007 0.733520
O O10 0.715215 0.514973 0.715291
O O11 0.604354 0.214856 0.797640
O O12 0.826562 0.617134 0.223738
O O13 0.762003 0.336806 0.583953
O O14 0.987175 0.554352 0.165864
O O15 0.000000 0.500000 0.000000
O O16 0.077585 0.873411 0.038892
#
# Coordination Sequence:
#
# PCOD9060949 Si02
#       8
#     2   2   1   2   2   2   2   2
#     4  12  26  45  75 108 147 194 252 314 368 446
#     4  12  25  47  71 113 145 196 255 312 370 450
#     4  12  26  42  76 108 146 190 252 310 374 440
#     4  11  24  45  75 101 153 195 245 311 376 439
#     4  12  23  46  73 105 149 195 255 304 380 444
#     4  11  23  44  70 110 146 191 249 311 371 440
#     4  11  26  47  74 106 152 203 246 309 381 445
#     4  11  26  47  72 108 149 202 249 306 377 453
#
# _framework density 24.249835000000001
#
# number of rings (size 3 to 8) (size 9 to 14) (size 15 to 20)
#    0.000    0.533    4.000    4.000    1.867    1.600 
#    0.000    1.333    0.000    0.000    0.000    0.000 
#    0.000    0.000    0.000    0.000    0.000    0.000 
#
# Total GULP energy -83727.218811 kJ/mol
# GULP energy per Si atom -5581.814587 kJ/mol
# Density = 2.419464 g / cm^3
# Si number density = 24.249835 Si / 1000 Ang^3
#
#
#
# Elastic Constant Matrix: (Units=GPa)
#
#
# Indices 1 2 3 4 5 6 
#
# 1 106.4305 43.9428 38.0046 5.7189 12.4726 13.3669
# 2 43.9428 75.0234 1.6639 4.7382 3.7736 -1.4598
# 3 38.0046 1.6639 47.4941 8.7356 4.0977 -8.2282
# 4 5.7189 4.7382 8.7356 35.2975 5.0344 2.2873
# 5 12.4726 3.7736 4.0977 5.0344 45.1867 6.3964
# 6 13.3669 -1.4598 -8.2282 2.2873 6.3964 35.9034
#
#
#
# Elastic Compliance Matrix: (Units=1/GPa)
#
#
# Indices 1 2 3 4 5 6 
#
# 1 0.026277 -0.015382 -0.023985 0.005072 -0.002115 -0.015852
# 2 -0.015382 0.022511 0.014129 -0.004709 0.000172 0.010149
# 3 -0.023985 0.014129 0.045293 -0.010497 -0.000417 0.020627
# 4 0.005072 -0.004709 -0.010497 0.031516 -0.002715 -0.006009
# 5 -0.002115 0.000172 -0.000417 -0.002715 0.023510 -0.003317
# 6 -0.015852 0.010149 0.020627 -0.006009 -0.003317 0.039868
#
#
# Mechanical properties :
#
#
# Convention : Reuss Voigt Hill
#
# Bulk Modulus (GPa) = 22.93192 44.01898 33.47545
# Shear Modulus (GPa) = 19.68621 32.96661 26.32641
#
# Velocity S-wave (km/s) = 2.85232 3.69108 3.29847
# Velocity P-wave (km/s) = 4.50829 6.02969 5.32362
#
# Compressibility (1/GPa) = 0.04360734
#
# Stress axis : x y z
#
# Youngs Moduli (GPa) = 38.05575 44.42208 22.07840
#
# Poissons Ratio (x) = 0.68328 0.52955
# Poissons Ratio (y) = 0.58536 -0.31195
# Poissons Ratio (z) = 0.91276 -0.62765
#
# Static dielectric constant tensor:
#      x y z
#    x 1.944490 0.030660 -0.015320 
#    y 0.030660 1.902700 0.066030 
#    z -0.015320 0.066030 1.995350 
# 
# From -- ./inp_files/391902.got.cif
#   From: 2010.05.17/outbox.cif.g08.bks.cpg/sg2_196_cif.got.tgz:391902.got - 2010.06.03 11:33:40.
