data_PCOD9060602
_publ_section_title
;
Structure prediction by ZEFSAII (Michael W. Deem and Ramdas Pophale) SiO2 
 PCOD9060602
Probable space group: P -1
;
_chemical_formula_sum "Si O2"
_cell_formula_units_Z 14
_cell_length_a 14.931422
_cell_length_b 18.502385
_cell_length_c 9.504565
_cell_angle_alpha 47.614875
_cell_angle_beta 46.370345
_cell_angle_gamma 19.735365
_cell_volume 638.513525
_symmetry_space_group_name_H-M "P -1"
_symmetry_group_IT_number 2
_symmetry_cell_setting 'triclinic'
loop_
_space_group_symop_operation_xyz
x,y,z
-x,-y,-z
loop_
_atom_site_type_symbol
_atom_site_label
_atom_site_fract_x
_atom_site_fract_y
_atom_site_fract_z
Si Si1 0.956672 0.473297 0.284598
Si Si2 0.178901 0.849231 0.694659
Si Si3 0.585939 0.663287 0.694743
Si Si4 0.591128 0.321066 0.633943
Si Si5 0.475851 0.906120 0.698569
Si Si6 0.011181 0.747278 0.012432
Si Si7 0.981932 0.368929 0.111925
O O1 0.766592 0.573964 0.485207
O O2 0.012448 0.347958 0.275627
O O3 0.234990 0.316195 0.253707
O O4 0.870638 0.632197 0.086959
O O5 0.359936 0.752189 0.757296
O O6 0.329255 0.771586 0.487833
O O7 0.152058 0.752100 0.839794
O O8 0.875117 0.108232 0.688553
O O9 0.443485 0.854805 0.673009
O O10 0.781646 0.472665 0.845695
O O11 0.500000 0.500000 0.500000
O O12 0.344032 0.426567 0.816339
O O13 0.500000 0.000000 0.500000
O O14 0.239982 0.063314 0.860018
O O15 0.910514 0.782044 0.923163
#
# Coordination Sequence:
#
# PCOD9060602 Si02
#       7
#     2   2   2   2   2   2   2
#     4  11  23  44  71 100 137 185 231 284 345 404
#     4  11  26  42  73 107 130 185 234 279 352 415
#     4  12  25  47  70 100 148 182 228 287 346 411
#     4  11  23  47  71  98 144 174 227 296 346 404
#     4  12  25  43  68 100 140 185 233 278 344 413
#     4  12  25  45  71 103 143 181 231 288 343 413
#     4  11  23  43  73  99 136 180 228 294 339 403
#
# _framework density 21.925924999999999
#
# number of rings (size 3 to 8) (size 9 to 14) (size 15 to 20)
#    0.000    0.571    5.714    2.571    0.000    3.429 
#    0.000    0.000    0.000    0.000    0.000    0.000 
#    0.000    0.000    0.000    0.000    0.000    0.000 
#
# Total GULP energy -78191.281024 kJ/mol
# GULP energy per Si atom -5585.091502 kJ/mol
# Density = 2.187602 g / cm^3
# Si number density = 21.925925 Si / 1000 Ang^3
#
#
#
# Elastic Constant Matrix: (Units=GPa)
#
#
# Indices 1 2 3 4 5 6 
#
# 1 149.6023 10.7448 21.4187 2.1002 13.4800 29.0933
# 2 10.7448 39.3946 24.6381 -3.5256 7.6797 12.9303
# 3 21.4187 24.6381 81.5901 31.5574 -10.1127 21.1360
# 4 2.1002 -3.5256 31.5574 15.5416 17.2008 -2.2252
# 5 13.4800 7.6797 -10.1127 17.2008 25.9940 6.6906
# 6 29.0933 12.9303 21.1360 -2.2252 6.6906 33.9928
#
#
#
# Elastic Compliance Matrix: (Units=1/GPa)
#
#
# Indices 1 2 3 4 5 6 
#
# 1 0.008127 -0.000135 0.000397 -0.001964 -0.000892 -0.007104
# 2 -0.000135 0.023925 0.004634 -0.017292 0.010104 -0.014987
# 3 0.000397 0.004634 -0.000727 0.022019 -0.017248 0.003186
# 4 -0.001964 -0.017292 0.022019 -0.022523 0.033050 -0.013412
# 5 -0.000892 0.010104 -0.017248 0.033050 0.005102 0.008804
# 6 -0.007104 -0.014987 0.003186 -0.013412 0.008804 0.036607
#
#
# Mechanical properties :
#
#
# Convention : Reuss Voigt Hill
#
# Bulk Modulus (GPa) = 24.32166 42.68781 33.50474
# Shear Modulus (GPa) = 91.87044 29.35804 60.61424
#
# Velocity S-wave (km/s) = 6.48007 3.66316 5.26356
# Velocity P-wave (km/s) = 8.19177 6.11580 7.22870
#
# Compressibility (1/GPa) = 0.04111562
#
# Stress axis : x y z
#
# Youngs Moduli (GPa) = 123.05120 41.79765 -1375.64678
#
# Poissons Ratio (x) = 0.00564 0.54575
# Poissons Ratio (y) = 0.01660 6.37436
# Poissons Ratio (z) = -0.04882 -0.19368
#
# Static dielectric constant tensor:
#      x y z
#    x 1.784530 0.043840 0.012510 
#    y 0.043840 1.695210 -0.021990 
#    z 0.012510 -0.021990 2.076130 
# 
# From -- ./inp_files/28467.got.cif
#   From: 2010.05.17/outbox.cif.g08.bks.cpg/sg2_15_cif.got.tgz:28467.got - 2010.06.03 11:33:40.
