data_PCOD9060052
_publ_section_title
;
Structure prediction by ZEFSAII (Michael W. Deem and Ramdas Pophale) SiO2 
 PCOD9060052
Probable space group: P -1
;
_chemical_formula_sum "Si O2"
_cell_formula_units_Z 14
_cell_length_a 11.104136
_cell_length_b 9.801966
_cell_length_c 7.134819
_cell_angle_alpha 88.027110
_cell_angle_beta 40.959469
_cell_angle_gamma 83.405650
_cell_volume 504.060083
_symmetry_space_group_name_H-M "P -1"
_symmetry_group_IT_number 2
_symmetry_cell_setting 'triclinic'
loop_
_space_group_symop_operation_xyz
x,y,z
-x,-y,-z
loop_
_atom_site_type_symbol
_atom_site_label
_atom_site_fract_x
_atom_site_fract_y
_atom_site_fract_z
Si Si1 0.226827 0.355567 0.700220
Si Si2 0.003635 0.867750 0.132576
Si Si3 0.156233 0.563445 0.441050
Si Si4 0.554310 0.258044 0.860057
Si Si5 0.574268 0.151520 0.404125
Si Si6 0.195514 0.285743 0.129060
Si Si7 0.786503 0.983375 0.721781
O O1 0.191067 0.481127 0.596719
O O2 0.420544 0.254593 0.467821
O O3 0.056475 0.266801 0.884985
O O4 0.225790 0.388331 0.921007
O O5 0.831448 0.901955 0.477349
O O6 0.221907 0.846135 0.928442
O O7 0.000000 0.000000 0.000000
O O8 0.342880 0.624064 0.175427
O O9 0.000000 0.500000 0.500000
O O10 0.022443 0.710209 0.606433
O O11 0.590183 0.220591 0.594039
O O12 0.631968 0.112510 0.868842
O O13 0.335371 0.319330 0.124839
O O14 0.500000 0.000000 0.500000
O O15 0.261981 0.121761 0.056422
O O16 0.000000 0.000000 0.500000
#
# Coordination Sequence:
#
# PCOD9060052 Si02
#       7
#     2   2   2   2   2   2   2
#     4  11  25  45  73 105 139 185 241 292 351 430
#     4  12  22  42  71 102 145 181 227 292 358 417
#     4  12  27  49  68 101 145 192 244 288 353 428
#     4  11  25  45  74 103 145 187 238 295 358 417
#     4  11  23  42  74 109 141 178 236 296 358 421
#     4  11  25  46  72 103 140 187 237 297 357 419
#     4  12  23  42  70 105 144 184 229 290 360 419
#
# _framework density 27.774467999999999
#
# number of rings (size 3 to 8) (size 9 to 14) (size 15 to 20)
#    0.000    0.571    4.286    3.429    2.000    4.000 
#    5.143    0.000    0.000    0.000    0.000    0.000 
#    0.000    0.000    0.000    0.000    0.000    0.000 
#
# Total GULP energy -78096.052628 kJ/mol
# GULP energy per Si atom -5578.289473 kJ/mol
# Density = 2.771125 g / cm^3
# Si number density = 27.774468 Si / 1000 Ang^3
#
#
#
# Elastic Constant Matrix: (Units=GPa)
#
#
# Indices 1 2 3 4 5 6 
#
# 1 145.0399 55.2798 23.0981 -5.0210 -29.6414 -35.8877
# 2 55.2798 101.7258 8.3391 -31.8461 -3.8711 -29.1422
# 3 23.0981 8.3391 102.5293 4.6555 -25.6156 -12.4169
# 4 -5.0210 -31.8461 4.6555 43.7233 0.4299 -2.1541
# 5 -29.6414 -3.8711 -25.6156 0.4299 65.5973 9.8976
# 6 -35.8877 -29.1422 -12.4169 -2.1541 9.8976 65.5585
#
#
#
# Elastic Compliance Matrix: (Units=1/GPa)
#
#
# Indices 1 2 3 4 5 6 
#
# 1 0.010414 -0.005648 -0.000511 -0.002782 0.003825 0.002424
# 2 -0.005648 0.018774 -0.000832 0.013435 -0.002756 0.005954
# 3 -0.000511 -0.000832 0.011103 -0.001846 0.003947 0.000797
# 4 -0.002782 0.013435 -0.001846 0.032827 -0.002232 0.005515
# 5 0.003825 -0.002756 0.003947 -0.002232 0.018556 -0.001258
# 6 0.002424 0.005954 0.000797 0.005515 -0.001258 0.019749
#
#
# Mechanical properties :
#
#
# Convention : Reuss Voigt Hill
#
# Bulk Modulus (GPa) = 38.01001 58.08102 48.04551
# Shear Modulus (GPa) = 37.26448 52.48101 44.87275
#
# Velocity S-wave (km/s) = 3.66687 4.35160 4.02383
# Velocity P-wave (km/s) = 5.62520 6.79747 6.23893
#
# Compressibility (1/GPa) = 0.02630886
#
# Stress axis : x y z
#
# Youngs Moduli (GPa) = 96.02403 53.26391 90.06858
#
# Poissons Ratio (x) = 0.30083 0.04604
# Poissons Ratio (y) = 0.54234 0.07494
# Poissons Ratio (z) = 0.04908 0.04432
#
# Static dielectric constant tensor:
#      x y z
#    x 3.246690 0.837190 1.303480 
#    y 0.837190 2.769340 1.022990 
#    z 1.303480 1.022990 3.843580 
# 
# From -- ./inp_files/183843.got.cif
#   From: 2010.05.17/outbox.cif.g08.bks.cpg/sg2_92_cif.got.tgz:183843.got - 2010.06.03 11:33:40.
