data_PCOD9060905
_publ_section_title
;
Structure prediction by ZEFSAII (Michael W. Deem and Ramdas Pophale) SiO2 
 PCOD9060905
Probable space group: P -1
;
_chemical_formula_sum "Si O2"
_cell_formula_units_Z 14
_cell_length_a 8.915508
_cell_length_b 12.425429
_cell_length_c 9.400267
_cell_angle_alpha 54.566089
_cell_angle_beta 133.150783
_cell_angle_gamma 105.641899
_cell_volume 604.745242
_symmetry_space_group_name_H-M "P -1"
_symmetry_group_IT_number 2
_symmetry_cell_setting 'triclinic'
loop_
_space_group_symop_operation_xyz
x,y,z
-x,-y,-z
loop_
_atom_site_type_symbol
_atom_site_label
_atom_site_fract_x
_atom_site_fract_y
_atom_site_fract_z
Si Si1 0.920235 0.860422 0.556252
Si Si2 0.311290 0.460081 0.540219
Si Si3 0.105311 0.849474 0.145531
Si Si4 0.026760 0.274251 0.586586
Si Si5 0.442567 0.624142 0.761415
Si Si6 0.767057 0.318710 0.910637
Si Si7 0.442590 0.136360 0.452068
O O1 0.728917 0.871983 0.533816
O O2 0.862985 0.831814 0.378637
O O3 0.000000 0.000000 0.500000
O O4 0.097898 0.729210 0.824574
O O5 0.391283 0.560774 0.625099
O O6 0.515261 0.337189 0.750605
O O7 0.236442 0.540024 0.283935
O O8 0.120280 0.404964 0.522858
O O9 0.968017 0.767601 0.213814
O O10 0.124046 0.798302 0.037412
O O11 0.344616 0.842070 0.352783
O O12 0.000000 0.000000 0.000000
O O13 0.777968 0.291653 0.386244
O O14 0.605955 0.722607 0.776810
O O15 0.500000 0.500000 0.000000
O O16 0.500000 0.000000 0.500000
#
# Coordination Sequence:
#
# PCOD9060905 Si02
#       7
#     2   2   2   2   2   2   2
#     4  12  26  44  67 100 137 178 231 281 337 408
#     4  11  24  43  68  97 138 176 225 278 340 412
#     4  11  23  44  69  98 132 179 225 281 340 406
#     4  11  24  41  66  99 134 169 227 274 337 406
#     4  11  24  43  67 102 137 173 226 283 343 406
#     4  11  24  43  68  95 137 176 226 273 345 397
#     4  11  24  44  67  96 137 179 227 281 341 407
#
# _framework density 23.150245999999999
#
# number of rings (size 3 to 8) (size 9 to 14) (size 15 to 20)
#    0.000    0.857    2.857    5.571    4.000    2.857 
#    0.000    2.857    0.000    0.000    0.000    0.000 
#    0.000    0.000    0.000    0.000    0.000    0.000 
#
# Total GULP energy -78150.525275 kJ/mol
# GULP energy per Si atom -5582.180377 kJ/mol
# Density = 2.309755 g / cm^3
# Si number density = 23.150246 Si / 1000 Ang^3
#
#
#
# Elastic Constant Matrix: (Units=GPa)
#
#
# Indices 1 2 3 4 5 6 
#
# 1 179.0152 55.6762 17.7706 -6.1690 -11.5531 9.7171
# 2 55.6762 108.4451 1.1374 -1.3663 -14.9952 8.2318
# 3 17.7706 1.1374 50.6518 -5.6450 -3.8628 10.7928
# 4 -6.1690 -1.3663 -5.6450 33.8269 -5.0396 -8.5235
# 5 -11.5531 -14.9952 -3.8628 -5.0396 26.7657 -3.9315
# 6 9.7171 8.2318 10.7928 -8.5235 -3.9315 58.5238
#
#
#
# Elastic Compliance Matrix: (Units=1/GPa)
#
#
# Indices 1 2 3 4 5 6 
#
# 1 0.006955 -0.003401 -0.002176 0.000887 0.000938 -0.000083
# 2 -0.003401 0.011770 0.001611 0.000687 0.005351 -0.000928
# 3 -0.002176 0.001611 0.021730 0.002955 0.003182 -0.003229
# 4 0.000887 0.000687 0.002955 0.032566 0.007986 0.004491
# 5 0.000938 0.005351 0.003182 0.007986 0.043103 0.002563
# 6 -0.000083 -0.000928 -0.003229 0.004491 0.002563 0.018653
#
#
# Mechanical properties :
#
#
# Convention : Reuss Voigt Hill
#
# Bulk Modulus (GPa) = 30.74661 54.14230 42.44446
# Shear Modulus (GPa) = 32.56283 41.39182 36.97732
#
# Velocity S-wave (km/s) = 3.75452 4.23302 4.00093
# Velocity P-wave (km/s) = 5.66616 6.87964 6.30217
#
# Compressibility (1/GPa) = 0.03252391
#
# Stress axis : x y z
#
# Youngs Moduli (GPa) = 143.77217 84.96507 46.01984
#
# Poissons Ratio (x) = 0.28897 0.10013
# Poissons Ratio (y) = 0.48897 -0.07416
# Poissons Ratio (z) = 0.31283 -0.13692
#
# Static dielectric constant tensor:
#      x y z
#    x 1.875660 -0.010420 -0.005530 
#    y -0.010420 1.812220 -0.002840 
#    z -0.005530 -0.002840 1.938640 
# 
# From -- ./inp_files/185520.got.cif
#   From: 2010.05.17/outbox.cif.g08.bks.cpg/sg2_93_cif.got.tgz:185520.got - 2010.06.03 11:33:40.
