data_PCOD9060165
_publ_section_title
;
Structure prediction by ZEFSAII (Michael W. Deem and Ramdas Pophale) SiO2 
 PCOD9060165
Probable space group: P -1
;
_chemical_formula_sum "Si O2"
_cell_formula_units_Z 14
_cell_length_a 11.572474
_cell_length_b 9.373039
_cell_length_c 7.444232
_cell_angle_alpha 62.394465
_cell_angle_beta 55.428679
_cell_angle_gamma 63.388566
_cell_volume 569.944642
_symmetry_space_group_name_H-M "P -1"
_symmetry_group_IT_number 2
_symmetry_cell_setting 'triclinic'
loop_
_space_group_symop_operation_xyz
x,y,z
-x,-y,-z
loop_
_atom_site_type_symbol
_atom_site_label
_atom_site_fract_x
_atom_site_fract_y
_atom_site_fract_z
Si Si1 0.844223 0.056335 0.014514
Si Si2 0.789691 0.151817 0.612800
Si Si3 0.526167 0.676243 0.093154
Si Si4 0.929788 0.429264 0.268781
Si Si5 0.713799 0.768152 0.365326
Si Si6 0.428438 0.703589 0.741786
Si Si7 0.204995 0.206867 0.311826
O O1 0.730302 0.176185 0.176613
O O2 0.777926 0.898854 0.122652
O O3 0.845474 0.149509 0.770929
O O4 0.000000 0.000000 0.000000
O O5 0.616516 0.225804 0.734062
O O6 0.863300 0.275482 0.369661
O O7 0.825856 0.965289 0.620148
O O8 0.566716 0.481370 0.219483
O O9 0.482895 0.687443 0.912200
O O10 0.664692 0.751306 0.942700
O O11 0.801837 0.578766 0.367040
O O12 0.062467 0.357036 0.328488
O O13 0.000000 0.500000 0.000000
O O14 0.544065 0.779649 0.490233
O O15 0.744279 0.809102 0.519223
#
# Coordination Sequence:
#
# PCOD9060165 Si02
#       7
#     2   2   2   2   2   2   2
#     4  11  24  39  72 105 136 175 227 274 337 405
#     4  11  23  47  68  97 140 177 219 285 343 398
#     4   9  19  39  70  98 130 176 227 271 340 400
#     4  12  26  44  67  94 139 181 229 281 339 398
#     4  11  23  43  67 100 133 181 228 271 340 407
#     4   9  19  39  66 100 136 174 222 279 326 403
#     4  11  24  41  70 101 136 175 221 284 339 403
#
# _framework density 24.563790999999998
#
# number of rings (size 3 to 8) (size 9 to 14) (size 15 to 20)
#    0.000    1.429    1.429    3.429    4.000    1.143 
#    0.000    2.143    0.000    0.000    0.000    0.000 
#    0.000    0.000    0.000    0.000    0.000    0.000 
#
# Total GULP energy -78535.774933 kJ/mol
# GULP energy per Si atom -5609.698209 kJ/mol
# Density = 2.450788 g / cm^3
# Si number density = 24.563791 Si / 1000 Ang^3
#
#
#
# Elastic Constant Matrix: (Units=GPa)
#
#
# Indices 1 2 3 4 5 6 
#
# 1 85.3941 33.1765 50.3092 10.1684 -8.2708 -18.8143
# 2 33.1765 130.9350 39.4817 3.6743 -16.6302 -21.2955
# 3 50.3092 39.4817 128.5658 -18.0724 -33.9245 3.7722
# 4 10.1684 3.6743 -18.0724 40.8140 -3.2254 -11.9991
# 5 -8.2708 -16.6302 -33.9245 -3.2254 34.9769 6.3067
# 6 -18.8143 -21.2955 3.7722 -11.9991 6.3067 36.2055
#
#
#
# Elastic Compliance Matrix: (Units=1/GPa)
#
#
# Indices 1 2 3 4 5 6 
#
# 1 0.021890 -0.001059 -0.012423 -0.008420 -0.010141 0.011022
# 2 -0.001059 0.009608 -0.002427 -0.000081 0.001028 0.005147
# 3 -0.012423 -0.002427 0.019903 0.010745 0.017919 -0.009518
# 4 -0.008420 -0.000081 0.010745 0.033278 0.010811 0.003603
# 5 -0.010141 0.001028 0.017919 0.010811 0.047068 -0.011148
# 6 0.011022 0.005147 -0.009518 0.003603 -0.011148 0.040503
#
#
# Mechanical properties :
#
#
# Convention : Reuss Voigt Hill
#
# Bulk Modulus (GPa) = 51.07084 65.64776 58.35930
# Shear Modulus (GPa) = 23.74206 37.19445 30.46825
#
# Velocity S-wave (km/s) = 3.11231 3.89549 3.52571
# Velocity P-wave (km/s) = 5.80961 6.85686 6.35484
#
# Compressibility (1/GPa) = 0.01958065
#
# Stress axis : x y z
#
# Youngs Moduli (GPa) = 45.68267 104.08316 50.24413
#
# Poissons Ratio (x) = 0.11027 0.62421
# Poissons Ratio (y) = 0.04840 0.12195
# Poissons Ratio (z) = 0.56754 0.25262
#
# Static dielectric constant tensor:
#      x y z
#    x 1.935020 -0.004630 0.021660 
#    y -0.004630 1.887030 0.008570 
#    z 0.021660 0.008570 1.972940 
# 
# From -- ./inp_files/242359.got.cif
#   From: 2010.05.17/outbox.cif.g08.bks.cpg/sg2_122_cif.got.tgz:242359.got - 2010.06.03 11:33:40.
