data_PCOD9060708
_publ_section_title
;
Structure prediction by ZEFSAII (Michael W. Deem and Ramdas Pophale) SiO2 
 PCOD9060708
Probable space group: P -1
;
_chemical_formula_sum "Si O2"
_cell_formula_units_Z 16
_cell_length_a 12.726723
_cell_length_b 17.749390
_cell_length_c 9.114941
_cell_angle_alpha 140.551659
_cell_angle_beta 59.954736
_cell_angle_gamma 144.557281
_cell_volume 711.063520
_symmetry_space_group_name_H-M "P -1"
_symmetry_group_IT_number 2
_symmetry_cell_setting 'triclinic'
loop_
_space_group_symop_operation_xyz
x,y,z
-x,-y,-z
loop_
_atom_site_type_symbol
_atom_site_label
_atom_site_fract_x
_atom_site_fract_y
_atom_site_fract_z
Si Si1 0.128286 0.484021 0.439657
Si Si2 0.865478 0.927748 0.161229
Si Si3 0.051315 0.871852 0.327437
Si Si4 0.771651 0.845092 0.584167
Si Si5 0.803927 0.101320 0.268642
Si Si6 0.868971 0.286044 0.799610
Si Si7 0.434968 0.865895 0.977641
Si Si8 0.614937 0.521535 0.819923
O O1 0.290942 0.661647 0.699228
O O2 0.244672 0.483898 0.247212
O O3 0.000000 0.500000 0.500000
O O4 0.983718 0.289976 0.337465
O O5 0.810410 0.960761 0.396327
O O6 0.835000 0.995696 0.155612
O O7 0.743077 0.716192 0.937915
O O8 0.093829 0.078558 0.256360
O O9 0.003355 0.712278 0.195934
O O10 0.865026 0.814769 0.365118
O O11 0.164891 0.978334 0.257872
O O12 0.620800 0.961484 0.079404
O O13 0.547691 0.652406 0.439620
O O14 0.792234 0.177076 0.534931
O O15 0.693325 0.170285 0.860768
O O16 0.000000 0.500000 0.000000
O O17 0.500000 0.000000 0.000000
O O18 0.500000 0.500000 0.000000
#
# Coordination Sequence:
#
# PCOD9060708 Si02
#       8
#     2   2   2   2   2   2   2   2
#     4  12  29  50  72 115 155 199 257 332 389 458
#     4   9  21  41  68 101 143 187 242 315 375 435
#     4   8  17  36  63 100 140 179 239 306 366 428
#     4   9  18  38  63 103 137 176 242 308 363 436
#     4  11  25  51  71 111 154 201 262 318 395 459
#     4  11  23  43  78 110 153 203 261 315 386 460
#     4  12  27  47  75 108 151 214 254 314 387 475
#     4  12  24  43  76 112 144 200 262 310 382 468
#
# _framework density 22.501507
#
# number of rings (size 3 to 8) (size 9 to 14) (size 15 to 20)
#    0.750    0.750    3.750    0.375    1.750    5.500 
#    2.250    1.250    0.000    0.000    0.000    0.000 
#    0.000    0.000    0.000    0.000    0.000    0.000 
#
# Total GULP energy -89239.026151 kJ/mol
# GULP energy per Si atom -5577.439134 kJ/mol
# Density = 2.245029 g / cm^3
# Si number density = 22.501507 Si / 1000 Ang^3
#
#
#
# Elastic Constant Matrix: (Units=GPa)
#
#
# Indices 1 2 3 4 5 6 
#
# 1 201.5554 77.2861 68.0782 24.6118 -6.4106 -4.7810
# 2 77.2861 116.6029 63.6264 7.5877 -4.2085 4.0989
# 3 68.0782 63.6264 110.5008 -3.1141 2.0198 -0.0308
# 4 24.6118 7.5877 -3.1141 58.2828 -2.4210 2.3710
# 5 -6.4106 -4.2085 2.0198 -2.4210 41.9388 12.6438
# 6 -4.7810 4.0989 -0.0308 2.3710 12.6438 32.1395
#
#
#
# Elastic Compliance Matrix: (Units=1/GPa)
#
#
# Indices 1 2 3 4 5 6 
#
# 1 0.007625 -0.003346 -0.002860 -0.002992 0.000293 0.001664
# 2 -0.003346 0.014476 -0.006331 -0.000591 0.002164 -0.003158
# 3 -0.002860 -0.006331 0.014568 0.002693 -0.001904 0.000946
# 4 -0.002992 -0.000591 0.002693 0.018777 0.001096 -0.002183
# 5 0.000293 0.002164 -0.001904 0.001096 0.027634 -0.011186
# 6 0.001664 -0.003158 0.000946 -0.002183 -0.011186 0.036327
#
#
# Mechanical properties :
#
#
# Convention : Reuss Voigt Hill
#
# Bulk Modulus (GPa) = 86.24683 94.07116 90.15900
# Shear Modulus (GPa) = 33.70505 41.11678 37.41092
#
# Velocity S-wave (km/s) = 3.87447 4.27932 4.08192
# Velocity P-wave (km/s) = 7.64382 8.14335 7.89753
#
# Compressibility (1/GPa) = 0.01159463
#
# Stress axis : x y z
#
# Youngs Moduli (GPa) = 131.15186 69.07830 68.64410
#
# Poissons Ratio (x) = 0.23117 0.19631
# Poissons Ratio (y) = 0.43889 0.43458
# Poissons Ratio (z) = 0.37508 0.43733
#
# Static dielectric constant tensor:
#      x y z
#    x 1.954250 -0.013730 -0.055410 
#    y -0.013730 1.866220 -0.087030 
#    z -0.055410 -0.087030 1.967740 
# 
# From -- ./inp_files/405679.got.cif
#   From: 2010.05.17/outbox.cif.g08.bks.cpg/sg2_203_cif.got.tgz:405679.got - 2010.06.03 11:33:40.
