data_PCOD9060027
_publ_section_title
;
Structure prediction by ZEFSAII (Michael W. Deem and Ramdas Pophale) SiO2 
 PCOD9060027
Probable space group: P -1
;
_chemical_formula_sum "Si O2"
_cell_formula_units_Z 16
_cell_length_a 17.650384
_cell_length_b 9.669788
_cell_length_c 16.979246
_cell_angle_alpha 41.707910
_cell_angle_beta 148.505256
_cell_angle_gamma 150.356560
_cell_volume 748.630702
_symmetry_space_group_name_H-M "P -1"
_symmetry_group_IT_number 2
_symmetry_cell_setting 'triclinic'
loop_
_space_group_symop_operation_xyz
x,y,z
-x,-y,-z
loop_
_atom_site_type_symbol
_atom_site_label
_atom_site_fract_x
_atom_site_fract_y
_atom_site_fract_z
Si Si1 0.886441 0.479505 0.222129
Si Si2 0.826806 0.708616 0.928288
Si Si3 0.492085 0.579254 0.763304
Si Si4 0.389310 0.525155 0.456498
Si Si5 0.053073 0.311023 0.132380
Si Si6 0.653070 0.122046 0.512647
Si Si7 0.204783 0.087385 0.624570
Si Si8 0.292946 0.312127 0.938385
O O1 0.795999 0.547484 0.178898
O O2 0.123436 0.714184 0.337445
O O3 0.823104 0.181185 0.304293
O O4 0.811089 0.494978 0.064009
O O5 0.641486 0.684430 0.778503
O O6 0.864753 0.682178 0.883355
O O7 0.000000 0.000000 0.000000
O O8 0.359868 0.654542 0.625725
O O9 0.341674 0.248824 0.754380
O O10 0.646899 0.723683 0.908854
O O11 0.500000 0.500000 0.500000
O O12 0.202576 0.434540 0.283760
O O13 0.305141 0.310876 0.546513
O O14 0.543478 0.852110 0.476212
O O15 0.867279 0.983509 0.119443
O O16 0.000000 0.500000 0.000000
O O17 0.500000 0.000000 0.500000
O O18 0.000000 0.000000 0.500000
O O19 0.500000 0.500000 0.000000
#
# Coordination Sequence:
#
# PCOD9060027 Si02
#       8
#     2   2   2   2   2   2   2   2
#     4  11  25  45  78 104 141 194 242 297 359 432
#     4  11  23  45  77 102 139 185 246 291 355 437
#     4  11  23  42  74 101 135 187 243 288 353 434
#     4  12  28  46  71 108 149 186 239 305 366 427
#     4  12  27  44  73 108 143 183 240 306 358 418
#     4  12  23  43  77 104 137 189 242 291 362 435
#     4  12  26  45  70 111 145 186 244 306 359 434
#     4  11  27  46  67 100 147 193 234 287 364 433
#
# _framework density 21.372354000000001
#
# number of rings (size 3 to 8) (size 9 to 14) (size 15 to 20)
#    0.000    0.500    5.000    3.000    5.250    5.000 
#    0.000    1.875    0.000    0.000    0.000    0.000 
#    0.000    0.000    0.000    0.000    0.000    0.000 
#
# Total GULP energy -89317.697340 kJ/mol
# GULP energy per Si atom -5582.356084 kJ/mol
# Density = 2.132371 g / cm^3
# Si number density = 21.372354 Si / 1000 Ang^3
#
#
#
# Elastic Constant Matrix: (Units=GPa)
#
#
# Indices 1 2 3 4 5 6 
#
# 1 91.0423 20.1667 10.7262 -10.5721 17.1753 3.4405
# 2 20.1667 134.7378 40.9764 -5.1465 6.3844 -14.4652
# 3 10.7262 40.9764 117.0765 0.3389 9.4721 -0.4386
# 4 -10.5721 -5.1465 0.3389 41.3955 -7.1176 5.0282
# 5 17.1753 6.3844 9.4721 -7.1176 38.8603 4.3454
# 6 3.4405 -14.4652 -0.4386 5.0282 4.3454 36.4333
#
#
#
# Elastic Compliance Matrix: (Units=1/GPa)
#
#
# Indices 1 2 3 4 5 6 
#
# 1 0.012595 -0.001689 -0.000203 0.002415 -0.004613 -0.001646
# 2 -0.001689 0.008996 -0.002949 0.000192 -0.000393 0.003716
# 3 -0.000203 -0.002949 0.009742 -0.000730 -0.001855 -0.000712
# 4 0.002415 0.000192 -0.000730 0.026068 0.004332 -0.004275
# 5 -0.004613 -0.000393 -0.001855 0.004332 0.029514 -0.003861
# 6 -0.001646 0.003716 -0.000712 -0.004275 -0.003861 0.030120
#
#
# Mechanical properties :
#
#
# Convention : Reuss Voigt Hill
#
# Bulk Modulus (GPa) = 46.18623 54.06615 50.12619
# Shear Modulus (GPa) = 37.33201 41.40362 39.36781
#
# Velocity S-wave (km/s) = 4.18394 4.40620 4.29651
# Velocity P-wave (km/s) = 6.70803 7.15809 6.93671
#
# Compressibility (1/GPa) = 0.02165148
#
# Stress axis : x y z
#
# Youngs Moduli (GPa) = 79.39712 111.15576 102.65317
#
# Poissons Ratio (x) = 0.18778 0.02079
# Poissons Ratio (y) = 0.13413 0.30270
# Poissons Ratio (z) = 0.01608 0.32777
#
# Static dielectric constant tensor:
#      x y z
#    x 1.131960 -0.249690 -0.231550 
#    y -0.249690 1.429570 -0.220450 
#    z -0.231550 -0.220450 1.767490 
# 
# From -- ./inp_files/206940.got.cif
#   From: 2010.05.17/outbox.cif.g08.bks.cpg/sg2_104_cif.got.tgz:206940.got - 2010.06.03 11:33:40.
