data_PCOD9060779
_publ_section_title
;
Structure prediction by ZEFSAII (Michael W. Deem and Ramdas Pophale) SiO2 
 PCOD9060779
Probable space group: P -1
;
_chemical_formula_sum "Si O2"
_cell_formula_units_Z 15
_cell_length_a 9.727798
_cell_length_b 13.861938
_cell_length_c 5.253210
_cell_angle_alpha 71.694255
_cell_angle_beta 70.312352
_cell_angle_gamma 65.630112
_cell_volume 594.746328
_symmetry_space_group_name_H-M "P -1"
_symmetry_group_IT_number 2
_symmetry_cell_setting 'triclinic'
loop_
_space_group_symop_operation_xyz
x,y,z
-x,-y,-z
loop_
_atom_site_type_symbol
_atom_site_label
_atom_site_fract_x
_atom_site_fract_y
_atom_site_fract_z
Si Si1 0.719851 0.430781 0.691716
Si Si2 0.930306 0.718820 0.329612
Si Si3 0.248415 0.938635 0.005892
Si Si4 0.276129 0.248724 0.058749
Si Si5 0.699902 0.256701 0.516471
Si Si6 0.973760 0.111319 0.172119
Si Si7 0.475294 0.345524 0.187745
Si Si8 0.500000 0.000000 0.000000
O O1 0.683531 0.378357 0.498721
O O2 0.652283 0.558272 0.661150
O O3 0.903582 0.377985 0.670536
O O4 0.615005 0.387075 0.982550
O O5 0.835774 0.740658 0.634073
O O6 0.827265 0.704291 0.166797
O O7 0.974557 0.823264 0.135313
O O8 0.305064 0.818246 0.180902
O O9 0.386010 0.983660 0.860473
O O10 0.147704 0.939527 0.824390
O O11 0.128626 0.014413 0.225780
O O12 0.388170 0.312217 0.037439
O O13 0.377221 0.125087 0.031562
O O14 0.874196 0.201156 0.351282
O O15 0.567280 0.252323 0.406618
#
# Coordination Sequence:
#
# PCOD9060779 Si02
#       8
#     2   2   2   2   2   2   2   1
#     4  11  25  47  79 104 143 199 260 318 367 453
#     4  12  26  51  77 109 154 201 255 306 377 447
#     4  11  25  40  70 105 148 196 248 302 377 448
#     4  12  30  50  75 112 159 201 244 315 381 453
#     4  12  21  43  75 107 143 192 254 317 366 451
#     4  11  23  44  67 108 144 198 250 304 368 454
#     4  11  27  48  72 110 147 197 255 316 385 438
#     4  12  26  46  68 114 150 202 236 304 382 452
#
# _framework density 25.220837
#
# number of rings (size 3 to 8) (size 9 to 14) (size 15 to 20)
#    0.000    0.533    4.000    3.200    3.733    3.733 
#    0.000    0.000    0.000    0.000    0.000    0.000 
#    0.000    0.000    0.000    0.000    0.000    0.000 
#
# Total GULP energy -83678.497409 kJ/mol
# GULP energy per Si atom -5578.566494 kJ/mol
# Density = 2.516343 g / cm^3
# Si number density = 25.220837 Si / 1000 Ang^3
#
#
#
# Elastic Constant Matrix: (Units=GPa)
#
#
# Indices 1 2 3 4 5 6 
#
# 1 155.6309 32.8212 25.8209 3.1145 19.5175 -6.5984
# 2 32.8212 113.9003 21.2840 28.0022 -10.1807 -15.2623
# 3 25.8209 21.2840 99.7416 10.9280 2.1878 -3.3162
# 4 3.1145 28.0022 10.9280 26.2768 -5.6269 -1.5438
# 5 19.5175 -10.1807 2.1878 -5.6269 38.0724 11.9827
# 6 -6.5984 -15.2623 -3.3162 -1.5438 11.9827 44.4375
#
#
#
# Elastic Compliance Matrix: (Units=1/GPa)
#
#
# Indices 1 2 3 4 5 6 
#
# 1 0.007869 -0.002585 -0.001489 0.001481 -0.004907 0.001544
# 2 -0.002585 0.013504 -0.000708 -0.013168 0.002024 0.003198
# 3 -0.001489 -0.000708 0.011008 -0.003783 -0.000753 0.000429
# 4 0.001481 -0.013168 -0.003783 0.054373 0.005269 -0.004117
# 5 -0.004907 0.002024 -0.000753 0.005269 0.032908 -0.008780
# 6 0.001544 0.003198 0.000429 -0.004117 -0.008780 0.026088
#
#
# Mechanical properties :
#
#
# Convention : Reuss Voigt Hill
#
# Bulk Modulus (GPa) = 43.82712 58.79166 51.30939
# Shear Modulus (GPa) = 30.69039 41.04711 35.86875
#
# Velocity S-wave (km/s) = 3.49215 4.03861 3.77528
# Velocity P-wave (km/s) = 5.80303 6.71629 6.27629
#
# Compressibility (1/GPa) = 0.02281692
#
# Stress axis : x y z
#
# Youngs Moduli (GPa) = 127.08443 74.05448 90.84635
#
# Poissons Ratio (x) = 0.19144 0.13525
# Poissons Ratio (y) = 0.32853 0.06429
# Poissons Ratio (z) = 0.18920 0.05240
#
# Static dielectric constant tensor:
#      x y z
#    x 1.956210 0.003740 -0.099120 
#    y 0.003740 2.013680 0.017010 
#    z -0.099120 0.017010 1.950090 
# 
# From -- ./inp_files/35015.got.cif
#   From: 2010.05.17/outbox.cif.g08.bks.cpg/sg2_18_cif.got.tgz:35015.got - 2010.06.03 11:33:40.
