data_PCOD9060201
_publ_section_title
;
Structure prediction by ZEFSAII (Michael W. Deem and Ramdas Pophale) SiO2 
 PCOD9060201
Probable space group: P -1
;
_chemical_formula_sum "Si O2"
_cell_formula_units_Z 16
_cell_length_a 17.987935
_cell_length_b 8.595202
_cell_length_c 8.937761
_cell_angle_alpha 31.863946
_cell_angle_beta 90.231703
_cell_angle_gamma 90.818441
_cell_volume 729.332893
_symmetry_space_group_name_H-M "P -1"
_symmetry_group_IT_number 2
_symmetry_cell_setting 'triclinic'
loop_
_space_group_symop_operation_xyz
x,y,z
-x,-y,-z
loop_
_atom_site_type_symbol
_atom_site_label
_atom_site_fract_x
_atom_site_fract_y
_atom_site_fract_z
Si Si1 0.570075 0.792955 0.659773
Si Si2 0.048074 0.786382 0.788181
Si Si3 0.951953 0.278589 0.793829
Si Si4 0.811863 0.418705 0.213275
Si Si5 0.351057 0.604468 0.795665
Si Si6 0.343304 0.164687 0.881901
Si Si7 0.424941 0.552660 0.361773
Si Si8 0.811345 0.049151 0.811539
O O1 0.561451 0.576084 0.696306
O O2 0.500000 0.000000 0.500000
O O3 0.635169 0.046785 0.470474
O O4 0.587235 0.565993 0.974421
O O5 0.128854 0.755432 0.739815
O O6 0.058183 0.754910 0.996422
O O7 0.000000 0.000000 0.500000
O O8 0.000000 0.500000 0.000000
O O9 0.871191 0.234915 0.754745
O O10 0.000000 0.500000 0.500000
O O11 0.000000 0.000000 0.000000
O O12 0.733194 0.466086 0.093518
O O13 0.792363 0.233824 0.513256
O O14 0.843299 0.737438 0.007835
O O15 0.357264 0.437289 0.773749
O O16 0.356876 0.336252 0.589019
O O17 0.399531 0.890013 0.105621
O O18 0.262373 0.034200 0.027707
O O19 0.500000 0.500000 0.500000
#
# Coordination Sequence:
#
# PCOD9060201 Si02
#       8
#     2   2   2   2   2   2   2   2
#     4  12  25  42  65  95 131 172 220 276 334 402
#     4  12  25  42  66  96 133 175 223 278 338 407
#     4  12  25  42  66  96 133 175 223 278 338 407
#     4  11  23  43  68  95 130 173 220 276 341 412
#     4  11  23  43  67  94 129 172 219 272 337 405
#     4  11  23  43  67  94 129 172 219 272 337 405
#     4  12  25  42  65  95 131 172 220 276 334 402
#     4  11  23  43  68  95 130 173 220 276 341 412
#
# _framework density 21.937854999999999
#
# number of rings (size 3 to 8) (size 9 to 14) (size 15 to 20)
#    0.000    0.500    0.000   11.250    0.000    2.000 
#    0.000    0.000    0.000    0.000    0.000    0.000 
#    0.000    0.000    0.000    0.000    0.000    0.000 
#
# Total GULP energy -89079.457168 kJ/mol
# GULP energy per Si atom -5567.466073 kJ/mol
# Density = 2.188792 g / cm^3
# Si number density = 21.937855 Si / 1000 Ang^3
#
#
#
# Elastic Constant Matrix: (Units=GPa)
#
#
# Indices 1 2 3 4 5 6 
#
# 1 101.3144 49.7090 19.3697 14.3031 0.7908 -5.3595
# 2 49.7090 95.6507 17.8587 4.7301 2.6442 -6.3562
# 3 19.3697 17.8587 136.8751 -3.5756 -0.6615 -4.3748
# 4 14.3031 4.7301 -3.5756 42.0775 -4.6830 -0.7972
# 5 0.7908 2.6442 -0.6615 -4.6830 35.5019 -11.5561
# 6 -5.3595 -6.3562 -4.3748 -0.7972 -11.5561 37.9391
#
#
#
# Elastic Compliance Matrix: (Units=1/GPa)
#
#
# Indices 1 2 3 4 5 6 
#
# 1 0.014068 -0.006843 -0.001189 -0.004124 -0.000188 0.000560
# 2 -0.006843 0.014228 -0.000836 0.000628 -0.000450 0.001197
# 3 -0.001189 -0.000836 0.007644 0.001236 0.000654 0.000799
# 4 -0.004124 0.000628 0.001236 0.025663 0.003907 0.001394
# 5 -0.000188 -0.000450 0.000654 0.003907 0.031915 0.009777
# 6 0.000560 0.001197 0.000799 0.001394 0.009777 0.029737
#
#
# Mechanical properties :
#
#
# Convention : Reuss Voigt Hill
#
# Bulk Modulus (GPa) = 54.92735 56.41277 55.67006
# Shear Modulus (GPa) = 34.00006 39.56391 36.78198
#
# Velocity S-wave (km/s) = 3.94107 4.25132 4.09913
# Velocity P-wave (km/s) = 6.76767 7.06179 6.91629
#
# Compressibility (1/GPa) = 0.01820587
#
# Stress axis : x y z
#
# Youngs Moduli (GPa) = 71.08210 70.28498 130.81923
#
# Poissons Ratio (x) = 0.48095 0.15551
# Poissons Ratio (y) = 0.48640 0.10930
# Poissons Ratio (z) = 0.08450 0.05872
#
# Static dielectric constant tensor:
#      x y z
#    x 1.665870 -0.118890 -0.040560 
#    y -0.118890 1.675120 -0.069990 
#    z -0.040560 -0.069990 1.728820 
# 
# From -- ./inp_files/226052.got.cif
#   From: 2010.05.17/outbox.cif.g08.bks.cpg/sg2_114_cif.got.tgz:226052.got - 2010.06.03 11:33:40.
