data_PCOD9060884
_publ_section_title
;
Structure prediction by ZEFSAII (Michael W. Deem and Ramdas Pophale) SiO2 
 PCOD9060884
Probable space group: P -1
;
_chemical_formula_sum "Si O2"
_cell_formula_units_Z 14
_cell_length_a 11.654399
_cell_length_b 6.661879
_cell_length_c 11.331849
_cell_angle_alpha 65.534702
_cell_angle_beta 53.102493
_cell_angle_gamma 70.980178
_cell_volume 636.800585
_symmetry_space_group_name_H-M "P -1"
_symmetry_group_IT_number 2
_symmetry_cell_setting 'triclinic'
loop_
_space_group_symop_operation_xyz
x,y,z
-x,-y,-z
loop_
_atom_site_type_symbol
_atom_site_label
_atom_site_fract_x
_atom_site_fract_y
_atom_site_fract_z
Si Si1 0.043451 0.001449 0.110422
Si Si2 0.499048 0.738700 0.057921
Si Si3 0.673838 0.623769 0.753639
Si Si4 0.978769 0.487794 0.656234
Si Si5 0.571909 0.038212 0.571589
Si Si6 0.826051 0.343534 0.308852
Si Si7 0.685228 0.758101 0.149356
O O1 0.026538 0.762728 0.235074
O O2 0.938786 0.186676 0.198678
O O3 0.206431 0.066444 0.999796
O O4 0.000000 0.000000 0.000000
O O5 0.355512 0.624334 0.205239
O O6 0.616886 0.648651 0.104532
O O7 0.545597 0.691737 0.906897
O O8 0.500000 0.000000 0.000000
O O9 0.820714 0.619264 0.736185
O O10 0.656991 0.805709 0.618179
O O11 0.000000 0.500000 0.500000
O O12 0.096782 0.597199 0.632408
O O13 0.686342 0.216410 0.448243
O O14 0.445861 0.126902 0.718899
O O15 0.500000 0.000000 0.500000
O O16 0.776520 0.569665 0.214954
#
# Coordination Sequence:
#
# PCOD9060884 Si02
#       7
#     2   2   2   2   2   2   2
#     4  12  26  48  76 108 148 191 257 308 368 445
#     4  11  23  44  69 105 139 183 238 303 366 429
#     4  11  26  44  71 104 146 184 240 303 365 431
#     4  12  29  47  75 107 152 199 247 305 379 449
#     4  12  27  47  75 109 152 194 244 305 377 450
#     4  12  28  49  74 108 152 198 249 308 376 447
#     4  12  25  45  79 105 144 192 250 308 370 435
#
# _framework density 21.984905000000001
#
# number of rings (size 3 to 8) (size 9 to 14) (size 15 to 20)
#    0.000    0.286    2.857    5.143    8.000    3.429 
#    0.000    0.000    0.000    0.000    0.000    0.000 
#    0.000    0.000    0.000    0.000    0.000    0.000 
#
# Total GULP energy -78352.752186 kJ/mol
# GULP energy per Si atom -5596.625156 kJ/mol
# Density = 2.193487 g / cm^3
# Si number density = 21.984905 Si / 1000 Ang^3
#
#
#
# Elastic Constant Matrix: (Units=GPa)
#
#
# Indices 1 2 3 4 5 6 
#
# 1 157.7886 34.0216 42.3349 -25.8996 10.3748 15.8098
# 2 34.0216 100.0918 47.1519 -24.2988 1.8136 -2.6147
# 3 42.3349 47.1519 121.3517 -12.2110 -3.8889 11.6351
# 4 -25.8996 -24.2988 -12.2110 37.9831 -2.7869 -2.5358
# 5 10.3748 1.8136 -3.8889 -2.7869 53.0864 -8.6175
# 6 15.8098 -2.6147 11.6351 -2.5358 -8.6175 40.4910
#
#
#
# Elastic Compliance Matrix: (Units=1/GPa)
#
#
# Indices 1 2 3 4 5 6 
#
# 1 0.008108 -0.000959 -0.001842 0.003989 -0.001942 -0.002862
# 2 -0.000959 0.014441 -0.004846 0.007258 0.000240 0.003205
# 3 -0.001842 -0.004846 0.010949 -0.000948 0.000853 -0.002618
# 4 0.003989 0.007258 -0.000948 0.033551 0.000904 0.001477
# 5 -0.001942 0.000240 0.000853 0.000904 0.020108 0.004865
# 6 -0.002862 0.003205 -0.002618 0.001477 0.004865 0.027901
#
#
# Mechanical properties :
#
#
# Convention : Reuss Voigt Hill
#
# Bulk Modulus (GPa) = 54.93493 69.58321 62.25907
# Shear Modulus (GPa) = 36.65147 43.36036 40.00591
#
# Velocity S-wave (km/s) = 4.08747 4.44585 4.27042
# Velocity P-wave (km/s) = 6.87883 7.62058 7.25919
#
# Compressibility (1/GPa) = 0.01820336
#
# Stress axis : x y z
#
# Youngs Moduli (GPa) = 123.33678 69.24730 91.33307
#
# Poissons Ratio (x) = 0.06642 0.16826
# Poissons Ratio (y) = 0.11830 0.44258
# Poissons Ratio (z) = 0.22722 0.33556
#
# Static dielectric constant tensor:
#      x y z
#    x 1.849840 0.022560 -0.050020 
#    y 0.022560 1.862120 0.004480 
#    z -0.050020 0.004480 1.872880 
# 
# From -- ./inp_files/69733.got.cif
#   From: 2010.05.17/outbox.cif.g08.bks.cpg/sg2_35_cif.got.tgz:69733.got - 2010.06.03 11:33:40.
