data_PCOD9060382
_publ_section_title
;
Structure prediction by ZEFSAII (Michael W. Deem and Ramdas Pophale) SiO2 
 PCOD9060382
Probable space group: P -1
;
_chemical_formula_sum "Si O2"
_cell_formula_units_Z 16
_cell_length_a 11.587864
_cell_length_b 21.095038
_cell_length_c 15.732549
_cell_angle_alpha 156.344502
_cell_angle_beta 23.976178
_cell_angle_gamma 143.026110
_cell_volume 609.738551
_symmetry_space_group_name_H-M "P -1"
_symmetry_group_IT_number 2
_symmetry_cell_setting 'triclinic'
loop_
_space_group_symop_operation_xyz
x,y,z
-x,-y,-z
loop_
_atom_site_type_symbol
_atom_site_label
_atom_site_fract_x
_atom_site_fract_y
_atom_site_fract_z
Si Si1 0.656191 0.826648 0.215319
Si Si2 0.496880 0.433624 0.101550
Si Si3 0.520474 0.805099 0.845119
Si Si4 0.585178 0.094168 0.259015
Si Si5 0.208458 0.724366 0.526616
Si Si6 0.051415 0.178762 0.828623
Si Si7 0.692507 0.618611 0.327638
Si Si8 0.918947 0.571192 0.389795
O O1 0.673491 0.703414 0.974047
O O2 0.446213 0.761053 0.343756
O O3 0.937526 0.835749 0.093969
O O4 0.500000 0.000000 0.500000
O O5 0.840960 0.387174 0.787729
O O6 0.362457 0.572898 0.295231
O O7 0.489986 0.501531 0.284960
O O8 0.618851 0.729927 0.595710
O O9 0.601649 0.654407 0.669760
O O10 0.184409 0.877686 0.139770
O O11 0.660670 0.942536 0.959787
O O12 0.842395 0.133043 0.192858
O O13 0.380770 0.247412 0.534336
O O14 0.354596 0.069797 0.456255
O O15 0.980962 0.662138 0.544863
O O16 0.987525 0.375851 0.104172
O O17 0.000000 0.500000 0.000000
#
# Coordination Sequence:
#
# PCOD9060382 Si02
#       8
#     2   2   2   2   2   2   2   2
#     4  10  19  34  62  99 123 158 206 266 325 358
#     4  10  17  38  69  85 117 171 218 255 298 380
#     4  12  25  36  59 100 133 156 203 271 324 361
#     4  10  22  41  64  87 127 167 213 257 319 369
#     4   9  18  38  70  87 114 172 220 256 298 381
#     4  11  21  42  63  91 129 169 205 256 318 389
#     4  11  21  40  63  89 121 170 217 252 308 383
#     4  11  18  38  68  91 116 165 225 249 301 385
#
# _framework density 26.240755
#
# number of rings (size 3 to 8) (size 9 to 14) (size 15 to 20)
#    0.000    1.500    6.250    1.875    0.000    1.500 
#    4.500    5.625    2.750    0.000    0.000    0.000 
#    0.000    0.000    0.000    0.000    0.000    0.000 
#
# Total GULP energy -89411.341957 kJ/mol
# GULP energy per Si atom -5588.208872 kJ/mol
# Density = 2.618103 g / cm^3
# Si number density = 26.240755 Si / 1000 Ang^3
#
#
#
# Elastic Constant Matrix: (Units=GPa)
#
#
# Indices 1 2 3 4 5 6 
#
# 1 199.3667 22.8162 54.0997 21.4152 34.5282 29.3284
# 2 22.8162 59.4024 21.6243 14.3683 16.1549 22.8499
# 3 54.0997 21.6243 91.4327 19.4590 15.4766 4.8466
# 4 21.4152 14.3683 19.4590 33.1795 5.4399 8.6588
# 5 34.5282 16.1549 15.4766 5.4399 67.8801 9.0099
# 6 29.3284 22.8499 4.8466 8.6588 9.0099 38.2961
#
#
#
# Elastic Compliance Matrix: (Units=1/GPa)
#
#
# Indices 1 2 3 4 5 6 
#
# 1 0.007123 0.001493 -0.003593 -0.001440 -0.002380 -0.005006
# 2 0.001493 0.025376 -0.004455 -0.005179 -0.003547 -0.013715
# 3 -0.003593 -0.004455 0.015231 -0.005859 -0.000777 0.004990
# 4 -0.001440 -0.005179 -0.005859 0.037598 0.000786 -0.003751
# 5 -0.002380 -0.003547 -0.000777 0.000786 0.016917 -0.000120
# 6 -0.005006 -0.013715 0.004990 -0.003751 -0.000120 0.038374
#
#
# Mechanical properties :
#
#
# Convention : Reuss Voigt Hill
#
# Bulk Modulus (GPa) = 28.88592 60.80914 44.84753
# Shear Modulus (GPa) = 30.25380 44.64859 37.45120
#
# Velocity S-wave (km/s) = 3.39917 4.12940 3.78195
# Velocity P-wave (km/s) = 5.14176 6.77936 6.01654
#
# Compressibility (1/GPa) = 0.03461894
#
# Stress axis : x y z
#
# Youngs Moduli (GPa) = 140.38439 39.40780 65.65677
#
# Poissons Ratio (x) = -0.05884 0.23592
# Poissons Ratio (y) = -0.20961 0.29252
# Poissons Ratio (z) = 0.50443 0.17557
#
# Static dielectric constant tensor:
#      x y z
#    x 2.067530 -0.007020 0.035080 
#    y -0.007020 2.230080 -0.091010 
#    z 0.035080 -0.091010 2.066800 
# 
# From -- ./inp_files/571046.got.cif
#   From: 2010.05.17/outbox.cif.g08.bks.cpg/sg2_286_cif.got.tgz:571046.got - 2010.06.03 11:33:40.
