data_PCOD9060758
_publ_section_title
;
Structure prediction by ZEFSAII (Michael W. Deem and Ramdas Pophale) SiO2 
 PCOD9060758
Probable space group: P -1
;
_chemical_formula_sum "Si O2"
_cell_formula_units_Z 16
_cell_length_a 11.136794
_cell_length_b 12.332378
_cell_length_c 11.516827
_cell_angle_alpha 84.452169
_cell_angle_beta 33.072015
_cell_angle_gamma 69.716045
_cell_volume 749.329878
_symmetry_space_group_name_H-M "P -1"
_symmetry_group_IT_number 2
_symmetry_cell_setting 'triclinic'
loop_
_space_group_symop_operation_xyz
x,y,z
-x,-y,-z
loop_
_atom_site_type_symbol
_atom_site_label
_atom_site_fract_x
_atom_site_fract_y
_atom_site_fract_z
Si Si1 0.315185 0.946158 0.717072
Si Si2 0.172641 0.834495 0.466783
Si Si3 0.876112 0.348702 0.653622
Si Si4 0.555935 0.428954 0.141468
Si Si5 0.322109 0.716156 0.606453
Si Si6 0.777197 0.469823 0.185758
Si Si7 0.542778 0.781972 0.757557
Si Si8 0.648273 0.075624 0.869885
O O1 0.356148 0.827495 0.620043
O O2 0.449431 0.899588 0.737339
O O3 0.500000 0.000000 0.500000
O O4 0.000000 0.000000 0.000000
O O5 0.113259 0.765129 0.417662
O O6 0.239865 0.755902 0.536603
O O7 0.385558 0.858065 0.233490
O O8 0.937652 0.971005 0.665670
O O9 0.724396 0.468054 0.680889
O O10 0.159973 0.303259 0.463378
O O11 0.719693 0.386301 0.895899
O O12 0.663096 0.480622 0.148425
O O13 0.561556 0.305751 0.197966
O O14 0.577482 0.583763 0.415104
O O15 0.143703 0.669619 0.817999
O O16 0.000000 0.500000 0.000000
O O17 0.441260 0.826927 0.963864
O O18 0.500000 0.000000 0.000000
#
# Coordination Sequence:
#
# PCOD9060758 Si02
#       8
#     2   2   2   2   2   2   2   2
#     4  12  31  50  80 115 154 208 261 316 384 460
#     4  11  23  44  66  97 143 176 246 297 372 448
#     4  11  24  42  72 105 136 187 235 309 378 450
#     4  11  24  47  68 105 145 184 246 308 384 455
#     4  11  26  47  71 105 145 194 249 315 382 455
#     4  11  26  46  75 103 140 198 252 316 386 455
#     4  12  25  45  76 101 149 190 248 308 380 451
#     4  11  24  40  66 100 134 189 233 295 368 439
#
# _framework density 21.352412999999999
#
# number of rings (size 3 to 8) (size 9 to 14) (size 15 to 20)
#    0.000    0.750    5.000    1.125    7.000    1.000 
#    4.500    0.000    0.000    0.000    0.000    0.000 
#    0.000    0.000    0.000    0.000    0.000    0.000 
#
# Total GULP energy -89099.976527 kJ/mol
# GULP energy per Si atom -5568.748533 kJ/mol
# Density = 2.130381 g / cm^3
# Si number density = 21.352413 Si / 1000 Ang^3
#
#
#
# Elastic Constant Matrix: (Units=GPa)
#
#
# Indices 1 2 3 4 5 6 
#
# 1 91.0127 32.1479 35.3038 -14.5048 -0.1521 4.4425
# 2 32.1479 102.3317 48.0877 -18.1181 -8.8344 0.3263
# 3 35.3038 48.0877 95.5075 -1.5493 -6.2193 -2.0830
# 4 -14.5048 -18.1181 -1.5493 44.7205 7.4501 9.0614
# 5 -0.1521 -8.8344 -6.2193 7.4501 20.6337 -6.3063
# 6 4.4425 0.3263 -2.0830 9.0614 -6.3063 50.7494
#
#
#
# Elastic Compliance Matrix: (Units=1/GPa)
#
#
# Indices 1 2 3 4 5 6 
#
# 1 0.014422 -0.001803 -0.004721 0.005200 -0.004877 -0.002979
# 2 -0.001803 0.014376 -0.006364 0.004800 0.002254 -0.000773
# 3 -0.004721 -0.006364 0.015688 -0.004822 0.004479 0.002516
# 4 0.005200 0.004800 -0.004822 0.029374 -0.012243 -0.007450
# 5 -0.004877 0.002254 0.004479 -0.012243 0.058226 0.010018
# 6 -0.002979 -0.000773 0.002516 -0.007450 0.010018 0.022649
#
#
# Mechanical properties :
#
#
# Convention : Reuss Voigt Hill
#
# Bulk Modulus (GPa) = 53.44912 57.77008 55.60960
# Shear Modulus (GPa) = 26.77404 34.77489 30.77447
#
# Velocity S-wave (km/s) = 3.54490 4.03999 3.80052
# Velocity P-wave (km/s) = 6.46849 6.99116 6.73490
#
# Compressibility (1/GPa) = 0.01870938
#
# Stress axis : x y z
#
# Youngs Moduli (GPa) = 69.34037 69.56001 63.74222
#
# Poissons Ratio (x) = 0.12541 0.30095
# Poissons Ratio (y) = 0.12501 0.40566
# Poissons Ratio (z) = 0.32738 0.44269
#
# Static dielectric constant tensor:
#      x y z
#    x 1.735240 -0.018310 -0.082800 
#    y -0.018310 1.780660 -0.206040 
#    z -0.082800 -0.206040 1.587950 
# 
# From -- ./inp_files/427949.got.cif
#   From: 2010.05.17/outbox.cif.g08.bks.cpg/sg2_214_cif.got.tgz:427949.got - 2010.06.03 11:33:40.
