data_PCOD9060653
_publ_section_title
;
Structure prediction by ZEFSAII (Michael W. Deem and Ramdas Pophale) SiO2 
 PCOD9060653
Probable space group: P -1
;
_chemical_formula_sum "Si O2"
_cell_formula_units_Z 16
_cell_length_a 8.646211
_cell_length_b 12.114684
_cell_length_c 9.386452
_cell_angle_alpha 125.673405
_cell_angle_beta 118.031999
_cell_angle_gamma 67.988323
_cell_volume 698.011858
_symmetry_space_group_name_H-M "P -1"
_symmetry_group_IT_number 2
_symmetry_cell_setting 'triclinic'
loop_
_space_group_symop_operation_xyz
x,y,z
-x,-y,-z
loop_
_atom_site_type_symbol
_atom_site_label
_atom_site_fract_x
_atom_site_fract_y
_atom_site_fract_z
Si Si1 0.016481 0.837650 0.383134
Si Si2 0.429985 0.773869 0.554440
Si Si3 0.761527 0.846676 0.531688
Si Si4 0.995532 0.352089 0.319058
Si Si5 0.445257 0.935007 0.252689
Si Si6 0.567901 0.448341 0.835151
Si Si7 0.026450 0.630174 0.010426
Si Si8 0.598890 0.281592 0.168935
O O1 0.220625 0.783541 0.449397
O O2 0.909811 0.799931 0.444296
O O3 0.945849 0.768069 0.161436
O O4 0.000000 0.000000 0.500000
O O5 0.509938 0.657052 0.386947
O O6 0.448384 0.742864 0.706207
O O7 0.487497 0.921551 0.654518
O O8 0.583818 0.852179 0.360185
O O9 0.843854 0.756331 0.632112
O O10 0.733743 0.005443 0.694590
O O11 0.024239 0.368551 0.174870
O O12 0.801066 0.311973 0.247507
O O13 0.000000 0.500000 0.500000
O O14 0.421564 0.845524 0.038460
O O15 0.541059 0.589141 0.842226
O O16 0.500000 0.500000 0.000000
O O17 0.762517 0.377921 0.904257
O O18 0.000000 0.500000 0.000000
#
# Coordination Sequence:
#
# PCOD9060653 Si02
#       8
#     2   2   2   2   2   2   2   2
#     4  11  23  43  75 101 149 192 239 299 367 438
#     4  11  25  48  71 111 149 196 249 300 373 439
#     4  11  26  48  74 106 154 191 248 301 370 440
#     4  12  28  47  77 109 148 195 251 305 371 439
#     4  11  28  44  81 110 149 196 245 302 385 434
#     4  11  26  44  77 104 153 193 246 307 368 442
#     4  11  27  45  73 110 143 193 246 298 378 435
#     4  12  27  47  76 111 148 196 250 307 369 440
#
# _framework density 22.922246000000001
#
# number of rings (size 3 to 8) (size 9 to 14) (size 15 to 20)
#    0.000    0.750    3.750    1.500   12.250    2.500 
#    0.000    0.000    0.000    0.000    0.000    0.000 
#    0.000    0.000    0.000    0.000    0.000    0.000 
#
# Total GULP energy -89338.480260 kJ/mol
# GULP energy per Si atom -5583.655016 kJ/mol
# Density = 2.287007 g / cm^3
# Si number density = 22.922246 Si / 1000 Ang^3
#
#
#
# Elastic Constant Matrix: (Units=GPa)
#
#
# Indices 1 2 3 4 5 6 
#
# 1 61.5623 26.8799 48.4968 -2.4706 -24.5099 7.2266
# 2 26.8799 126.3738 97.6266 -16.8242 -26.6984 3.1389
# 3 48.4968 97.6266 228.4612 6.4713 -52.4117 18.9191
# 4 -2.4706 -16.8242 6.4713 51.4362 0.7470 -8.1849
# 5 -24.5099 -26.6984 -52.4117 0.7470 40.9176 -9.9073
# 6 7.2266 3.1389 18.9191 -8.1849 -9.9073 40.8562
#
#
#
# Elastic Compliance Matrix: (Units=1/GPa)
#
#
# Indices 1 2 3 4 5 6 
#
# 1 0.022332 -0.000942 -0.002022 0.000820 0.010077 -0.000334
# 2 -0.000942 0.013443 -0.005566 0.005544 0.001763 0.003249
# 3 -0.002022 -0.005566 0.008864 -0.003531 0.005949 -0.002584
# 4 0.000820 0.005544 -0.003531 0.022643 0.000561 0.005736
# 5 0.010077 0.001763 0.005949 0.000561 0.040510 0.005263
# 6 -0.000334 0.003249 -0.002584 0.005736 0.005263 0.027907
#
#
# Mechanical properties :
#
#
# Convention : Reuss Voigt Hill
#
# Bulk Modulus (GPa) = 36.25998 84.71155 60.48577
# Shear Modulus (GPa) = 30.87326 42.86826 36.87076
#
# Velocity S-wave (km/s) = 3.67395 4.32923 4.01498
# Velocity P-wave (km/s) = 5.81810 7.87565 6.92373
#
# Compressibility (1/GPa) = 0.02757861
#
# Stress axis : x y z
#
# Youngs Moduli (GPa) = 44.77969 74.38654 112.81869
#
# Poissons Ratio (x) = 0.07005 0.22811
# Poissons Ratio (y) = 0.04217 0.62799
# Poissons Ratio (z) = 0.09054 0.41406
#
# Static dielectric constant tensor:
#      x y z
#    x 1.994710 0.058920 -0.006820 
#    y 0.058920 1.818840 -0.042330 
#    z -0.006820 -0.042330 1.809290 
# 
# From -- ./inp_files/190355.got.cif
#   From: 2010.05.17/outbox.cif.g08.bks.cpg/sg2_96_cif.got.tgz:190355.got - 2010.06.03 11:33:40.
