data_PCOD9060439
_publ_section_title
;
Structure prediction by ZEFSAII (Michael W. Deem and Ramdas Pophale) SiO2 
 PCOD9060439
Probable space group: P -1
;
_chemical_formula_sum "Si O2"
_cell_formula_units_Z 16
_cell_length_a 18.453305
_cell_length_b 10.017288
_cell_length_c 11.828463
_cell_angle_alpha 48.433954
_cell_angle_beta 147.798729
_cell_angle_gamma 143.435509
_cell_volume 693.231741
_symmetry_space_group_name_H-M "P -1"
_symmetry_group_IT_number 2
_symmetry_cell_setting 'triclinic'
loop_
_space_group_symop_operation_xyz
x,y,z
-x,-y,-z
loop_
_atom_site_type_symbol
_atom_site_label
_atom_site_fract_x
_atom_site_fract_y
_atom_site_fract_z
Si Si1 0.683894 0.015241 0.552048
Si Si2 0.821983 0.455232 0.906331
Si Si3 0.563930 0.034000 0.937122
Si Si4 0.928702 0.637406 0.369940
Si Si5 0.472963 0.581986 0.038020
Si Si6 0.572774 0.323168 0.442910
Si Si7 0.891417 0.479169 0.641274
Si Si8 0.103566 0.084456 0.204941
O O1 0.577594 0.034272 0.306696
O O2 0.598470 0.920254 0.615427
O O3 0.712792 0.845581 0.629829
O O4 0.859793 0.260491 0.665999
O O5 0.714377 0.293915 0.962393
O O6 0.688532 0.360175 0.681818
O O7 0.887143 0.708363 0.856754
O O8 0.982931 0.448647 0.128542
O O9 0.597576 0.851900 0.060141
O O10 0.500000 0.000000 0.000000
O O11 0.723709 0.505601 0.158704
O O12 0.959388 0.661758 0.531787
O O13 0.000000 0.500000 0.500000
O O14 0.024104 0.878248 0.302008
O O15 0.500000 0.500000 0.000000
O O16 0.516490 0.479370 0.254122
O O17 0.699068 0.378231 0.476617
O O18 0.000000 0.000000 0.000000
#
# Coordination Sequence:
#
# PCOD9060439 Si02
#       8
#     2   2   2   2   2   2   2   2
#     4  11  23  43  71 100 139 190 241 291 356 440
#     4  11  28  45  68 104 149 189 236 302 373 426
#     4  11  27  44  72 107 151 188 235 309 378 428
#     4  12  24  44  76 108 144 184 250 303 357 425
#     4  12  25  49  76 110 142 195 252 297 358 445
#     4  11  26  45  68 105 144 187 238 304 366 431
#     4  12  23  47  70 102 143 195 244 292 364 440
#     4  12  24  43  70 105 139 187 241 292 357 436
#
# _framework density 23.080303000000001
#
# number of rings (size 3 to 8) (size 9 to 14) (size 15 to 20)
#    0.000    0.500    5.000    1.500    8.750    2.000 
#    2.250    1.250    0.000    0.000    0.000    0.000 
#    0.000    0.000    0.000    0.000    0.000    0.000 
#
# Total GULP energy -89299.472033 kJ/mol
# GULP energy per Si atom -5581.217002 kJ/mol
# Density = 2.302777 g / cm^3
# Si number density = 23.080303 Si / 1000 Ang^3
#
#
#
# Elastic Constant Matrix: (Units=GPa)
#
#
# Indices 1 2 3 4 5 6 
#
# 1 89.3058 36.8329 20.5357 -25.7599 -0.7091 21.6694
# 2 36.8329 118.6989 31.7680 -38.0878 -5.0516 16.1249
# 3 20.5357 31.7680 134.5709 -30.0646 1.4256 14.3933
# 4 -25.7599 -38.0878 -30.0646 40.7112 4.5700 -6.2844
# 5 -0.7091 -5.0516 1.4256 4.5700 44.8640 -5.5905
# 6 21.6694 16.1249 14.3933 -6.2844 -5.5905 31.3832
#
#
#
# Elastic Compliance Matrix: (Units=1/GPa)
#
#
# Indices 1 2 3 4 5 6 
#
# 1 0.016300 -0.001368 0.000740 0.008322 -0.001961 -0.009573
# 2 -0.001368 0.012678 -0.000089 0.010405 -0.000082 -0.003460
# 3 0.000740 -0.000089 0.009266 0.006833 -0.001438 -0.003603
# 4 0.008322 0.010405 0.006833 0.044132 -0.004174 -0.006132
# 5 -0.001961 -0.000082 -0.001438 -0.004174 0.023391 0.005386
# 6 -0.009573 -0.003460 -0.003603 -0.006132 0.005386 0.041636
#
#
# Mechanical properties :
#
#
# Convention : Reuss Voigt Hill
#
# Bulk Modulus (GPa) = 27.16714 57.87208 42.51961
# Shear Modulus (GPa) = 31.03517 40.28761 35.66139
#
# Velocity S-wave (km/s) = 3.67094 4.18250 3.93504
# Velocity P-wave (km/s) = 5.45564 6.96082 6.25368
#
# Compressibility (1/GPa) = 0.03680917
#
# Stress axis : x y z
#
# Youngs Moduli (GPa) = 61.35153 78.87487 107.91817
#
# Poissons Ratio (x) = 0.10794 -0.07981
# Poissons Ratio (y) = 0.08396 0.00956
# Poissons Ratio (z) = -0.04537 0.00699
#
# Static dielectric constant tensor:
#      x y z
#    x 1.978300 0.023850 0.062020 
#    y 0.023850 1.901010 -0.006720 
#    z 0.062020 -0.006720 1.959720 
# 
# From -- ./inp_files/471149.got.cif
#   From: 2010.05.17/outbox.cif.g08.bks.cpg/sg2_236_cif.got.tgz:471149.got - 2010.06.03 11:33:40.
