data_PCOD9060841
_publ_section_title
;
Structure prediction by ZEFSAII (Michael W. Deem and Ramdas Pophale) SiO2 
 PCOD9060841
Probable space group: P -1
;
_chemical_formula_sum "Si O2"
_cell_formula_units_Z 16
_cell_length_a 9.778855
_cell_length_b 27.081506
_cell_length_c 12.618313
_cell_angle_alpha 153.412051
_cell_angle_beta 150.131586
_cell_angle_gamma 38.051632
_cell_volume 743.759932
_symmetry_space_group_name_H-M "P -1"
_symmetry_group_IT_number 2
_symmetry_cell_setting 'triclinic'
loop_
_space_group_symop_operation_xyz
x,y,z
-x,-y,-z
loop_
_atom_site_type_symbol
_atom_site_label
_atom_site_fract_x
_atom_site_fract_y
_atom_site_fract_z
Si Si1 0.790068 0.914991 0.739009
Si Si2 0.290302 0.746339 0.798033
Si Si3 0.003774 0.686999 0.891679
Si Si4 0.607588 0.529525 0.243465
Si Si5 0.097144 0.228736 0.773458
Si Si6 0.761373 0.008632 0.117173
Si Si7 0.842974 0.405666 0.771072
Si Si8 0.757419 0.177502 0.868826
O O1 0.534942 0.877082 0.428915
O O2 0.999873 0.811385 0.704430
O O3 0.660533 0.975548 0.870353
O O4 0.000000 0.000000 0.000000
O O5 0.303654 0.653509 0.538835
O O6 0.578144 0.805189 0.087308
O O7 0.263127 0.728821 0.872913
O O8 0.735883 0.649706 0.575231
O O9 0.185357 0.573843 0.794470
O O10 0.943960 0.722768 0.041391
O O11 0.167582 0.773893 0.101240
O O12 0.370374 0.532673 0.175892
O O13 0.500000 0.500000 0.000000
O O14 0.901282 0.126041 0.435569
O O15 0.011881 0.317665 0.793428
O O16 0.003821 0.916038 0.127073
O O17 0.500000 0.000000 0.000000
O O18 0.000000 0.500000 0.000000
#
# Coordination Sequence:
#
# PCOD9060841 Si02
#       8
#     2   2   2   2   2   2   2   2
#     4  11  23  44  68  98 138 185 229 282 343 403
#     4  11  25  44  68 100 138 182 230 285 344 406
#     4  11  26  44  70 101 139 183 230 284 348 410
#     4  11  25  47  69  99 140 183 229 288 348 406
#     4  12  25  47  69 104 141 181 232 288 345 415
#     4  11  26  43  71 105 141 181 229 282 345 414
#     4  12  28  44  73 103 138 183 234 288 348 412
#     4  11  26  44  71 104 140 184 232 282 341 419
#
# _framework density 21.512316999999999
#
# number of rings (size 3 to 8) (size 9 to 14) (size 15 to 20)
#    0.000    0.750    2.500    3.750    7.000    6.500 
#    0.000    0.000    0.000    0.000    0.000    0.000 
#    0.000    0.000    0.000    0.000    0.000    0.000 
#
# Total GULP energy -89287.335760 kJ/mol
# GULP energy per Si atom -5580.458485 kJ/mol
# Density = 2.146335 g / cm^3
# Si number density = 21.512317 Si / 1000 Ang^3
#
#
#
# Elastic Constant Matrix: (Units=GPa)
#
#
# Indices 1 2 3 4 5 6 
#
# 1 180.9073 27.2107 69.1053 1.8221 -16.9747 -13.7368
# 2 27.2107 39.8962 24.0991 -0.9158 -6.3389 -1.9259
# 3 69.1053 24.0991 134.0011 -1.2988 -13.9734 4.6351
# 4 1.8221 -0.9158 -1.2988 27.8389 -3.3268 5.0147
# 5 -16.9747 -6.3389 -13.9734 -3.3268 43.4358 1.6149
# 6 -13.7368 -1.9259 4.6351 5.0147 1.6149 37.9513
#
#
#
# Elastic Compliance Matrix: (Units=1/GPa)
#
#
# Indices 1 2 3 4 5 6 
#
# 1 0.007623 -0.002812 -0.003413 -0.001164 0.001265 0.003133
# 2 -0.002812 0.029590 -0.003666 0.001112 0.002099 0.000695
# 3 -0.003413 -0.003666 0.010163 0.001292 0.001607 -0.002902
# 4 -0.001164 0.001112 0.001292 0.037488 0.003203 -0.005612
# 5 0.001265 0.002099 0.001607 0.003203 0.024627 -0.001103
# 6 0.003133 0.000695 -0.002902 -0.005612 -0.001103 0.028662
#
#
# Mechanical properties :
#
#
# Convention : Reuss Voigt Hill
#
# Bulk Modulus (GPa) = 36.24030 66.18164 51.21097
# Shear Modulus (GPa) = 29.91674 37.47118 33.69396
#
# Velocity S-wave (km/s) = 3.73323 4.17807 3.96190
# Velocity P-wave (km/s) = 5.95529 7.35570 6.69223
#
# Compressibility (1/GPa) = 0.02759359
#
# Stress axis : x y z
#
# Youngs Moduli (GPa) = 131.18599 33.79552 98.40017
#
# Poissons Ratio (x) = 0.09503 0.33586
# Poissons Ratio (y) = 0.36887 0.36071
# Poissons Ratio (z) = 0.44776 0.12389
#
# Static dielectric constant tensor:
#      x y z
#    x 1.730730 0.092670 0.182840 
#    y 0.092670 2.092920 0.709160 
#    z 0.182840 0.709160 3.920750 
# 
# From -- ./inp_files/107071.got.cif
#   From: 2010.05.17/outbox.cif.g08.bks.cpg/sg2_54_cif.got.tgz:107071.got - 2010.06.03 11:33:40.
