data_PCOD9060318
_publ_section_title
;
Structure prediction by ZEFSAII (Michael W. Deem and Ramdas Pophale) SiO2 
 PCOD9060318
Probable space group: P -1
;
_chemical_formula_sum "Si O2"
_cell_formula_units_Z 16
_cell_length_a 8.211087
_cell_length_b 7.441577
_cell_length_c 21.427801
_cell_angle_alpha 37.751154
_cell_angle_beta 54.112244
_cell_angle_gamma 57.024808
_cell_volume 640.762715
_symmetry_space_group_name_H-M "P -1"
_symmetry_group_IT_number 2
_symmetry_cell_setting 'triclinic'
loop_
_space_group_symop_operation_xyz
x,y,z
-x,-y,-z
loop_
_atom_site_type_symbol
_atom_site_label
_atom_site_fract_x
_atom_site_fract_y
_atom_site_fract_z
Si Si1 0.592423 0.996852 0.622616
Si Si2 0.171272 0.883902 0.135875
Si Si3 0.544678 0.454731 0.412655
Si Si4 0.185479 0.817793 0.782983
Si Si5 0.419620 0.792812 0.232583
Si Si6 0.995922 0.332027 0.340098
Si Si7 0.801450 0.857333 0.068723
Si Si8 0.009008 0.829593 0.381150
O O1 0.522340 0.140503 0.532641
O O2 0.592565 0.282249 0.589632
O O3 0.425599 0.818774 0.738683
O O4 0.819536 0.812670 0.617091
O O5 0.319874 0.793736 0.186186
O O6 0.091610 0.585644 0.213472
O O7 0.971758 0.104883 0.145911
O O8 0.264927 0.029446 0.016804
O O9 0.504747 0.501977 0.335141
O O10 0.776326 0.488556 0.369017
O O11 0.159043 0.501145 0.846443
O O12 0.119745 0.083753 0.675600
O O13 0.618148 0.944503 0.135374
O O14 0.226268 0.910436 0.286490
O O15 0.940655 0.066343 0.384449
O O16 0.000000 0.000000 0.000000
O O17 0.000000 0.500000 0.500000
#
# Coordination Sequence:
#
# PCOD9060318 Si02
#       8
#     2   2   2   2   2   2   2   2
#     4  11  24  41  73 107 148 189 243 292 370 438
#     4  11  25  46  72 104 140 190 248 306 364 434
#     4  11  23  43  69 107 149 194 234 296 365 447
#     4  11  24  45  71 106 145 190 239 309 362 440
#     4  11  24  46  70 102 145 187 243 300 362 434
#     4  12  24  44  73 105 148 195 241 299 364 435
#     4  12  26  47  73 101 143 196 251 310 371 422
#     4  11  25  44  71 109 152 190 240 293 364 451
#
# _framework density 24.970244000000001
#
# number of rings (size 3 to 8) (size 9 to 14) (size 15 to 20)
#    0.000    0.750    2.500    4.875    1.750    3.000 
#    0.000   10.000    0.000    0.000    0.000    0.000 
#    0.000    0.000    0.000    0.000    0.000    0.000 
#
# Total GULP energy -89410.128576 kJ/mol
# GULP energy per Si atom -5588.133036 kJ/mol
# Density = 2.491341 g / cm^3
# Si number density = 24.970244 Si / 1000 Ang^3
#
#
#
# Elastic Constant Matrix: (Units=GPa)
#
#
# Indices 1 2 3 4 5 6 
#
# 1 85.5232 27.0588 18.8237 9.3678 3.7941 -14.7733
# 2 27.0588 65.2496 32.0485 6.7332 -1.4653 -13.8447
# 3 18.8237 32.0485 106.1508 20.4368 13.4758 -0.0972
# 4 9.3678 6.7332 20.4368 45.0795 -1.0106 -12.0619
# 5 3.7941 -1.4653 13.4758 -1.0106 52.9365 1.3480
# 6 -14.7733 -13.8447 -0.0972 -12.0619 1.3480 47.0258
#
#
#
# Elastic Compliance Matrix: (Units=1/GPa)
#
#
# Indices 1 2 3 4 5 6 
#
# 1 0.014005 -0.004807 -0.000666 -0.001189 -0.001059 0.002709
# 2 -0.004807 0.021369 -0.006315 0.002128 0.002451 0.005244
# 3 -0.000666 -0.006315 0.013000 -0.005808 -0.003460 -0.003432
# 4 -0.001189 0.002128 -0.005808 0.026669 0.001953 0.007025
# 5 -0.001059 0.002451 -0.003460 0.001953 0.019944 0.000311
# 6 0.002709 0.005244 -0.003432 0.007025 0.000311 0.025446
#
#
# Mechanical properties :
#
#
# Convention : Reuss Voigt Hill
#
# Bulk Modulus (GPa) = 40.32794 45.86507 43.09650
# Shear Modulus (GPa) = 32.83520 40.94123 36.88821
#
# Velocity S-wave (km/s) = 3.63019 4.05359 3.84772
# Velocity P-wave (km/s) = 5.81003 6.34953 6.08576
#
# Compressibility (1/GPa) = 0.02479671
#
# Stress axis : x y z
#
# Youngs Moduli (GPa) = 71.40089 46.79656 76.92560
#
# Poissons Ratio (x) = 0.22495 0.05126
# Poissons Ratio (y) = 0.34323 0.48581
# Poissons Ratio (z) = 0.04758 0.29553
#
# Static dielectric constant tensor:
#      x y z
#    x 2.067770 -0.053240 0.024140 
#    y -0.053240 1.984960 -0.004570 
#    z 0.024140 -0.004570 1.942380 
# 
# From -- ./inp_files/606549.got.cif
#   From: 2010.05.17/outbox.cif.g08.bks.cpg/sg2_304_cif.got.tgz:606549.got - 2010.06.03 11:33:40.
