data_PCOD9060068
_publ_section_title
;
Structure prediction by ZEFSAII (Michael W. Deem and Ramdas Pophale) SiO2 
 PCOD9060068
Probable space group: P -1
;
_chemical_formula_sum "Si O2"
_cell_formula_units_Z 16
_cell_length_a 14.448458
_cell_length_b 9.250983
_cell_length_c 9.279183
_cell_angle_alpha 135.963165
_cell_angle_beta 80.189249
_cell_angle_gamma 117.283279
_cell_volume 740.372635
_symmetry_space_group_name_H-M "P -1"
_symmetry_group_IT_number 2
_symmetry_cell_setting 'triclinic'
loop_
_space_group_symop_operation_xyz
x,y,z
-x,-y,-z
loop_
_atom_site_type_symbol
_atom_site_label
_atom_site_fract_x
_atom_site_fract_y
_atom_site_fract_z
Si Si1 0.139349 0.883393 0.744208
Si Si2 0.954951 0.820943 0.524472
Si Si3 0.258839 0.423070 0.008384
Si Si4 0.577351 0.676291 0.224715
Si Si5 0.882522 0.442164 0.042545
Si Si6 0.419579 0.513838 0.416647
Si Si7 0.805644 0.967044 0.848408
Si Si8 0.684414 0.222411 0.485202
O O1 0.201497 0.742337 0.577571
O O2 0.216970 0.165759 0.903546
O O3 0.127281 0.886781 0.922523
O O4 0.042829 0.824353 0.615650
O O5 0.893619 0.568932 0.281921
O O6 0.875438 0.873677 0.677787
O O7 0.000000 0.000000 0.500000
O O8 0.305666 0.617505 0.262582
O O9 0.333308 0.409796 0.851583
O O10 0.163450 0.448821 0.982605
O O11 0.501362 0.616851 0.336666
O O12 0.622441 0.947973 0.356594
O O13 0.500000 0.500000 0.000000
O O14 0.000000 0.500000 0.000000
O O15 0.803034 0.162093 0.882832
O O16 0.500000 0.500000 0.500000
O O17 0.313051 0.252116 0.244160
O O18 0.371885 0.697892 0.565931
#
# Coordination Sequence:
#
# PCOD9060068 Si02
#       8
#     2   2   2   2   2   2   2   2
#     4  11  24  46  74 106 146 181 233 299 355 428
#     4  12  25  46  74 104 143 188 238 292 353 432
#     4  11  23  42  75 102 140 189 238 288 343 429
#     4  11  24  46  71 101 136 186 249 285 342 428
#     4  12  26  44  72 108 142 184 238 291 359 426
#     4  12  28  46  70 104 146 184 235 304 354 407
#     4  12  28  47  68 106 150 183 237 295 362 421
#     4  11  24  45  76 101 139 192 239 281 362 427
#
# _framework density 21.610741000000001
#
# number of rings (size 3 to 8) (size 9 to 14) (size 15 to 20)
#    0.000    0.500    5.000    2.250    5.250    0.500 
#    0.000    1.875    0.000    0.000    0.000    0.000 
#    0.000    0.000    0.000    0.000    0.000    0.000 
#
# Total GULP energy -89297.745062 kJ/mol
# GULP energy per Si atom -5581.109066 kJ/mol
# Density = 2.156155 g / cm^3
# Si number density = 21.610741 Si / 1000 Ang^3
#
#
#
# Elastic Constant Matrix: (Units=GPa)
#
#
# Indices 1 2 3 4 5 6 
#
# 1 141.4935 32.6837 39.9355 -2.2233 -15.6617 -32.3819
# 2 32.6837 73.1161 16.3877 8.5740 -7.6962 -14.2370
# 3 39.9355 16.3877 93.5367 9.6718 -11.5836 -20.4143
# 4 -2.2233 8.5740 9.6718 33.1526 -5.6390 4.7002
# 5 -15.6617 -7.6962 -11.5836 -5.6390 39.2878 0.0361
# 6 -32.3819 -14.2370 -20.4143 4.7002 0.0361 28.2227
#
#
#
# Elastic Compliance Matrix: (Units=1/GPa)
#
#
# Indices 1 2 3 4 5 6 
#
# 1 0.010697 -0.002260 -0.001731 0.001017 0.003449 0.009708
# 2 -0.002260 0.016774 0.000303 -0.005274 0.001711 0.006964
# 3 -0.001731 0.000303 0.014316 -0.005220 0.002833 0.009389
# 4 0.001017 -0.005274 -0.005220 0.035190 0.002894 -0.011134
# 5 0.003449 0.001711 0.002833 0.002894 0.028408 0.006350
# 6 0.009708 0.006964 0.009389 -0.011134 0.006350 0.058722
#
#
# Mechanical properties :
#
#
# Convention : Reuss Voigt Hill
#
# Bulk Modulus (GPa) = 29.05864 54.01779 41.53821
# Shear Modulus (GPa) = 27.32958 34.74192 31.03575
#
# Velocity S-wave (km/s) = 3.56002 4.01387 3.79374
# Velocity P-wave (km/s) = 5.51125 6.82141 6.20103
#
# Compressibility (1/GPa) = 0.03441318
#
# Stress axis : x y z
#
# Youngs Moduli (GPa) = 93.48031 59.61695 69.85014
#
# Poissons Ratio (x) = 0.13473 0.12088
# Poissons Ratio (y) = 0.21125 -0.02118
# Poissons Ratio (z) = 0.16178 -0.01808
#
# Static dielectric constant tensor:
#      x y z
#    x 2.913530 0.358470 -0.440890 
#    y 0.358470 1.952430 -0.148800 
#    z -0.440890 -0.148800 1.959860 
# 
# From -- ./inp_files/299832.got.cif
#   From: 2010.05.17/outbox.cif.g08.bks.cpg/sg2_150_cif.got.tgz:299832.got - 2010.06.03 11:33:40.
