data_PCOD9060359
_publ_section_title
;
Structure prediction by ZEFSAII (Michael W. Deem and Ramdas Pophale) SiO2 
 PCOD9060359
Probable space group: P -1
;
_chemical_formula_sum "Si O2"
_cell_formula_units_Z 14
_cell_length_a 6.868298
_cell_length_b 9.546795
_cell_length_c 21.241305
_cell_angle_alpha 38.614229
_cell_angle_beta 63.979827
_cell_angle_gamma 89.571236
_cell_volume 626.132208
_symmetry_space_group_name_H-M "P -1"
_symmetry_group_IT_number 2
_symmetry_cell_setting 'triclinic'
loop_
_space_group_symop_operation_xyz
x,y,z
-x,-y,-z
loop_
_atom_site_type_symbol
_atom_site_label
_atom_site_fract_x
_atom_site_fract_y
_atom_site_fract_z
Si Si1 0.883226 0.670732 0.442618
Si Si2 0.776780 0.888011 0.124847
Si Si3 0.274038 0.404312 0.642460
Si Si4 0.730326 0.721801 0.807861
Si Si5 0.780751 0.372507 0.020830
Si Si6 0.324702 0.413786 0.270728
Si Si7 0.693783 0.088229 0.500904
O O1 0.565010 0.468022 0.572083
O O2 0.910322 0.757387 0.334885
O O3 0.000000 0.500000 0.500000
O O4 0.035797 0.959314 0.358160
O O5 0.833047 0.743428 0.223360
O O6 0.495015 0.661783 0.209137
O O7 0.771051 0.127901 0.073386
O O8 0.000000 0.000000 0.000000
O O9 0.331151 0.704790 0.526870
O O10 0.503130 0.729194 0.872054
O O11 0.606444 0.519764 0.835824
O O12 0.844754 0.605605 0.879250
O O13 0.000000 0.500000 0.000000
O O14 0.007942 0.266362 0.375045
O O15 0.381711 0.189298 0.357549
O O16 0.500000 0.000000 0.500000
#
# Coordination Sequence:
#
# PCOD9060359 Si02
#       7
#     2   2   2   2   2   2   2
#     4  11  24  43  72 104 138 179 238 300 356 418
#     4  12  27  46  71 105 147 189 241 293 354 429
#     4  11  25  42  69 105 138 185 234 293 355 421
#     4  11  25  44  71  98 135 189 233 285 355 412
#     4  11  26  48  69  96 141 188 242 287 339 424
#     4  11  26  43  70 107 140 186 231 295 362 421
#     4  11  23  43  70 100 144 178 229 291 360 425
#
# _framework density 22.359491999999999
#
# number of rings (size 3 to 8) (size 9 to 14) (size 15 to 20)
#    0.000    0.857    1.429    4.286    8.000    7.429 
#    0.000    0.000    0.000    0.000    0.000    0.000 
#    0.000    0.000    0.000    0.000    0.000    0.000 
#
# Total GULP energy -78399.198142 kJ/mol
# GULP energy per Si atom -5599.942724 kJ/mol
# Density = 2.230860 g / cm^3
# Si number density = 22.359492 Si / 1000 Ang^3
#
#
#
# Elastic Constant Matrix: (Units=GPa)
#
#
# Indices 1 2 3 4 5 6 
#
# 1 144.2638 53.7518 41.8827 -9.3514 20.9821 8.7216
# 2 53.7518 146.7228 29.6909 -20.9175 13.1770 13.9978
# 3 41.8827 29.6909 68.2513 -3.1257 13.7711 10.9840
# 4 -9.3514 -20.9175 -3.1257 45.1892 3.9324 5.6148
# 5 20.9821 13.1770 13.7711 3.9324 22.3534 -1.8654
# 6 8.7216 13.9978 10.9840 5.6148 -1.8654 43.3771
#
#
#
# Elastic Compliance Matrix: (Units=1/GPa)
#
#
# Indices 1 2 3 4 5 6 
#
# 1 0.009778 -0.002000 -0.003710 0.001470 -0.006042 -0.000831
# 2 -0.002000 0.009039 -0.001299 0.004360 -0.003661 -0.002908
# 3 -0.003710 -0.001299 0.020024 0.001326 -0.008693 -0.004451
# 4 0.001470 0.004360 0.001326 0.026127 -0.009851 -0.005844
# 5 -0.006042 -0.003661 -0.008693 -0.009851 0.060360 0.008468
# 6 -0.000831 -0.002908 -0.004451 -0.005844 0.008468 0.026407
#
#
# Mechanical properties :
#
#
# Convention : Reuss Voigt Hill
#
# Bulk Modulus (GPa) = 40.28371 67.76542 54.02457
# Shear Modulus (GPa) = 28.73107 37.77810 33.25459
#
# Velocity S-wave (km/s) = 3.58852 4.11491 3.86070
# Velocity P-wave (km/s) = 5.93511 7.27665 6.63985
#
# Compressibility (1/GPa) = 0.02482393
#
# Stress axis : x y z
#
# Youngs Moduli (GPa) = 102.26614 110.63427 49.93884
#
# Poissons Ratio (x) = 0.22127 0.18529
# Poissons Ratio (y) = 0.20453 0.06485
# Poissons Ratio (z) = 0.37944 0.14367
#
# Static dielectric constant tensor:
#      x y z
#    x 1.793500 0.028890 -0.015010 
#    y 0.028890 1.846810 0.013060 
#    z -0.015010 0.013060 1.844760 
# 
# From -- ./inp_files/72126.got.cif
#   From: 2010.05.17/outbox.cif.g08.bks.cpg/sg2_37_cif.got.tgz:72126.got - 2010.06.03 11:33:40.
