data_PCOD9060896
_publ_section_title
;
Structure prediction by ZEFSAII (Michael W. Deem and Ramdas Pophale) SiO2 
 PCOD9060896
Probable space group: P -1
;
_chemical_formula_sum "Si O2"
_cell_formula_units_Z 16
_cell_length_a 9.965682
_cell_length_b 14.452379
_cell_length_c 8.467142
_cell_angle_alpha 74.828728
_cell_angle_beta 48.725834
_cell_angle_gamma 102.165598
_cell_volume 750.943523
_symmetry_space_group_name_H-M "P -1"
_symmetry_group_IT_number 2
_symmetry_cell_setting 'triclinic'
loop_
_space_group_symop_operation_xyz
x,y,z
-x,-y,-z
loop_
_atom_site_type_symbol
_atom_site_label
_atom_site_fract_x
_atom_site_fract_y
_atom_site_fract_z
Si Si1 0.905694 0.946369 0.429267
Si Si2 0.234271 0.145223 0.868283
Si Si3 0.470524 0.495453 0.836792
Si Si4 0.522777 0.897351 0.576689
Si Si5 0.602897 0.323327 0.719401
Si Si6 0.197276 0.688545 0.114785
Si Si7 0.163010 0.263523 0.602413
Si Si8 0.034499 0.459335 0.158461
O O1 0.686417 0.937505 0.576050
O O2 0.863378 0.822868 0.476377
O O3 0.000000 0.000000 0.500000
O O4 0.063795 0.030036 0.134903
O O5 0.369580 0.127621 0.640389
O O6 0.394719 0.226478 0.840215
O O7 0.128444 0.200804 0.824911
O O8 0.571032 0.428539 0.715581
O O9 0.603489 0.625852 0.621523
O O10 0.500000 0.500000 0.000000
O O11 0.225178 0.437886 0.011871
O O12 0.500000 0.000000 0.500000
O O13 0.317786 0.782610 0.844553
O O14 0.648305 0.290686 0.869421
O O15 0.810694 0.359751 0.439303
O O16 0.114021 0.564057 0.170202
O O17 0.000309 0.697414 0.315695
O O18 0.000000 0.500000 0.000000
#
# Coordination Sequence:
#
# PCOD9060896 Si02
#       8
#     2   2   2   2   2   2   2   2
#     4  11  24  44  68  98 130 173 225 275 339 399
#     4  11  25  44  67  98 135 173 222 278 336 401
#     4  12  25  43  71  98 139 183 220 279 337 394
#     4  11  23  44  69  96 131 174 223 277 338 396
#     4  12  26  45  66 104 139 176 228 275 334 405
#     4  12  23  43  68  98 135 173 222 282 331 399
#     4  11  24  44  69  97 133 178 222 277 338 393
#     4  12  25  43  66 101 138 178 230 271 334 402
#
# _framework density 21.306531
#
# number of rings (size 3 to 8) (size 9 to 14) (size 15 to 20)
#    0.000    0.500    2.500    7.875    3.500    2.000 
#    2.250    2.500    0.000    0.000    0.000    0.000 
#    0.000    0.000    0.000    0.000    0.000    0.000 
#
# Total GULP energy -89569.124200 kJ/mol
# GULP energy per Si atom -5598.070263 kJ/mol
# Density = 2.125804 g / cm^3
# Si number density = 21.306531 Si / 1000 Ang^3
#
#
#
# Elastic Constant Matrix: (Units=GPa)
#
#
# Indices 1 2 3 4 5 6 
#
# 1 98.1716 25.8297 -18.5628 15.9035 -11.4362 0.7261
# 2 25.8297 64.5798 -1.3940 -6.5052 -11.2234 -3.1783
# 3 -18.5628 -1.3940 76.3286 -6.8438 -8.0931 -12.4126
# 4 15.9035 -6.5052 -6.8438 28.2217 1.3821 -1.9562
# 5 -11.4362 -11.2234 -8.0931 1.3821 38.2012 1.1924
# 6 0.7261 -3.1783 -12.4126 -1.9562 1.1924 38.0783
#
#
#
# Elastic Compliance Matrix: (Units=1/GPa)
#
#
# Indices 1 2 3 4 5 6 
#
# 1 0.014100 -0.005891 0.002829 -0.008813 0.003421 -0.000398
# 2 -0.005891 0.019379 0.000359 0.007843 0.003656 0.002135
# 3 0.002829 0.000359 0.015225 0.002330 0.003940 0.004935
# 4 -0.008813 0.007843 0.002330 0.043114 -0.001520 0.003845
# 5 0.003421 0.003656 0.003940 -0.001520 0.029148 0.000533
# 6 -0.000398 0.002135 0.004935 0.003845 0.000533 0.028237
#
#
# Mechanical properties :
#
#
# Convention : Reuss Voigt Hill
#
# Bulk Modulus (GPa) = 23.09508 27.86953 25.48231
# Shear Modulus (GPa) = 29.57834 36.44739 33.01286
#
# Velocity S-wave (km/s) = 3.72994 4.14045 3.94054
# Velocity P-wave (km/s) = 5.42336 5.99720 5.71749
#
# Compressibility (1/GPa) = 0.04329926
#
# Stress axis : x y z
#
# Youngs Moduli (GPa) = 70.91981 51.60150 65.68095
#
# Poissons Ratio (x) = 0.30401 -0.18584
# Poissons Ratio (y) = 0.41782 -0.02360
# Poissons Ratio (z) = -0.20066 -0.01854
#
# Static dielectric constant tensor:
#      x y z
#    x 1.769840 -0.010920 0.006270 
#    y -0.010920 1.754150 -0.007770 
#    z 0.006270 -0.007770 1.791770 
# 
# From -- ./inp_files/206197.got.cif
#   From: 2010.05.17/outbox.cif.g08.bks.cpg/sg2_104_cif.got.tgz:206197.got - 2010.06.03 11:33:40.
