data_PCOD9060314
_publ_section_title
;
Structure prediction by ZEFSAII (Michael W. Deem and Ramdas Pophale) SiO2 
 PCOD9060314
Probable space group: P -1
;
_chemical_formula_sum "Si O2"
_cell_formula_units_Z 14
_cell_length_a 17.101834
_cell_length_b 6.870085
_cell_length_c 7.800074
_cell_angle_alpha 85.809164
_cell_angle_beta 138.297680
_cell_angle_gamma 95.436313
_cell_volume 606.924656
_symmetry_space_group_name_H-M "P -1"
_symmetry_group_IT_number 2
_symmetry_cell_setting 'triclinic'
loop_
_space_group_symop_operation_xyz
x,y,z
-x,-y,-z
loop_
_atom_site_type_symbol
_atom_site_label
_atom_site_fract_x
_atom_site_fract_y
_atom_site_fract_z
Si Si1 0.471406 0.030084 0.678992
Si Si2 0.084924 0.084577 0.782957
Si Si3 0.778764 0.608251 0.244512
Si Si4 0.232716 0.812092 0.256745
Si Si5 0.060498 0.625856 0.247950
Si Si6 0.565527 0.709271 0.071151
Si Si7 0.388208 0.625254 0.274529
O O1 0.471947 0.167200 0.837763
O O2 0.554771 0.156213 0.678950
O O3 0.333741 0.984312 0.426627
O O4 0.523883 0.825745 0.829129
O O5 0.183065 0.222668 0.837568
O O6 0.022051 0.220220 0.809100
O O7 0.000000 0.000000 0.500000
O O8 0.135505 0.899595 0.971539
O O9 0.890807 0.510072 0.514056
O O10 0.703732 0.689735 0.272958
O O11 0.689362 0.455499 0.007501
O O12 0.173831 0.742666 0.341400
O O13 0.297127 0.636989 0.281389
O O14 0.000000 0.500000 0.000000
O O15 0.500000 0.500000 0.000000
O O16 0.500000 0.500000 0.500000
#
# Coordination Sequence:
#
# PCOD9060314 Si02
#       7
#     2   2   2   2   2   2   2
#     4  11  25  41  70 106 146 180 237 280 363 443
#     4  12  27  49  71 101 141 191 254 306 359 429
#     4  12  25  44  76  97 144 190 238 292 376 419
#     4  12  26  44  73 102 144 187 237 301 370 418
#     4  12  28  47  72 104 139 187 254 308 360 422
#     4  11  23  43  69 107 142 185 230 293 351 446
#     4  12  25  45  72 109 150 190 236 290 365 462
#
# _framework density 23.067114
#
# number of rings (size 3 to 8) (size 9 to 14) (size 15 to 20)
#    0.000    0.286    1.429    7.286    8.000    0.000 
#    0.000    0.000    0.000    0.000    0.000    0.000 
#    0.000    0.000    0.000    0.000    0.000    0.000 
#
# Total GULP energy -78397.504390 kJ/mol
# GULP energy per Si atom -5599.821742 kJ/mol
# Density = 2.301461 g / cm^3
# Si number density = 23.067114 Si / 1000 Ang^3
#
#
#
# Elastic Constant Matrix: (Units=GPa)
#
#
# Indices 1 2 3 4 5 6 
#
# 1 129.2325 27.6481 -24.5487 -2.6947 15.4158 0.9443
# 2 27.6481 95.4160 19.6808 1.8067 0.8510 -2.4361
# 3 -24.5487 19.6808 86.3452 0.8030 -2.3854 -15.7096
# 4 -2.6947 1.8067 0.8030 48.5807 -3.9311 5.3448
# 5 15.4158 0.8510 -2.3854 -3.9311 29.4495 -5.1962
# 6 0.9443 -2.4361 -15.7096 5.3448 -5.1962 44.0330
#
#
#
# Elastic Compliance Matrix: (Units=1/GPa)
#
#
# Indices 1 2 3 4 5 6 
#
# 1 0.009695 -0.003481 0.003469 0.000207 -0.004619 0.000267
# 2 -0.003481 0.012268 -0.003833 -0.000455 0.001019 -0.000439
# 3 0.003469 -0.003833 0.014347 -0.000421 0.000268 0.004915
# 4 0.000207 -0.000455 -0.000421 0.021074 0.002248 -0.002473
# 5 -0.004619 0.001019 0.000268 0.002248 0.037442 0.004397
# 6 0.000267 -0.000439 0.004915 -0.002473 0.004397 0.025253
#
#
# Mechanical properties :
#
#
# Convention : Reuss Voigt Hill
#
# Bulk Modulus (GPa) = 34.94138 39.61714 37.27926
# Shear Modulus (GPa) = 36.41444 43.62686 40.02065
#
# Velocity S-wave (km/s) = 3.97751 4.35363 4.16981
# Velocity P-wave (km/s) = 6.02285 6.51798 6.27530
#
# Compressibility (1/GPa) = 0.02861936
#
# Stress axis : x y z
#
# Youngs Moduli (GPa) = 103.14758 81.51312 69.70173
#
# Poissons Ratio (x) = 0.28371 -0.24177
# Poissons Ratio (y) = 0.35901 0.26718
# Poissons Ratio (z) = -0.35779 0.31246
#
# Static dielectric constant tensor:
#      x y z
#    x 1.753700 -0.018160 -0.115020 
#    y -0.018160 1.860560 0.017970 
#    z -0.115020 0.017970 1.893000 
# 
# From -- ./inp_files/280209.got.cif
#   From: 2010.05.17/outbox.cif.g08.bks.cpg/sg2_141_cif.got.tgz:280209.got - 2010.06.03 11:33:40.
