data_PCOD9060856
_publ_section_title
;
Structure prediction by ZEFSAII (Michael W. Deem and Ramdas Pophale) SiO2 
 PCOD9060856
Probable space group: P -1
;
_chemical_formula_sum "Si O2"
_cell_formula_units_Z 16
_cell_length_a 11.487122
_cell_length_b 8.906021
_cell_length_c 13.704948
_cell_angle_alpha 76.080288
_cell_angle_beta 148.246966
_cell_angle_gamma 109.089175
_cell_volume 695.294143
_symmetry_space_group_name_H-M "P -1"
_symmetry_group_IT_number 2
_symmetry_cell_setting 'triclinic'
loop_
_space_group_symop_operation_xyz
x,y,z
-x,-y,-z
loop_
_atom_site_type_symbol
_atom_site_label
_atom_site_fract_x
_atom_site_fract_y
_atom_site_fract_z
Si Si1 0.318746 0.438410 0.294589
Si Si2 0.469695 0.773990 0.275579
Si Si3 0.770664 0.917365 0.229682
Si Si4 0.939787 0.139030 0.136273
Si Si5 0.364963 0.816221 0.811306
Si Si6 0.393208 0.689748 0.645890
Si Si7 0.872459 0.661277 0.466488
Si Si8 0.294953 0.977170 0.430251
O O1 0.500000 0.500000 0.500000
O O2 0.294623 0.609343 0.212252
O O3 0.108284 0.312556 0.213410
O O4 0.423569 0.351978 0.293652
O O5 0.672535 0.713506 0.376651
O O6 0.530251 0.220599 0.211002
O O7 0.300279 0.855856 0.081368
O O8 0.895040 0.783412 0.372575
O O9 0.710379 0.016007 0.263087
O O10 0.545738 0.828749 0.024817
O O11 0.896410 0.058612 0.225305
O O12 0.082536 0.017271 0.216329
O O13 0.127798 0.689630 0.684114
O O14 0.229842 0.524483 0.589879
O O15 0.259834 0.801836 0.476092
O O16 0.601760 0.891499 0.434207
O O17 0.500000 0.000000 0.500000
#
# Coordination Sequence:
#
# PCOD9060856 Si02
#       8
#     2   2   2   2   2   2   2   2
#     4  11  23  47  72 104 139 185 231 287 347 418
#     4  11  24  43  73 101 136 185 236 280 349 410
#     4  11  24  42  69 104 134 190 238 270 352 411
#     4  12  24  43  73 101 137 180 232 287 335 423
#     4  11  23  44  69 100 144 182 234 287 339 415
#     4  11  24  43  72 106 138 183 231 286 359 401
#     4  11  24  45  71 101 143 183 230 293 341 415
#     4  12  23  44  67  99 141 177 228 285 345 415
#
# _framework density 23.011845000000001
#
# number of rings (size 3 to 8) (size 9 to 14) (size 15 to 20)
#    0.000    0.750    2.500    5.625    1.750    1.000 
#    2.250    1.250    0.000    0.000    0.000    0.000 
#    0.000    0.000    0.000    0.000    0.000    0.000 
#
# Total GULP energy -89308.280124 kJ/mol
# GULP energy per Si atom -5581.767508 kJ/mol
# Density = 2.295947 g / cm^3
# Si number density = 23.011845 Si / 1000 Ang^3
#
#
#
# Elastic Constant Matrix: (Units=GPa)
#
#
# Indices 1 2 3 4 5 6 
#
# 1 118.8359 50.5056 30.8283 8.8760 5.8874 0.2691
# 2 50.5056 167.5291 59.9265 -5.4186 -1.6772 8.5910
# 3 30.8283 59.9265 95.9372 8.6946 5.9884 5.6473
# 4 8.8760 -5.4186 8.6946 45.6112 3.7554 5.6885
# 5 5.8874 -1.6772 5.9884 3.7554 24.5867 4.8855
# 6 0.2691 8.5910 5.6473 5.6885 4.8855 40.4545
#
#
#
# Elastic Compliance Matrix: (Units=1/GPa)
#
#
# Indices 1 2 3 4 5 6 
#
# 1 0.010185 -0.002759 -0.001299 -0.002034 -0.002250 0.001257
# 2 -0.002759 0.008730 -0.004840 0.002523 0.002408 -0.001806
# 3 -0.001299 -0.004840 0.014317 -0.002775 -0.003042 -0.000205
# 4 -0.002034 0.002523 -0.002775 0.023691 -0.001634 -0.003269
# 5 -0.002250 0.002408 -0.003042 -0.001634 0.043375 -0.005080
# 6 0.001257 -0.001806 -0.000205 -0.003269 -0.005080 0.026196
#
#
# Mechanical properties :
#
#
# Convention : Reuss Voigt Hill
#
# Bulk Modulus (GPa) = 64.77407 73.86923 69.32165
# Shear Modulus (GPa) = 33.45932 38.19993 35.82963
#
# Velocity S-wave (km/s) = 3.81728 4.07874 3.95017
# Velocity P-wave (km/s) = 6.90203 7.37236 7.14107
#
# Compressibility (1/GPa) = 0.01543828
#
# Stress axis : x y z
#
# Youngs Moduli (GPa) = 98.18506 114.54442 69.84552
#
# Poissons Ratio (x) = 0.31598 0.09072
# Poissons Ratio (y) = 0.27085 0.33802
# Poissons Ratio (z) = 0.12753 0.55435
#
# Static dielectric constant tensor:
#      x y z
#    x 1.984500 0.062140 0.035130 
#    y 0.062140 1.916050 -0.025360 
#    z 0.035130 -0.025360 1.869360 
# 
# From -- ./inp_files/599981.got.cif
#   From: 2010.05.17/outbox.cif.g08.bks.cpg/sg2_300_cif.got.tgz:599981.got - 2010.06.03 11:33:40.
