data_PCOD9060236
_publ_section_title
;
Structure prediction by ZEFSAII (Michael W. Deem and Ramdas Pophale) SiO2 
 PCOD9060236
Probable space group: P -1
;
_chemical_formula_sum "Si O2"
_cell_formula_units_Z 16
_cell_length_a 12.561063
_cell_length_b 8.516434
_cell_length_c 17.891284
_cell_angle_alpha 45.153346
_cell_angle_beta 131.872089
_cell_angle_gamma 93.549756
_cell_volume 639.420611
_symmetry_space_group_name_H-M "P -1"
_symmetry_group_IT_number 2
_symmetry_cell_setting 'triclinic'
loop_
_space_group_symop_operation_xyz
x,y,z
-x,-y,-z
loop_
_atom_site_type_symbol
_atom_site_label
_atom_site_fract_x
_atom_site_fract_y
_atom_site_fract_z
Si Si1 0.474910 0.126358 0.182458
Si Si2 0.605338 0.235351 0.705574
Si Si3 0.448545 0.218283 0.972494
Si Si4 0.258476 0.844915 0.623511
Si Si5 0.321628 0.696888 0.113297
Si Si6 0.971371 0.834652 0.726766
Si Si7 0.916856 0.474568 0.896899
Si Si8 0.914777 0.821167 0.301372
O O1 0.439034 0.121179 0.080410
O O2 0.663447 0.079879 0.302641
O O3 0.536497 0.820279 0.348851
O O4 0.236354 0.483857 0.986529
O O5 0.500000 0.500000 0.500000
O O6 0.608751 0.307988 0.768987
O O7 0.868291 0.872993 0.931768
O O8 0.659284 0.135919 0.107072
O O9 0.238429 0.621377 0.718227
O O10 0.500000 0.000000 0.000000
O O11 0.456144 0.592612 0.737016
O O12 0.049415 0.173022 0.368276
O O13 0.220473 0.574346 0.124445
O O14 0.149247 0.061066 0.858797
O O15 0.825862 0.803529 0.701121
O O16 0.936350 0.138335 0.625645
O O17 0.000000 0.500000 0.000000
O O18 0.000000 0.500000 0.500000
#
# Coordination Sequence:
#
# PCOD9060236 Si02
#       8
#     2   2   2   2   2   2   2   2
#     4  11  23  48  65  99 144 173 234 292 342 426
#     4  11  27  43  68 104 139 184 237 288 356 418
#     4  11  23  44  69  97 138 182 227 292 346 416
#     4  11  24  42  71 102 134 182 234 282 355 418
#     4  11  23  45  69  99 143 183 233 295 346 418
#     4  11  24  42  68 104 133 185 232 284 353 413
#     4  11  23  46  71  98 140 182 234 291 344 419
#     4  11  23  43  68 103 139 180 233 282 356 419
#
# _framework density 25.022649999999999
#
# number of rings (size 3 to 8) (size 9 to 14) (size 15 to 20)
#    0.000    1.000    3.750    3.750    3.500    2.000 
#    6.750    0.000    0.000    0.000    0.000    0.000 
#    0.000    0.000    0.000    0.000    0.000    0.000 
#
# Total GULP energy -89154.098723 kJ/mol
# GULP energy per Si atom -5572.131170 kJ/mol
# Density = 2.496570 g / cm^3
# Si number density = 25.022650 Si / 1000 Ang^3
#
#
#
# Elastic Constant Matrix: (Units=GPa)
#
#
# Indices 1 2 3 4 5 6 
#
# 1 134.0943 47.3833 31.3566 -13.9893 -40.9362 3.9552
# 2 47.3833 129.4139 37.8000 12.3430 -31.9187 4.8617
# 3 31.3566 37.8000 104.8845 4.1711 -54.9365 6.3014
# 4 -13.9893 12.3430 4.1711 30.0588 4.0459 -14.4367
# 5 -40.9362 -31.9187 -54.9365 4.0459 64.0927 -8.8237
# 6 3.9552 4.8617 6.3014 -14.4367 -8.8237 50.8389
#
#
#
# Elastic Compliance Matrix: (Units=1/GPa)
#
#
# Indices 1 2 3 4 5 6 
#
# 1 0.010917 -0.003514 0.000488 0.006829 0.005530 0.002325
# 2 -0.003514 0.010684 -0.001251 -0.007230 0.002147 -0.002274
# 3 0.000488 -0.001251 0.018095 -0.004163 0.015369 -0.000676
# 4 0.006829 -0.007230 -0.004163 0.046918 -0.003936 0.013316
# 5 0.005530 0.002147 0.015369 -0.003936 0.033932 0.002231
# 6 0.002325 -0.002274 -0.000676 0.013316 0.002231 0.023959
#
#
# Mechanical properties :
#
#
# Convention : Reuss Voigt Hill
#
# Bulk Modulus (GPa) = 32.11176 66.83029 49.47103
# Shear Modulus (GPa) = 30.59206 45.78827 38.19017
#
# Velocity S-wave (km/s) = 3.50033 4.28234 3.91093
# Velocity P-wave (km/s) = 5.40345 7.15662 6.34092
#
# Compressibility (1/GPa) = 0.03114124
#
# Stress axis : x y z
#
# Youngs Moduli (GPa) = 91.59889 93.59904 55.26318
#
# Poissons Ratio (x) = 0.32895 -0.02697
# Poissons Ratio (y) = 0.32192 0.06914
# Poissons Ratio (z) = -0.04470 0.11710
#
# Static dielectric constant tensor:
#      x y z
#    x 2.020860 -0.002680 -0.016820 
#    y -0.002680 1.960590 -0.024480 
#    z -0.016820 -0.024480 2.092650 
# 
# From -- ./inp_files/566442.got.cif
#   From: 2010.05.17/outbox.cif.g08.bks.cpg/sg2_284_cif.got.tgz:566442.got - 2010.06.03 11:33:40.
