data_PCOD9060707
_publ_section_title
;
Structure prediction by ZEFSAII (Michael W. Deem and Ramdas Pophale) SiO2 
 PCOD9060707
Probable space group: P -1
;
_chemical_formula_sum "Si O2"
_cell_formula_units_Z 12
_cell_length_a 7.289372
_cell_length_b 11.842977
_cell_length_c 12.763976
_cell_angle_alpha 51.559208
_cell_angle_beta 46.365181
_cell_angle_gamma 86.795185
_cell_volume 470.265659
_symmetry_space_group_name_H-M "P -1"
_symmetry_group_IT_number 2
_symmetry_cell_setting 'triclinic'
loop_
_space_group_symop_operation_xyz
x,y,z
-x,-y,-z
loop_
_atom_site_type_symbol
_atom_site_label
_atom_site_fract_x
_atom_site_fract_y
_atom_site_fract_z
Si Si1 0.145102 0.714457 0.812038
Si Si2 0.197026 0.461626 0.576869
Si Si3 0.914735 0.278857 0.415182
Si Si4 0.348130 0.242011 0.939582
Si Si5 0.254709 0.976691 0.959085
Si Si6 0.893208 0.926853 0.466899
O O1 0.059076 0.718876 0.721688
O O2 0.544239 0.859049 0.597598
O O3 0.945475 0.744471 0.953570
O O4 0.000000 0.500000 0.000000
O O5 0.500000 0.500000 0.500000
O O6 0.081348 0.558518 0.632876
O O7 0.335315 0.553078 0.353725
O O8 0.915043 0.234490 0.819888
O O9 0.549740 0.076628 0.702230
O O10 0.157063 0.265430 0.394214
O O11 0.379128 0.112817 0.929737
O O12 0.210470 0.108907 0.173471
O O13 0.000000 0.000000 0.000000
O O14 0.000000 0.000000 0.500000
#
# Coordination Sequence:
#
# PCOD9060707 Si02
#       6
#     2   2   2   2   2   2
#     4  12  28  48  82 111 154 206 260 316 388 459
#     4  11  23  43  78 115 145 199 256 315 380 460
#     4  11  26  50  76 113 153 200 253 322 384 456
#     4  11  25  47  77 111 150 204 255 313 384 457
#     4  11  23  43  78 108 151 198 257 311 385 457
#     4  12  28  49  76 115 160 202 256 318 387 456
#
# _framework density 25.517493000000002
#
# number of rings (size 3 to 8) (size 9 to 14) (size 15 to 20)
#    0.000    0.667    5.000    2.500    4.667    3.333 
#    3.000    1.667    0.000    0.000    0.000    0.000 
#    0.000    0.000    0.000    0.000    0.000    0.000 
#
# Total GULP energy -67038.082027 kJ/mol
# GULP energy per Si atom -5586.506836 kJ/mol
# Density = 2.545941 g / cm^3
# Si number density = 25.517493 Si / 1000 Ang^3
#
#
#
# Elastic Constant Matrix: (Units=GPa)
#
#
# Indices 1 2 3 4 5 6 
#
# 1 128.4761 23.3061 29.3677 -6.4025 -0.1586 -26.3563
# 2 23.3061 110.4206 38.3507 -20.6949 6.0326 -26.8208
# 3 29.3677 38.3507 182.4884 -14.1324 25.2101 0.9845
# 4 -6.4025 -20.6949 -14.1324 51.0123 -8.8637 10.0713
# 5 -0.1586 6.0326 25.2101 -8.8637 47.8505 2.8267
# 6 -26.3563 -26.8208 0.9845 10.0713 2.8267 45.6062
#
#
#
# Elastic Compliance Matrix: (Units=1/GPa)
#
#
# Indices 1 2 3 4 5 6 
#
# 1 0.009251 -0.000209 -0.001569 -0.000314 0.000512 0.005295
# 2 -0.000209 0.011987 -0.002273 0.002930 -0.000146 0.006340
# 3 -0.001569 -0.002273 0.006686 0.000681 -0.002976 -0.002353
# 4 -0.000314 0.002930 0.000681 0.022283 0.003612 -0.003618
# 5 0.000512 -0.000146 -0.002976 0.003612 0.023272 -0.001966
# 6 0.005295 0.006340 -0.002353 -0.003618 -0.001966 0.029687
#
#
# Mechanical properties :
#
#
# Convention : Reuss Voigt Hill
#
# Bulk Modulus (GPa) = 50.44191 67.04822 58.74507
# Shear Modulus (GPa) = 42.41820 50.91784 46.66802
#
# Velocity S-wave (km/s) = 4.08158 4.47185 4.28116
# Velocity P-wave (km/s) = 6.48250 7.27981 6.89270
#
# Compressibility (1/GPa) = 0.01982478
#
# Stress axis : x y z
#
# Youngs Moduli (GPa) = 108.09389 83.42611 149.55656
#
# Poissons Ratio (x) = 0.01740 0.23460
# Poissons Ratio (y) = 0.02254 0.33988
# Poissons Ratio (z) = 0.16956 0.18959
#
# Static dielectric constant tensor:
#      x y z
#    x 2.284030 -0.088420 0.087360 
#    y -0.088420 1.991900 -0.049800 
#    z 0.087360 -0.049800 2.072780 
# 
# From -- ./inp_files/389292.got.cif
#   From: 2010.05.17/outbox.cif.g08.bks.cpg/sg2_195_cif.got.tgz:389292.got - 2010.06.03 11:33:40.
