data_PCOD9060048
_publ_section_title
;
Structure prediction by ZEFSAII (Michael W. Deem and Ramdas Pophale) SiO2 
 PCOD9060048
Probable space group: P -1
;
_chemical_formula_sum "Si O2"
_cell_formula_units_Z 16
_cell_length_a 9.785881
_cell_length_b 15.176844
_cell_length_c 10.109992
_cell_angle_alpha 93.586113
_cell_angle_beta 132.990457
_cell_angle_gamma 55.502015
_cell_volume 763.656359
_symmetry_space_group_name_H-M "P -1"
_symmetry_group_IT_number 2
_symmetry_cell_setting 'triclinic'
loop_
_space_group_symop_operation_xyz
x,y,z
-x,-y,-z
loop_
_atom_site_type_symbol
_atom_site_label
_atom_site_fract_x
_atom_site_fract_y
_atom_site_fract_z
Si Si1 0.739555 0.027803 0.312576
Si Si2 0.594574 0.743213 0.397612
Si Si3 0.629757 0.763219 0.136994
Si Si4 0.384041 0.119261 0.348155
Si Si5 0.797132 0.506271 0.216879
Si Si6 0.514093 0.518248 0.791007
Si Si7 0.956386 0.237616 0.628717
Si Si8 0.836659 0.262307 0.852666
O O1 0.564197 0.079148 0.334449
O O2 0.569017 0.128720 0.091165
O O3 0.000000 0.000000 0.500000
O O4 0.846854 0.895610 0.328363
O O5 0.558724 0.811289 0.245754
O O6 0.612014 0.798187 0.543435
O O7 0.884124 0.597255 0.562247
O O8 0.352559 0.756259 0.242414
O O9 0.654145 0.649459 0.138142
O O10 0.915861 0.708714 0.288030
O O11 0.500000 0.000000 0.500000
O O12 0.089156 0.191156 0.109128
O O13 0.666229 0.485661 0.237087
O O14 0.732366 0.485271 0.030359
O O15 0.329485 0.656853 0.620620
O O16 0.655336 0.411235 0.763513
O O17 0.933664 0.218149 0.763251
#
# Coordination Sequence:
#
# PCOD9060048 Si02
#       8
#     2   2   2   2   2   2   2   2
#     4  12  28  50  73 104 143 194 245 289 362 436
#     4  12  25  46  74 107 144 190 244 295 357 428
#     4  12  24  44  74 103 144 188 241 293 354 432
#     4  12  29  48  72 108 148 188 240 301 358 426
#     4  11  23  42  74 108 140 190 240 297 356 430
#     4  11  23  44  73 106 147 184 240 299 363 416
#     4  12  25  46  73 101 145 192 236 299 360 427
#     4  12  26  47  71 109 146 186 238 301 367 418
#
# _framework density 20.951832
#
# number of rings (size 3 to 8) (size 9 to 14) (size 15 to 20)
#    0.000    0.250    5.000    4.125    3.500    0.500 
#    0.000    1.875    0.000    0.000    0.000    0.000 
#    0.000    0.000    0.000    0.000    0.000    0.000 
#
# Total GULP energy -89540.863628 kJ/mol
# GULP energy per Si atom -5596.303977 kJ/mol
# Density = 2.090415 g / cm^3
# Si number density = 20.951832 Si / 1000 Ang^3
#
#
#
# Elastic Constant Matrix: (Units=GPa)
#
#
# Indices 1 2 3 4 5 6 
#
# 1 107.2398 26.5043 65.8130 9.4401 1.4433 -7.9968
# 2 26.5043 101.4803 41.6589 -5.9716 -10.9033 -11.6763
# 3 65.8130 41.6589 156.4848 -6.7515 -4.2170 -1.1861
# 4 9.4401 -5.9716 -6.7515 28.9603 8.2555 -5.6330
# 5 1.4433 -10.9033 -4.2170 8.2555 40.4577 4.3644
# 6 -7.9968 -11.6763 -1.1861 -5.6330 4.3644 32.1170
#
#
#
# Elastic Compliance Matrix: (Units=1/GPa)
#
#
# Indices 1 2 3 4 5 6 
#
# 1 0.013790 -0.001463 -0.005653 -0.005621 -0.000520 0.001778
# 2 -0.001463 0.012071 -0.002398 0.002614 0.002078 0.004112
# 3 -0.005653 -0.002398 0.009539 0.003303 0.000021 -0.001351
# 4 -0.005621 0.002614 0.003303 0.041548 -0.008098 0.008060
# 5 -0.000520 0.002078 0.000021 -0.008098 0.027438 -0.004522
# 6 0.001778 0.004112 -0.001351 0.008060 -0.004522 0.035052
#
#
# Mechanical properties :
#
#
# Convention : Reuss Voigt Hill
#
# Bulk Modulus (GPa) = 61.08224 70.35080 65.71652
# Shear Modulus (GPa) = 30.50179 35.72225 33.11202
#
# Velocity S-wave (km/s) = 3.81964 4.13361 3.97972
# Velocity P-wave (km/s) = 6.97638 7.51216 7.24922
#
# Compressibility (1/GPa) = 0.01637137
#
# Stress axis : x y z
#
# Youngs Moduli (GPa) = 72.51468 82.84342 104.82890
#
# Poissons Ratio (x) = 0.12120 0.59264
# Poissons Ratio (y) = 0.10609 0.25140
# Poissons Ratio (z) = 0.40995 0.19868
#
# Static dielectric constant tensor:
#      x y z
#    x 1.731640 -0.000730 0.012600 
#    y -0.000730 1.757980 0.015520 
#    z 0.012600 0.015520 1.770290 
# 
# From -- ./inp_files/202237.got.cif
#   From: 2010.05.17/outbox.cif.g08.bks.cpg/sg2_102_cif.got.tgz:202237.got - 2010.06.03 11:33:40.
