data_PCOD9060632
_publ_section_title
;
Structure prediction by ZEFSAII (Michael W. Deem and Ramdas Pophale) SiO2 
 PCOD9060632
Probable space group: P -1
;
_chemical_formula_sum "Si O2"
_cell_formula_units_Z 16
_cell_length_a 8.131183
_cell_length_b 12.246749
_cell_length_c 13.195439
_cell_angle_alpha 136.399420
_cell_angle_beta 55.472305
_cell_angle_gamma 133.398422
_cell_volume 652.102736
_symmetry_space_group_name_H-M "P -1"
_symmetry_group_IT_number 2
_symmetry_cell_setting 'triclinic'
loop_
_space_group_symop_operation_xyz
x,y,z
-x,-y,-z
loop_
_atom_site_type_symbol
_atom_site_label
_atom_site_fract_x
_atom_site_fract_y
_atom_site_fract_z
Si Si1 0.642375 0.673915 0.140777
Si Si2 0.801949 0.619211 0.271415
Si Si3 0.107907 0.661341 0.685712
Si Si4 0.281318 0.812865 0.340302
Si Si5 0.927789 0.076390 0.980879
Si Si6 0.417611 0.241575 0.242832
Si Si7 0.998870 0.280519 0.448950
Si Si8 0.591227 0.840026 0.592871
O O1 0.726690 0.622370 0.182196
O O2 0.461309 0.747725 0.264870
O O3 0.868260 0.825557 0.105723
O O4 0.500000 0.500000 0.000000
O O5 0.637867 0.420938 0.245228
O O6 0.755787 0.772954 0.443164
O O7 0.063632 0.679884 0.254089
O O8 0.032582 0.743481 0.675581
O O9 0.336585 0.673564 0.567873
O O10 0.959817 0.448363 0.606529
O O11 0.120660 0.767735 0.853096
O O12 0.175650 0.863124 0.508961
O O13 0.406738 0.996663 0.357048
O O14 0.705608 0.905817 0.899476
O O15 0.000000 0.000000 0.000000
O O16 0.401183 0.119994 0.263829
O O17 0.250896 0.312171 0.395102
#
# Coordination Sequence:
#
# PCOD9060632 Si02
#       8
#     2   2   2   2   2   2   2   2
#     4  12  29  50  75 109 152 202 246 301 380 451
#     4  12  26  49  76 109 152 195 249 318 370 443
#     4  11  24  43  73 105 145 192 251 302 367 448
#     4  12  27  45  76 113 149 191 246 316 377 439
#     4  12  25  45  72 105 149 196 243 306 366 449
#     4  12  25  46  74 108 147 194 247 308 372 437
#     4  11  23  43  74 107 138 192 250 301 367 438
#     4  12  25  45  73 113 145 189 251 313 376 437
#
# _framework density 24.536011999999999
#
# number of rings (size 3 to 8) (size 9 to 14) (size 15 to 20)
#    0.000    0.250    3.750    5.250    3.500    2.000 
#    0.000    2.500    0.000    0.000    0.000    0.000 
#    0.000    0.000    0.000    0.000    0.000    0.000 
#
# Total GULP energy -89357.638090 kJ/mol
# GULP energy per Si atom -5584.852381 kJ/mol
# Density = 2.448017 g / cm^3
# Si number density = 24.536012 Si / 1000 Ang^3
#
#
#
# Elastic Constant Matrix: (Units=GPa)
#
#
# Indices 1 2 3 4 5 6 
#
# 1 83.7886 12.5783 33.7594 -14.1596 12.6313 -6.4359
# 2 12.5783 98.2012 40.3012 -16.6009 -2.6339 -1.2844
# 3 33.7594 40.3012 101.3219 7.7474 8.9010 -0.4274
# 4 -14.1596 -16.6009 7.7474 37.3043 3.5803 10.5763
# 5 12.6313 -2.6339 8.9010 3.5803 45.1091 -9.7629
# 6 -6.4359 -1.2844 -0.4274 10.5763 -9.7629 40.2161
#
#
#
# Elastic Compliance Matrix: (Units=1/GPa)
#
#
# Indices 1 2 3 4 5 6 
#
# 1 0.016384 0.002035 -0.006612 0.009102 -0.004051 -0.000761
# 2 0.002035 0.014379 -0.007150 0.009023 0.000638 -0.001509
# 3 -0.006612 -0.007150 0.015685 -0.009205 -0.000685 0.001135
# 4 0.009102 0.009023 -0.009205 0.039585 -0.005535 -0.010107
# 5 -0.004051 0.000638 -0.000685 -0.005535 0.025428 0.006993
# 6 -0.000761 -0.001509 0.001135 -0.010107 0.006993 0.029064
#
#
# Mechanical properties :
#
#
# Convention : Reuss Voigt Hill
#
# Bulk Modulus (GPa) = 43.48718 50.73214 47.10966
# Shear Modulus (GPa) = 29.13023 37.63743 33.38383
#
# Velocity S-wave (km/s) = 3.44938 3.92084 3.69264
# Velocity P-wave (km/s) = 5.79884 6.42019 6.11741
#
# Compressibility (1/GPa) = 0.02299529
#
# Stress axis : x y z
#
# Youngs Moduli (GPa) = 61.03643 69.54350 63.75484
#
# Poissons Ratio (x) = -0.14151 0.42152
# Poissons Ratio (y) = -0.12420 0.45584
# Poissons Ratio (z) = 0.40354 0.49722
#
# Static dielectric constant tensor:
#      x y z
#    x 2.310990 0.002020 0.034850 
#    y 0.002020 1.940960 0.029110 
#    z 0.034850 0.029110 1.946930 
# 
# From -- ./inp_files/393023.got.cif
#   From: 2010.05.17/outbox.cif.g08.bks.cpg/sg2_197_cif.got.tgz:393023.got - 2010.06.03 11:33:40.
