data_PCOD9060906
_publ_section_title
;
Structure prediction by ZEFSAII (Michael W. Deem and Ramdas Pophale) SiO2 
 PCOD9060906
Probable space group: P -1
;
_chemical_formula_sum "Si O2"
_cell_formula_units_Z 16
_cell_length_a 6.723539
_cell_length_b 9.475174
_cell_length_c 18.153228
_cell_angle_alpha 122.527685
_cell_angle_beta 110.819245
_cell_angle_gamma 46.882884
_cell_volume 711.620501
_symmetry_space_group_name_H-M "P -1"
_symmetry_group_IT_number 2
_symmetry_cell_setting 'triclinic'
loop_
_space_group_symop_operation_xyz
x,y,z
-x,-y,-z
loop_
_atom_site_type_symbol
_atom_site_label
_atom_site_fract_x
_atom_site_fract_y
_atom_site_fract_z
Si Si1 0.164662 0.143814 0.243511
Si Si2 0.169596 0.574770 0.574603
Si Si3 0.834423 0.099178 0.431189
Si Si4 0.817435 0.131438 0.942345
Si Si5 0.622823 0.868426 0.331363
Si Si6 0.141983 0.467258 0.224878
Si Si7 0.641880 0.303100 0.664611
Si Si8 0.182987 0.469624 0.948764
O O1 0.217042 0.266677 0.225795
O O2 0.985439 0.287249 0.331527
O O3 0.052576 0.040249 0.155037
O O4 0.451798 0.939704 0.255054
O O5 0.481664 0.394981 0.591821
O O6 0.000000 0.500000 0.500000
O O7 0.193937 0.703356 0.550200
O O8 0.046803 0.910971 0.348592
O O9 0.597045 0.078730 0.403728
O O10 0.000000 0.000000 0.500000
O O11 0.492863 0.250004 0.937424
O O12 0.816191 0.330317 0.988810
O O13 0.000000 0.000000 0.000000
O O14 0.506794 0.783122 0.344160
O O15 0.934555 0.663183 0.307768
O O16 0.362769 0.505683 0.249316
O O17 0.970732 0.503079 0.140014
O O18 0.000000 0.500000 0.000000
#
# Coordination Sequence:
#
# PCOD9060906 Si02
#       8
#     2   2   2   2   2   2   2   2
#     4  12  24  45  72  98 142 184 231 288 348 420
#     4  12  27  44  72 107 138 187 238 290 353 414
#     4  11  26  43  68  98 135 183 232 289 355 414
#     4  11  25  47  72 105 144 191 232 290 360 420
#     4  11  23  44  69  98 136 182 233 285 348 419
#     4  11  24  44  69 104 138 186 228 286 353 410
#     4  11  25  44  70  99 136 182 234 289 347 416
#     4  11  26  44  72 108 146 180 237 296 350 430
#
# _framework density 22.483893999999999
#
# number of rings (size 3 to 8) (size 9 to 14) (size 15 to 20)
#    0.000    0.750    5.000    1.500    5.250    3.000 
#    2.250    0.000    0.000    0.000    0.000    0.000 
#    0.000    0.000    0.000    0.000    0.000    0.000 
#
# Total GULP energy -89182.350609 kJ/mol
# GULP energy per Si atom -5573.896913 kJ/mol
# Density = 2.243272 g / cm^3
# Si number density = 22.483894 Si / 1000 Ang^3
#
#
#
# Elastic Constant Matrix: (Units=GPa)
#
#
# Indices 1 2 3 4 5 6 
#
# 1 100.4788 39.2163 28.6691 2.4703 11.9968 33.3828
# 2 39.2163 145.6453 28.3413 -21.1228 3.9203 30.2568
# 3 28.6691 28.3413 128.7230 -3.2133 19.5400 13.7193
# 4 2.4703 -21.1228 -3.2133 41.7627 -1.4869 -3.1946
# 5 11.9968 3.9203 19.5400 -1.4869 35.2143 6.2762
# 6 33.3828 30.2568 13.7193 -3.1946 6.2762 48.2071
#
#
#
# Elastic Compliance Matrix: (Units=1/GPa)
#
#
# Indices 1 2 3 4 5 6 
#
# 1 0.014247 -0.002236 -0.001535 -0.002783 -0.002464 -0.007889
# 2 -0.002236 0.009065 -0.001187 0.004389 0.001251 -0.003676
# 3 -0.001535 -0.001187 0.009051 0.000017 -0.004330 -0.000203
# 4 -0.002783 0.004389 0.000017 0.026438 0.001436 0.000732
# 5 -0.002464 0.001251 -0.004330 0.001436 0.031901 -0.001905
# 6 -0.007889 -0.003676 -0.000203 0.000732 -0.001905 0.028868
#
#
# Mechanical properties :
#
#
# Convention : Reuss Voigt Hill
#
# Bulk Modulus (GPa) = 44.54723 63.03341 53.79032
# Shear Modulus (GPa) = 36.50476 43.61151 40.05814
#
# Velocity S-wave (km/s) = 4.03376 4.40896 4.22552
# Velocity P-wave (km/s) = 6.44600 7.34944 6.91250
#
# Compressibility (1/GPa) = 0.02244808
#
# Stress axis : x y z
#
# Youngs Moduli (GPa) = 70.19192 110.30882 110.48201
#
# Poissons Ratio (x) = 0.24661 0.16963
# Poissons Ratio (y) = 0.15692 0.13110
# Poissons Ratio (z) = 0.10777 0.13090
#
# Static dielectric constant tensor:
#      x y z
#    x 2.059920 -0.037840 0.071890 
#    y -0.037840 1.864310 0.073890 
#    z 0.071890 0.073890 1.971950 
# 
# From -- ./inp_files/548340.got.cif
#   From: 2010.05.17/outbox.cif.g08.bks.cpg/sg2_275_cif.got.tgz:548340.got - 2010.06.03 11:33:40.
