data_PCOD9060679
_publ_section_title
;
Structure prediction by ZEFSAII (Michael W. Deem and Ramdas Pophale) SiO2 
 PCOD9060679
Probable space group: P -1
;
_chemical_formula_sum "Si O2"
_cell_formula_units_Z 15
_cell_length_a 17.383792
_cell_length_b 12.020117
_cell_length_c 5.437408
_cell_angle_alpha 72.555850
_cell_angle_beta 71.420574
_cell_angle_gamma 33.943249
_cell_volume 599.993496
_symmetry_space_group_name_H-M "P -1"
_symmetry_group_IT_number 2
_symmetry_cell_setting 'triclinic'
loop_
_space_group_symop_operation_xyz
x,y,z
-x,-y,-z
loop_
_atom_site_type_symbol
_atom_site_label
_atom_site_fract_x
_atom_site_fract_y
_atom_site_fract_z
Si Si1 0.873146 0.882580 0.885887
Si Si2 0.746257 0.177477 0.226021
Si Si3 0.699852 0.907975 0.761858
Si Si4 0.500000 0.500000 0.500000
Si Si5 0.533354 0.092048 0.319670
Si Si6 0.038549 0.813453 0.397849
Si Si7 0.929281 0.470399 0.713808
Si Si8 0.344204 0.531556 0.215991
O O1 0.810419 0.878769 0.735709
O O2 0.975679 0.862771 0.696318
O O3 0.969654 0.681642 0.068485
O O4 0.761180 0.072334 0.053722
O O5 0.648989 0.252929 0.496669
O O6 0.652927 0.399660 0.091135
O O7 0.904327 0.017210 0.251044
O O8 0.779391 0.691473 0.801204
O O9 0.631141 0.015178 0.499267
O O10 0.602931 0.013040 0.031802
O O11 0.432068 0.496725 0.351161
O O12 0.405907 0.330540 0.273178
O O13 0.500000 0.000000 0.500000
O O14 0.076413 0.640983 0.365861
O O15 0.180253 0.719006 0.317060
O O16 0.000000 0.500000 0.500000
#
# Coordination Sequence:
#
# PCOD9060679 Si02
#       8
#     2   2   2   1   2   2   2   2
#     4  11  25  44  77 115 148 199 264 327 401 468
#     4  11  27  50  76 111 147 204 262 332 393 481
#     4  12  26  47  79 112 164 208 270 329 399 478
#     4  12  28  48  78 106 156 198 268 310 406 476
#     4  12  30  50  78 116 161 214 266 330 403 486
#     4  11  26  48  78 113 154 198 267 333 399 473
#     4  11  23  43  75 115 155 206 260 330 400 478
#     4  12  29  49  78 110 156 208 261 331 402 473
#
# _framework density 25.00027
#
# number of rings (size 3 to 8) (size 9 to 14) (size 15 to 20)
#    0.000    0.533    1.333    4.800   11.200    4.267 
#    0.000    0.000    0.000    0.000    0.000    0.000 
#    0.000    0.000    0.000    0.000    0.000    0.000 
#
# Total GULP energy -83797.125777 kJ/mol
# GULP energy per Si atom -5586.475052 kJ/mol
# Density = 2.494337 g / cm^3
# Si number density = 25.000270 Si / 1000 Ang^3
#
#
#
# Elastic Constant Matrix: (Units=GPa)
#
#
# Indices 1 2 3 4 5 6 
#
# 1 97.4895 38.8441 14.3029 -4.8703 -1.2626 -10.0350
# 2 38.8441 207.0490 41.5942 -5.4926 16.2917 14.6220
# 3 14.3029 41.5942 84.0752 -14.1207 16.9194 2.2084
# 4 -4.8703 -5.4926 -14.1207 54.6573 5.5168 -7.2013
# 5 -1.2626 16.2917 16.9194 5.5168 20.5340 1.0549
# 6 -10.0350 14.6220 2.2084 -7.2013 1.0549 38.6882
#
#
#
# Elastic Compliance Matrix: (Units=1/GPa)
#
#
# Indices 1 2 3 4 5 6 
#
# 1 0.011984 -0.002501 -0.001536 0.000603 0.003612 0.004155
# 2 -0.002501 0.006132 -0.001898 -0.000135 -0.003275 -0.002794
# 3 -0.001536 -0.001898 0.016813 0.005527 -0.013967 0.000769
# 4 0.000603 -0.000135 0.005527 0.021356 -0.010361 0.004149
# 5 0.003612 -0.003275 -0.013967 -0.010361 0.065851 -0.000752
# 6 0.004155 -0.002794 0.000769 0.004149 -0.000752 0.028730
#
#
# Mechanical properties :
#
#
# Convention : Reuss Voigt Hill
#
# Bulk Modulus (GPa) = 43.36892 64.23290 53.80091
# Shear Modulus (GPa) = 29.33863 42.36740 35.85302
#
# Velocity S-wave (km/s) = 3.42940 4.12111 3.79107
# Velocity P-wave (km/s) = 5.75031 6.95654 6.38199
#
# Compressibility (1/GPa) = 0.02305799
#
# Stress axis : x y z
#
# Youngs Moduli (GPa) = 83.44370 163.08410 59.47698
#
# Poissons Ratio (x) = 0.40794 0.09136
# Poissons Ratio (y) = 0.20873 0.11290
# Poissons Ratio (z) = 0.12817 0.30956
#
# Static dielectric constant tensor:
#      x y z
#    x 1.447360 0.337070 1.135780 
#    y 0.337070 1.758180 -0.749820 
#    z 1.135780 -0.749820 -0.516750 
# 
# From -- ./inp_files/109681.got.cif
#   From: 2010.05.17/outbox.cif.g08.bks.cpg/sg2_55_cif.got.tgz:109681.got - 2010.06.03 11:33:40.
