data_PCOD9060851
_publ_section_title
;
Structure prediction by ZEFSAII (Michael W. Deem and Ramdas Pophale) SiO2 
 PCOD9060851
Probable space group: P -1
;
_chemical_formula_sum "Si O2"
_cell_formula_units_Z 16
_cell_length_a 18.617691
_cell_length_b 8.739790
_cell_length_c 8.043119
_cell_angle_alpha 54.760430
_cell_angle_beta 82.923025
_cell_angle_gamma 122.430230
_cell_volume 702.417934
_symmetry_space_group_name_H-M "P -1"
_symmetry_group_IT_number 2
_symmetry_cell_setting 'triclinic'
loop_
_space_group_symop_operation_xyz
x,y,z
-x,-y,-z
loop_
_atom_site_type_symbol
_atom_site_label
_atom_site_fract_x
_atom_site_fract_y
_atom_site_fract_z
Si Si1 0.397666 0.574803 0.559794
Si Si2 0.985225 0.930508 0.242255
Si Si3 0.741067 0.075676 0.560126
Si Si4 0.923959 0.530135 0.986786
Si Si5 0.783607 0.437162 0.819301
Si Si6 0.597025 0.026433 0.879124
Si Si7 0.577899 0.638817 0.593486
Si Si8 0.213403 0.235890 0.102695
O O1 0.428887 0.820125 0.289439
O O2 0.501194 0.667809 0.553350
O O3 0.358659 0.334134 0.596004
O O4 0.305797 0.447320 0.801924
O O5 0.866680 0.631449 0.520310
O O6 0.090211 0.010747 0.210717
O O7 0.000000 0.000000 0.000000
O O8 0.001110 0.143670 0.220773
O O9 0.845005 0.375909 0.263700
O O10 0.681308 0.099198 0.682440
O O11 0.659765 0.859584 0.571956
O O12 0.770515 0.941576 0.726248
O O13 0.845113 0.395873 0.934475
O O14 0.000000 0.500000 0.000000
O O15 0.665166 0.173122 0.939422
O O16 0.774872 0.591828 0.857439
O O17 0.498918 0.314091 0.874168
#
# Coordination Sequence:
#
# PCOD9060851 Si02
#       8
#     2   2   2   2   2   2   2   2
#     4  11  25  46  71  97 140 180 237 283 348 403
#     4  11  23  44  69 100 138 178 227 283 346 413
#     4  12  25  44  70 101 142 178 235 286 341 416
#     4  11  24  42  68 101 134 181 225 282 351 406
#     4  11  24  44  71 100 141 180 231 283 344 416
#     4  12  25  47  70 105 135 185 237 282 349 408
#     4  11  27  49  67 101 143 182 235 290 342 407
#     4  11  23  44  70 101 139 182 228 286 348 408
#
# _framework density 22.778462000000001
#
# number of rings (size 3 to 8) (size 9 to 14) (size 15 to 20)
#    0.000    0.750    1.250    7.500    3.500    2.500 
#    2.250    2.500    0.000    0.000    0.000    0.000 
#    0.000    0.000    0.000    0.000    0.000    0.000 
#
# Total GULP energy -89526.141622 kJ/mol
# GULP energy per Si atom -5595.383851 kJ/mol
# Density = 2.272662 g / cm^3
# Si number density = 22.778462 Si / 1000 Ang^3
#
#
#
# Elastic Constant Matrix: (Units=GPa)
#
#
# Indices 1 2 3 4 5 6 
#
# 1 142.6562 26.9133 15.9086 5.7111 17.9127 -12.6717
# 2 26.9133 42.7005 8.0380 8.4527 -3.3636 5.6215
# 3 15.9086 8.0380 96.5826 6.5210 -11.4783 -2.9728
# 4 5.7111 8.4527 6.5210 34.3065 -6.1577 -6.0610
# 5 17.9127 -3.3636 -11.4783 -6.1577 51.1895 13.2702
# 6 -12.6717 5.6215 -2.9728 -6.0610 13.2702 23.1179
#
#
#
# Elastic Compliance Matrix: (Units=1/GPa)
#
#
# Indices 1 2 3 4 5 6 
#
# 1 0.011102 -0.009389 -0.001718 0.001675 -0.008120 0.013248
# 2 -0.009389 0.034827 -0.000215 -0.009017 0.010093 -0.021801
# 3 -0.001718 -0.000215 0.011099 -0.001482 0.003358 -0.001778
# 4 0.001675 -0.009017 -0.001482 0.033388 -0.000612 0.012025
# 5 -0.008120 0.010093 0.003358 -0.000612 0.029886 -0.023789
# 6 0.013248 -0.021801 -0.001778 0.012025 -0.023789 0.072399
#
#
# Mechanical properties :
#
#
# Convention : Reuss Voigt Hill
#
# Bulk Modulus (GPa) = 29.08212 42.62878 35.85545
# Shear Modulus (GPa) = 22.04515 37.12806 29.58660
#
# Velocity S-wave (km/s) = 3.11433 4.04166 3.60791
# Velocity P-wave (km/s) = 5.07220 6.36672 5.75597
#
# Compressibility (1/GPa) = 0.03438539
#
# Stress axis : x y z
#
# Youngs Moduli (GPa) = 90.07307 28.71307 90.09757
#
# Poissons Ratio (x) = 0.26960 0.15475
# Poissons Ratio (y) = 0.84573 0.01934
# Poissons Ratio (z) = 0.15471 0.00616
#
# Static dielectric constant tensor:
#      x y z
#    x 1.771040 -0.051200 0.040070 
#    y -0.051200 1.754690 0.064140 
#    z 0.040070 0.064140 1.875640 
# 
# From -- ./inp_files/327129.got.cif
#   From: 2010.05.17/outbox.cif.g08.bks.cpg/sg2_164_cif.got.tgz:327129.got - 2010.06.03 11:33:40.
