data_PCOD9060998
_publ_section_title
;
Structure prediction by ZEFSAII (Michael W. Deem and Ramdas Pophale) SiO2 
 PCOD9060998
Probable space group: P -1
;
_chemical_formula_sum "Si O2"
_cell_formula_units_Z 13
_cell_length_a 12.921465
_cell_length_b 5.821150
_cell_length_c 8.440668
_cell_angle_alpha 93.208986
_cell_angle_beta 115.343769
_cell_angle_gamma 76.376075
_cell_volume 556.911926
_symmetry_space_group_name_H-M "P -1"
_symmetry_group_IT_number 2
_symmetry_cell_setting 'triclinic'
loop_
_space_group_symop_operation_xyz
x,y,z
-x,-y,-z
loop_
_atom_site_type_symbol
_atom_site_label
_atom_site_fract_x
_atom_site_fract_y
_atom_site_fract_z
Si Si1 0.268793 0.369635 0.464029
Si Si2 0.696148 0.451024 0.183216
Si Si3 0.053443 0.671201 0.152998
Si Si4 0.505928 0.789973 0.871621
Si Si5 0.625943 0.016082 0.718556
Si Si6 0.500000 0.500000 0.500000
Si Si7 0.839499 0.084423 0.049586
O O1 0.277856 0.372885 0.659430
O O2 0.141529 0.514951 0.328604
O O3 0.304061 0.115201 0.391190
O O4 0.363480 0.504084 0.461525
O O5 0.614030 0.293892 0.201880
O O6 0.614157 0.586048 0.995078
O O7 0.808857 0.282291 0.171734
O O8 0.123448 0.805803 0.084149
O O9 0.000000 0.500000 0.000000
O O10 0.944250 0.865958 0.157947
O O11 0.536589 0.857910 0.717303
O O12 0.500000 0.000000 0.000000
O O13 0.549432 0.276376 0.649365
O O14 0.719653 0.008538 0.920552
#
# Coordination Sequence:
#
# PCOD9060998 Si02
#       7
#     2   2   2   2   2   1   2
#     4  12  25  44  71 107 144 182 235 303 358 414
#     4  11  26  43  68 108 150 181 238 297 351 432
#     4  11  24  47  76  99 135 193 246 289 348 429
#     4  11  23  44  71 104 147 199 231 280 368 436
#     4  12  24  45  73 103 145 190 237 291 360 432
#     4  12  26  44  68 112 142 180 242 300 350 420
#     4  11  24  46  72 100 135 192 242 288 349 430
#
# _framework density 23.343012000000002
#
# number of rings (size 3 to 8) (size 9 to 14) (size 15 to 20)
#    0.000    0.615    4.615    3.231    2.154    1.846 
#    0.000    0.769    0.000    0.000    0.000    0.000 
#    0.000    0.000    0.000    0.000    0.000    0.000 
#
# Total GULP energy -72624.205767 kJ/mol
# GULP energy per Si atom -5586.477367 kJ/mol
# Density = 2.328988 g / cm^3
# Si number density = 23.343012 Si / 1000 Ang^3
#
#
#
# Elastic Constant Matrix: (Units=GPa)
#
#
# Indices 1 2 3 4 5 6 
#
# 1 63.9829 28.3492 20.0206 -18.2215 8.5640 -20.6256
# 2 28.3492 98.0746 29.3864 -6.8601 -9.0550 -41.7300
# 3 20.0206 29.3864 98.3483 3.5167 4.2643 -27.3274
# 4 -18.2215 -6.8601 3.5167 49.5411 -10.6269 -3.4068
# 5 8.5640 -9.0550 4.2643 -10.6269 32.8305 0.6348
# 6 -20.6256 -41.7300 -27.3274 -3.4068 0.6348 48.9259
#
#
#
# Elastic Compliance Matrix: (Units=1/GPa)
#
#
# Indices 1 2 3 4 5 6 
#
# 1 0.022293 -0.003037 -0.001976 0.007472 -0.004099 0.006278
# 2 -0.003037 0.018251 -0.001493 0.003964 0.007039 0.013638
# 3 -0.001976 -0.001493 0.012511 -0.001977 -0.002254 0.004773
# 4 0.007472 0.003964 -0.001977 0.025742 0.007596 0.007121
# 5 -0.004099 0.007039 -0.002254 0.007596 0.036162 0.003077
# 6 0.006278 0.013638 0.004773 0.007121 0.003077 0.037840
#
#
# Mechanical properties :
#
#
# Convention : Reuss Voigt Hill
#
# Bulk Modulus (GPa) = 24.97198 46.21312 35.59255
# Shear Modulus (GPa) = 27.90833 38.43613 33.17223
#
# Velocity S-wave (km/s) = 3.46146 4.06221 3.77381
# Velocity P-wave (km/s) = 5.16688 6.46857 5.85402
#
# Compressibility (1/GPa) = 0.04004489
#
# Stress axis : x y z
#
# Youngs Moduli (GPa) = 44.85687 54.79034 79.92991
#
# Poissons Ratio (x) = 0.16637 0.15793
# Poissons Ratio (y) = 0.13621 0.11933
# Poissons Ratio (z) = 0.08863 0.08180
#
# Static dielectric constant tensor:
#      x y z
#    x 1.894920 0.064160 -0.000700 
#    y 0.064160 2.150130 0.178740 
#    z -0.000700 0.178740 1.939020 
# 
# From -- ./inp_files/25162.got.cif
#   From: 2010.05.17/outbox.cif.g08.bks.cpg/sg2_13_cif.got.tgz:25162.got - 2010.06.03 11:33:40.
