data_PCOD9060807
_publ_section_title
;
Structure prediction by ZEFSAII (Michael W. Deem and Ramdas Pophale) SiO2 
 PCOD9060807
Probable space group: P -1
;
_chemical_formula_sum "Si O2"
_cell_formula_units_Z 16
_cell_length_a 12.107958
_cell_length_b 9.487083
_cell_length_c 9.574344
_cell_angle_alpha 115.202957
_cell_angle_beta 54.866430
_cell_angle_gamma 98.663132
_cell_volume 807.153084
_symmetry_space_group_name_H-M "P -1"
_symmetry_group_IT_number 2
_symmetry_cell_setting 'triclinic'
loop_
_space_group_symop_operation_xyz
x,y,z
-x,-y,-z
loop_
_atom_site_type_symbol
_atom_site_label
_atom_site_fract_x
_atom_site_fract_y
_atom_site_fract_z
Si Si1 0.360201 0.363399 0.915251
Si Si2 0.784422 0.209416 0.558506
Si Si3 0.871507 0.636558 0.141187
Si Si4 0.371475 0.491477 0.272714
Si Si5 0.147408 0.952988 0.301836
Si Si6 0.318175 0.221915 0.406190
Si Si7 0.484889 0.959628 0.334479
Si Si8 0.997669 0.958068 0.145823
O O1 0.229747 0.395304 0.924649
O O2 0.489595 0.430176 0.776495
O O3 0.392618 0.176139 0.843567
O O4 0.356926 0.440645 0.101697
O O5 0.754759 0.371487 0.566821
O O6 0.902947 0.099731 0.349470
O O7 0.804433 0.205509 0.710959
O O8 0.649767 0.125283 0.611537
O O9 0.777718 0.680726 0.366270
O O10 0.931632 0.798483 0.137716
O O11 0.000000 0.500000 0.000000
O O12 0.363142 0.346024 0.317382
O O13 0.235405 0.092626 0.336877
O O14 0.130292 0.935387 0.141146
O O15 0.000000 0.000000 0.500000
O O16 0.448419 0.117049 0.337662
O O17 0.500000 0.000000 0.500000
O O18 0.000000 0.000000 0.000000
#
# Coordination Sequence:
#
# PCOD9060807 Si02
#       8
#     2   2   2   2   2   2   2   2
#     4  10  23  45  63  93 133 165 212 265 329 375
#     4   9  19  39  62  83 124 171 207 252 324 376
#     4  12  26  42  63  96 136 168 208 265 323 381
#     4  10  24  40  67  97 125 166 215 274 322 371
#     4   9  18  39  61  80 126 170 206 251 308 384
#     4  11  22  41  66 100 121 167 225 255 324 376
#     4  10  17  39  68  84 120 168 206 264 314 375
#     4  11  23  39  60  94 124 172 220 254 316 381
#
# _framework density 19.822756999999999
#
# number of rings (size 3 to 8) (size 9 to 14) (size 15 to 20)
#    0.000    1.750    5.000    0.000    5.250    1.000 
#    0.000    4.375    0.000    0.000    0.000    0.000 
#    0.000    0.000    0.000    0.000    0.000    0.000 
#
# Total GULP energy -89139.825307 kJ/mol
# GULP energy per Si atom -5571.239082 kJ/mol
# Density = 1.977764 g / cm^3
# Si number density = 19.822757 Si / 1000 Ang^3
#
#
#
# Elastic Constant Matrix: (Units=GPa)
#
#
# Indices 1 2 3 4 5 6 
#
# 1 146.0086 55.4718 39.5018 2.0294 19.8080 -28.9391
# 2 55.4718 146.5095 27.0816 -6.1438 -0.0656 -28.0569
# 3 39.5018 27.0816 50.3810 1.7313 6.2244 -12.2619
# 4 2.0294 -6.1438 1.7313 29.4889 -8.5284 6.6911
# 5 19.8080 -0.0656 6.2244 -8.5284 28.7920 -0.2840
# 6 -28.9391 -28.0569 -12.2619 6.6911 -0.2840 20.6794
#
#
#
# Elastic Compliance Matrix: (Units=1/GPa)
#
#
# Indices 1 2 3 4 5 6 
#
# 1 0.013314 -0.001432 -0.004062 -0.007768 -0.010421 0.016651
# 2 -0.001432 0.009611 -0.001880 0.000466 0.001648 0.009793
# 3 -0.004062 -0.001880 0.027067 -0.005136 -0.004489 0.009414
# 4 -0.007768 0.000466 -0.005136 0.047070 0.020119 -0.028238
# 5 -0.010421 0.001648 -0.004489 0.020119 0.048629 -0.020852
# 6 0.016651 0.009793 0.009414 -0.028238 -0.020852 0.099378
#
#
# Mechanical properties :
#
#
# Convention : Reuss Voigt Hill
#
# Bulk Modulus (GPa) = 28.37374 65.22328 46.79851
# Shear Modulus (GPa) = 18.41187 30.51499 24.46343
#
# Velocity S-wave (km/s) = 3.05097 3.92776 3.51680
# Velocity P-wave (km/s) = 5.17262 7.31741 6.33642
#
# Compressibility (1/GPa) = 0.03524386
#
# Stress axis : x y z
#
# Youngs Moduli (GPa) = 75.10983 104.05039 36.94590
#
# Poissons Ratio (x) = 0.14898 0.15008
# Poissons Ratio (y) = 0.10754 0.06944
# Poissons Ratio (z) = 0.30512 0.19557
#
# Static dielectric constant tensor:
#      x y z
#    x 1.738520 -0.046050 -0.000610 
#    y -0.046050 1.766600 0.007040 
#    z -0.000610 0.007040 1.773390 
# 
# From -- ./inp_files/245341.got.cif
#   From: 2010.05.17/outbox.cif.g08.bks.cpg/sg2_123_cif.got.tgz:245341.got - 2010.06.03 11:33:40.
