data_PCOD9060577
_publ_section_title
;
Structure prediction by ZEFSAII (Michael W. Deem and Ramdas Pophale) SiO2 
 PCOD9060577
Probable space group: P -1
;
_chemical_formula_sum "Si O2"
_cell_formula_units_Z 16
_cell_length_a 9.583500
_cell_length_b 18.700495
_cell_length_c 11.691829
_cell_angle_alpha 150.614211
_cell_angle_beta 52.459323
_cell_angle_gamma 130.944844
_cell_volume 772.458728
_symmetry_space_group_name_H-M "P -1"
_symmetry_group_IT_number 2
_symmetry_cell_setting 'triclinic'
loop_
_space_group_symop_operation_xyz
x,y,z
-x,-y,-z
loop_
_atom_site_type_symbol
_atom_site_label
_atom_site_fract_x
_atom_site_fract_y
_atom_site_fract_z
Si Si1 0.339567 0.871343 0.465062
Si Si2 0.284890 0.402356 0.473178
Si Si3 0.044537 0.342188 0.738597
Si Si4 0.825772 0.913956 0.043674
Si Si5 0.000866 0.543440 0.692077
Si Si6 0.406753 0.630732 0.253029
Si Si7 0.974208 0.879400 0.174330
Si Si8 0.236606 0.171978 0.558939
O O1 0.403115 0.731912 0.284612
O O2 0.148805 0.790849 0.379334
O O3 0.500000 0.000000 0.500000
O O4 0.291374 0.968707 0.727667
O O5 0.500000 0.500000 0.500000
O O6 0.189160 0.358546 0.584568
O O7 0.162295 0.496713 0.608211
O O8 0.266098 0.249800 0.196698
O O9 0.136822 0.293049 0.734359
O O10 0.000000 0.500000 0.000000
O O11 0.887206 0.890644 0.109957
O O12 0.000000 0.000000 0.000000
O O13 0.802255 0.444937 0.706241
O O14 0.000000 0.500000 0.500000
O O15 0.021472 0.722025 0.939618
O O16 0.543763 0.746275 0.435262
O O17 0.500000 0.500000 0.000000
O O18 0.830789 0.876004 0.344531
O O19 0.153866 0.025413 0.314875
#
# Coordination Sequence:
#
# PCOD9060577 Si02
#       8
#     2   2   2   2   2   2   2   2
#     4  12  27  44  74 109 144 199 247 299 376 435
#     4  12  28  48  74 109 145 196 246 305 374 438
#     4  12  25  47  71 107 145 187 249 309 361 441
#     4  12  23  49  72 100 152 193 245 303 367 442
#     4  12  25  46  73 102 149 193 239 296 373 440
#     4  12  25  46  71 108 146 191 246 298 365 440
#     4  11  23  43  73 104 143 191 240 302 361 430
#     4  11  24  42  72 104 140 185 246 297 358 427
#
# _framework density 20.713080999999999
#
# number of rings (size 3 to 8) (size 9 to 14) (size 15 to 20)
#    0.000    0.250    6.250    2.250    5.250    1.000 
#    0.000    0.625    0.000    0.000    0.000    0.000 
#    0.000    0.000    0.000    0.000    0.000    0.000 
#
# Total GULP energy -89531.352607 kJ/mol
# GULP energy per Si atom -5595.709538 kJ/mol
# Density = 2.066594 g / cm^3
# Si number density = 20.713081 Si / 1000 Ang^3
#
#
#
# Elastic Constant Matrix: (Units=GPa)
#
#
# Indices 1 2 3 4 5 6 
#
# 1 125.9889 70.4290 25.2616 7.6599 1.4579 19.0133
# 2 70.4290 143.0897 43.6221 3.8786 1.7495 14.9265
# 3 25.2616 43.6221 111.8280 14.3086 11.8933 17.5871
# 4 7.6599 3.8786 14.3086 39.2012 -1.7341 4.9446
# 5 1.4579 1.7495 11.8933 -1.7341 41.4176 3.5747
# 6 19.0133 14.9265 17.5871 4.9446 3.5747 51.2898
#
#
#
# Elastic Compliance Matrix: (Units=1/GPa)
#
#
# Indices 1 2 3 4 5 6 
#
# 1 0.011362 -0.005315 0.000094 -0.001407 -0.000040 -0.002559
# 2 -0.005315 0.010530 -0.003102 0.001184 0.000699 -0.000193
# 3 0.000094 -0.003102 0.011311 -0.003667 -0.003063 -0.002443
# 4 -0.001407 0.001184 -0.003667 0.027279 0.002312 -0.001357
# 5 -0.000040 0.000699 -0.003063 0.002312 0.025189 -0.001117
# 6 -0.002559 -0.000193 -0.002443 -0.001357 -0.001117 0.021548
#
#
# Mechanical properties :
#
#
# Convention : Reuss Voigt Hill
#
# Bulk Modulus (GPa) = 60.40778 73.28133 66.84456
# Shear Modulus (GPa) = 38.64428 42.48799 40.56613
#
# Velocity S-wave (km/s) = 4.32405 4.53400 4.43027
# Velocity P-wave (km/s) = 7.35917 7.92878 7.64928
#
# Compressibility (1/GPa) = 0.01655416
#
# Stress axis : x y z
#
# Youngs Moduli (GPa) = 88.01317 94.96545 88.41293
#
# Poissons Ratio (x) = 0.50477 -0.00827
# Poissons Ratio (y) = 0.46782 0.27430
# Poissons Ratio (z) = -0.00823 0.29463
#
# Static dielectric constant tensor:
#      x y z
#    x 1.729790 0.012520 0.017730 
#    y 0.012520 1.745120 0.029840 
#    z 0.017730 0.029840 1.741660 
# 
# From -- ./inp_files/403504.got.cif
#   From: 2010.05.17/outbox.cif.g08.bks.cpg/sg2_202_cif.got.tgz:403504.got - 2010.06.03 11:33:40.
