data_PCOD9060229
_publ_section_title
;
Structure prediction by ZEFSAII (Michael W. Deem and Ramdas Pophale) SiO2 
 PCOD9060229
Probable space group: P -1
;
_chemical_formula_sum "Si O2"
_cell_formula_units_Z 14
_cell_length_a 10.696521
_cell_length_b 8.790871
_cell_length_c 15.489768
_cell_angle_alpha 109.944698
_cell_angle_beta 24.258934
_cell_angle_gamma 110.455139
_cell_volume 559.739468
_symmetry_space_group_name_H-M "P -1"
_symmetry_group_IT_number 2
_symmetry_cell_setting 'triclinic'
loop_
_space_group_symop_operation_xyz
x,y,z
-x,-y,-z
loop_
_atom_site_type_symbol
_atom_site_label
_atom_site_fract_x
_atom_site_fract_y
_atom_site_fract_z
Si Si1 0.318842 0.834181 0.046475
Si Si2 0.476061 0.498938 0.619469
Si Si3 0.325412 0.268554 0.982375
Si Si4 0.736295 0.869603 0.308579
Si Si5 0.856475 0.435745 0.746840
Si Si6 0.146232 0.792707 0.884193
Si Si7 0.639397 0.942422 0.708600
O O1 0.260498 0.688516 0.124433
O O2 0.985418 0.866706 0.227215
O O3 0.521471 0.807265 0.828298
O O4 0.500000 0.000000 0.000000
O O5 0.500000 0.500000 0.500000
O O6 0.427067 0.310424 0.634738
O O7 0.210288 0.609060 0.832751
O O8 0.786871 0.574453 0.482577
O O9 0.647090 0.381034 0.786007
O O10 0.458284 0.097222 0.877052
O O11 0.190794 0.379557 0.162211
O O12 0.047007 0.237736 0.086294
O O13 0.500000 0.000000 0.500000
O O14 0.933355 0.884902 0.099789
O O15 0.487168 0.885781 0.701228
O O16 0.000000 0.000000 0.500000
#
# Coordination Sequence:
#
# PCOD9060229 Si02
#       7
#     2   2   2   2   2   2   2
#     4  11  23  44  69  97 141 184 235 295 358 424
#     4  12  23  44  75 101 145 188 244 287 364 430
#     4  11  23  43  68 102 141 187 238 298 348 435
#     4  11  27  45  72 109 144 187 240 302 360 425
#     4  11  24  43  72 104 140 191 244 291 366 421
#     4  11  25  44  71 107 149 186 242 294 362 426
#     4  11  25  44  70 101 144 188 242 295 366 422
#
# _framework density 25.011637
#
# number of rings (size 3 to 8) (size 9 to 14) (size 15 to 20)
#    0.000    0.857    4.286    1.714    4.000    3.429 
#    0.000    1.429    0.000    0.000    0.000    0.000 
#    0.000    0.000    0.000    0.000    0.000    0.000 
#
# Total GULP energy -78133.871973 kJ/mol
# GULP energy per Si atom -5580.990855 kJ/mol
# Density = 2.495471 g / cm^3
# Si number density = 25.011637 Si / 1000 Ang^3
#
#
#
# Elastic Constant Matrix: (Units=GPa)
#
#
# Indices 1 2 3 4 5 6 
#
# 1 121.3550 40.7525 52.6381 -12.5621 -42.3929 32.9649
# 2 40.7525 139.1694 65.3601 9.8944 -13.9983 16.4928
# 3 52.6381 65.3601 146.8152 2.9453 -35.3661 -1.4347
# 4 -12.5621 9.8944 2.9453 57.3626 6.9758 -8.3250
# 5 -42.3929 -13.9983 -35.3661 6.9758 47.6263 -1.6454
# 6 32.9649 16.4928 -1.4347 -8.3250 -1.6454 38.0749
#
#
#
# Elastic Compliance Matrix: (Units=1/GPa)
#
#
# Indices 1 2 3 4 5 6 
#
# 1 0.018950 -0.000835 -0.003325 0.000575 0.013535 -0.015460
# 2 -0.000835 0.010077 -0.004394 -0.002218 -0.000869 -0.004330
# 3 -0.003325 -0.004394 0.011017 -0.000269 0.004154 0.005317
# 4 0.000575 -0.002218 -0.000269 0.018965 -0.002963 0.004471
# 5 0.013535 -0.000869 0.004154 -0.002963 0.035952 -0.010280
# 6 -0.015460 -0.004330 0.005317 0.004471 -0.010280 0.042258
#
#
# Mechanical properties :
#
#
# Convention : Reuss Voigt Hill
#
# Bulk Modulus (GPa) = 43.59728 80.53790 62.06759
# Shear Modulus (GPa) = 30.86945 45.18535 38.02740
#
# Velocity S-wave (km/s) = 3.51693 4.25499 3.90345
# Velocity P-wave (km/s) = 5.82756 7.51066 6.72199
#
# Compressibility (1/GPa) = 0.02293721
#
# Stress axis : x y z
#
# Youngs Moduli (GPa) = 52.77064 99.23530 90.76646
#
# Poissons Ratio (x) = 0.08286 0.30176
# Poissons Ratio (y) = 0.04406 0.39882
# Poissons Ratio (z) = 0.17544 0.43603
#
# Static dielectric constant tensor:
#      x y z
#    x 2.111870 -0.043430 0.052700 
#    y -0.043430 2.007120 -0.027100 
#    z 0.052700 -0.027100 2.006790 
# 
# From -- ./inp_files/566796.got.cif
#   From: 2010.05.17/outbox.cif.g08.bks.cpg/sg2_284_cif.got.tgz:566796.got - 2010.06.03 11:33:40.
