data_PCOD9060607
_publ_section_title
;
Structure prediction by ZEFSAII (Michael W. Deem and Ramdas Pophale) SiO2 
 PCOD9060607
Probable space group: P -1
;
_chemical_formula_sum "Si O2"
_cell_formula_units_Z 14
_cell_length_a 20.676216
_cell_length_b 9.294278
_cell_length_c 9.604825
_cell_angle_alpha 126.184219
_cell_angle_beta 136.858508
_cell_angle_gamma 27.756585
_cell_volume 578.860115
_symmetry_space_group_name_H-M "P -1"
_symmetry_group_IT_number 2
_symmetry_cell_setting 'triclinic'
loop_
_space_group_symop_operation_xyz
x,y,z
-x,-y,-z
loop_
_atom_site_type_symbol
_atom_site_label
_atom_site_fract_x
_atom_site_fract_y
_atom_site_fract_z
Si Si1 0.980532 0.714272 0.277978
Si Si2 0.704991 0.905506 0.438167
Si Si3 0.535807 0.345505 0.186039
Si Si4 0.653200 0.043955 0.899828
Si Si5 0.386065 0.295684 0.320376
Si Si6 0.105264 0.858240 0.391564
Si Si7 0.255151 0.503805 0.924032
O O1 0.112058 0.383304 0.373795
O O2 0.081308 0.703886 0.340781
O O3 0.887048 0.993501 0.399443
O O4 0.842830 0.811100 0.039003
O O5 0.698461 0.740509 0.234750
O O6 0.652985 0.146238 0.391902
O O7 0.564721 0.097790 0.445089
O O8 0.465213 0.640302 0.189205
O O9 0.621967 0.123181 0.060554
O O10 0.373096 0.480309 0.044701
O O11 0.607488 0.912207 0.725347
O O12 0.264280 0.598700 0.397112
O O13 0.292911 0.417381 0.094833
O O14 0.936097 0.155333 0.210961
#
# Coordination Sequence:
#
# PCOD9060607 Si02
#       7
#     2   2   2   2   2   2   2
#     4  10  23  40  61  89 130 161 194 252 320 354
#     4  10  20  39  64  89 122 167 202 243 302 382
#     4  10  19  35  62  90 121 160 206 242 299 369
#     4  11  21  36  65  97 118 153 208 264 294 350
#     4  11  21  37  68  93 114 159 219 249 288 360
#     4  10  22  39  62  88 125 165 203 242 305 378
#     4  10  17  39  61  92 114 167 199 256 278 385
#
# _framework density 24.185462999999999
#
# number of rings (size 3 to 8) (size 9 to 14) (size 15 to 20)
#    0.000    1.714    4.286    1.286    0.000    1.714 
#    0.000    0.000    0.000    2.571    0.000    0.000 
#    0.000    0.000    0.000    0.000    0.000    0.000 
#
# Total GULP energy -78480.059421 kJ/mol
# GULP energy per Si atom -5605.718530 kJ/mol
# Density = 2.413042 g / cm^3
# Si number density = 24.185463 Si / 1000 Ang^3
#
#
#
# Elastic Constant Matrix: (Units=GPa)
#
#
# Indices 1 2 3 4 5 6 
#
# 1 126.4357 66.6792 30.1181 3.9472 -6.3454 10.2393
# 2 66.6792 103.7931 7.2065 -5.8914 -8.2214 -23.8596
# 3 30.1181 7.2065 65.3677 -9.5077 4.7551 -13.2222
# 4 3.9472 -5.8914 -9.5077 25.4037 -1.2350 -11.6771
# 5 -6.3454 -8.2214 4.7551 -1.2350 28.0843 0.1892
# 6 10.2393 -23.8596 -13.2222 -11.6771 0.1892 41.6806
#
#
#
# Elastic Compliance Matrix: (Units=1/GPa)
#
#
# Indices 1 2 3 4 5 6 
#
# 1 0.074375 -0.074279 -0.063376 -0.102836 0.002008 -0.109716
# 2 -0.074279 0.086776 0.064867 0.110996 0.001712 0.119588
# 3 -0.063376 0.064867 0.073180 0.099845 -0.004030 0.103907
# 4 -0.102836 0.110996 0.099845 0.199522 -0.000062 0.176373
# 5 0.002008 0.001712 -0.004030 -0.000062 0.037248 -0.000978
# 6 -0.109716 0.119588 0.103907 0.176373 -0.000978 0.201781
#
#
# Mechanical properties :
#
#
# Convention : Reuss Voigt Hill
#
# Bulk Modulus (GPa) = 11.26693 55.95601 33.61147
# Shear Modulus (GPa) = 5.89592 31.80656 18.85124
#
# Velocity S-wave (km/s) = 1.56304 3.63038 2.79488
# Velocity P-wave (km/s) = 2.81534 6.38430 4.93383
#
# Compressibility (1/GPa) = 0.08875532
#
# Stress axis : x y z
#
# Youngs Moduli (GPa) = 13.44529 11.52392 13.66488
#
# Poissons Ratio (x) = 0.85599 0.86602
# Poissons Ratio (y) = 0.99871 -0.88640
# Poissons Ratio (z) = 0.85210 -0.74752
#
# Static dielectric constant tensor:
#      x y z
#    x 1.906120 0.010330 -0.009760 
#    y 0.010330 1.904870 0.019100 
#    z -0.009760 0.019100 1.917660 
# 
# From -- ./inp_files/158287.got.cif
#   From: 2010.05.17/outbox.cif.g08.bks.cpg/sg2_80_cif.got.tgz:158287.got - 2010.06.03 11:33:40.
