data_PCOD9060567
_publ_section_title
;
Structure prediction by ZEFSAII (Michael W. Deem and Ramdas Pophale) SiO2 
 PCOD9060567
Probable space group: P -1
;
_chemical_formula_sum "Si O2"
_cell_formula_units_Z 16
_cell_length_a 7.998434
_cell_length_b 9.723962
_cell_length_c 13.652970
_cell_angle_alpha 58.739450
_cell_angle_beta 107.484353
_cell_angle_gamma 133.294203
_cell_volume 658.046035
_symmetry_space_group_name_H-M "P -1"
_symmetry_group_IT_number 2
_symmetry_cell_setting 'triclinic'
loop_
_space_group_symop_operation_xyz
x,y,z
-x,-y,-z
loop_
_atom_site_type_symbol
_atom_site_label
_atom_site_fract_x
_atom_site_fract_y
_atom_site_fract_z
Si Si1 0.230384 0.998260 0.310847
Si Si2 0.702018 0.504889 0.754389
Si Si3 0.092541 0.894718 0.808195
Si Si4 0.580639 0.202078 0.678429
Si Si5 0.953022 0.156367 0.949966
Si Si6 0.475041 0.830182 0.991195
Si Si7 0.274655 0.147441 0.466625
Si Si8 0.617609 0.416288 0.106486
O O1 0.002052 0.976098 0.263993
O O2 0.272772 0.016128 0.427978
O O3 0.432487 0.227856 0.214213
O O4 0.264235 0.843172 0.327680
O O5 0.929901 0.689101 0.786949
O O6 0.727081 0.399424 0.706210
O O7 0.536561 0.321016 0.873866
O O8 0.633432 0.632566 0.647036
O O9 0.065427 0.829280 0.941137
O O10 0.352912 0.025494 0.769722
O O11 0.442902 0.207200 0.563325
O O12 0.710206 0.011192 0.907693
O O13 0.158138 0.391596 0.867737
O O14 0.000000 0.000000 0.000000
O O15 0.314397 0.666079 0.938317
O O16 0.500000 0.000000 0.000000
O O17 0.000000 0.000000 0.500000
O O18 0.500000 0.500000 0.000000
#
# Coordination Sequence:
#
# PCOD9060567 Si02
#       8
#     2   2   2   2   2   2   2   2
#     4  11  24  43  73 102 136 180 233 287 346 414
#     4  11  23  43  73 100 135 188 229 278 352 413
#     4  11  23  45  71  97 145 182 230 284 340 417
#     4  12  24  45  74 101 135 181 232 290 353 401
#     4  12  24  40  69  98 136 190 231 268 346 410
#     4  12  25  41  67 104 140 176 226 277 336 419
#     4  11  23  47  75  94 137 187 227 291 353 404
#     4  12  22  42  66  97 143 182 222 282 336 412
#
# _framework density 24.314409000000001
#
# number of rings (size 3 to 8) (size 9 to 14) (size 15 to 20)
#    0.000    0.500    7.500    2.250    0.000    1.500 
#    0.000    3.125    0.000    0.000    0.000    0.000 
#    0.000    0.000    0.000    0.000    0.000    0.000 
#
# Total GULP energy -89280.558082 kJ/mol
# GULP energy per Si atom -5580.034880 kJ/mol
# Density = 2.425907 g / cm^3
# Si number density = 24.314409 Si / 1000 Ang^3
#
#
#
# Elastic Constant Matrix: (Units=GPa)
#
#
# Indices 1 2 3 4 5 6 
#
# 1 115.6389 62.3767 9.9496 8.4876 0.3277 -18.5753
# 2 62.3767 166.8293 25.3934 21.5198 -3.8837 -23.8563
# 3 9.9496 25.3934 91.0564 26.6103 1.4368 -12.1897
# 4 8.4876 21.5198 26.6103 42.3761 -5.2240 -3.2266
# 5 0.3277 -3.8837 1.4368 -5.2240 31.5503 12.3055
# 6 -18.5753 -23.8563 -12.1897 -3.2266 12.3055 43.4203
#
#
#
# Elastic Compliance Matrix: (Units=1/GPa)
#
#
# Indices 1 2 3 4 5 6 
#
# 1 0.011229 -0.003750 0.000497 -0.000649 -0.002039 0.003413
# 2 -0.003750 0.008236 -0.000697 -0.002844 -0.000412 0.002631
# 3 0.000497 -0.000697 0.014367 -0.008921 -0.003902 0.004306
# 4 -0.000649 -0.002844 -0.008921 0.031311 0.006784 -0.003940
# 5 -0.002039 -0.000412 -0.003902 0.006784 0.037805 -0.012404
# 6 0.003413 0.002631 0.004306 -0.003940 -0.012404 0.030368
#
#
# Mechanical properties :
#
#
# Convention : Reuss Voigt Hill
#
# Bulk Modulus (GPa) = 38.56135 63.21823 50.88979
# Shear Modulus (GPa) = 33.36462 41.85632 37.61047
#
# Velocity S-wave (km/s) = 3.70836 4.15355 3.93725
# Velocity P-wave (km/s) = 5.85063 7.00424 6.45326
#
# Compressibility (1/GPa) = 0.02593270
#
# Stress axis : x y z
#
# Youngs Moduli (GPa) = 89.05329 121.42091 69.60247
#
# Poissons Ratio (x) = 0.45533 -0.03462
# Poissons Ratio (y) = 0.33395 0.04853
# Poissons Ratio (z) = -0.04430 0.08466
#
# Static dielectric constant tensor:
#      x y z
#    x 2.021540 0.003200 0.036820 
#    y 0.003200 1.890910 -0.014070 
#    z 0.036820 -0.014070 1.985870 
# 
# From -- ./inp_files/329630.got.cif
#   From: 2010.05.17/outbox.cif.g08.bks.cpg/sg2_165_cif.got.tgz:329630.got - 2010.06.03 11:33:40.
