data_PCOD9060153
_publ_section_title
;
Structure prediction by ZEFSAII (Michael W. Deem and Ramdas Pophale) SiO2 
 PCOD9060153
Probable space group: P -1
;
_chemical_formula_sum "Si O2"
_cell_formula_units_Z 16
_cell_length_a 6.273606
_cell_length_b 9.207689
_cell_length_c 19.296988
_cell_angle_alpha 115.992929
_cell_angle_beta 122.574424
_cell_angle_gamma 51.987562
_cell_volume 730.471540
_symmetry_space_group_name_H-M "P -1"
_symmetry_group_IT_number 2
_symmetry_cell_setting 'triclinic'
loop_
_space_group_symop_operation_xyz
x,y,z
-x,-y,-z
loop_
_atom_site_type_symbol
_atom_site_label
_atom_site_fract_x
_atom_site_fract_y
_atom_site_fract_z
Si Si1 0.886809 0.223050 0.326254
Si Si2 0.246090 0.833945 0.223160
Si Si3 0.839574 0.917542 0.851533
Si Si4 0.806589 0.577316 0.762006
Si Si5 0.629311 0.083452 0.988986
Si Si6 0.155538 0.092382 0.494342
Si Si7 0.863206 0.587824 0.346142
Si Si8 0.068721 0.397219 0.916222
O O1 0.540517 0.324598 0.273740
O O2 0.965515 0.385036 0.355797
O O3 0.958677 0.161622 0.405740
O O4 0.052077 0.028255 0.271353
O O5 0.522759 0.683039 0.282976
O O6 0.059190 0.744023 0.142574
O O7 0.354700 0.902115 0.190631
O O8 0.875776 0.737108 0.784524
O O9 0.726307 0.938710 0.913243
O O10 0.145259 0.898892 0.919016
O O11 0.949773 0.429866 0.694126
O O12 0.950138 0.511332 0.848720
O O13 0.417438 0.277276 0.955758
O O14 0.500000 0.000000 0.000000
O O15 0.123167 0.266899 0.568866
O O16 0.500000 0.000000 0.500000
O O17 0.000000 0.000000 0.500000
O O18 0.000000 0.500000 0.000000
#
# Coordination Sequence:
#
# PCOD9060153 Si02
#       8
#     2   2   2   2   2   2   2   2
#     4  12  28  53  83 115 163 209 269 332 415 493
#     4  12  25  49  76 107 158 206 266 332 403 480
#     4  11  25  42  71 101 141 201 262 322 402 469
#     4  12  28  45  77 115 152 207 271 337 401 482
#     4  11  23  43  66  95 142 200 258 327 396 466
#     4  12  31  55  91 127 172 217 268 334 426 504
#     4  12  28  52  82 119 161 208 273 334 412 495
#     4  12  27  43  72 105 157 208 267 336 401 475
#
# _framework density 21.903659000000001
#
# number of rings (size 3 to 8) (size 9 to 14) (size 15 to 20)
#    0.000    0.250    5.000    2.625   12.250    1.000 
#    0.000    0.000    0.000    0.000    0.000    0.000 
#    0.000    0.000    0.000    0.000    0.000    0.000 
#
# Total GULP energy -89138.254933 kJ/mol
# GULP energy per Si atom -5571.140933 kJ/mol
# Density = 2.185381 g / cm^3
# Si number density = 21.903659 Si / 1000 Ang^3
#
#
#
# Elastic Constant Matrix: (Units=GPa)
#
#
# Indices 1 2 3 4 5 6 
#
# 1 82.2100 33.6717 23.0430 2.8001 -21.9610 6.8336
# 2 33.6717 104.6907 49.2192 -1.3546 -24.0401 11.0424
# 3 23.0430 49.2192 112.7064 8.9131 -32.1903 10.6769
# 4 2.8001 -1.3546 8.9131 58.8004 -4.0164 -3.9185
# 5 -21.9610 -24.0401 -32.1903 -4.0164 46.6286 3.3232
# 6 6.8336 11.0424 10.6769 -3.9185 3.3232 44.3758
#
#
#
# Elastic Compliance Matrix: (Units=1/GPa)
#
#
# Indices 1 2 3 4 5 6 
#
# 1 0.015224 -0.003528 0.000274 -0.000597 0.005632 -0.002007
# 2 -0.003528 0.013541 -0.004390 0.001194 0.002524 -0.001854
# 3 0.000274 -0.004390 0.013134 -0.001815 0.006976 -0.002792
# 4 -0.000597 0.001194 -0.001815 0.017485 0.000464 0.001741
# 5 0.005632 0.002524 0.006976 0.000464 0.030642 -0.005427
# 6 -0.002007 -0.001854 -0.002792 0.001741 -0.005427 0.024537
#
#
# Mechanical properties :
#
#
# Convention : Reuss Voigt Hill
#
# Bulk Modulus (GPa) = 37.57882 56.83056 47.20469
# Shear Modulus (GPa) = 36.04322 42.87252 39.45787
#
# Velocity S-wave (km/s) = 4.06092 4.42896 4.24893
# Velocity P-wave (km/s) = 6.25953 7.22193 6.75789
#
# Compressibility (1/GPa) = 0.02661074
#
# Stress axis : x y z
#
# Youngs Moduli (GPa) = 65.68662 73.84877 76.13756
#
# Poissons Ratio (x) = 0.26054 -0.02086
# Poissons Ratio (y) = 0.23175 0.33425
# Poissons Ratio (z) = -0.01800 0.32421
#
# Static dielectric constant tensor:
#      x y z
#    x 1.945110 -0.009140 -0.041860 
#    y -0.009140 1.822100 0.030350 
#    z -0.041860 0.030350 1.778240 
# 
# From -- ./inp_files/548246.got.cif
#   From: 2010.05.17/outbox.cif.g08.bks.cpg/sg2_275_cif.got.tgz:548246.got - 2010.06.03 11:33:40.
