data_PCOD9060876
_publ_section_title
;
Structure prediction by ZEFSAII (Michael W. Deem and Ramdas Pophale) SiO2 
 PCOD9060876
Probable space group: P -1
;
_chemical_formula_sum "Si O2"
_cell_formula_units_Z 14
_cell_length_a 9.256324
_cell_length_b 9.358605
_cell_length_c 20.462955
_cell_angle_alpha 132.521912
_cell_angle_beta 30.621525
_cell_angle_gamma 130.642864
_cell_volume 653.888715
_symmetry_space_group_name_H-M "P -1"
_symmetry_group_IT_number 2
_symmetry_cell_setting 'triclinic'
loop_
_space_group_symop_operation_xyz
x,y,z
-x,-y,-z
loop_
_atom_site_type_symbol
_atom_site_label
_atom_site_fract_x
_atom_site_fract_y
_atom_site_fract_z
Si Si1 0.280028 0.544582 0.032694
Si Si2 0.859971 0.151261 0.558048
Si Si3 0.232847 0.557202 0.579544
Si Si4 0.939531 0.711992 0.858629
Si Si5 0.171345 0.903468 0.111138
Si Si6 0.190954 0.862200 0.580743
Si Si7 0.249368 0.116597 0.849141
O O1 0.052342 0.480064 0.159688
O O2 0.152815 0.681631 0.075094
O O3 0.589587 0.676464 0.974491
O O4 0.313641 0.327911 0.925951
O O5 0.906723 0.158315 0.463667
O O6 0.524720 0.104903 0.693589
O O7 0.006310 0.360856 0.593614
O O8 0.000000 0.000000 0.500000
O O9 0.500000 0.500000 0.500000
O O10 0.259088 0.672609 0.535785
O O11 0.079779 0.689522 0.727735
O O12 0.139061 0.913263 0.869508
O O13 0.013482 0.888137 0.098958
O O14 0.026894 0.031509 0.259297
O O15 0.500000 0.000000 0.000000
O O16 0.500000 0.000000 0.500000
#
# Coordination Sequence:
#
# PCOD9060876 Si02
#       7
#     2   2   2   2   2   2   2
#     4  11  25  42  72 102 140 191 236 292 368 434
#     4  12  27  46  74 109 144 197 247 307 371 444
#     4  12  25  47  73 102 149 189 244 307 373 433
#     4  11  23  44  69 103 141 184 237 300 355 433
#     4  12  25  47  74 104 149 191 239 304 374 432
#     4  12  25  48  75 106 146 193 248 306 368 446
#     4  12  23  48  71 103 148 184 249 304 361 444
#
# _framework density 21.410371999999999
#
# number of rings (size 3 to 8) (size 9 to 14) (size 15 to 20)
#    0.000    0.286    5.714    3.000    4.000    0.000 
#    5.143    0.000    0.000    0.000    0.000    0.000 
#    0.000    0.000    0.000    0.000    0.000    0.000 
#
# Total GULP energy -78085.006300 kJ/mol
# GULP energy per Si atom -5577.500450 kJ/mol
# Density = 2.136164 g / cm^3
# Si number density = 21.410372 Si / 1000 Ang^3
#
#
#
# Elastic Constant Matrix: (Units=GPa)
#
#
# Indices 1 2 3 4 5 6 
#
# 1 98.1702 22.9882 31.0104 -5.9505 0.6003 -5.6136
# 2 22.9882 154.2366 28.5377 -14.8883 -9.5707 -10.2952
# 3 31.0104 28.5377 84.1119 -14.2655 0.9054 12.9526
# 4 -5.9505 -14.8883 -14.2655 34.5577 6.9035 0.6034
# 5 0.6003 -9.5707 0.9054 6.9035 33.5221 5.0116
# 6 -5.6136 -10.2952 12.9526 0.6034 5.0116 47.6596
#
#
#
# Elastic Compliance Matrix: (Units=1/GPa)
#
#
# Indices 1 2 3 4 5 6 
#
# 1 0.011953 -0.000826 -0.004521 -0.000070 -0.000692 0.002532
# 2 -0.000826 0.007414 -0.002219 0.001796 0.001534 0.001923
# 3 -0.004521 -0.002219 0.016025 0.005227 -0.001270 -0.005300
# 4 -0.000070 0.001796 0.005227 0.033135 -0.006332 -0.000794
# 5 -0.000692 0.001534 -0.001270 -0.006332 0.032022 -0.002692
# 6 0.002532 0.001923 -0.005300 -0.000794 -0.002692 0.023429
#
#
# Mechanical properties :
#
#
# Convention : Reuss Voigt Hill
#
# Bulk Modulus (GPa) = 49.35793 55.73239 52.54516
# Shear Modulus (GPa) = 34.27874 40.08004 37.17939
#
# Velocity S-wave (km/s) = 4.00563 4.33135 4.17167
# Velocity P-wave (km/s) = 6.67059 7.14851 6.91368
#
# Compressibility (1/GPa) = 0.02026017
#
# Stress axis : x y z
#
# Youngs Moduli (GPa) = 83.66411 134.87723 62.40316
#
# Poissons Ratio (x) = 0.11137 0.28211
# Poissons Ratio (y) = 0.06908 0.13849
# Poissons Ratio (z) = 0.37823 0.29932
#
# Static dielectric constant tensor:
#      x y z
#    x 1.677950 0.260120 0.427860 
#    y 0.260120 1.061310 -0.522540 
#    z 0.427860 -0.522540 1.583280 
# 
# From -- ./inp_files/185543.got.cif
#   From: 2010.05.17/outbox.cif.g08.bks.cpg/sg2_93_cif.got.tgz:185543.got - 2010.06.03 11:33:40.
