data_PCOD9060824
_publ_section_title
;
Structure prediction by ZEFSAII (Michael W. Deem and Ramdas Pophale) SiO2 
 PCOD9060824
Probable space group: P -1
;
_chemical_formula_sum "Si O2"
_cell_formula_units_Z 16
_cell_length_a 5.884053
_cell_length_b 11.548375
_cell_length_c 11.662726
_cell_angle_alpha 87.217130
_cell_angle_beta 98.689306
_cell_angle_gamma 71.683703
_cell_volume 739.806551
_symmetry_space_group_name_H-M "P -1"
_symmetry_group_IT_number 2
_symmetry_cell_setting 'triclinic'
loop_
_space_group_symop_operation_xyz
x,y,z
-x,-y,-z
loop_
_atom_site_type_symbol
_atom_site_label
_atom_site_fract_x
_atom_site_fract_y
_atom_site_fract_z
Si Si1 0.351573 0.943513 0.077976
Si Si2 0.059071 0.564850 0.190507
Si Si3 0.604180 0.854273 0.515862
Si Si4 0.928989 0.138675 0.140996
Si Si5 0.179961 0.787217 0.629530
Si Si6 0.369255 0.271918 0.719884
Si Si7 0.519308 0.485910 0.364287
Si Si8 0.775398 0.412600 0.040148
O O1 0.490406 0.823757 0.168011
O O2 0.191884 0.900687 0.975733
O O3 0.205117 0.050873 0.149573
O O4 0.500000 0.000000 0.000000
O O5 0.276098 0.477571 0.286218
O O6 0.903159 0.669502 0.257202
O O7 0.903381 0.492242 0.118720
O O8 0.145545 0.620168 0.083422
O O9 0.396310 0.811348 0.568477
O O10 0.614709 0.799112 0.392915
O O11 0.890599 0.819810 0.576277
O O12 0.500000 0.000000 0.500000
O O13 0.827991 0.132007 0.260140
O O14 0.857682 0.283891 0.115641
O O15 0.271741 0.638492 0.647999
O O16 0.450534 0.390748 0.693214
O O17 0.500000 0.500000 0.500000
O O18 0.500000 0.500000 0.000000
#
# Coordination Sequence:
#
# PCOD9060824 Si02
#       8
#     2   2   2   2   2   2   2   2
#     4  11  26  46  70 106 142 199 250 315 381 459
#     4  11  24  41  74 102 145 190 244 313 386 452
#     4  12  29  52  77 112 155 207 258 312 380 455
#     4  11  25  43  71 101 150 188 252 310 380 450
#     4  12  28  49  80 112 155 200 259 318 381 455
#     4  12  26  46  75 103 152 191 254 315 380 456
#     4  12  26  46  71 109 149 195 251 314 385 450
#     4  11  23  44  68 108 142 189 249 313 389 457
#
# _framework density 21.627275000000001
#
# number of rings (size 3 to 8) (size 9 to 14) (size 15 to 20)
#    0.000    0.500    1.250    6.375    7.000    4.000 
#    0.000    0.000    0.000    0.000    0.000    0.000 
#    0.000    0.000    0.000    0.000    0.000    0.000 
#
# Total GULP energy -89247.163807 kJ/mol
# GULP energy per Si atom -5577.947738 kJ/mol
# Density = 2.157805 g / cm^3
# Si number density = 21.627275 Si / 1000 Ang^3
#
#
#
# Elastic Constant Matrix: (Units=GPa)
#
#
# Indices 1 2 3 4 5 6 
#
# 1 99.2999 61.5987 53.9406 -15.0500 -6.8620 -27.2979
# 2 61.5987 166.1415 45.7279 -3.7657 -5.2928 -22.0807
# 3 53.9406 45.7279 135.8452 11.5752 -12.8888 -25.6117
# 4 -15.0500 -3.7657 11.5752 48.9831 -14.2288 -8.4450
# 5 -6.8620 -5.2928 -12.8888 -14.2288 47.1800 -3.5234
# 6 -27.2979 -22.0807 -25.6117 -8.4450 -3.5234 37.2086
#
#
#
# Elastic Compliance Matrix: (Units=1/GPa)
#
#
# Indices 1 2 3 4 5 6 
#
# 1 0.020841 -0.004313 -0.004913 0.010937 0.005426 0.012345
# 2 -0.004313 0.007943 -0.000748 -0.000368 0.000019 0.000952
# 3 -0.004913 -0.000748 0.010435 -0.003231 0.001266 0.002520
# 4 0.010937 -0.000368 -0.003231 0.029924 0.010691 0.013386
# 5 0.005426 0.000019 0.001266 0.010691 0.026287 0.009779
# 6 0.012345 0.000952 0.002520 0.013386 0.009779 0.042196
#
#
# Mechanical properties :
#
#
# Convention : Reuss Voigt Hill
#
# Bulk Modulus (GPa) = 51.89677 80.42456 66.16066
# Shear Modulus (GPa) = 30.48776 42.67564 36.58170
#
# Velocity S-wave (km/s) = 3.75866 4.44693 4.11720
# Velocity P-wave (km/s) = 6.54864 7.97711 7.29791
#
# Compressibility (1/GPa) = 0.01926902
#
# Stress axis : x y z
#
# Youngs Moduli (GPa) = 47.98128 125.89671 95.83354
#
# Poissons Ratio (x) = 0.54305 0.47087
# Poissons Ratio (y) = 0.20697 0.07171
# Poissons Ratio (z) = 0.23575 0.09420
#
# Static dielectric constant tensor:
#      x y z
#    x 1.917680 -0.005430 -0.022000 
#    y -0.005430 1.742570 -0.038120 
#    z -0.022000 -0.038120 1.807170 
# 
# From -- ./inp_files/364568.got.cif
#   From: 2010.05.17/outbox.cif.g08.bks.cpg/sg2_183_cif.got.tgz:364568.got - 2010.06.03 11:33:40.
