data_PCOD9060327
_publ_section_title
;
Structure prediction by ZEFSAII (Michael W. Deem and Ramdas Pophale) SiO2 
 PCOD9060327
Probable space group: P -1
;
_chemical_formula_sum "Si O2"
_cell_formula_units_Z 14
_cell_length_a 7.806884
_cell_length_b 14.125218
_cell_length_c 8.028957
_cell_angle_alpha 132.518261
_cell_angle_beta 103.108009
_cell_angle_gamma 62.457277
_cell_volume 573.624620
_symmetry_space_group_name_H-M "P -1"
_symmetry_group_IT_number 2
_symmetry_cell_setting 'triclinic'
loop_
_space_group_symop_operation_xyz
x,y,z
-x,-y,-z
loop_
_atom_site_type_symbol
_atom_site_label
_atom_site_fract_x
_atom_site_fract_y
_atom_site_fract_z
Si Si1 0.875575 0.068863 0.216080
Si Si2 0.703495 0.867487 0.884403
Si Si3 0.650743 0.345141 0.283743
Si Si4 0.492312 0.652137 0.116420
Si Si5 0.003627 0.638375 0.817683
Si Si6 0.899391 0.239048 0.683578
Si Si7 0.859086 0.669652 0.378541
O O1 0.707236 0.218577 0.283572
O O2 0.990633 0.094409 0.425683
O O3 0.816002 0.944558 0.098253
O O4 0.000000 0.000000 0.000000
O O5 0.774581 0.719137 0.820793
O O6 0.766896 0.808750 0.641683
O O7 0.500000 0.000000 0.000000
O O8 0.500000 0.500000 0.500000
O O9 0.857364 0.344957 0.274879
O O10 0.565447 0.322585 0.060485
O O11 0.688097 0.668575 0.219892
O O12 0.313330 0.752335 0.312913
O O13 0.500000 0.500000 0.000000
O O14 0.076817 0.473846 0.673662
O O15 0.040095 0.712816 0.076744
O O16 0.950221 0.338375 0.684106
#
# Coordination Sequence:
#
# PCOD9060327 Si02
#       7
#     2   2   2   2   2   2   2
#     4  12  24  48  69 101 144 189 238 283 361 423
#     4  12  28  48  68 104 147 191 235 298 356 432
#     4  11  24  43  76 106 141 191 237 294 356 425
#     4  11  23  43  69 112 142 180 240 292 358 419
#     4  11  25  46  72 109 137 190 245 291 361 417
#     4  11  24  45  75 102 148 187 235 304 353 420
#     4  12  24  48  75 104 147 183 242 300 353 426
#
# _framework density 24.406206999999998
#
# number of rings (size 3 to 8) (size 9 to 14) (size 15 to 20)
#    0.000    0.571    5.714    2.571    2.000    1.714 
#    2.571    1.429    0.000    0.000    0.000    0.000 
#    0.000    0.000    0.000    0.000    0.000    0.000 
#
# Total GULP energy -78088.532727 kJ/mol
# GULP energy per Si atom -5577.752338 kJ/mol
# Density = 2.435066 g / cm^3
# Si number density = 24.406207 Si / 1000 Ang^3
#
#
#
# Elastic Constant Matrix: (Units=GPa)
#
#
# Indices 1 2 3 4 5 6 
#
# 1 56.3698 28.8562 31.9378 2.8171 0.1243 -4.2860
# 2 28.8562 111.6849 52.7465 8.1147 -15.0653 -6.6775
# 3 31.9378 52.7465 177.6676 -4.2229 -6.1392 -7.8285
# 4 2.8171 8.1147 -4.2229 40.6371 -5.9058 -6.8017
# 5 0.1243 -15.0653 -6.1392 -5.9058 48.2277 3.7193
# 6 -4.2860 -6.6775 -7.8285 -6.8017 3.7193 30.4714
#
#
#
# Elastic Compliance Matrix: (Units=1/GPa)
#
#
# Indices 1 2 3 4 5 6 
#
# 1 0.021667 -0.004494 -0.002589 -0.000926 -0.002013 0.001437
# 2 -0.004494 0.011954 -0.002653 -0.001807 0.003147 0.000519
# 3 -0.002589 -0.002653 0.006980 0.001661 0.000178 0.001197
# 4 -0.000926 -0.001807 0.001661 0.026487 0.002468 0.005511
# 5 -0.002013 0.003147 0.000178 0.002468 0.022179 -0.001704
# 6 0.001437 0.000519 0.001197 0.005511 -0.001704 0.034879
#
#
# Mechanical properties :
#
#
# Convention : Reuss Voigt Hill
#
# Bulk Modulus (GPa) = 47.32517 63.64481 55.48499
# Shear Modulus (GPa) = 33.18698 39.34601 36.26650
#
# Velocity S-wave (km/s) = 3.69152 4.01949 3.85899
# Velocity P-wave (km/s) = 6.13208 6.90476 6.52986
#
# Compressibility (1/GPa) = 0.02113040
#
# Stress axis : x y z
#
# Youngs Moduli (GPa) = 46.15248 83.65101 143.27152
#
# Poissons Ratio (x) = 0.37592 0.37094
# Poissons Ratio (y) = 0.20740 0.38004
# Poissons Ratio (z) = 0.11949 0.22189
#
# Static dielectric constant tensor:
#      x y z
#    x 2.565750 -0.252960 -0.038560 
#    y -0.252960 2.058610 0.012730 
#    z -0.038560 0.012730 1.949080 
# 
# From -- ./inp_files/209417.got.cif
#   From: 2010.05.17/outbox.cif.g08.bks.cpg/sg2_105_cif.got.tgz:209417.got - 2010.06.03 11:33:40.
