data_PCOD9060261
_publ_section_title
;
Structure prediction by ZEFSAII (Michael W. Deem and Ramdas Pophale) SiO2 
 PCOD9060261
Probable space group: P -1
;
_chemical_formula_sum "Si O2"
_cell_formula_units_Z 16
_cell_length_a 8.716064
_cell_length_b 19.963841
_cell_length_c 5.373139
_cell_angle_alpha 80.160996
_cell_angle_beta 102.340253
_cell_angle_gamma 136.665649
_cell_volume 626.629646
_symmetry_space_group_name_H-M "P -1"
_symmetry_group_IT_number 2
_symmetry_cell_setting 'triclinic'
loop_
_space_group_symop_operation_xyz
x,y,z
-x,-y,-z
loop_
_atom_site_type_symbol
_atom_site_label
_atom_site_fract_x
_atom_site_fract_y
_atom_site_fract_z
Si Si1 0.952733 0.642036 0.007063
Si Si2 0.753201 0.685059 0.514099
Si Si3 0.498291 0.155997 0.339665
Si Si4 0.133387 0.126173 0.491859
Si Si5 0.827098 0.384297 0.220392
Si Si6 0.822372 0.177286 0.758645
Si Si7 0.156617 0.966546 0.041145
Si Si8 0.276663 0.515535 0.622714
O O1 0.753413 0.562385 0.180286
O O2 0.159436 0.751888 0.105160
O O3 0.854066 0.656005 0.738768
O O4 0.058306 0.600362 0.010274
O O5 0.781054 0.769606 0.583636
O O6 0.489097 0.586724 0.467918
O O7 0.918881 0.743388 0.299984
O O8 0.333695 0.135824 0.505667
O O9 0.659796 0.269277 0.268745
O O10 0.651170 0.142493 0.503686
O O11 0.348620 0.079149 0.114321
O O12 0.015461 0.085106 0.747303
O O13 0.962677 0.059339 0.246750
O O14 0.701325 0.414158 0.224538
O O15 0.042579 0.447019 0.436494
O O16 0.761133 0.086000 0.905978
#
# Coordination Sequence:
#
# PCOD9060261 Si02
#       8
#     2   2   2   2   2   2   2   2
#     4  12  22  42  67  96 139 179 244 285 364 424
#     4  11  23  43  68  96 144 189 233 297 355 434
#     4  12  23  48  71 104 144 190 235 302 365 423
#     4  11  25  48  72 111 143 192 246 295 365 439
#     4  11  25  43  66 101 135 178 241 295 359 428
#     4  11  25  45  68 108 142 187 238 295 362 439
#     4  11  26  48  76 107 148 191 242 297 367 439
#     4  11  24  45  65  96 139 182 238 293 364 418
#
# _framework density 25.533425999999999
#
# number of rings (size 3 to 8) (size 9 to 14) (size 15 to 20)
#    0.000    0.750    5.000    1.875    0.000    5.000 
#    0.000    2.500    0.000    0.000    0.000    0.000 
#    0.000    0.000    0.000    0.000    0.000    0.000 
#
# Total GULP energy -89542.998351 kJ/mol
# GULP energy per Si atom -5596.437397 kJ/mol
# Density = 2.547531 g / cm^3
# Si number density = 25.533426 Si / 1000 Ang^3
#
#
#
# Elastic Constant Matrix: (Units=GPa)
#
#
# Indices 1 2 3 4 5 6 
#
# 1 63.8334 64.6129 7.3769 -15.3392 -23.8834 -21.0514
# 2 64.6129 130.1207 27.5020 19.1640 0.8985 19.1557
# 3 7.3769 27.5020 66.1616 -1.3543 -14.2412 12.2717
# 4 -15.3392 19.1640 -1.3543 23.2008 -12.5427 -18.5922
# 5 -23.8834 0.8985 -14.2412 -12.5427 26.8767 -3.2028
# 6 -21.0514 19.1557 12.2717 -18.5922 -3.2028 38.1541
#
#
#
# Elastic Compliance Matrix: (Units=1/GPa)
#
#
# Indices 1 2 3 4 5 6 
#
# 1 0.000546 0.004269 -0.002462 -0.016769 -0.009986 -0.010059
# 2 0.004269 0.003372 -0.001065 0.009632 0.008374 0.006401
# 3 -0.002462 -0.001065 0.018327 -0.003176 0.005143 -0.007834
# 4 -0.016769 0.009632 -0.003176 0.007194 -0.014837 -0.010806
# 5 -0.009986 0.008374 0.005143 -0.014837 0.021856 -0.016763
# 6 -0.010059 0.006401 -0.007834 -0.010806 -0.016763 0.013292
#
#
# Mechanical properties :
#
#
# Convention : Reuss Voigt Hill
#
# Bulk Modulus (GPa) = 42.14565 51.01101 46.57833
# Shear Modulus (GPa) = 70.40881 28.35458 49.38170
#
# Velocity S-wave (km/s) = 5.25690 3.33601 4.40250
# Velocity P-wave (km/s) = 7.30675 5.90425 6.64262
#
# Compressibility (1/GPa) = 0.02372724
#
# Stress axis : x y z
#
# Youngs Moduli (GPa) = 1831.00575 296.56922 54.56457
#
# Poissons Ratio (x) = -1.26597 0.13435
# Poissons Ratio (y) = -7.81606 0.05813
# Poissons Ratio (z) = 4.50846 0.31593
#
# Static dielectric constant tensor:
#      x y z
#    x 2.068130 0.002600 -0.085240 
#    y 0.002600 1.990100 0.000810 
#    z -0.085240 0.000810 2.050110 
# 
# From -- ./inp_files/39233.got.cif
#   From: 2010.05.17/outbox.cif.g08.bks.cpg/sg2_20_cif.got.tgz:39233.got - 2010.06.03 11:33:40.
