data_PCOD9060959
_publ_section_title
;
Structure prediction by ZEFSAII (Michael W. Deem and Ramdas Pophale) SiO2 
 PCOD9060959
Probable space group: P -1
;
_chemical_formula_sum "Si O2"
_cell_formula_units_Z 12
_cell_length_a 7.978617
_cell_length_b 14.344775
_cell_length_c 8.187263
_cell_angle_alpha 122.259879
_cell_angle_beta 37.115734
_cell_angle_gamma 121.483940
_cell_volume 469.503035
_symmetry_space_group_name_H-M "P -1"
_symmetry_group_IT_number 2
_symmetry_cell_setting 'triclinic'
loop_
_space_group_symop_operation_xyz
x,y,z
-x,-y,-z
loop_
_atom_site_type_symbol
_atom_site_label
_atom_site_fract_x
_atom_site_fract_y
_atom_site_fract_z
Si Si1 0.796470 0.587390 0.699611
Si Si2 0.945310 0.797535 0.584947
Si Si3 0.554791 0.090028 0.897290
Si Si4 0.715664 0.111296 0.277516
Si Si5 0.209450 0.247299 0.834238
Si Si6 0.293048 0.463590 0.776714
O O1 0.484417 0.525448 0.833515
O O2 0.000000 0.500000 0.500000
O O3 0.938653 0.669044 0.518484
O O4 0.771685 0.671351 0.945953
O O5 0.130607 0.852436 0.341194
O O6 0.089943 0.868703 0.695184
O O7 0.626710 0.815572 0.837469
O O8 0.420299 0.016042 0.776871
O O9 0.500000 0.000000 0.000000
O O10 0.466602 0.181570 0.559529
O O11 0.917531 0.162079 0.016946
O O12 0.229164 0.332285 0.747365
O O13 0.500000 0.500000 0.500000
O O14 0.000000 0.500000 0.000000
#
# Coordination Sequence:
#
# PCOD9060959 Si02
#       6
#     2   2   2   2   2   2
#     4  11  25  48  76 105 140 186 243 296 345 421
#     4  11  24  44  71 101 132 183 234 284 345 412
#     4  12  26  44  67 103 142 180 225 285 352 420
#     4  11  23  44  70  97 133 178 233 289 339 411
#     4  11  24  44  69  98 132 186 236 283 346 414
#     4  12  26  42  65 102 142 181 227 291 357 416
#
# _framework density 25.558941000000001
#
# number of rings (size 3 to 8) (size 9 to 14) (size 15 to 20)
#    0.000    0.667    0.000    9.000    0.000    9.333 
#    0.000    0.000    0.000    0.000    0.000    0.000 
#    0.000    0.000    0.000    0.000    0.000    0.000 
#
# Total GULP energy -67348.518335 kJ/mol
# GULP energy per Si atom -5612.376528 kJ/mol
# Density = 2.550077 g / cm^3
# Si number density = 25.558941 Si / 1000 Ang^3
#
#
#
# Elastic Constant Matrix: (Units=GPa)
#
#
# Indices 1 2 3 4 5 6 
#
# 1 72.5396 17.4913 21.0875 11.8155 -4.6901 1.0968
# 2 17.4913 90.6994 13.8271 -15.1626 7.1601 -10.5532
# 3 21.0875 13.8271 151.3056 -0.8382 -14.1013 -24.9434
# 4 11.8155 -15.1626 -0.8382 55.8990 -21.6836 -3.3107
# 5 -4.6901 7.1601 -14.1013 -21.6836 42.7182 -3.7952
# 6 1.0968 -10.5532 -24.9434 -3.3107 -3.7952 64.4795
#
#
#
# Elastic Compliance Matrix: (Units=1/GPa)
#
#
# Indices 1 2 3 4 5 6 
#
# 1 0.016167 -0.003754 -0.002397 -0.005039 -0.001135 -0.002142
# 2 -0.003754 0.012792 -0.000275 0.004288 -0.000270 0.002255
# 3 -0.002397 -0.000275 0.007896 0.002235 0.003825 0.003390
# 4 -0.005039 0.004288 0.002235 0.025264 0.012618 0.003692
# 5 -0.001135 -0.000270 0.003825 0.012618 0.031348 0.003948
# 6 -0.002142 0.002255 0.003390 0.003692 0.003948 0.017648
#
#
# Mechanical properties :
#
#
# Convention : Reuss Voigt Hill
#
# Bulk Modulus (GPa) = 41.66341 46.59515 44.12928
# Shear Modulus (GPa) = 37.88732 50.09525 43.99128
#
# Velocity S-wave (km/s) = 3.85431 4.43198 4.15320
# Velocity P-wave (km/s) = 6.01198 6.66783 6.34838
#
# Compressibility (1/GPa) = 0.02400188
#
# Stress axis : x y z
#
# Youngs Moduli (GPa) = 61.85261 78.17358 126.64421
#
# Poissons Ratio (x) = 0.29350 0.30357
# Poissons Ratio (y) = 0.23222 0.03488
# Poissons Ratio (z) = 0.14826 0.02153
#
# Static dielectric constant tensor:
#      x y z
#    x 2.133720 0.000090 0.122930 
#    y 0.000090 1.956150 -0.022760 
#    z 0.122930 -0.022760 1.963680 
# 
# From -- ./inp_files/208590.got.cif
#   From: 2010.05.17/outbox.cif.g08.bks.cpg/sg2_105_cif.got.tgz:208590.got - 2010.06.03 11:33:40.
