data_PCOD9060604
_publ_section_title
;
Structure prediction by ZEFSAII (Michael W. Deem and Ramdas Pophale) SiO2 
 PCOD9060604
Probable space group: P -1
;
_chemical_formula_sum "Si O2"
_cell_formula_units_Z 16
_cell_length_a 13.932855
_cell_length_b 19.114624
_cell_length_c 13.212016
_cell_angle_alpha 25.812336
_cell_angle_beta 135.403790
_cell_angle_gamma 152.001033
_cell_volume 657.627490
_symmetry_space_group_name_H-M "P -1"
_symmetry_group_IT_number 2
_symmetry_cell_setting 'triclinic'
loop_
_space_group_symop_operation_xyz
x,y,z
-x,-y,-z
loop_
_atom_site_type_symbol
_atom_site_label
_atom_site_fract_x
_atom_site_fract_y
_atom_site_fract_z
Si Si1 0.456049 0.341582 0.020683
Si Si2 0.054456 0.719689 0.493891
Si Si3 0.278276 0.494269 0.796346
Si Si4 0.800047 0.813414 0.512695
Si Si5 0.247731 0.328749 0.555533
Si Si6 0.541064 0.048405 0.795929
Si Si7 0.848198 0.086672 0.902370
Si Si8 0.815031 0.206902 0.992469
O O1 0.332901 0.384797 0.915859
O O2 0.591479 0.528085 0.780531
O O3 0.633050 0.455568 0.090998
O O4 0.276460 0.030223 0.281850
O O5 0.037597 0.735804 0.340987
O O6 0.841504 0.595330 0.556238
O O7 0.049672 0.523071 0.761606
O O8 0.391669 0.748650 0.494180
O O9 0.014296 0.279009 0.869499
O O10 0.861669 0.787820 0.485934
O O11 0.000000 0.000000 0.500000
O O12 0.764526 0.969250 0.259206
O O13 0.500000 0.500000 0.500000
O O14 0.165592 0.115469 0.848825
O O15 0.610069 0.947390 0.924465
O O16 0.682672 0.169774 0.848778
O O17 0.294876 0.850778 0.906589
#
# Coordination Sequence:
#
# PCOD9060604 Si02
#       8
#     2   2   2   2   2   2   2   2
#     4  11  26  46  72 104 145 194 238 298 361 437
#     4  12  27  45  71 113 148 186 240 317 366 418
#     4  11  23  43  74 100 140 189 247 284 357 437
#     4  12  27  50  79 104 146 201 247 287 364 457
#     4  12  26  43  69 107 150 191 241 305 364 432
#     4  11  23  43  74 107 141 192 244 305 349 441
#     4  12  23  41  73 106 142 187 248 297 363 426
#     4  11  25  45  74 111 146 188 245 301 370 430
#
# _framework density 24.329884
#
# number of rings (size 3 to 8) (size 9 to 14) (size 15 to 20)
#    0.000    0.500    5.000    3.000    5.250    0.000 
#    0.000    6.250    0.000    0.000    0.000    0.000 
#    0.000    0.000    0.000    0.000    0.000    0.000 
#
# Total GULP energy -89431.762573 kJ/mol
# GULP energy per Si atom -5589.485161 kJ/mol
# Density = 2.427451 g / cm^3
# Si number density = 24.329884 Si / 1000 Ang^3
#
#
#
# Elastic Constant Matrix: (Units=GPa)
#
#
# Indices 1 2 3 4 5 6 
#
# 1 108.5792 1.0075 12.8090 8.5159 -3.2953 -6.8913
# 2 1.0075 71.9709 -0.7988 6.5159 -4.5173 -5.9046
# 3 12.8090 -0.7988 125.1370 6.6565 -6.0744 -6.0006
# 4 8.5159 6.5159 6.6565 33.4393 -7.7180 -3.7442
# 5 -3.2953 -4.5173 -6.0744 -7.7180 42.2369 -3.8278
# 6 -6.8913 -5.9046 -6.0006 -3.7442 -3.8278 21.7178
#
#
#
# Elastic Compliance Matrix: (Units=1/GPa)
#
#
# Indices 1 2 3 4 5 6 
#
# 1 0.009633 0.000290 -0.000724 -0.001931 0.000570 0.002703
# 2 0.000290 0.014527 0.000452 -0.002165 0.001615 0.004078
# 3 -0.000724 0.000452 0.008287 -0.001029 0.001197 0.002216
# 4 -0.001931 -0.002165 -0.001029 0.032991 0.005974 0.005255
# 5 0.000570 0.001615 0.001197 0.005974 0.025748 0.006519
# 6 0.002703 0.004078 0.002216 0.005255 0.006519 0.050679
#
#
# Mechanical properties :
#
#
# Convention : Reuss Voigt Hill
#
# Bulk Modulus (GPa) = 30.78544 36.85804 33.82174
# Shear Modulus (GPa) = 32.75303 38.99008 35.87155
#
# Velocity S-wave (km/s) = 3.67305 4.00754 3.84393
# Velocity P-wave (km/s) = 5.53798 6.04946 5.79936
#
# Compressibility (1/GPa) = 0.03248289
#
# Stress axis : x y z
#
# Youngs Moduli (GPa) = 103.81058 68.83526 120.66570
#
# Poissons Ratio (x) = -0.01993 0.08738
# Poissons Ratio (y) = -0.03005 -0.05457
# Poissons Ratio (z) = 0.07517 -0.03113
#
# Static dielectric constant tensor:
#      x y z
#    x 1.949930 0.023900 -0.015290 
#    y 0.023900 1.965800 -0.067330 
#    z -0.015290 -0.067330 1.907800 
# 
# From -- ./inp_files/456919.got.cif
#   From: 2010.05.17/outbox.cif.g08.bks.cpg/sg2_229_cif.got.tgz:456919.got - 2010.06.03 11:33:40.
