data_PCOD9060462
_publ_section_title
;
Structure prediction by ZEFSAII (Michael W. Deem and Ramdas Pophale) SiO2 
 PCOD9060462
Probable space group: P -1
;
_chemical_formula_sum "Si O2"
_cell_formula_units_Z 16
_cell_length_a 8.406735
_cell_length_b 16.851696
_cell_length_c 15.598235
_cell_angle_alpha 156.401705
_cell_angle_beta 53.808995
_cell_angle_gamma 129.422332
_cell_volume 683.093545
_symmetry_space_group_name_H-M "P -1"
_symmetry_group_IT_number 2
_symmetry_cell_setting 'triclinic'
loop_
_space_group_symop_operation_xyz
x,y,z
-x,-y,-z
loop_
_atom_site_type_symbol
_atom_site_label
_atom_site_fract_x
_atom_site_fract_y
_atom_site_fract_z
Si Si1 0.173134 0.563958 0.081980
Si Si2 0.480517 0.272035 0.000395
Si Si3 0.301677 0.607212 0.378741
Si Si4 0.629028 0.082600 0.919736
Si Si5 0.636940 0.737294 0.689105
Si Si6 0.901069 0.736968 0.038644
Si Si7 0.922995 0.102815 0.207310
Si Si8 0.289584 0.893131 0.508480
O O1 0.149170 0.729119 0.323935
O O2 0.393117 0.661308 0.061838
O O3 0.165659 0.371939 0.955968
O O4 0.000000 0.500000 0.000000
O O5 0.454968 0.492621 0.259732
O O6 0.612784 0.162053 0.908269
O O7 0.262837 0.094921 0.899370
O O8 0.177715 0.707598 0.584639
O O9 0.356059 0.786347 0.465760
O O10 0.187763 0.420255 0.165972
O O11 0.856937 0.205242 0.996863
O O12 0.609829 0.846632 0.716359
O O13 0.458963 0.148200 0.093888
O O14 0.500000 0.500000 0.500000
O O15 0.879010 0.794011 0.692828
O O16 0.829437 0.941426 0.269603
O O17 0.000000 0.000000 0.000000
O O18 0.500000 0.000000 0.500000
#
# Coordination Sequence:
#
# PCOD9060462 Si02
#       8
#     2   2   2   2   2   2   2   2
#     4  11  24  44  71 108 150 188 240 296 363 430
#     4  12  25  47  69 107 150 187 241 304 361 434
#     4  11  24  42  73  99 140 191 241 292 361 435
#     4  11  24  45  70 102 146 187 239 301 365 430
#     4  11  25  48  74 100 139 193 245 299 366 442
#     4  11  23  46  74 106 145 198 243 295 360 443
#     4  12  26  49  73 107 143 188 243 309 365 428
#     4  11  23  43  71 103 142 196 243 296 355 429
#
# _framework density 23.422851999999999
#
# number of rings (size 3 to 8) (size 9 to 14) (size 15 to 20)
#    0.000    0.750    2.500    5.250    0.000    6.000 
#    2.250    0.000    0.000    0.000    0.000    0.000 
#    0.000    0.000    0.000    0.000    0.000    0.000 
#
# Total GULP energy -89268.014442 kJ/mol
# GULP energy per Si atom -5579.250903 kJ/mol
# Density = 2.336954 g / cm^3
# Si number density = 23.422852 Si / 1000 Ang^3
#
#
#
# Elastic Constant Matrix: (Units=GPa)
#
#
# Indices 1 2 3 4 5 6 
#
# 1 56.4868 4.1699 24.0930 10.1173 4.8133 2.1545
# 2 4.1699 73.0880 25.7417 16.9965 3.9827 12.8463
# 3 24.0930 25.7417 140.8273 5.1016 -4.6661 -10.5649
# 4 10.1173 16.9965 5.1016 46.4141 -4.8482 -4.3848
# 5 4.8133 3.9827 -4.6661 -4.8482 30.7118 0.1033
# 6 2.1545 12.8463 -10.5649 -4.3848 0.1033 41.4456
#
#
#
# Elastic Compliance Matrix: (Units=1/GPa)
#
#
# Indices 1 2 3 4 5 6 
#
# 1 0.020990 0.002618 -0.004298 -0.005947 -0.005209 -0.003615
# 2 0.002618 0.018571 -0.004292 -0.008134 -0.004728 -0.007835
# 3 -0.004298 -0.004292 0.008942 0.002215 0.002925 0.004060
# 4 -0.005947 -0.008134 0.002215 0.026847 0.006541 0.006219
# 5 -0.005209 -0.004728 0.002925 0.006541 0.035457 0.003086
# 6 -0.003615 -0.007835 0.004060 0.006219 0.003086 0.028430
#
#
# Mechanical properties :
#
#
# Convention : Reuss Voigt Hill
#
# Bulk Modulus (GPa) = 27.35289 42.04570 34.69929
# Shear Modulus (GPa) = 30.60599 38.14081 34.37340
#
# Velocity S-wave (km/s) = 3.61871 4.03967 3.83497
# Velocity P-wave (km/s) = 5.40031 6.30462 5.86991
#
# Compressibility (1/GPa) = 0.03655921
#
# Stress axis : x y z
#
# Youngs Moduli (GPa) = 47.64151 53.84815 111.83107
#
# Poissons Ratio (x) = -0.14100 0.48064
# Poissons Ratio (y) = -0.12474 0.48001
# Poissons Ratio (z) = 0.20476 0.23113
#
# Static dielectric constant tensor:
#      x y z
#    x 2.058230 -0.056320 -0.043100 
#    y -0.056320 1.906500 0.010930 
#    z -0.043100 0.010930 1.921300 
# 
# From -- ./inp_files/562123.got.cif
#   From: 2010.05.17/outbox.cif.g08.bks.cpg/sg2_282_cif.got.tgz:562123.got - 2010.06.03 11:33:40.
