data_PCOD9060815
_publ_section_title
;
Structure prediction by ZEFSAII (Michael W. Deem and Ramdas Pophale) SiO2 
 PCOD9060815
Probable space group: P -1
;
_chemical_formula_sum "Si O2"
_cell_formula_units_Z 15
_cell_length_a 9.053605
_cell_length_b 11.753146
_cell_length_c 8.947699
_cell_angle_alpha 83.188875
_cell_angle_beta 88.689785
_cell_angle_gamma 40.592527
_cell_volume 611.806370
_symmetry_space_group_name_H-M "P -1"
_symmetry_group_IT_number 2
_symmetry_cell_setting 'triclinic'
loop_
_space_group_symop_operation_xyz
x,y,z
-x,-y,-z
loop_
_atom_site_type_symbol
_atom_site_label
_atom_site_fract_x
_atom_site_fract_y
_atom_site_fract_z
Si Si1 0.103436 0.123022 0.233569
Si Si2 0.442233 0.260473 0.773477
Si Si3 0.140474 0.641862 0.290516
Si Si4 0.591089 0.457425 0.172602
Si Si5 0.000000 0.500000 0.500000
Si Si6 0.599855 0.813694 0.544498
Si Si7 0.874742 0.967144 0.434305
Si Si8 0.128536 0.308987 0.980719
O O1 0.839200 0.253809 0.193536
O O2 0.122303 0.119869 0.410812
O O3 0.176318 0.192346 0.130344
O O4 0.287377 0.917065 0.219145
O O5 0.383359 0.424544 0.794676
O O6 0.338036 0.279553 0.610217
O O7 0.347514 0.226090 0.899843
O O8 0.406868 0.509898 0.279691
O O9 0.077292 0.584391 0.422724
O O10 0.012958 0.832425 0.317015
O O11 0.030438 0.666182 0.134549
O O12 0.500000 0.500000 0.000000
O O13 0.850329 0.644674 0.625293
O O14 0.500000 0.000000 0.500000
O O15 0.396076 0.862751 0.616390
O O16 0.000000 0.000000 0.500000
O O17 0.000000 0.500000 0.000000
#
# Coordination Sequence:
#
# PCOD9060815 Si02
#       8
#     2   2   2   2   1   2   2   2
#     4  11  26  45  76 101 144 192 242 289 375 413
#     4  11  24  45  73 102 142 189 241 296 353 428
#     4  12  26  45  74 106 147 188 241 301 357 432
#     4  12  26  50  69 106 145 188 244 297 355 438
#     4  12  26  42  76 104 144 194 238 284 382 406
#     4  11  23  44  68 103 142 179 240 294 345 436
#     4  11  26  49  69 108 146 186 241 301 357 436
#     4  12  23  46  73 106 146 190 242 301 348 433
#
# _framework density 24.517562999999999
#
# number of rings (size 3 to 8) (size 9 to 14) (size 15 to 20)
#    0.000    0.533    5.333    2.000    5.600    1.067 
#    2.400    2.667    0.000    0.000    0.000    0.000 
#    0.000    0.000    0.000    0.000    0.000    0.000 
#
# Total GULP energy -83712.133143 kJ/mol
# GULP energy per Si atom -5580.808876 kJ/mol
# Density = 2.446176 g / cm^3
# Si number density = 24.517563 Si / 1000 Ang^3
#
#
#
# Elastic Constant Matrix: (Units=GPa)
#
#
# Indices 1 2 3 4 5 6 
#
# 1 146.4544 25.8713 15.4911 15.8692 -14.2226 -6.5990
# 2 25.8713 103.7924 8.7574 25.7542 2.9074 -7.6994
# 3 15.4911 8.7574 84.0670 9.5766 -0.2859 10.4831
# 4 15.8692 25.7542 9.5766 37.3752 3.9991 -2.2180
# 5 -14.2226 2.9074 -0.2859 3.9991 44.8221 13.7747
# 6 -6.5990 -7.6994 10.4831 -2.2180 13.7747 63.1412
#
#
#
# Elastic Compliance Matrix: (Units=1/GPa)
#
#
# Indices 1 2 3 4 5 6 
#
# 1 0.007692 -0.001304 -0.001019 -0.002385 0.002687 0.000144
# 2 -0.001304 0.011952 -0.000327 -0.007420 -0.000934 0.001319
# 3 -0.001019 -0.000327 0.012762 -0.002850 0.000815 -0.002543
# 4 -0.002385 -0.007420 -0.002850 0.034092 -0.003745 0.001334
# 5 0.002687 -0.000934 0.000815 -0.003745 0.025289 -0.005617
# 6 0.000144 0.001319 -0.002543 0.001334 -0.005617 0.017708
#
#
# Mechanical properties :
#
#
# Convention : Reuss Voigt Hill
#
# Bulk Modulus (GPa) = 36.89153 48.28372 42.58763
# Shear Modulus (GPa) = 40.37776 48.01398 44.19587
#
# Velocity S-wave (km/s) = 4.06259 4.43013 4.25033
# Velocity P-wave (km/s) = 6.08982 6.77527 6.44167
#
# Compressibility (1/GPa) = 0.02710649
#
# Stress axis : x y z
#
# Youngs Moduli (GPa) = 130.00307 83.66454 78.35994
#
# Poissons Ratio (x) = 0.10911 0.07982
# Poissons Ratio (y) = 0.16954 0.02563
# Poissons Ratio (z) = 0.13243 0.02737
#
# Static dielectric constant tensor:
#      x y z
#    x 2.107670 -0.171060 -0.003270 
#    y -0.171060 2.321510 0.008550 
#    z -0.003270 0.008550 1.894890 
# 
# From -- ./inp_files/187577.got.cif
#   From: 2010.05.17/outbox.cif.g08.bks.cpg/sg2_94_cif.got.tgz:187577.got - 2010.06.03 11:33:40.
