data_PCOD9060605
_publ_section_title
;
Structure prediction by ZEFSAII (Michael W. Deem and Ramdas Pophale) SiO2 
 PCOD9060605
Probable space group: P -1
;
_chemical_formula_sum "Si O2"
_cell_formula_units_Z 16
_cell_length_a 4.899961
_cell_length_b 9.036009
_cell_length_c 17.506230
_cell_angle_alpha 97.918678
_cell_angle_beta 122.493102
_cell_angle_gamma 72.241670
_cell_volume 622.289749
_symmetry_space_group_name_H-M "P -1"
_symmetry_group_IT_number 2
_symmetry_cell_setting 'triclinic'
loop_
_space_group_symop_operation_xyz
x,y,z
-x,-y,-z
loop_
_atom_site_type_symbol
_atom_site_label
_atom_site_fract_x
_atom_site_fract_y
_atom_site_fract_z
Si Si1 0.334737 0.304000 0.407920
Si Si2 0.723547 0.200444 0.302436
Si Si3 0.159911 0.461379 0.922088
Si Si4 0.928223 0.323373 0.608602
Si Si5 0.441970 0.523204 0.818757
Si Si6 0.774117 0.982336 0.841223
Si Si7 0.327400 0.770873 0.280517
Si Si8 0.399080 0.859700 0.013334
O O1 0.498480 0.269972 0.346632
O O2 0.638541 0.286850 0.511534
O O3 0.128135 0.488954 0.393221
O O4 0.110278 0.185026 0.382694
O O5 0.696790 0.325889 0.240851
O O6 0.548455 0.075955 0.232810
O O7 0.173938 0.497140 0.836609
O O8 0.796047 0.540710 0.906470
O O9 0.500000 0.500000 0.000000
O O10 0.268329 0.279609 0.941769
O O11 0.881628 0.268981 0.683909
O O12 0.302751 0.231799 0.632635
O O13 0.571822 0.372313 0.774251
O O14 0.089544 0.844283 0.911688
O O15 0.835600 0.074884 0.782158
O O16 0.710086 0.096983 0.912911
O O17 0.500000 0.000000 0.000000
#
# Coordination Sequence:
#
# PCOD9060605 Si02
#       8
#     2   2   2   2   2   2   2   2
#     4  11  23  44  70 106 134 171 221 279 339 400
#     4  12  25  43  69 102 139 176 219 278 339 395
#     4  12  26  42  66  95 132 170 227 285 330 381
#     4  11  23  43  74 101 134 173 222 279 336 400
#     4  12  23  42  66  98 129 169 229 275 328 385
#     4  11  28  44  66  97 139 182 224 272 336 404
#     4  12  23  44  69 100 130 179 224 272 326 401
#     4  11  26  46  66  93 134 185 227 271 334 401
#
# _framework density 25.711497000000001
#
# number of rings (size 3 to 8) (size 9 to 14) (size 15 to 20)
#    0.000    0.500    3.750    4.125    7.000    2.000 
#    0.000    3.750    0.000    0.000    0.000    0.000 
#    0.000    0.000    0.000    0.000    0.000    0.000 
#
# Total GULP energy -89622.501605 kJ/mol
# GULP energy per Si atom -5601.406350 kJ/mol
# Density = 2.565298 g / cm^3
# Si number density = 25.711497 Si / 1000 Ang^3
#
#
#
# Elastic Constant Matrix: (Units=GPa)
#
#
# Indices 1 2 3 4 5 6 
#
# 1 125.1903 10.2457 20.7291 8.8807 4.7461 15.0509
# 2 10.2457 57.5193 30.2243 0.7530 -5.9090 22.6501
# 3 20.7291 30.2243 123.1499 15.5006 17.3161 10.6418
# 4 8.8807 0.7530 15.5006 37.3224 15.1305 6.9970
# 5 4.7461 -5.9090 17.3161 15.1305 50.7546 4.0612
# 6 15.0509 22.6501 10.6418 6.9970 4.0612 41.0571
#
#
#
# Elastic Compliance Matrix: (Units=1/GPa)
#
#
# Indices 1 2 3 4 5 6 
#
# 1 0.008567 0.000195 -0.001132 -0.001117 0.000163 -0.002780
# 2 0.000195 0.026948 -0.006536 0.002460 0.005755 -0.014233
# 3 -0.001132 -0.006536 0.010604 -0.002958 -0.003561 0.002128
# 4 -0.001117 0.002460 -0.002958 0.032342 -0.007848 -0.004916
# 5 0.000163 0.005755 -0.003561 -0.007848 0.024181 -0.003366
# 6 -0.002780 -0.014233 0.002128 -0.004916 -0.003366 0.033846
#
#
# Mechanical properties :
#
#
# Convention : Reuss Voigt Hill
#
# Bulk Modulus (GPa) = 32.07777 47.58418 39.83097
# Shear Modulus (GPa) = 30.89773 42.13750 36.51762
#
# Velocity S-wave (km/s) = 3.47033 4.05267 3.77275
# Velocity P-wave (km/s) = 5.34422 6.35972 5.87396
#
# Compressibility (1/GPa) = 0.03117424
#
# Stress axis : x y z
#
# Youngs Moduli (GPa) = 116.73207 37.10791 94.30511
#
# Poissons Ratio (x) = -0.00724 0.10675
# Poissons Ratio (y) = -0.02278 0.61634
# Poissons Ratio (z) = 0.13214 0.24252
#
# Static dielectric constant tensor:
#      x y z
#    x 1.993950 -0.018290 0.080730 
#    y -0.018290 2.152030 0.153070 
#    z 0.080730 0.153070 2.238880 
# 
# From -- ./inp_files/55382.got.cif
#   From: 2010.05.17/outbox.cif.g08.bks.cpg/sg2_28_cif.got.tgz:55382.got - 2010.06.03 11:33:40.
