data_PCOD9060777
_publ_section_title
;
Structure prediction by ZEFSAII (Michael W. Deem and Ramdas Pophale) SiO2 
 PCOD9060777
Probable space group: P -1
;
_chemical_formula_sum "Si O2"
_cell_formula_units_Z 16
_cell_length_a 12.984233
_cell_length_b 9.477399
_cell_length_c 16.959501
_cell_angle_alpha 48.583665
_cell_angle_beta 45.526037
_cell_angle_gamma 29.257544
_cell_volume 720.214108
_symmetry_space_group_name_H-M "P -1"
_symmetry_group_IT_number 2
_symmetry_cell_setting 'triclinic'
loop_
_space_group_symop_operation_xyz
x,y,z
-x,-y,-z
loop_
_atom_site_type_symbol
_atom_site_label
_atom_site_fract_x
_atom_site_fract_y
_atom_site_fract_z
Si Si1 0.433592 0.113687 0.904253
Si Si2 0.608386 0.211443 0.585787
Si Si3 0.043651 0.303098 0.790884
Si Si4 0.765913 0.125171 0.693319
Si Si5 0.152454 0.370228 0.388941
Si Si6 0.146474 0.519072 0.783841
Si Si7 0.599124 0.551706 0.987091
Si Si8 0.491601 0.367569 0.244260
O O1 0.614006 0.093212 0.798700
O O2 0.193253 0.426437 0.885380
O O3 0.500000 0.000000 0.000000
O O4 0.478649 0.872616 0.924730
O O5 0.500000 0.500000 0.500000
O O6 0.784096 0.105240 0.596882
O O7 0.395591 0.315703 0.697137
O O8 0.715819 0.956813 0.563641
O O9 0.963766 0.492273 0.685225
O O10 0.069902 0.420956 0.806605
O O11 0.856752 0.339897 0.906760
O O12 0.271944 0.974307 0.763066
O O13 0.622333 0.444639 0.683423
O O14 0.986653 0.855410 0.725095
O O15 0.311980 0.394976 0.298599
O O16 0.000000 0.500000 0.500000
O O17 0.539408 0.512810 0.116436
O O18 0.500000 0.500000 0.000000
#
# Coordination Sequence:
#
# PCOD9060777 Si02
#       8
#     2   2   2   2   2   2   2   2
#     4  11  23  44  67 105 147 181 242 297 356 437
#     4  11  26  48  74 103 143 190 252 304 370 438
#     4  12  24  48  75 105 149 197 241 303 375 436
#     4  11  25  46  69 106 147 187 246 300 366 440
#     4  12  28  48  73 108 148 189 249 310 366 438
#     4  11  23  45  76  98 147 201 234 304 372 433
#     4  12  23  46  75 106 146 194 243 300 367 450
#     4  12  27  45  70 111 146 187 249 303 365 440
#
# _framework density 22.215616000000001
#
# number of rings (size 3 to 8) (size 9 to 14) (size 15 to 20)
#    0.000    0.500    6.250    1.875    3.500    3.500 
#    0.000    0.000    0.000    0.000    0.000    0.000 
#    0.000    0.000    0.000    0.000    0.000    0.000 
#
# Total GULP energy -89279.871934 kJ/mol
# GULP energy per Si atom -5579.991996 kJ/mol
# Density = 2.216505 g / cm^3
# Si number density = 22.215616 Si / 1000 Ang^3
#
#
#
# Elastic Constant Matrix: (Units=GPa)
#
#
# Indices 1 2 3 4 5 6 
#
# 1 93.7608 23.0142 37.2385 -0.2767 1.5999 -9.7414
# 2 23.0142 95.6790 26.9318 -4.4380 -3.0041 -1.5261
# 3 37.2385 26.9318 80.2903 1.8389 5.1325 -11.1403
# 4 -0.2767 -4.4380 1.8389 42.6699 -2.0518 -3.6796
# 5 1.5999 -3.0041 5.1325 -2.0518 22.0400 -5.8075
# 6 -9.7414 -1.5261 -11.1403 -3.6796 -5.8075 38.7015
#
#
#
# Elastic Compliance Matrix: (Units=1/GPa)
#
#
# Indices 1 2 3 4 5 6 
#
# 1 0.013420 -0.001625 -0.005467 0.000343 0.000600 0.001863
# 2 -0.001625 0.011977 -0.003522 0.001476 0.002597 -0.000420
# 3 -0.005467 -0.003522 0.016788 -0.001054 -0.003377 0.002711
# 4 0.000343 0.001476 -0.001054 0.024025 0.003351 0.002628
# 5 0.000600 0.002597 -0.003377 0.003351 0.048597 0.006892
# 6 0.001863 -0.000420 0.002711 0.002628 0.006892 0.028355
#
#
# Mechanical properties :
#
#
# Convention : Reuss Voigt Hill
#
# Bulk Modulus (GPa) = 47.71584 49.34435 48.53009
# Shear Modulus (GPa) = 29.17583 32.85198 31.01391
#
# Velocity S-wave (km/s) = 3.62788 3.84966 3.74042
# Velocity P-wave (km/s) = 6.25091 6.48226 6.36763
#
# Compressibility (1/GPa) = 0.02095740
#
# Stress axis : x y z
#
# Youngs Moduli (GPa) = 74.51683 83.49264 59.56690
#
# Poissons Ratio (x) = 0.13564 0.32565
# Poissons Ratio (y) = 0.12106 0.20980
# Poissons Ratio (z) = 0.40738 0.29407
#
# Static dielectric constant tensor:
#      x y z
#    x 1.870970 -0.025840 0.090430 
#    y -0.025840 1.818450 -0.029660 
#    z 0.090430 -0.029660 1.863400 
# 
# From -- ./inp_files/566537.got.cif
#   From: 2010.05.17/outbox.cif.g08.bks.cpg/sg2_284_cif.got.tgz:566537.got - 2010.06.03 11:33:40.
