data_PCOD9060897
_publ_section_title
;
Structure prediction by ZEFSAII (Michael W. Deem and Ramdas Pophale) SiO2 
 PCOD9060897
Probable space group: P -1
;
_chemical_formula_sum "Si O2"
_cell_formula_units_Z 16
_cell_length_a 9.796025
_cell_length_b 8.533563
_cell_length_c 12.859447
_cell_angle_alpha 54.921333
_cell_angle_beta 122.941121
_cell_angle_gamma 106.410059
_cell_volume 737.590256
_symmetry_space_group_name_H-M "P -1"
_symmetry_group_IT_number 2
_symmetry_cell_setting 'triclinic'
loop_
_space_group_symop_operation_xyz
x,y,z
-x,-y,-z
loop_
_atom_site_type_symbol
_atom_site_label
_atom_site_fract_x
_atom_site_fract_y
_atom_site_fract_z
Si Si1 0.876704 0.054216 0.836550
Si Si2 0.513491 0.197273 0.678532
Si Si3 0.684498 0.431888 0.081864
Si Si4 0.352483 0.965054 0.874598
Si Si5 0.055948 0.241309 0.676592
Si Si6 0.847633 0.648478 0.898103
Si Si7 0.458850 0.385762 0.365736
Si Si8 0.214642 0.642521 0.617135
O O1 0.882573 0.872189 0.831035
O O2 0.694727 0.101599 0.782154
O O3 0.939571 0.236498 0.730486
O O4 0.000000 0.000000 0.000000
O O5 0.401413 0.056370 0.749392
O O6 0.455605 0.251275 0.517521
O O7 0.518991 0.397744 0.666911
O O8 0.761812 0.362219 0.248477
O O9 0.678159 0.256741 0.066449
O O10 0.500000 0.500000 0.000000
O O11 0.778611 0.599164 0.002533
O O12 0.190616 0.072928 0.806344
O O13 0.500000 0.000000 0.000000
O O14 0.155660 0.432971 0.639097
O O15 0.934598 0.222145 0.536702
O O16 0.704867 0.619456 0.767027
O O17 0.000000 0.500000 0.000000
O O18 0.615190 0.324951 0.382587
#
# Coordination Sequence:
#
# PCOD9060897 Si02
#       8
#     2   2   2   2   2   2   2   2
#     4  12  24  42  66  99 132 169 223 270 323 398
#     4  11  24  41  69  99 126 181 214 266 337 387
#     4  12  24  42  69  95 132 179 219 266 334 388
#     4  12  24  42  67  99 134 169 220 273 322 394
#     4  11  24  43  68  95 133 176 216 268 329 385
#     4  12  26  44  68  99 135 174 216 279 332 384
#     4  11  23  45  68  96 139 168 219 273 330 394
#     4  11  23  44  69  96 136 173 219 272 323 398
#
# _framework density 21.692260000000001
#
# number of rings (size 3 to 8) (size 9 to 14) (size 15 to 20)
#    0.000    0.500    3.750    5.250    0.000    3.000 
#    0.000    0.000    0.000    0.000    0.000    0.000 
#    0.000    0.000    0.000    0.000    0.000    0.000 
#
# Total GULP energy -89569.080573 kJ/mol
# GULP energy per Si atom -5598.067536 kJ/mol
# Density = 2.164289 g / cm^3
# Si number density = 21.692260 Si / 1000 Ang^3
#
#
#
# Elastic Constant Matrix: (Units=GPa)
#
#
# Indices 1 2 3 4 5 6 
#
# 1 80.5495 -2.7070 3.9548 5.3506 0.2939 11.2177
# 2 -2.7070 42.5488 16.9482 4.5317 16.7410 1.3462
# 3 3.9548 16.9482 122.3186 33.7435 4.3250 10.4782
# 4 5.3506 4.5317 33.7435 38.8193 3.3074 1.5949
# 5 0.2939 16.7410 4.3250 3.3074 49.1869 -10.5564
# 6 11.2177 1.3462 10.4782 1.5949 -10.5564 29.5002
#
#
#
# Elastic Compliance Matrix: (Units=1/GPa)
#
#
# Indices 1 2 3 4 5 6 
#
# 1 0.013419 0.001813 0.000453 -0.002054 -0.001866 -0.005903
# 2 0.001813 0.029312 -0.003465 0.000444 -0.010711 -0.004653
# 3 0.000453 -0.003465 0.011594 -0.009591 0.000029 -0.003604
# 4 -0.002054 0.000444 -0.009591 0.034353 -0.001202 0.001880
# 5 -0.001866 -0.010711 0.000029 -0.001202 0.026359 0.010685
# 6 -0.005903 -0.004653 -0.003604 0.001880 0.010685 0.041357
#
#
# Mechanical properties :
#
#
# Convention : Reuss Voigt Hill
#
# Bulk Modulus (GPa) = 19.25799 31.31211 25.28505
# Shear Modulus (GPa) = 28.39260 38.64933 33.52096
#
# Velocity S-wave (km/s) = 3.62177 4.22561 3.93529
# Velocity P-wave (km/s) = 5.13680 6.18658 5.68597
#
# Compressibility (1/GPa) = 0.05192649
#
# Stress axis : x y z
#
# Youngs Moduli (GPa) = 74.52300 34.11531 86.24970
#
# Poissons Ratio (x) = -0.06184 -0.03908
# Poissons Ratio (y) = -0.13510 0.29888
# Poissons Ratio (z) = -0.03377 0.11822
#
# Static dielectric constant tensor:
#      x y z
#    x 1.750580 0.000350 -0.022690 
#    y 0.000350 1.782350 -0.007060 
#    z -0.022690 -0.007060 1.780530 
# 
# From -- ./inp_files/185070.got.cif
#   From: 2010.05.17/outbox.cif.g08.bks.cpg/sg2_93_cif.got.tgz:185070.got - 2010.06.03 11:33:40.
