data_PCOD9060435
_publ_section_title
;
Structure prediction by ZEFSAII (Michael W. Deem and Ramdas Pophale) SiO2 
 PCOD9060435
Probable space group: P -1
;
_chemical_formula_sum "Si O2"
_cell_formula_units_Z 12
_cell_length_a 11.206570
_cell_length_b 8.863264
_cell_length_c 10.007971
_cell_angle_alpha 117.687306
_cell_angle_beta 82.638399
_cell_angle_gamma 138.355422
_cell_volume 542.866580
_symmetry_space_group_name_H-M "P -1"
_symmetry_group_IT_number 2
_symmetry_cell_setting 'triclinic'
loop_
_space_group_symop_operation_xyz
x,y,z
-x,-y,-z
loop_
_atom_site_type_symbol
_atom_site_label
_atom_site_fract_x
_atom_site_fract_y
_atom_site_fract_z
Si Si1 0.904791 0.551628 0.456135
Si Si2 0.393074 0.696928 0.380653
Si Si3 0.167749 0.505171 0.069019
Si Si4 0.741691 0.844566 0.465588
Si Si5 0.770782 0.046614 0.820230
Si Si6 0.658903 0.374791 0.194553
O O1 0.762467 0.482361 0.552982
O O2 0.765823 0.357752 0.269328
O O3 0.000000 0.500000 0.500000
O O4 0.077168 0.859593 0.504845
O O5 0.281038 0.560107 0.201329
O O6 0.551406 0.727718 0.390136
O O7 0.500000 0.000000 0.500000
O O8 0.166375 0.709391 0.164337
O O9 0.279633 0.587246 0.949880
O O10 0.947366 0.199768 0.955860
O O11 0.737862 0.645130 0.342562
O O12 0.745114 0.879941 0.638897
O O13 0.569678 0.867452 0.846914
#
# Coordination Sequence:
#
# PCOD9060435 Si02
#       6
#     2   2   2   2   2   2
#     4  12  24  41  73 103 135 182 232 280 335 412
#     4  12  24  45  69 102 139 180 229 282 342 411
#     4  11  25  43  69 105 139 176 235 287 335 411
#     4  12  25  45  73 103 140 183 230 281 347 411
#     4  11  23  43  70  99 139 184 229 276 342 410
#     4  12  26  44  74 103 139 182 232 283 345 408
#
# _framework density 22.104877999999999
#
# number of rings (size 3 to 8) (size 9 to 14) (size 15 to 20)
#    0.000    0.333    6.667    1.500    2.333    2.000 
#    0.000    1.667    0.000    0.000    0.000    0.000 
#    0.000    0.000    0.000    0.000    0.000    0.000 
#
# Total GULP energy -67238.594544 kJ/mol
# GULP energy per Si atom -5603.216212 kJ/mol
# Density = 2.205457 g / cm^3
# Si number density = 22.104878 Si / 1000 Ang^3
#
#
#
# Elastic Constant Matrix: (Units=GPa)
#
#
# Indices 1 2 3 4 5 6 
#
# 1 104.0374 43.9473 46.0674 1.7776 23.6200 14.0367
# 2 43.9473 103.9844 41.4251 -3.9116 24.2179 44.8276
# 3 46.0674 41.4251 151.6493 -10.1157 30.5339 16.5902
# 4 1.7776 -3.9116 -10.1157 35.0296 1.4097 -6.9026
# 5 23.6200 24.2179 30.5339 1.4097 51.5112 9.2227
# 6 14.0367 44.8276 16.5902 -6.9026 9.2227 40.7774
#
#
#
# Elastic Compliance Matrix: (Units=1/GPa)
#
#
# Indices 1 2 3 4 5 6 
#
# 1 0.013111 -0.005046 -0.002435 -0.001359 -0.002585 0.002379
# 2 -0.005046 0.022612 -0.001696 -0.001911 -0.003320 -0.022004
# 3 -0.002435 -0.001696 0.008598 0.002630 -0.003327 0.000402
# 4 -0.001359 -0.001911 0.002630 0.030664 -0.002162 0.007178
# 5 -0.002585 -0.003320 -0.003327 -0.002162 0.024180 0.000059
# 6 0.002379 -0.022004 0.000402 0.007178 0.000059 0.048932
#
#
# Mechanical properties :
#
#
# Convention : Reuss Voigt Hill
#
# Bulk Modulus (GPa) = 38.50824 69.17230 53.84027
# Shear Modulus (GPa) = 28.55410 40.67905 34.61658
#
# Velocity S-wave (km/s) = 3.59800 4.29450 3.96158
# Velocity P-wave (km/s) = 5.89231 7.48004 6.73314
#
# Compressibility (1/GPa) = 0.02596847
#
# Stress axis : x y z
#
# Youngs Moduli (GPa) = 76.27430 44.22410 116.30079
#
# Poissons Ratio (x) = 0.22314 0.28317
# Poissons Ratio (y) = 0.38485 0.19722
# Poissons Ratio (z) = 0.18571 0.07500
#
# Static dielectric constant tensor:
#      x y z
#    x 1.805610 0.002300 0.013440 
#    y 0.002300 1.805470 0.038910 
#    z 0.013440 0.038910 1.819360 
# 
# From -- ./inp_files/148804.got.cif
#   From: 2010.05.17/outbox.cif.g08.bks.cpg/sg2_75_cif.got.tgz:148804.got - 2010.06.03 11:33:40.
