data_PCOD9060072
_publ_section_title
;
Structure prediction by ZEFSAII (Michael W. Deem and Ramdas Pophale) SiO2 
 PCOD9060072
Probable space group: P -1
;
_chemical_formula_sum "Si O2"
_cell_formula_units_Z 14
_cell_length_a 11.547254
_cell_length_b 13.141385
_cell_length_c 18.318189
_cell_angle_alpha 153.546951
_cell_angle_beta 29.760516
_cell_angle_gamma 135.771359
_cell_volume 591.070385
_symmetry_space_group_name_H-M "P -1"
_symmetry_group_IT_number 2
_symmetry_cell_setting 'triclinic'
loop_
_space_group_symop_operation_xyz
x,y,z
-x,-y,-z
loop_
_atom_site_type_symbol
_atom_site_label
_atom_site_fract_x
_atom_site_fract_y
_atom_site_fract_z
Si Si1 0.558971 0.286091 0.274908
Si Si2 0.726801 0.054052 0.334472
Si Si3 0.954079 0.644165 0.452848
Si Si4 0.594825 0.457182 0.141086
Si Si5 0.966652 0.138046 0.834367
Si Si6 0.787114 0.782796 0.859849
Si Si7 0.698262 0.559579 0.983105
O O1 0.500000 0.500000 0.500000
O O2 0.327333 0.332833 0.380227
O O3 0.783601 0.247872 0.071959
O O4 0.609763 0.043653 0.138658
O O5 0.512610 0.292737 0.599637
O O6 0.964340 0.153595 0.257528
O O7 0.776285 0.933525 0.310553
O O8 0.705303 0.835394 0.155456
O O9 0.118749 0.417142 0.259454
O O10 0.050376 0.605365 0.292273
O O11 0.970468 0.882826 0.635390
O O12 0.378180 0.323682 0.173547
O O13 0.847125 0.314660 0.948174
O O14 0.642023 0.495733 0.054795
O O15 0.500000 0.500000 0.000000
#
# Coordination Sequence:
#
# PCOD9060072 Si02
#       7
#     2   2   2   2   2   2   2
#     4  11  25  42  66 108 147 175 232 295 351 420
#     4  11  25  44  74 103 140 182 240 298 350 419
#     4  12  23  43  71 102 143 189 228 292 352 416
#     4  12  24  46  73 104 144 192 233 286 356 420
#     4  11  24  43  73 108 142 181 237 291 355 423
#     4  11  23  42  75 107 135 181 232 292 356 409
#     4  12  27  49  68 101 149 192 239 289 349 423
#
# _framework density 23.685843999999999
#
# number of rings (size 3 to 8) (size 9 to 14) (size 15 to 20)
#    0.000    0.571    4.286    3.857    4.000    4.571 
#    0.000    0.000    0.000    0.000    0.000    0.000 
#    0.000    0.000    0.000    0.000    0.000    0.000 
#
# Total GULP energy -78162.483653 kJ/mol
# GULP energy per Si atom -5583.034547 kJ/mol
# Density = 2.363193 g / cm^3
# Si number density = 23.685844 Si / 1000 Ang^3
#
#
#
# Elastic Constant Matrix: (Units=GPa)
#
#
# Indices 1 2 3 4 5 6 
#
# 1 100.2374 15.5837 60.3437 30.3485 -10.8655 -4.8071
# 2 15.5837 94.1979 30.0957 22.0320 9.1602 7.2443
# 3 60.3437 30.0957 178.6882 45.2364 6.1411 -5.4679
# 4 30.3485 22.0320 45.2364 18.7920 8.0841 19.1234
# 5 -10.8655 9.1602 6.1411 8.0841 61.2729 3.1500
# 6 -4.8071 7.2443 -5.4679 19.1234 3.1500 28.9758
#
#
#
# Elastic Compliance Matrix: (Units=1/GPa)
#
#
# Indices 1 2 3 4 5 6 
#
# 1 0.008904 -0.002553 -0.007661 0.018553 0.000881 -0.011670
# 2 -0.002553 0.011293 -0.002719 0.006035 -0.002279 -0.007495
# 3 -0.007661 -0.002719 0.004698 0.014859 -0.002911 -0.009195
# 4 0.018553 0.006035 0.014859 -0.081711 0.008731 0.057351
# 5 0.000881 -0.002279 -0.002911 0.008731 0.016336 -0.007371
# 6 -0.011670 -0.007495 -0.009195 0.057351 -0.007371 -0.004335
#
#
# Mechanical properties :
#
#
# Convention : Reuss Voigt Hill
#
# Bulk Modulus (GPa) = -1031.27697 65.01886 -483.12905
# Shear Modulus (GPa) = -259.44298 39.61484 -109.91407
#
# Velocity S-wave (km/s) = -10.47725 4.09407 -6.81951
# Velocity P-wave (km/s) = 24.13932 7.06107 16.32250
#
# Compressibility (1/GPa) = -0.00096967
#
# Stress axis : x y z
#
# Youngs Moduli (GPa) = 112.31067 88.54668 212.83712
#
# Poissons Ratio (x) = 0.22604 1.63056
# Poissons Ratio (y) = 0.28670 0.57868
# Poissons Ratio (z) = 0.86042 0.24075
#
# Static dielectric constant tensor:
#      x y z
#    x 1.981000 -0.012720 0.044960 
#    y -0.012720 2.088790 -0.049000 
#    z 0.044960 -0.049000 1.916750 
# 
# From -- ./inp_files/437252.got.cif
#   From: 2010.05.17/outbox.cif.g08.bks.cpg/sg2_219_cif.got.tgz:437252.got - 2010.06.03 11:33:40.
