data_PCOD9060248
_publ_section_title
;
Structure prediction by ZEFSAII (Michael W. Deem and Ramdas Pophale) SiO2 
 PCOD9060248
Probable space group: P -1
;
_chemical_formula_sum "Si O2"
_cell_formula_units_Z 14
_cell_length_a 9.028723
_cell_length_b 11.204381
_cell_length_c 17.878975
_cell_angle_alpha 29.723474
_cell_angle_beta 130.604742
_cell_angle_gamma 113.173596
_cell_volume 605.897818
_symmetry_space_group_name_H-M "P -1"
_symmetry_group_IT_number 2
_symmetry_cell_setting 'triclinic'
loop_
_space_group_symop_operation_xyz
x,y,z
-x,-y,-z
loop_
_atom_site_type_symbol
_atom_site_label
_atom_site_fract_x
_atom_site_fract_y
_atom_site_fract_z
Si Si1 0.349003 0.489421 0.387069
Si Si2 0.978843 0.021045 0.627701
Si Si3 0.698904 0.558369 0.005699
Si Si4 0.892254 0.511983 0.246780
Si Si5 0.395571 0.975235 0.399189
Si Si6 0.310193 0.945787 0.033369
Si Si7 0.803819 0.797328 0.286574
O O1 0.500000 0.500000 0.500000
O O2 0.235357 0.787380 0.151621
O O3 0.147707 0.434738 0.374019
O O4 0.474580 0.280246 0.474525
O O5 0.863539 0.248158 0.402648
O O6 0.162137 0.091346 0.684797
O O7 0.818944 0.040507 0.632132
O O8 0.096252 0.723044 0.796561
O O9 0.644061 0.769241 0.805327
O O10 0.500000 0.500000 0.000000
O O11 0.783187 0.644373 0.060601
O O12 0.768523 0.744490 0.139403
O O13 0.500000 0.000000 0.500000
O O14 0.572647 0.793502 0.205959
O O15 0.214410 0.976920 0.902569
O O16 0.000000 0.500000 0.500000
#
# Coordination Sequence:
#
# PCOD9060248 Si02
#       7
#     2   2   2   2   2   2   2
#     4  12  27  46  73 105 151 195 243 304 372 440
#     4  12  25  43  75  98 145 185 245 298 362 427
#     4  12  26  47  72 102 145 191 243 301 375 436
#     4  12  25  46  71 107 145 189 243 297 373 442
#     4  12  28  47  72 106 142 191 253 302 360 435
#     4  11  25  41  72 102 144 187 239 290 364 427
#     4  11  23  43  68 106 140 184 238 301 353 427
#
# _framework density 23.106207000000001
#
# number of rings (size 3 to 8) (size 9 to 14) (size 15 to 20)
#    0.000    0.286    1.429    7.286    8.000    0.000 
#    0.000    0.000    0.000    0.000    0.000    0.000 
#    0.000    0.000    0.000    0.000    0.000    0.000 
#
# Total GULP energy -78287.591417 kJ/mol
# GULP energy per Si atom -5591.970815 kJ/mol
# Density = 2.305362 g / cm^3
# Si number density = 23.106207 Si / 1000 Ang^3
#
#
#
# Elastic Constant Matrix: (Units=GPa)
#
#
# Indices 1 2 3 4 5 6 
#
# 1 143.5403 25.4583 65.4564 7.8439 -5.5783 3.9716
# 2 25.4583 81.5555 20.1781 22.9004 -2.2127 -10.0081
# 3 65.4564 20.1781 106.0361 5.0899 -27.2090 1.1034
# 4 7.8439 22.9004 5.0899 52.7390 -12.9046 1.0643
# 5 -5.5783 -2.2127 -27.2090 -12.9046 65.6516 -4.2554
# 6 3.9716 -10.0081 1.1034 1.0643 -4.2554 33.9095
#
#
#
# Elastic Compliance Matrix: (Units=1/GPa)
#
#
# Indices 1 2 3 4 5 6 
#
# 1 0.010222 -0.001673 -0.006485 -0.000651 -0.002115 -0.001725
# 2 -0.001673 0.015797 -0.002081 -0.006877 -0.001503 0.004953
# 3 -0.006485 -0.002081 0.015305 0.001880 0.006115 0.000356
# 4 -0.000651 -0.006877 0.001880 0.023104 0.004896 -0.002126
# 5 -0.002115 -0.001503 0.006115 0.004896 0.018614 0.001788
# 6 -0.001725 0.004953 0.000356 -0.002126 0.001788 0.031434
#
#
# Mechanical properties :
#
#
# Convention : Reuss Voigt Hill
#
# Bulk Modulus (GPa) = 47.96913 61.47973 54.72443
# Shear Modulus (GPa) = 35.23595 45.12930 40.18262
#
# Velocity S-wave (km/s) = 3.90931 4.42421 4.17470
# Velocity P-wave (km/s) = 6.41734 7.26384 6.85367
#
# Compressibility (1/GPa) = 0.02084674
#
# Stress axis : x y z
#
# Youngs Moduli (GPa) = 97.83007 63.30456 65.33758
#
# Poissons Ratio (x) = 0.10588 0.42373
# Poissons Ratio (y) = 0.16363 0.13594
# Poissons Ratio (z) = 0.63446 0.13171
#
# Static dielectric constant tensor:
#      x y z
#    x 1.882820 0.007960 -0.005730 
#    y 0.007960 1.836360 0.058550 
#    z -0.005730 0.058550 1.832120 
# 
# From -- ./inp_files/338649.got.cif
#   From: 2010.05.17/outbox.cif.g08.bks.cpg/sg2_170_cif.got.tgz:338649.got - 2010.06.03 11:33:40.
