data_PCOD9060806
_publ_section_title
;
Structure prediction by ZEFSAII (Michael W. Deem and Ramdas Pophale) SiO2 
 PCOD9060806
Probable space group: P -1
;
_chemical_formula_sum "Si O2"
_cell_formula_units_Z 16
_cell_length_a 4.914455
_cell_length_b 18.681604
_cell_length_c 9.786511
_cell_angle_alpha 45.382287
_cell_angle_beta 74.878439
_cell_angle_gamma 74.064378
_cell_volume 611.936697
_symmetry_space_group_name_H-M "P -1"
_symmetry_group_IT_number 2
_symmetry_cell_setting 'triclinic'
loop_
_space_group_symop_operation_xyz
x,y,z
-x,-y,-z
loop_
_atom_site_type_symbol
_atom_site_label
_atom_site_fract_x
_atom_site_fract_y
_atom_site_fract_z
Si Si1 0.991852 0.666958 0.204796
Si Si2 0.929473 0.179135 0.774749
Si Si3 0.709917 0.186468 0.222085
Si Si4 0.575940 0.557995 0.236460
Si Si5 0.706071 0.936403 0.666801
Si Si6 0.315505 0.341987 0.206622
Si Si7 0.631971 0.992823 0.140338
Si Si8 0.302235 0.652151 0.608438
O O1 0.961848 0.739480 0.244672
O O2 0.245245 0.573477 0.297890
O O3 0.719064 0.624987 0.237387
O O4 0.113263 0.736315 0.980028
O O5 0.707561 0.245209 0.615375
O O6 0.807605 0.089475 0.995592
O O7 0.165394 0.113462 0.737270
O O8 0.466324 0.161012 0.183946
O O9 0.520657 0.236096 0.303436
O O10 0.962690 0.099641 0.350305
O O11 0.703863 0.441152 0.368729
O O12 0.635168 0.598476 0.019794
O O13 0.629933 0.991906 0.743429
O O14 0.500000 0.000000 0.500000
O O15 0.435320 0.381035 0.279770
O O16 0.985316 0.335865 0.279267
O O17 0.500000 0.000000 0.000000
#
# Coordination Sequence:
#
# PCOD9060806 Si02
#       8
#     2   2   2   2   2   2   2   2
#     4  11  23  45  72 100 141 189 243 285 359 427
#     4  11  28  46  71 104 142 193 242 298 359 440
#     4  11  23  44  68 102 134 188 227 288 358 427
#     4  11  24  44  74 105 143 192 235 300 361 426
#     4  12  26  43  72 104 141 179 243 302 357 421
#     4  11  24  43  71 105 151 185 234 292 369 430
#     4  11  27  49  74 101 146 194 240 300 370 433
#     4  12  26  44  72 108 148 188 241 293 360 437
#
# _framework density 26.146491999999999
#
# number of rings (size 3 to 8) (size 9 to 14) (size 15 to 20)
#    0.000    0.750    1.250    6.375    8.750    1.000 
#    0.000    0.000    0.000    0.000    0.000    0.000 
#    0.000    0.000    0.000    0.000    0.000    0.000 
#
# Total GULP energy -89589.221201 kJ/mol
# GULP energy per Si atom -5599.326325 kJ/mol
# Density = 2.608698 g / cm^3
# Si number density = 26.146492 Si / 1000 Ang^3
#
#
#
# Elastic Constant Matrix: (Units=GPa)
#
#
# Indices 1 2 3 4 5 6 
#
# 1 122.7480 21.3358 12.6891 1.6993 15.2468 -15.7617
# 2 21.3358 131.0957 30.0176 -5.6568 6.1970 -8.8549
# 3 12.6891 30.0176 98.0874 -2.0681 9.4238 -16.0210
# 4 1.6993 -5.6568 -2.0681 42.5775 -8.8965 17.0716
# 5 15.2468 6.1970 9.4238 -8.8965 24.1196 10.4101
# 6 -15.7617 -8.8549 -16.0210 17.0716 10.4101 42.6620
#
#
#
# Elastic Compliance Matrix: (Units=1/GPa)
#
#
# Indices 1 2 3 4 5 6 
#
# 1 0.012100 -0.001220 0.002440 -0.009462 -0.017468 0.013182
# 2 -0.001220 0.008422 -0.002389 0.001031 -0.000082 0.000008
# 3 0.002440 -0.002389 0.013817 -0.007623 -0.014385 0.012155
# 4 -0.009462 0.001031 -0.007623 0.045860 0.040442 -0.034364
# 5 -0.017468 -0.000082 -0.014385 0.040442 0.095196 -0.051285
# 6 0.013182 0.000008 0.012155 -0.034364 -0.051285 0.059142
#
#
# Mechanical properties :
#
#
# Convention : Reuss Voigt Hill
#
# Bulk Modulus (GPa) = 31.24839 53.33512 42.29175
# Shear Modulus (GPa) = 20.19862 41.06438 30.63150
#
# Velocity S-wave (km/s) = 2.78243 3.96732 3.42648
# Velocity P-wave (km/s) = 4.72227 6.43654 5.64486
#
# Compressibility (1/GPa) = 0.03200165
#
# Stress axis : x y z
#
# Youngs Moduli (GPa) = 82.64412 118.72998 72.37457
#
# Poissons Ratio (x) = 0.14487 -0.17659
# Poissons Ratio (y) = 0.10084 0.17289
# Poissons Ratio (z) = -0.20165 0.28362
#
# Static dielectric constant tensor:
#      x y z
#    x 1.976890 0.023550 -0.040870 
#    y 0.023550 2.125820 -0.104980 
#    z -0.040870 -0.104980 2.207910 
# 
# From -- ./inp_files/138537.got.cif
#   From: 2010.05.17/outbox.cif.g08.bks.cpg/sg2_70_cif.got.tgz:138537.got - 2010.06.03 11:33:40.
