data_PCOD9060028
_publ_section_title
;
Structure prediction by ZEFSAII (Michael W. Deem and Ramdas Pophale) SiO2 
 PCOD9060028
Probable space group: P -1
;
_chemical_formula_sum "Si O2"
_cell_formula_units_Z 14
_cell_length_a 12.884190
_cell_length_b 8.904010
_cell_length_c 20.720392
_cell_angle_alpha 40.252144
_cell_angle_beta 21.169192
_cell_angle_gamma 41.949303
_cell_volume 549.414763
_symmetry_space_group_name_H-M "P -1"
_symmetry_group_IT_number 2
_symmetry_cell_setting 'triclinic'
loop_
_space_group_symop_operation_xyz
x,y,z
-x,-y,-z
loop_
_atom_site_type_symbol
_atom_site_label
_atom_site_fract_x
_atom_site_fract_y
_atom_site_fract_z
Si Si1 0.035017 0.731901 0.364693
Si Si2 0.756050 0.335503 0.247305
Si Si3 0.054852 0.915304 0.599034
Si Si4 0.589542 0.179164 0.693434
Si Si5 0.212202 0.149669 0.672796
Si Si6 0.671632 0.304123 0.012476
Si Si7 0.307915 0.354232 0.008788
O O1 0.000000 0.500000 0.500000
O O2 0.936429 0.749181 0.342093
O O3 0.850497 0.934738 0.446254
O O4 0.374547 0.765736 0.156405
O O5 0.614235 0.602186 0.229714
O O6 0.517317 0.244294 0.462333
O O7 0.064591 0.346241 0.098378
O O8 0.776524 0.133087 0.247248
O O9 0.831031 0.760576 0.811215
O O10 0.296535 0.775686 0.459467
O O11 0.872969 0.112284 0.594729
O O12 0.445813 0.942259 0.849109
O O13 0.006603 0.254468 0.814385
O O14 0.641357 0.394589 0.073744
O O15 0.500000 0.500000 0.000000
#
# Coordination Sequence:
#
# PCOD9060028 Si02
#       7
#     2   2   2   2   2   2   2
#     4  12  24  43  74 105 139 185 248 288 342 431
#     4  11  27  48  68 108 147 186 233 293 369 416
#     4  11  23  42  74 101 138 189 243 288 343 426
#     4  11  25  44  70 108 142 187 238 291 356 422
#     4  11  25  49  71 103 148 190 232 292 367 416
#     4  12  24  44  75 102 140 187 242 293 341 421
#     4  12  25  46  75 103 142 188 236 293 356 418
#
# _framework density 25.481657999999999
#
# number of rings (size 3 to 8) (size 9 to 14) (size 15 to 20)
#    0.000    0.571    4.286    3.000    4.000    3.429 
#    5.143    0.000    0.000    0.000    0.000    0.000 
#    0.000    0.000    0.000    0.000    0.000    0.000 
#
# Total GULP energy -78410.485747 kJ/mol
# GULP energy per Si atom -5600.748982 kJ/mol
# Density = 2.542366 g / cm^3
# Si number density = 25.481658 Si / 1000 Ang^3
#
#
#
# Elastic Constant Matrix: (Units=GPa)
#
#
# Indices 1 2 3 4 5 6 
#
# 1 65.4747 30.0037 26.2638 6.5121 -9.3772 2.6259
# 2 30.0037 154.0254 32.4608 -9.0240 0.6591 5.4107
# 3 26.2638 32.4608 119.9431 2.3526 4.3438 -4.9813
# 4 6.5121 -9.0240 2.3526 47.2467 9.8576 -1.3885
# 5 -9.3772 0.6591 4.3438 9.8576 40.9149 7.2184
# 6 2.6259 5.4107 -4.9813 -1.3885 7.2184 32.2173
#
#
#
# Elastic Compliance Matrix: (Units=1/GPa)
#
#
# Indices 1 2 3 4 5 6 
#
# 1 0.019830 -0.003257 -0.003752 -0.004667 0.006712 -0.003354
# 2 -0.003257 0.007580 -0.001378 0.002166 -0.001088 -0.000883
# 3 -0.003752 -0.001378 0.009720 0.000349 -0.002412 0.002596
# 4 -0.004667 0.002166 0.000349 0.023823 -0.007366 0.002748
# 5 0.006712 -0.001088 -0.002412 -0.007366 0.029375 -0.007636
# 6 -0.003354 -0.000883 0.002596 0.002748 -0.007636 0.033692
#
#
# Mechanical properties :
#
#
# Convention : Reuss Voigt Hill
#
# Bulk Modulus (GPa) = 49.12188 57.43332 53.27760
# Shear Modulus (GPa) = 33.88041 40.79011 37.33526
#
# Velocity S-wave (km/s) = 3.65032 4.00529 3.83192
# Velocity P-wave (km/s) = 6.08980 6.63158 6.36646
#
# Compressibility (1/GPa) = 0.02035753
#
# Stress axis : x y z
#
# Youngs Moduli (GPa) = 50.42778 131.92897 102.88033
#
# Poissons Ratio (x) = 0.42963 0.38598
# Poissons Ratio (y) = 0.16422 0.14177
# Poissons Ratio (z) = 0.18919 0.18181
#
# Static dielectric constant tensor:
#      x y z
#    x 2.031580 -0.023470 0.004850 
#    y -0.023470 2.052340 -0.060980 
#    z 0.004850 -0.060980 1.992070 
# 
# From -- ./inp_files/611585.got.cif
#   From: 2010.05.17/outbox.cif.g08.bks.cpg/sg2_306_cif.got.tgz:611585.got - 2010.06.03 11:33:40.
