data_PCOD9060178
_publ_section_title
;
Structure prediction by ZEFSAII (Michael W. Deem and Ramdas Pophale) SiO2 
 PCOD9060178
Probable space group: P -1
;
_chemical_formula_sum "Si O2"
_cell_formula_units_Z 16
_cell_length_a 15.373662
_cell_length_b 20.884364
_cell_length_c 9.165878
_cell_angle_alpha 45.832767
_cell_angle_beta 131.964315
_cell_angle_gamma 160.059606
_cell_volume 718.797965
_symmetry_space_group_name_H-M "P -1"
_symmetry_group_IT_number 2
_symmetry_cell_setting 'triclinic'
loop_
_space_group_symop_operation_xyz
x,y,z
-x,-y,-z
loop_
_atom_site_type_symbol
_atom_site_label
_atom_site_fract_x
_atom_site_fract_y
_atom_site_fract_z
Si Si1 0.326905 0.127602 0.529179
Si Si2 0.530134 0.721652 0.253333
Si Si3 0.884172 0.669145 0.409435
Si Si4 0.903432 0.867188 0.233221
Si Si5 0.324445 0.810360 0.187756
Si Si6 0.721563 0.407920 0.113855
Si Si7 0.528427 0.944206 0.501744
Si Si8 0.616432 0.479685 0.133832
O O1 0.282895 0.109268 0.682730
O O2 0.538769 0.193502 0.659437
O O3 0.429742 0.288214 0.318306
O O4 0.095353 0.956115 0.430092
O O5 0.312570 0.526682 0.414899
O O6 0.698882 0.775245 0.252210
O O7 0.375550 0.668819 0.039630
O O8 0.796565 0.710395 0.276736
O O9 0.870793 0.647425 0.254193
O O10 0.166901 0.851245 0.500594
O O11 0.000000 0.000000 0.000000
O O12 0.357546 0.861012 0.310023
O O13 0.027698 0.606233 0.139680
O O14 0.500000 0.000000 0.000000
O O15 0.576146 0.226294 0.313765
O O16 0.658164 0.456138 0.061839
O O17 0.500000 0.000000 0.500000
O O18 0.500000 0.500000 0.000000
#
# Coordination Sequence:
#
# PCOD9060178 Si02
#       8
#     2   2   2   2   2   2   2   2
#     4  11  25  46  71 105 152 194 244 308 370 441
#     4  11  26  42  70 105 143 195 239 300 380 441
#     4  11  23  43  67 101 142 182 244 298 371 439
#     4  12  23  46  72 103 146 190 248 307 368 444
#     4  12  27  49  73 104 156 197 248 309 369 445
#     4  12  26  47  74 108 148 199 250 305 374 440
#     4  12  26  45  74 106 142 195 251 307 365 438
#     4  11  23  44  72 106 144 193 245 308 370 441
#
# _framework density 22.259383
#
# number of rings (size 3 to 8) (size 9 to 14) (size 15 to 20)
#    0.000    0.500    2.500    5.625    5.250    1.500 
#    4.500    0.000    0.000    0.000    0.000    0.000 
#    0.000    0.000    0.000    0.000    0.000    0.000 
#
# Total GULP energy -89157.998343 kJ/mol
# GULP energy per Si atom -5572.374896 kJ/mol
# Density = 2.220872 g / cm^3
# Si number density = 22.259383 Si / 1000 Ang^3
#
#
#
# Elastic Constant Matrix: (Units=GPa)
#
#
# Indices 1 2 3 4 5 6 
#
# 1 107.2021 20.8127 35.3036 3.0914 -4.2125 -8.0948
# 2 20.8127 75.6067 17.4805 16.3979 -8.7650 5.2461
# 3 35.3036 17.4805 105.4023 7.1486 -15.4926 -8.8140
# 4 3.0914 16.3979 7.1486 40.5753 -12.3878 -4.2758
# 5 -4.2125 -8.7650 -15.4926 -12.3878 38.7628 11.9806
# 6 -8.0948 5.2461 -8.8140 -4.2758 11.9806 41.9273
#
#
#
# Elastic Compliance Matrix: (Units=1/GPa)
#
#
# Indices 1 2 3 4 5 6 
#
# 1 0.011036 -0.002721 -0.003283 0.000708 -0.001179 0.002190
# 2 -0.002721 0.016089 -0.001380 -0.005811 0.002184 -0.004045
# 3 -0.003283 -0.001380 0.011424 -0.000006 0.003615 0.000907
# 4 0.000708 -0.005811 -0.000006 0.029455 0.007655 0.001679
# 5 -0.001179 0.002184 0.003615 0.007655 0.032614 -0.008280
# 6 0.002190 -0.004045 0.000907 0.001679 -0.008280 0.027508
#
#
# Mechanical properties :
#
#
# Convention : Reuss Voigt Hill
#
# Bulk Modulus (GPa) = 42.05287 48.37831 45.21559
# Shear Modulus (GPa) = 33.15197 38.56070 35.85634
#
# Velocity S-wave (km/s) = 3.86339 4.16665 4.01788
# Velocity P-wave (km/s) = 6.23172 6.70291 6.47160
#
# Compressibility (1/GPa) = 0.02377959
#
# Stress axis : x y z
#
# Youngs Moduli (GPa) = 90.60942 62.15566 87.53808
#
# Poissons Ratio (x) = 0.16913 0.28742
# Poissons Ratio (y) = 0.24656 0.12080
# Poissons Ratio (z) = 0.29751 0.08577
#
# Static dielectric constant tensor:
#      x y z
#    x 1.865250 -0.041600 0.022550 
#    y -0.041600 1.858130 0.095900 
#    z 0.022550 0.095900 1.853660 
# 
# From -- ./inp_files/319272.got.cif
#   From: 2010.05.17/outbox.cif.g08.bks.cpg/sg2_160_cif.got.tgz:319272.got - 2010.06.03 11:33:40.
