data_PCOD9060615
_publ_section_title
;
Structure prediction by ZEFSAII (Michael W. Deem and Ramdas Pophale) SiO2 
 PCOD9060615
Probable space group: P -1
;
_chemical_formula_sum "Si O2"
_cell_formula_units_Z 16
_cell_length_a 5.189013
_cell_length_b 13.858242
_cell_length_c 14.385346
_cell_angle_alpha 40.229028
_cell_angle_beta 64.801904
_cell_angle_gamma 75.100042
_cell_volume 600.427891
_symmetry_space_group_name_H-M "P -1"
_symmetry_group_IT_number 2
_symmetry_cell_setting 'triclinic'
loop_
_space_group_symop_operation_xyz
x,y,z
-x,-y,-z
loop_
_atom_site_type_symbol
_atom_site_label
_atom_site_fract_x
_atom_site_fract_y
_atom_site_fract_z
Si Si1 0.249222 0.314448 0.122470
Si Si2 0.659826 0.977074 0.587696
Si Si3 0.757410 0.102216 0.996960
Si Si4 0.050062 0.331937 0.647713
Si Si5 0.153728 0.173776 0.054048
Si Si6 0.596553 0.750044 0.500914
Si Si7 0.744258 0.556744 0.285426
Si Si8 0.730048 0.561382 0.787410
O O1 0.417228 0.189218 0.237641
O O2 0.101111 0.383129 0.184129
O O3 0.082886 0.217484 0.137975
O O4 0.458323 0.450741 0.945821
O O5 0.500000 0.000000 0.500000
O O6 0.569857 0.105652 0.575524
O O7 0.000000 0.000000 0.500000
O O8 0.411805 0.067432 0.084784
O O9 0.805428 0.233613 0.815379
O O10 0.882735 0.136937 0.055721
O O11 0.000000 0.000000 0.000000
O O12 0.127462 0.234455 0.619401
O O13 0.289285 0.363648 0.669633
O O14 0.000000 0.500000 0.500000
O O15 0.297059 0.331508 0.873295
O O16 0.426094 0.604366 0.585848
O O17 0.659175 0.698635 0.633478
O O18 0.072996 0.525553 0.245120
#
# Coordination Sequence:
#
# PCOD9060615 Si02
#       8
#     2   2   2   2   2   2   2   2
#     4  11  24  47  74 106 143 195 244 294 373 424
#     4  12  29  51  72 105 154 194 239 304 364 439
#     4  11  26  48  71 104 146 188 248 295 359 437
#     4  11  23  43  74 104 143 193 240 308 372 425
#     4  11  24  45  73 103 144 186 238 308 349 427
#     4  12  24  45  71 108 146 192 245 301 370 438
#     4  11  23  44  72 106 144 184 250 304 362 426
#     4  11  23  45  75 106 143 192 250 301 355 444
#
# _framework density 26.647663999999999
#
# number of rings (size 3 to 8) (size 9 to 14) (size 15 to 20)
#    0.000    0.750    3.750    3.750    1.750    3.500 
#    4.500    0.000    0.000    0.000    0.000    0.000 
#    0.000    0.000    0.000    0.000    0.000    0.000 
#
# Total GULP energy -89504.679330 kJ/mol
# GULP energy per Si atom -5594.042458 kJ/mol
# Density = 2.658701 g / cm^3
# Si number density = 26.647664 Si / 1000 Ang^3
#
#
#
# Elastic Constant Matrix: (Units=GPa)
#
#
# Indices 1 2 3 4 5 6 
#
# 1 98.2240 20.7584 30.6163 20.2764 14.2893 -5.7160
# 2 20.7584 134.2436 37.3197 14.3885 12.2664 -9.0291
# 3 30.6163 37.3197 110.5371 18.7571 24.3412 -2.3290
# 4 20.2764 14.3885 18.7571 46.3428 3.9023 18.8087
# 5 14.2893 12.2664 24.3412 3.9023 36.6481 9.6151
# 6 -5.7160 -9.0291 -2.3290 18.8087 9.6151 45.2475
#
#
#
# Elastic Compliance Matrix: (Units=1/GPa)
#
#
# Indices 1 2 3 4 5 6 
#
# 1 0.013074 -0.000111 -0.001172 -0.007048 -0.004990 0.005559
# 2 -0.000111 0.008742 -0.001828 -0.003121 -0.002230 0.003408
# 3 -0.001172 -0.001828 0.012624 -0.004933 -0.007799 0.003845
# 4 -0.007048 -0.003121 -0.004933 0.034117 0.008070 -0.017664
# 5 -0.004990 -0.002230 -0.007799 0.008070 0.037667 -0.012836
# 6 0.005559 0.003408 0.003845 -0.017664 -0.012836 0.033751
#
#
# Mechanical properties :
#
#
# Convention : Reuss Voigt Hill
#
# Bulk Modulus (GPa) = 35.43787 57.82148 46.62967
# Shear Modulus (GPa) = 32.13304 42.60170 37.36737
#
# Velocity S-wave (km/s) = 3.47630 4.00272 3.74876
# Velocity P-wave (km/s) = 5.42590 6.56566 6.02281
#
# Compressibility (1/GPa) = 0.02821840
#
# Stress axis : x y z
#
# Youngs Moduli (GPa) = 76.48908 114.38986 79.21310
#
# Poissons Ratio (x) = 0.01265 0.09283
# Poissons Ratio (y) = 0.00846 0.14483
# Poissons Ratio (z) = 0.08964 0.20914
#
# Static dielectric constant tensor:
#      x y z
#    x 2.136780 -0.000230 -0.053850 
#    y -0.000230 2.132370 0.000590 
#    z -0.053850 0.000590 2.140000 
# 
# From -- ./inp_files/484192.got.cif
#   From: 2010.05.17/outbox.cif.g08.bks.cpg/sg2_243_cif.got.tgz:484192.got - 2010.06.03 11:33:40.
