data_PCOD9060837
_publ_section_title
;
Structure prediction by ZEFSAII (Michael W. Deem and Ramdas Pophale) SiO2 
 PCOD9060837
Probable space group: P -1
;
_chemical_formula_sum "Si O2"
_cell_formula_units_Z 14
_cell_length_a 9.193461
_cell_length_b 12.093716
_cell_length_c 8.788564
_cell_angle_alpha 66.456516
_cell_angle_beta 113.146008
_cell_angle_gamma 67.292507
_cell_volume 630.006712
_symmetry_space_group_name_H-M "P -1"
_symmetry_group_IT_number 2
_symmetry_cell_setting 'triclinic'
loop_
_space_group_symop_operation_xyz
x,y,z
-x,-y,-z
loop_
_atom_site_type_symbol
_atom_site_label
_atom_site_fract_x
_atom_site_fract_y
_atom_site_fract_z
Si Si1 0.316099 0.031455 0.497595
Si Si2 0.948302 0.404664 0.127781
Si Si3 0.704257 0.329395 0.881872
Si Si4 0.012096 0.987605 0.328870
Si Si5 0.398313 0.131066 0.012838
Si Si6 0.738608 0.542569 0.292941
Si Si7 0.037664 0.744351 0.261135
O O1 0.214372 0.971219 0.396027
O O2 0.143162 0.220644 0.343795
O O3 0.500000 0.000000 0.500000
O O4 0.429392 0.932489 0.752407
O O5 0.833416 0.485369 0.194922
O O6 0.796894 0.399453 0.965622
O O7 0.000000 0.500000 0.000000
O O8 0.465038 0.436506 0.765898
O O9 0.785154 0.301823 0.757846
O O10 0.819443 0.154753 0.090034
O O11 0.022627 0.852532 0.328427
O O12 0.000000 0.000000 0.500000
O O13 0.335207 0.285183 0.821103
O O14 0.185200 0.169575 0.957048
O O15 0.500000 0.000000 0.000000
O O16 0.900521 0.412726 0.551936
#
# Coordination Sequence:
#
# PCOD9060837 Si02
#       7
#     2   2   2   2   2   2   2
#     4  11  24  43  68  97 132 176 222 270 335 407
#     4  11  24  44  69 100 138 178 227 284 341 408
#     4  11  24  42  66  99 135 179 228 281 341 407
#     4  11  23  44  68  97 134 178 226 278 338 410
#     4  12  25  44  68  97 132 177 225 278 340 405
#     4  12  25  43  66  98 135 180 227 283 345 407
#     4  12  25  44  68 100 139 178 228 288 340 400
#
# _framework density 22.221985
#
# number of rings (size 3 to 8) (size 9 to 14) (size 15 to 20)
#    0.000    0.571    0.000   10.286    0.000    4.571 
#    0.000    0.000    0.000    0.000    0.000    0.000 
#    0.000    0.000    0.000    0.000    0.000    0.000 
#
# Total GULP energy -78331.561444 kJ/mol
# GULP energy per Si atom -5595.111532 kJ/mol
# Density = 2.217141 g / cm^3
# Si number density = 22.221985 Si / 1000 Ang^3
#
#
#
# Elastic Constant Matrix: (Units=GPa)
#
#
# Indices 1 2 3 4 5 6 
#
# 1 136.0746 20.8641 34.9446 -6.5887 11.5952 -10.8072
# 2 20.8641 93.2066 31.5473 -16.4477 -4.3382 -0.5741
# 3 34.9446 31.5473 126.8355 -10.3603 -3.0284 6.4341
# 4 -6.5887 -16.4477 -10.3603 28.7448 0.9881 -11.2399
# 5 11.5952 -4.3382 -3.0284 0.9881 53.5083 5.4976
# 6 -10.8072 -0.5741 6.4341 -11.2399 5.4976 37.5364
#
#
#
# Elastic Compliance Matrix: (Units=1/GPa)
#
#
# Indices 1 2 3 4 5 6 
#
# 1 0.008702 -0.000871 -0.002252 0.002312 -0.002531 0.003941
# 2 -0.000871 0.013126 -0.002534 0.007342 0.000719 0.002477
# 3 -0.002252 -0.002534 0.009314 0.000456 0.001038 -0.002299
# 4 0.002312 0.007342 0.000456 0.045488 -0.002225 0.014647
# 5 -0.002531 0.000719 0.001038 -0.002225 0.019855 -0.004470
# 6 0.003941 0.002477 -0.002299 0.014647 -0.004470 0.033248
#
#
# Mechanical properties :
#
#
# Convention : Reuss Voigt Hill
#
# Bulk Modulus (GPa) = 50.43561 58.98095 54.70828
# Shear Modulus (GPa) = 33.86309 41.87530 37.86920
#
# Velocity S-wave (km/s) = 3.90789 4.34569 4.13259
# Velocity P-wave (km/s) = 6.56565 7.19579 6.88793
#
# Compressibility (1/GPa) = 0.01982726
#
# Stress axis : x y z
#
# Youngs Moduli (GPa) = 114.92245 76.18697 107.37046
#
# Poissons Ratio (x) = 0.06636 0.24182
# Poissons Ratio (y) = 0.10010 0.27202
# Poissons Ratio (z) = 0.25883 0.19302
#
# Static dielectric constant tensor:
#      x y z
#    x 1.870670 -0.036010 0.058580 
#    y -0.036010 1.766450 0.072120 
#    z 0.058580 0.072120 1.658480 
# 
# From -- ./inp_files/156793.got.cif
#   From: 2010.05.17/outbox.cif.g08.bks.cpg/sg2_79_cif.got.tgz:156793.got - 2010.06.03 11:33:40.
