data_PCOD9060660
_publ_section_title
;
Structure prediction by ZEFSAII (Michael W. Deem and Ramdas Pophale) SiO2 
 PCOD9060660
Probable space group: P -1
;
_chemical_formula_sum "Si O2"
_cell_formula_units_Z 12
_cell_length_a 9.498560
_cell_length_b 18.509382
_cell_length_c 9.514059
_cell_angle_alpha 40.255835
_cell_angle_beta 149.752505
_cell_angle_gamma 141.322647
_cell_volume 505.195946
_symmetry_space_group_name_H-M "P -1"
_symmetry_group_IT_number 2
_symmetry_cell_setting 'triclinic'
loop_
_space_group_symop_operation_xyz
x,y,z
-x,-y,-z
loop_
_atom_site_type_symbol
_atom_site_label
_atom_site_fract_x
_atom_site_fract_y
_atom_site_fract_z
Si Si1 0.857665 0.758959 0.955463
Si Si2 0.847571 0.569701 0.669094
Si Si3 0.801298 0.079176 0.224447
Si Si4 0.164127 0.608006 0.587655
Si Si5 0.258836 0.075155 0.171250
Si Si6 0.849617 0.158178 0.466346
O O1 0.527186 0.653999 0.827817
O O2 0.836330 0.875837 0.840933
O O3 0.012507 0.797659 0.880437
O O4 0.086039 0.721612 0.301156
O O5 0.500000 0.500000 0.500000
O O6 0.903300 0.709751 0.536606
O O7 0.989696 0.567347 0.642761
O O8 0.000000 0.500000 0.000000
O O9 0.759006 0.099711 0.321060
O O10 0.000000 0.000000 0.500000
O O11 0.500000 0.000000 0.000000
O O12 0.000000 0.500000 0.500000
O O13 0.562299 0.190282 0.219526
O O14 0.500000 0.000000 0.500000
O O15 0.014456 0.080429 0.823027
#
# Coordination Sequence:
#
# PCOD9060660 Si02
#       6
#     2   2   2   2   2   2
#     4  12  25  47  73 104 144 184 242 295 359 433
#     4  12  29  49  74 106 144 190 245 300 357 423
#     4  12  26  44  68 110 144 183 229 292 363 429
#     4  12  28  50  74 103 142 195 245 292 359 431
#     4  11  23  43  75 103 139 189 231 301 362 429
#     4  11  26  44  71 105 144 186 240 294 364 427
#
# _framework density 23.753157999999999
#
# number of rings (size 3 to 8) (size 9 to 14) (size 15 to 20)
#    0.000    0.333    3.333    4.500    9.333    0.000 
#    0.000    0.000    0.000    0.000    0.000    0.000 
#    0.000    0.000    0.000    0.000    0.000    0.000 
#
# Total GULP energy -66994.619623 kJ/mol
# GULP energy per Si atom -5582.884969 kJ/mol
# Density = 2.369909 g / cm^3
# Si number density = 23.753158 Si / 1000 Ang^3
#
#
#
# Elastic Constant Matrix: (Units=GPa)
#
#
# Indices 1 2 3 4 5 6 
#
# 1 138.7207 25.9517 47.1256 -1.0369 -36.1626 11.8569
# 2 25.9517 132.6438 56.7856 19.8735 -3.2096 5.5726
# 3 47.1256 56.7856 174.2974 4.1650 -5.2676 23.0669
# 4 -1.0369 19.8735 4.1650 58.1428 13.0154 4.4533
# 5 -36.1626 -3.2096 -5.2676 13.0154 45.9880 3.2453
# 6 11.8569 5.5726 23.0669 4.4533 3.2453 54.5935
#
#
#
# Elastic Compliance Matrix: (Units=1/GPa)
#
#
# Indices 1 2 3 4 5 6 
#
# 1 0.010339 -0.000693 -0.002066 -0.001157 0.008292 -0.001700
# 2 -0.000693 0.009363 -0.002850 -0.003201 0.000644 0.000621
# 3 -0.002066 -0.002850 0.007496 0.000816 -0.001024 -0.002433
# 4 -0.001157 -0.003201 0.000816 0.019759 -0.006562 -0.000988
# 5 0.008292 0.000644 -0.001024 -0.006562 0.030240 -0.002696
# 6 -0.001700 0.000621 -0.002433 -0.000988 -0.002696 0.019892
#
#
# Mechanical properties :
#
#
# Convention : Reuss Voigt Hill
#
# Bulk Modulus (GPa) = 62.57562 78.37642 70.47602
# Shear Modulus (GPa) = 44.00126 52.79811 48.39969
#
# Velocity S-wave (km/s) = 4.30867 4.71975 4.51889
# Velocity P-wave (km/s) = 7.15221 7.92271 7.54730
#
# Compressibility (1/GPa) = 0.01598066
#
# Stress axis : x y z
#
# Youngs Moduli (GPa) = 96.72479 106.79829 133.40510
#
# Poissons Ratio (x) = 0.07398 0.27566
# Poissons Ratio (y) = 0.06700 0.38015
# Poissons Ratio (z) = 0.19987 0.30433
#
# Static dielectric constant tensor:
#      x y z
#    x 1.586790 -0.452320 0.034400 
#    y -0.452320 1.129130 -0.040240 
#    z 0.034400 -0.040240 1.878590 
# 
# From -- ./inp_files/220409.got.cif
#   From: 2010.05.17/outbox.cif.g08.bks.cpg/sg2_111_cif.got.tgz:220409.got - 2010.06.03 11:33:40.
