data_PCOD9060065
_publ_section_title
;
Structure prediction by ZEFSAII (Michael W. Deem and Ramdas Pophale) SiO2 
 PCOD9060065
Probable space group: P -1
;
_chemical_formula_sum "Si O2"
_cell_formula_units_Z 16
_cell_length_a 18.904039
_cell_length_b 15.566652
_cell_length_c 12.548930
_cell_angle_alpha 27.184060
_cell_angle_beta 135.452869
_cell_angle_gamma 152.071316
_cell_volume 742.408988
_symmetry_space_group_name_H-M "P -1"
_symmetry_group_IT_number 2
_symmetry_cell_setting 'triclinic'
loop_
_space_group_symop_operation_xyz
x,y,z
-x,-y,-z
loop_
_atom_site_type_symbol
_atom_site_label
_atom_site_fract_x
_atom_site_fract_y
_atom_site_fract_z
Si Si1 0.709090 0.697310 0.459160
Si Si2 0.831722 0.945048 0.701747
Si Si3 0.983252 0.845355 0.852466
Si Si4 0.957147 0.439654 0.644626
Si Si5 0.645164 0.264281 0.019415
Si Si6 0.577023 0.409142 0.158414
Si Si7 0.606959 0.773965 0.468199
Si Si8 0.398276 0.919457 0.320173
O O1 0.687230 0.817068 0.397381
O O2 0.580963 0.546448 0.394163
O O3 0.656793 0.424847 0.757058
O O4 0.888020 0.952603 0.326124
O O5 0.962114 0.011653 0.705916
O O6 0.690519 0.791289 0.637129
O O7 0.754202 0.707517 0.973839
O O8 0.907106 0.242786 0.500195
O O9 0.807871 0.534055 0.963832
O O10 0.041376 0.768142 0.079479
O O11 0.786719 0.289808 0.649826
O O12 0.000000 0.500000 0.500000
O O13 0.633479 0.033131 0.225327
O O14 0.494255 0.088772 0.127165
O O15 0.581593 0.270005 0.414526
O O16 0.479491 0.161705 0.233380
O O17 0.500000 0.500000 0.000000
#
# Coordination Sequence:
#
# PCOD9060065 Si02
#       8
#     2   2   2   2   2   2   2   2
#     4  11  27  46  72 107 140 185 238 287 348 424
#     4  12  25  47  71 105 143 187 232 288 353 419
#     4  12  27  45  73 104 145 185 236 292 347 416
#     4  12  29  48  70 106 145 184 237 293 347 416
#     4  12  24  48  70 103 144 183 234 290 351 413
#     4  11  23  42  75 100 137 185 231 288 354 410
#     4  11  25  45  74 102 143 182 234 287 353 415
#     4  11  26  43  71 105 138 183 238 288 343 421
#
# _framework density 21.551463999999999
#
# number of rings (size 3 to 8) (size 9 to 14) (size 15 to 20)
#    0.000    0.500    3.750    3.000    8.750    4.500 
#    0.000    0.000    0.000    0.000    0.000    0.000 
#    0.000    0.000    0.000    0.000    0.000    0.000 
#
# Total GULP energy -89633.512799 kJ/mol
# GULP energy per Si atom -5602.094550 kJ/mol
# Density = 2.150241 g / cm^3
# Si number density = 21.551464 Si / 1000 Ang^3
#
#
#
# Elastic Constant Matrix: (Units=GPa)
#
#
# Indices 1 2 3 4 5 6 
#
# 1 102.2091 25.2111 41.7721 -13.5570 8.3790 6.6032
# 2 25.2111 64.7448 36.9962 6.8505 -6.5484 12.8248
# 3 41.7721 36.9962 102.1945 11.5799 -1.7928 4.5752
# 4 -13.5570 6.8505 11.5799 25.1125 12.9447 0.9630
# 5 8.3790 -6.5484 -1.7928 12.9447 46.8418 -9.3601
# 6 6.6032 12.8248 4.5752 0.9630 -9.3601 31.0492
#
#
#
# Elastic Compliance Matrix: (Units=1/GPa)
#
#
# Indices 1 2 3 4 5 6 
#
# 1 0.018158 -0.004882 -0.007971 0.020570 -0.010834 -0.004575
# 2 -0.004882 0.022761 -0.004866 -0.009068 0.005218 -0.005792
# 3 -0.007971 -0.004866 0.016296 -0.013630 0.005832 0.003485
# 4 0.020570 -0.009068 -0.013630 0.074425 -0.027903 -0.009340
# 5 -0.010834 0.005218 0.005832 -0.027903 0.034031 0.010414
# 6 -0.004575 -0.005792 0.003485 -0.009340 0.010414 0.038488
#
#
# Mechanical properties :
#
#
# Convention : Reuss Voigt Hill
#
# Bulk Modulus (GPa) = 45.91970 53.01188 49.46579
# Shear Modulus (GPa) = 20.25478 31.61196 25.93337
#
# Velocity S-wave (km/s) = 3.06900 3.83405 3.47266
# Velocity P-wave (km/s) = 5.82336 6.65216 6.25151
#
# Compressibility (1/GPa) = 0.02177714
#
# Stress axis : x y z
#
# Youngs Moduli (GPa) = 55.07299 43.93416 61.36614
#
# Poissons Ratio (x) = 0.21448 0.48913
# Poissons Ratio (y) = 0.26886 0.29862
# Poissons Ratio (z) = 0.43897 0.21379
#
# Static dielectric constant tensor:
#      x y z
#    x 1.760900 0.003410 -0.004590 
#    y 0.003410 1.779620 0.018360 
#    z -0.004590 0.018360 1.774610 
# 
# From -- ./inp_files/226077.got.cif
#   From: 2010.05.17/outbox.cif.g08.bks.cpg/sg2_114_cif.got.tgz:226077.got - 2010.06.03 11:33:40.
