data_PCOD9060948
_publ_section_title
;
Structure prediction by ZEFSAII (Michael W. Deem and Ramdas Pophale) SiO2 
 PCOD9060948
Probable space group: P -1
;
_chemical_formula_sum "Si O2"
_cell_formula_units_Z 15
_cell_length_a 11.595856
_cell_length_b 5.681221
_cell_length_c 12.311095
_cell_angle_alpha 93.947710
_cell_angle_beta 128.528115
_cell_angle_gamma 108.343262
_cell_volume 562.619329
_symmetry_space_group_name_H-M "P -1"
_symmetry_group_IT_number 2
_symmetry_cell_setting 'triclinic'
loop_
_space_group_symop_operation_xyz
x,y,z
-x,-y,-z
loop_
_atom_site_type_symbol
_atom_site_label
_atom_site_fract_x
_atom_site_fract_y
_atom_site_fract_z
Si Si1 0.883489 0.099950 0.320859
Si Si2 0.429888 0.667698 0.615612
Si Si3 0.000000 0.500000 0.000000
Si Si4 0.671876 0.490222 0.685190
Si Si5 0.934434 0.057643 0.764500
Si Si6 0.712984 0.209866 0.890950
Si Si7 0.509727 0.763016 0.066311
Si Si8 0.902022 0.335011 0.561051
O O1 0.944868 0.189898 0.483936
O O2 0.933782 0.393940 0.312259
O O3 0.693057 0.910003 0.225931
O O4 0.946934 0.979180 0.257393
O O5 0.519536 0.478896 0.667590
O O6 0.410543 0.681511 0.474758
O O7 0.248513 0.592206 0.553649
O O8 0.564981 0.935209 0.758023
O O9 0.014024 0.281725 0.908854
O O10 0.891746 0.238343 0.017419
O O11 0.775874 0.393655 0.822385
O O12 0.794842 0.781751 0.723600
O O13 0.840719 0.160889 0.626673
O O14 0.637807 0.321380 0.938620
O O15 0.500000 0.500000 0.000000
O O16 0.500000 0.000000 0.000000
#
# Coordination Sequence:
#
# PCOD9060948 Si02
#       8
#     2   2   1   2   2   2   2   2
#     4  11  26  48  78 109 149 204 255 323 389 459
#     4  11  23  44  70 110 146 184 246 314 389 457
#     4  12  28  46  72 102 148 202 240 312 378 468
#     4  11  26  42  76 108 145 190 245 319 392 459
#     4  12  26  47  71 112 152 195 256 315 388 467
#     4  12  27  48  72 107 148 196 251 311 386 465
#     4  12  31  53  80 113 158 208 262 319 382 470
#     4  11  25  46  76 110 149 194 255 326 389 460
#
# _framework density 26.661009
#
# number of rings (size 3 to 8) (size 9 to 14) (size 15 to 20)
#    0.000    0.533    4.000    2.400    9.333    0.533 
#    2.400    0.000    0.000    0.000    0.000    0.000 
#    0.000    0.000    0.000    0.000    0.000    0.000 
#
# Total GULP energy -83701.420031 kJ/mol
# GULP energy per Si atom -5580.094669 kJ/mol
# Density = 2.660033 g / cm^3
# Si number density = 26.661009 Si / 1000 Ang^3
#
#
#
# Elastic Constant Matrix: (Units=GPa)
#
#
# Indices 1 2 3 4 5 6 
#
# 1 226.8868 11.5676 36.4268 24.9258 -17.3832 -12.9749
# 2 11.5676 50.4194 4.1165 10.1471 -10.2513 1.8142
# 3 36.4268 4.1165 86.1326 26.4719 -22.4802 -14.9798
# 4 24.9258 10.1471 26.4719 53.4861 0.6754 -5.5519
# 5 -17.3832 -10.2513 -22.4802 0.6754 54.4530 17.0351
# 6 -12.9749 1.8142 -14.9798 -5.5519 17.0351 52.3856
#
#
#
# Elastic Compliance Matrix: (Units=1/GPa)
#
#
# Indices 1 2 3 4 5 6 
#
# 1 0.004896 -0.000570 -0.001298 -0.001495 0.000800 0.000443
# 2 -0.000570 0.022106 0.001758 -0.005159 0.005641 -0.002785
# 3 -0.001298 0.001758 0.016355 -0.007756 0.006321 0.001417
# 4 -0.001495 -0.005159 -0.007756 0.024489 -0.005580 0.002000
# 5 0.000800 0.005641 0.006321 -0.005580 0.024469 -0.006738
# 6 0.000443 -0.002785 0.001417 0.002000 -0.006738 0.022103
#
#
# Mechanical properties :
#
#
# Convention : Reuss Voigt Hill
#
# Bulk Modulus (GPa) = 23.18200 51.96229 37.57214
# Shear Modulus (GPa) = 38.75480 52.82012 45.78746
#
# Velocity S-wave (km/s) = 3.81676 4.45587 4.14864
# Velocity P-wave (km/s) = 5.30448 6.78272 6.08863
#
# Compressibility (1/GPa) = 0.04313692
#
# Stress axis : x y z
#
# Youngs Moduli (GPa) = 204.25747 45.23640 61.14380
#
# Poissons Ratio (x) = 0.02577 0.07936
# Poissons Ratio (y) = 0.11635 -0.10747
# Poissons Ratio (z) = 0.26513 -0.07951
#
# Static dielectric constant tensor:
#      x y z
#    x 2.092130 -0.038810 0.067190 
#    y -0.038810 2.134240 -0.086400 
#    z 0.067190 -0.086400 2.143790 
# 
# From -- ./inp_files/410927.got.cif
#   From: 2010.05.17/outbox.cif.g08.bks.cpg/sg2_206_cif.got.tgz:410927.got - 2010.06.03 11:33:40.
