data_PCOD9060034
_publ_section_title
;
Structure prediction by ZEFSAII (Michael W. Deem and Ramdas Pophale) SiO2 
 PCOD9060034
Probable space group: P -1
;
_chemical_formula_sum "Si O2"
_cell_formula_units_Z 16
_cell_length_a 16.669819
_cell_length_b 15.014072
_cell_length_c 12.972541
_cell_angle_alpha 32.374395
_cell_angle_beta 36.078537
_cell_angle_gamma 26.342400
_cell_volume 753.201445
_symmetry_space_group_name_H-M "P -1"
_symmetry_group_IT_number 2
_symmetry_cell_setting 'triclinic'
loop_
_space_group_symop_operation_xyz
x,y,z
-x,-y,-z
loop_
_atom_site_type_symbol
_atom_site_label
_atom_site_fract_x
_atom_site_fract_y
_atom_site_fract_z
Si Si1 0.690004 0.246914 0.524442
Si Si2 0.485931 0.791402 0.444709
Si Si3 0.163119 0.198951 0.475488
Si Si4 0.923561 0.931138 0.780735
Si Si5 0.910560 0.121106 0.823100
Si Si6 0.260231 0.068505 0.718788
Si Si7 0.434216 0.401283 0.232818
Si Si8 0.152025 0.346740 0.760126
O O1 0.500000 0.500000 0.500000
O O2 0.625687 0.181691 0.562577
O O3 0.867471 0.205048 0.341054
O O4 0.775495 0.085908 0.693086
O O5 0.501254 0.655323 0.659970
O O6 0.696677 0.667797 0.324193
O O7 0.364530 0.044374 0.366886
O O8 0.108598 0.046858 0.686985
O O9 0.019123 0.410887 0.345492
O O10 0.175162 0.236003 0.546249
O O11 0.875653 0.090497 0.771980
O O12 0.911766 0.753772 0.006885
O O13 0.782564 0.378882 0.745119
O O14 0.863714 0.994862 0.062062
O O15 0.462119 0.836451 0.699220
O O16 0.255604 0.184727 0.710707
O O17 0.500000 0.500000 0.000000
#
# Coordination Sequence:
#
# PCOD9060034 Si02
#       8
#     2   2   2   2   2   2   2   2
#     4  11  24  44  73  94 117 158 212 263 315 379
#     4  11  23  40  63  93 127 163 209 257 312 372
#     4  11  21  37  63  89 128 171 209 248 310 365
#     4  10  24  44  66  95 124 157 211 263 314 378
#     4  10  17  38  63  87 125 165 212 258 300 358
#     4   9  21  36  57  93 126 172 214 251 294 369
#     4   9  18  34  59  92 124 169 208 253 296 355
#     4  11  24  42  61  92 136 165 200 262 317 366
#
# _framework density 21.242657999999999
#
# number of rings (size 3 to 8) (size 9 to 14) (size 15 to 20)
#    0.000    1.750    2.500    1.500    0.000    3.500 
#    2.250    1.250    0.000    0.000    0.000    0.000 
#    0.000    0.000    0.000    0.000    0.000    0.000 
#
# Total GULP energy -89236.671058 kJ/mol
# GULP energy per Si atom -5577.291941 kJ/mol
# Density = 2.119431 g / cm^3
# Si number density = 21.242658 Si / 1000 Ang^3
#
#
#
# Elastic Constant Matrix: (Units=GPa)
#
#
# Indices 1 2 3 4 5 6 
#
# 1 93.4841 9.6202 38.0739 -3.1452 14.6269 -22.3381
# 2 9.6202 120.2093 34.0651 0.7514 3.3226 -21.8279
# 3 38.0739 34.0651 104.5320 -3.0266 14.8371 -17.3017
# 4 -3.1452 0.7514 -3.0266 17.9788 0.7681 2.7128
# 5 14.6269 3.3226 14.8371 0.7681 24.9283 3.6272
# 6 -22.3381 -21.8279 -17.3017 2.7128 3.6272 35.6254
#
#
#
# Elastic Compliance Matrix: (Units=1/GPa)
#
#
# Indices 1 2 3 4 5 6 
#
# 1 0.015744 0.001774 -0.003319 0.000969 -0.009012 0.010191
# 2 0.001774 0.010143 -0.002720 -0.001449 -0.001643 0.006284
# 3 -0.003319 -0.002720 0.013063 0.001521 -0.005961 0.003088
# 4 0.000969 -0.001449 0.001521 0.056759 -0.002504 -0.003609
# 5 -0.009012 -0.001643 -0.005961 -0.002504 0.051370 -0.014592
# 6 0.010191 0.006284 0.003088 -0.003609 -0.014592 0.041570
#
#
# Mechanical properties :
#
#
# Convention : Reuss Voigt Hill
#
# Bulk Modulus (GPa) = 32.87306 53.52707 43.20007
# Shear Modulus (GPa) = 24.11748 31.47092 27.79420
#
# Velocity S-wave (km/s) = 3.37312 3.85320 3.62113
# Velocity P-wave (km/s) = 5.53889 6.71184 6.15337
#
# Compressibility (1/GPa) = 0.03042004
#
# Stress axis : x y z
#
# Youngs Moduli (GPa) = 63.51735 98.58790 76.55274
#
# Poissons Ratio (x) = -0.17489 0.25405
# Poissons Ratio (y) = -0.11268 0.20824
# Poissons Ratio (z) = 0.21079 0.26819
#
# Static dielectric constant tensor:
#      x y z
#    x 1.794750 0.032810 -0.003710 
#    y 0.032810 1.851340 0.050250 
#    z -0.003710 0.050250 1.791450 
# 
# From -- ./inp_files/454509.got.cif
#   From: 2010.05.17/outbox.cif.g08.bks.cpg/sg2_228_cif.got.tgz:454509.got - 2010.06.03 11:33:40.
