data_PCOD9060572
_publ_section_title
;
Structure prediction by ZEFSAII (Michael W. Deem and Ramdas Pophale) SiO2 
 PCOD9060572
Probable space group: P -1
;
_chemical_formula_sum "Si O2"
_cell_formula_units_Z 16
_cell_length_a 14.516523
_cell_length_b 8.283537
_cell_length_c 11.893283
_cell_angle_alpha 53.307113
_cell_angle_beta 105.930324
_cell_angle_gamma 139.446676
_cell_volume 699.968086
_symmetry_space_group_name_H-M "P -1"
_symmetry_group_IT_number 2
_symmetry_cell_setting 'triclinic'
loop_
_space_group_symop_operation_xyz
x,y,z
-x,-y,-z
loop_
_atom_site_type_symbol
_atom_site_label
_atom_site_fract_x
_atom_site_fract_y
_atom_site_fract_z
Si Si1 0.827225 0.836712 0.392036
Si Si2 0.899271 0.172324 0.699828
Si Si3 0.833498 0.702747 0.017233
Si Si4 0.524748 0.338262 0.148554
Si Si5 0.819820 0.169370 0.428884
Si Si6 0.230176 0.653734 0.283725
Si Si7 0.500823 0.238827 0.429799
Si Si8 0.078233 0.418131 0.091742
O O1 0.831680 0.651019 0.553732
O O2 0.658323 0.555035 0.405299
O O3 0.851847 0.078656 0.372454
O O4 0.948874 0.048790 0.243600
O O5 0.870669 0.135906 0.573425
O O6 0.835699 0.270512 0.695887
O O7 0.074454 0.462713 0.676375
O O8 0.816800 0.851295 0.857710
O O9 0.835102 0.507429 0.022761
O O10 0.692968 0.519085 0.126454
O O11 0.000000 0.000000 0.000000
O O12 0.486036 0.325138 0.269458
O O13 0.409373 0.977279 0.219615
O O14 0.500000 0.500000 0.000000
O O15 0.645334 0.943090 0.471115
O O16 0.182464 0.601118 0.160556
O O17 0.500000 0.000000 0.500000
O O18 0.000000 0.500000 0.000000
#
# Coordination Sequence:
#
# PCOD9060572 Si02
#       8
#     2   2   2   2   2   2   2   2
#     4  12  26  44  73 103 143 184 234 299 355 422
#     4  11  23  43  73 102 135 183 241 291 348 429
#     4  12  27  45  72 103 141 192 238 288 359 427
#     4  12  26  47  73 102 145 191 235 293 357 425
#     4  11  24  42  71 101 138 179 234 295 354 414
#     4  12  24  48  73 102 142 183 240 295 360 421
#     4  12  25  45  70 104 138 183 237 294 353 420
#     4  12  29  48  70 107 144 187 238 301 360 425
#
# _framework density 22.858184999999999
#
# number of rings (size 3 to 8) (size 9 to 14) (size 15 to 20)
#    0.000    0.250    5.000    3.000    8.750    0.500 
#    2.250    0.000    0.000    0.000    0.000    0.000 
#    0.000    0.000    0.000    0.000    0.000    0.000 
#
# Total GULP energy -89561.248939 kJ/mol
# GULP energy per Si atom -5597.578059 kJ/mol
# Density = 2.280616 g / cm^3
# Si number density = 22.858185 Si / 1000 Ang^3
#
#
#
# Elastic Constant Matrix: (Units=GPa)
#
#
# Indices 1 2 3 4 5 6 
#
# 1 84.0589 5.7947 0.8412 -0.9309 -10.0029 7.4464
# 2 5.7947 118.2329 -10.4808 8.0088 -4.9195 17.7144
# 3 0.8412 -10.4808 61.8442 2.6241 18.7552 -2.5766
# 4 -0.9309 8.0088 2.6241 39.2927 3.4780 -7.1683
# 5 -10.0029 -4.9195 18.7552 3.4780 41.9741 -7.6351
# 6 7.4464 17.7144 -2.5766 -7.1683 -7.6351 39.1371
#
#
#
# Elastic Compliance Matrix: (Units=1/GPa)
#
#
# Indices 1 2 3 4 5 6 
#
# 1 0.012461 -0.000323 -0.001258 -0.000150 0.003195 -0.001712
# 2 -0.000323 0.009509 0.001637 -0.002890 -0.000314 -0.004726
# 3 -0.001258 0.001637 0.019122 -0.001074 -0.008773 -0.001151
# 4 -0.000150 -0.002890 -0.001074 0.027306 -0.001055 0.006061
# 5 0.003195 -0.000314 -0.008773 -0.001055 0.029373 0.004494
# 6 -0.001712 -0.004726 -0.001151 0.006061 0.004494 0.029927
#
#
# Mechanical properties :
#
#
# Convention : Reuss Voigt Hill
#
# Bulk Modulus (GPa) = 24.26864 28.49404 26.38134
# Shear Modulus (GPa) = 35.38000 41.94617 38.66308
#
# Velocity S-wave (km/s) = 3.93848 4.28841 4.11716
# Velocity P-wave (km/s) = 5.59663 6.08385 5.84532
#
# Compressibility (1/GPa) = 0.04120543
#
# Stress axis : x y z
#
# Youngs Moduli (GPa) = 80.24742 105.15822 52.29515
#
# Poissons Ratio (x) = 0.03393 0.06579
# Poissons Ratio (y) = 0.02589 -0.08560
# Poissons Ratio (z) = 0.10096 -0.17213
#
# Static dielectric constant tensor:
#      x y z
#    x 1.856310 0.046560 -0.000790 
#    y 0.046560 1.856870 -0.033990 
#    z -0.000790 -0.033990 1.884560 
# 
# From -- ./inp_files/357392.got.cif
#   From: 2010.05.17/outbox.cif.g08.bks.cpg/sg2_179_cif.got.tgz:357392.got - 2010.06.03 11:33:40.
