data_PCOD9060364
_publ_section_title
;
Structure prediction by ZEFSAII (Michael W. Deem and Ramdas Pophale) SiO2 
 PCOD9060364
Probable space group: P -1
;
_chemical_formula_sum "Si O2"
_cell_formula_units_Z 14
_cell_length_a 8.219690
_cell_length_b 14.154255
_cell_length_c 19.335800
_cell_angle_alpha 18.534328
_cell_angle_beta 48.051467
_cell_angle_gamma 47.947609
_cell_volume 525.633265
_symmetry_space_group_name_H-M "P -1"
_symmetry_group_IT_number 2
_symmetry_cell_setting 'triclinic'
loop_
_space_group_symop_operation_xyz
x,y,z
-x,-y,-z
loop_
_atom_site_type_symbol
_atom_site_label
_atom_site_fract_x
_atom_site_fract_y
_atom_site_fract_z
Si Si1 0.342593 0.738892 0.682965
Si Si2 0.703574 0.685484 0.241405
Si Si3 0.490521 0.078188 0.728108
Si Si4 0.785596 0.844831 0.687662
Si Si5 0.111355 0.283020 0.979783
Si Si6 0.807090 0.653953 0.629515
Si Si7 0.134622 0.224515 0.615866
O O1 0.225414 0.469810 0.874217
O O2 0.560620 0.607159 0.756351
O O3 0.380890 0.956675 0.454962
O O4 0.194031 0.996189 0.591943
O O5 0.561432 0.411921 0.470246
O O6 0.597490 0.917174 0.170489
O O7 0.733194 0.776750 0.090203
O O8 0.960261 0.547870 0.281585
O O9 0.289319 0.057168 0.747174
O O10 0.696112 0.880602 0.766155
O O11 0.877713 0.503990 0.878558
O O12 0.000000 0.000000 0.500000
O O13 0.036228 0.970375 0.234952
O O14 0.763975 0.623105 0.582469
O O15 0.000000 0.500000 0.500000
#
# Coordination Sequence:
#
# PCOD9060364 Si02
#       7
#     2   2   2   2   2   2   2
#     4  10  20  39  71 100 132 177 226 270 341 391
#     4  11  21  40  71  99 127 182 221 273 331 403
#     4  11  22  40  68  97 137 171 221 268 345 392
#     4  10  17  38  68  96 125 168 218 269 322 396
#     4  11  23  43  71  99 133 179 228 271 325 407
#     4  11  21  40  69  97 140 175 216 281 335 395
#     4  12  26  45  65  95 141 179 221 279 338 389
#
# _framework density 26.634539
#
# number of rings (size 3 to 8) (size 9 to 14) (size 15 to 20)
#    0.000    1.143    7.143    0.857    0.000    1.714 
#    0.000    4.286    0.000    0.000    0.000    0.000 
#    0.000    0.000    0.000    0.000    0.000    0.000 
#
# Total GULP energy -78129.098124 kJ/mol
# GULP energy per Si atom -5580.649866 kJ/mol
# Density = 2.657392 g / cm^3
# Si number density = 26.634539 Si / 1000 Ang^3
#
#
#
# Elastic Constant Matrix: (Units=GPa)
#
#
# Indices 1 2 3 4 5 6 
#
# 1 120.5778 27.4817 12.8468 -8.5592 -18.4755 -5.3884
# 2 27.4817 211.4350 23.7252 -1.8467 6.4621 20.6717
# 3 12.8468 23.7252 52.5848 -6.6430 -9.1056 -2.4133
# 4 -8.5592 -1.8467 -6.6430 34.8484 4.1357 10.7983
# 5 -18.4755 6.4621 -9.1056 4.1357 31.7120 -2.9224
# 6 -5.3884 20.6717 -2.4133 10.7983 -2.9224 50.4027
#
#
#
# Elastic Compliance Matrix: (Units=1/GPa)
#
#
# Indices 1 2 3 4 5 6 
#
# 1 0.009753 -0.001565 -0.000448 0.000968 0.005912 0.001799
# 2 -0.001565 0.005635 -0.002766 0.000680 -0.003215 -0.002943
# 3 -0.000448 -0.002766 0.021901 0.002546 0.006440 0.001963
# 4 0.000968 0.000680 0.002546 0.032107 -0.003689 -0.007146
# 5 0.005912 -0.003215 0.006440 -0.003689 0.038450 0.005279
# 6 0.001799 -0.002943 0.001963 -0.007146 0.005279 0.023171
#
#
# Mechanical properties :
#
#
# Convention : Reuss Voigt Hill
#
# Bulk Modulus (GPa) = 36.06071 56.96722 46.51396
# Shear Modulus (GPa) = 33.37365 44.76222 39.06794
#
# Velocity S-wave (km/s) = 3.54364 4.10397 3.83406
# Velocity P-wave (km/s) = 5.50561 6.62508 6.09111
#
# Compressibility (1/GPa) = 0.02773101
#
# Stress axis : x y z
#
# Youngs Moduli (GPa) = 102.53398 177.45118 45.65987
#
# Poissons Ratio (x) = 0.27780 0.02045
# Poissons Ratio (y) = 0.16051 0.12629
# Poissons Ratio (z) = 0.04592 0.49080
#
# Static dielectric constant tensor:
#      x y z
#    x 2.081000 0.942430 0.191080 
#    y 0.942430 -4.938060 -0.727840 
#    z 0.191080 -0.727840 2.028060 
# 
# From -- ./inp_files/590380.got.cif
#   From: 2010.05.17/outbox.cif.g08.bks.cpg/sg2_296_cif.got.tgz:590380.got - 2010.06.03 11:33:40.
