data_PCOD9060442
_publ_section_title
;
Structure prediction by ZEFSAII (Michael W. Deem and Ramdas Pophale) SiO2 
 PCOD9060442
Probable space group: P -1
;
_chemical_formula_sum "Si O2"
_cell_formula_units_Z 16
_cell_length_a 6.688290
_cell_length_b 13.064445
_cell_length_c 29.458643
_cell_angle_alpha 24.843370
_cell_angle_beta 44.303930
_cell_angle_gamma 43.721523
_cell_volume 731.427220
_symmetry_space_group_name_H-M "P -1"
_symmetry_group_IT_number 2
_symmetry_cell_setting 'triclinic'
loop_
_space_group_symop_operation_xyz
x,y,z
-x,-y,-z
loop_
_atom_site_type_symbol
_atom_site_label
_atom_site_fract_x
_atom_site_fract_y
_atom_site_fract_z
Si Si1 0.360311 0.046597 0.053294
Si Si2 0.864351 0.009241 0.742443
Si Si3 0.223008 0.732675 0.444237
Si Si4 0.525568 0.948129 0.657244
Si Si5 0.407301 0.299131 0.772361
Si Si6 0.171853 0.537053 0.056363
Si Si7 0.772904 0.390661 0.874752
Si Si8 0.447043 0.190841 0.473659
O O1 0.408857 0.786817 0.176684
O O2 0.549148 0.213108 0.981478
O O3 0.031923 0.214691 0.033154
O O4 0.500000 0.000000 0.000000
O O5 0.920888 0.712295 0.844040
O O6 0.183879 0.049459 0.688274
O O7 0.770422 0.147613 0.654433
O O8 0.601334 0.119121 0.775767
O O9 0.500000 0.500000 0.500000
O O10 0.903453 0.676175 0.522108
O O11 0.258229 0.932528 0.396044
O O12 0.622377 0.651150 0.769420
O O13 0.528108 0.036574 0.569270
O O14 0.388144 0.587799 0.647388
O O15 0.077994 0.272072 0.846481
O O16 0.156578 0.559522 0.104410
O O17 0.500000 0.500000 0.000000
O O18 0.500000 0.000000 0.500000
#
# Coordination Sequence:
#
# PCOD9060442 Si02
#       8
#     2   2   2   2   2   2   2   2
#     4  12  28  48  73 103 146 187 233 301 354 415
#     4  11  25  45  69 105 144 183 235 297 348 419
#     4  11  23  43  71 100 142 185 234 289 355 413
#     4  11  24  46  73 100 143 189 236 287 351 426
#     4  12  27  46  72 107 147 183 241 295 354 425
#     4  12  27  46  74 106 139 187 243 289 356 425
#     4  12  26  48  74 105 142 191 236 287 360 426
#     4  11  27  45  70 107 144 186 237 292 351 421
#
# _framework density 21.875041
#
# number of rings (size 3 to 8) (size 9 to 14) (size 15 to 20)
#    0.000    0.500    3.750    3.375    7.000    7.000 
#    0.000    0.000    0.000    0.000    0.000    0.000 
#    0.000    0.000    0.000    0.000    0.000    0.000 
#
# Total GULP energy -89583.069872 kJ/mol
# GULP energy per Si atom -5598.941867 kJ/mol
# Density = 2.182525 g / cm^3
# Si number density = 21.875041 Si / 1000 Ang^3
#
#
#
# Elastic Constant Matrix: (Units=GPa)
#
#
# Indices 1 2 3 4 5 6 
#
# 1 82.1854 24.2357 15.7726 10.9832 12.4061 -15.9871
# 2 24.2357 99.3222 3.2795 14.1789 18.7206 -9.5746
# 3 15.7726 3.2795 70.7194 0.2449 20.2555 -10.9808
# 4 10.9832 14.1789 0.2449 39.3830 -5.0249 3.6979
# 5 12.4061 18.7206 20.2555 -5.0249 38.3287 -11.2652
# 6 -15.9871 -9.5746 -10.9808 3.6979 -11.2652 46.4962
#
#
#
# Elastic Compliance Matrix: (Units=1/GPa)
#
#
# Indices 1 2 3 4 5 6 
#
# 1 0.014812 -0.002223 -0.001994 -0.003948 -0.001998 0.003994
# 2 -0.002223 0.012643 0.002061 -0.004921 -0.006881 0.001050
# 3 -0.001994 0.002061 0.017421 -0.001640 -0.009272 0.001737
# 4 -0.003948 -0.004921 -0.001640 0.029535 0.007450 -0.003302
# 5 -0.001998 -0.006881 -0.009272 0.007450 0.037186 0.004123
# 6 0.003994 0.001050 0.001737 -0.003302 0.004123 0.024768
#
#
# Mechanical properties :
#
#
# Convention : Reuss Voigt Hill
#
# Bulk Modulus (GPa) = 24.65345 37.64474 31.14910
# Shear Modulus (GPa) = 32.42524 38.77085 35.59805
#
# Velocity S-wave (km/s) = 3.85423 4.21453 4.03840
# Velocity P-wave (km/s) = 5.57686 6.39761 6.00128
#
# Compressibility (1/GPa) = 0.04056227
#
# Stress axis : x y z
#
# Youngs Moduli (GPa) = 67.51225 79.09224 57.40337
#
# Poissons Ratio (x) = 0.17584 0.11448
# Poissons Ratio (y) = 0.15009 -0.11828
# Poissons Ratio (z) = 0.13464 -0.16297
#
# Static dielectric constant tensor:
#      x y z
#    x 1.796010 0.004400 -0.039450 
#    y 0.004400 1.798260 -0.029580 
#    z -0.039450 -0.029580 1.845930 
# 
# From -- ./inp_files/53104.got.cif
#   From: 2010.05.17/outbox.cif.g08.bks.cpg/sg2_27_cif.got.tgz:53104.got - 2010.06.03 11:33:40.
