data_PCOD9060222
_publ_section_title
;
Structure prediction by ZEFSAII (Michael W. Deem and Ramdas Pophale) SiO2 
 PCOD9060222
Probable space group: P -1
;
_chemical_formula_sum "Si O2"
_cell_formula_units_Z 14
_cell_length_a 11.008667
_cell_length_b 13.662228
_cell_length_c 13.497848
_cell_angle_alpha 159.205791
_cell_angle_beta 127.652014
_cell_angle_gamma 53.179310
_cell_volume 567.729526
_symmetry_space_group_name_H-M "P -1"
_symmetry_group_IT_number 2
_symmetry_cell_setting 'triclinic'
loop_
_space_group_symop_operation_xyz
x,y,z
-x,-y,-z
loop_
_atom_site_type_symbol
_atom_site_label
_atom_site_fract_x
_atom_site_fract_y
_atom_site_fract_z
Si Si1 0.976188 0.850747 0.558631
Si Si2 0.922822 0.616477 0.971482
Si Si3 0.433244 0.120637 0.186082
Si Si4 0.869500 0.113775 0.120804
Si Si5 0.424949 0.429020 0.204996
Si Si6 0.336453 0.927301 0.308667
Si Si7 0.656529 0.537423 0.281208
O O1 0.989736 0.553162 0.233706
O O2 0.044683 0.811315 0.665356
O O3 0.802887 0.998459 0.615378
O O4 0.070737 0.059477 0.739503
O O5 0.748733 0.541084 0.819098
O O6 0.000000 0.500000 0.000000
O O7 0.477707 0.420764 0.521711
O O8 0.500000 0.000000 0.000000
O O9 0.254872 0.087376 0.088765
O O10 0.525674 0.896470 0.091548
O O11 0.767927 0.364536 0.251334
O O12 0.000000 0.000000 0.000000
O O13 0.481441 0.554539 0.250293
O O14 0.500000 0.000000 0.500000
O O15 0.300272 0.154684 0.418687
O O16 0.335131 0.629569 0.975670
#
# Coordination Sequence:
#
# PCOD9060222 Si02
#       7
#     2   2   2   2   2   2   2
#     4  12  28  47  74 112 146 196 245 311 379 440
#     4  12  28  49  73 105 146 195 253 314 369 438
#     4  11  23  43  68 101 140 193 243 294 362 440
#     4  11  24  46  74 113 159 191 247 309 381 452
#     4  11  24  42  70  97 137 183 242 286 364 430
#     4  12  27  46  74 103 152 191 255 296 365 444
#     4  11  25  46  72 109 142 202 234 305 371 445
#
# _framework density 24.65963
#
# number of rings (size 3 to 8) (size 9 to 14) (size 15 to 20)
#    0.000    0.571    1.429    6.429    4.000    5.143 
#    0.000    0.000    0.000    0.000    0.000    0.000 
#    0.000    0.000    0.000    0.000    0.000    0.000 
#
# Total GULP energy -78393.072599 kJ/mol
# GULP energy per Si atom -5599.505186 kJ/mol
# Density = 2.460350 g / cm^3
# Si number density = 24.659630 Si / 1000 Ang^3
#
#
#
# Elastic Constant Matrix: (Units=GPa)
#
#
# Indices 1 2 3 4 5 6 
#
# 1 148.8728 5.2115 13.3276 -7.1169 3.7784 -27.0576
# 2 5.2115 86.8469 10.8306 -13.6106 3.5998 -8.2515
# 3 13.3276 10.8306 81.3197 8.8956 -10.6107 -10.8464
# 4 -7.1169 -13.6106 8.8956 35.7451 5.9252 10.9294
# 5 3.7784 3.5998 -10.6107 5.9252 41.4926 3.7500
# 6 -27.0576 -8.2515 -10.8464 10.9294 3.7500 35.5175
#
#
#
# Elastic Compliance Matrix: (Units=1/GPa)
#
#
# Indices 1 2 3 4 5 6 
#
# 1 0.007906 0.000300 -0.000782 0.000328 -0.001527 0.005914
# 2 0.000300 0.012939 -0.002642 0.005815 -0.002740 0.000927
# 3 -0.000782 -0.002642 0.014842 -0.007168 0.004664 0.005036
# 4 0.000328 0.005815 -0.007168 0.036535 -0.006578 -0.011136
# 5 -0.001527 -0.002740 0.004664 -0.006578 0.026716 -0.001172
# 6 0.005914 0.000927 0.005036 -0.011136 -0.001172 0.037965
#
#
# Mechanical properties :
#
#
# Convention : Reuss Voigt Hill
#
# Bulk Modulus (GPa) = 33.97013 41.75320 37.86167
# Shear Modulus (GPa) = 32.68770 41.72902 37.20836
#
# Velocity S-wave (km/s) = 3.64477 4.11810 3.88864
# Velocity P-wave (km/s) = 5.61408 6.29128 5.96230
#
# Compressibility (1/GPa) = 0.02943762
#
# Stress axis : x y z
#
# Youngs Moduli (GPa) = 126.48690 77.28585 67.37781
#
# Poissons Ratio (x) = -0.02316 0.05268
# Poissons Ratio (y) = -0.03790 0.17803
# Poissons Ratio (z) = 0.09890 0.20421
#
# Static dielectric constant tensor:
#      x y z
#    x 2.001470 0.000710 0.020500 
#    y 0.000710 1.920120 -0.019360 
#    z 0.020500 -0.019360 1.877290 
# 
# From -- ./inp_files/522058.got.cif
#   From: 2010.05.17/outbox.cif.g08.bks.cpg/sg2_262_cif.got.tgz:522058.got - 2010.06.03 11:33:40.
