data_PCOD9060480
_publ_section_title
;
Structure prediction by ZEFSAII (Michael W. Deem and Ramdas Pophale) SiO2 
 PCOD9060480
Probable space group: P -1
;
_chemical_formula_sum "Si O2"
_cell_formula_units_Z 16
_cell_length_a 14.798809
_cell_length_b 15.147289
_cell_length_c 9.153543
_cell_angle_alpha 135.738802
_cell_angle_beta 50.098714
_cell_angle_gamma 150.660910
_cell_volume 700.795867
_symmetry_space_group_name_H-M "P -1"
_symmetry_group_IT_number 2
_symmetry_cell_setting 'triclinic'
loop_
_space_group_symop_operation_xyz
x,y,z
-x,-y,-z
loop_
_atom_site_type_symbol
_atom_site_label
_atom_site_fract_x
_atom_site_fract_y
_atom_site_fract_z
Si Si1 0.018640 0.686746 0.372268
Si Si2 0.865190 0.432987 0.687432
Si Si3 0.696046 0.872728 0.387210
Si Si4 0.997686 0.254946 0.853308
Si Si5 0.625374 0.256771 0.269550
Si Si6 0.362891 0.411494 0.673709
Si Si7 0.374794 0.035778 0.008592
Si Si8 0.511019 0.752209 0.138634
O O1 0.027455 0.674489 0.175244
O O2 0.804758 0.486574 0.395776
O O3 0.141917 0.689854 0.338061
O O4 0.103947 0.896234 0.553414
O O5 0.667815 0.319258 0.704251
O O6 0.000000 0.500000 0.500000
O O7 0.948185 0.619094 0.912337
O O8 0.553115 0.855009 0.583894
O O9 0.675456 0.737132 0.354403
O O10 0.627215 0.794029 0.200882
O O11 0.163483 0.298056 0.695579
O O12 0.799056 0.030099 0.826491
O O13 0.560155 0.222464 0.128009
O O14 0.663360 0.141443 0.122889
O O15 0.500000 0.500000 0.500000
O O16 0.450756 0.591767 0.900339
O O17 0.386003 0.066084 0.861192
#
# Coordination Sequence:
#
# PCOD9060480 Si02
#       8
#     2   2   2   2   2   2   2   2
#     4  12  24  41  71 106 142 185 231 291 353 422
#     4  11  24  42  70 105 146 186 226 289 361 424
#     4  12  26  46  69 104 140 191 239 284 358 422
#     4  11  24  44  71 104 141 180 243 290 344 421
#     4  11  23  43  71 106 148 184 233 293 351 421
#     4  11  26  52  77  97 136 191 245 299 347 411
#     4  11  23  43  71 107 143 187 235 293 357 419
#     4  11  26  45  71 101 145 188 233 294 358 418
#
# _framework density 22.831185000000001
#
# number of rings (size 3 to 8) (size 9 to 14) (size 15 to 20)
#    0.000    0.750    2.500    5.250    3.500    1.500 
#    2.250    0.625    0.000    0.000    0.000    0.000 
#    0.000    0.000    0.000    0.000    0.000    0.000 
#
# Total GULP energy -89551.328292 kJ/mol
# GULP energy per Si atom -5596.958018 kJ/mol
# Density = 2.277922 g / cm^3
# Si number density = 22.831185 Si / 1000 Ang^3
#
#
#
# Elastic Constant Matrix: (Units=GPa)
#
#
# Indices 1 2 3 4 5 6 
#
# 1 128.8543 65.5096 47.4912 6.8223 7.1612 -22.5853
# 2 65.5096 134.1372 38.8736 -3.7838 -1.7623 -1.8919
# 3 47.4912 38.8736 90.6419 -22.1534 1.6127 -0.5857
# 4 6.8223 -3.7838 -22.1534 24.3669 5.8397 3.9642
# 5 7.1612 -1.7623 1.6127 5.8397 33.0699 -5.6939
# 6 -22.5853 -1.8919 -0.5857 3.9642 -5.6939 22.7500
#
#
#
# Elastic Compliance Matrix: (Units=1/GPa)
#
#
# Indices 1 2 3 4 5 6 
#
# 1 0.023529 -0.007162 -0.016053 -0.028189 0.005202 0.028563
# 2 -0.007162 0.010919 0.000271 0.005100 -0.000001 -0.007084
# 3 -0.016053 0.000271 0.028093 0.035883 -0.008264 -0.023512
# 4 -0.028189 0.005100 0.035883 0.095123 -0.020495 -0.048342
# 5 0.005202 -0.000001 -0.008264 -0.020495 0.036160 0.017573
# 6 0.028563 -0.007084 -0.023512 -0.048342 0.017573 0.083940
#
#
# Mechanical properties :
#
#
# Convention : Reuss Voigt Hill
#
# Bulk Modulus (GPa) = 60.06177 73.04247 66.55212
# Shear Modulus (GPa) = 15.18818 29.48796 22.33807
#
# Velocity S-wave (km/s) = 2.58202 3.59773 3.13133
# Velocity P-wave (km/s) = 5.93743 7.02283 6.50282
#
# Compressibility (1/GPa) = 0.01664952
#
# Stress axis : x y z
#
# Youngs Moduli (GPa) = 42.50126 91.58761 35.59664
#
# Poissons Ratio (x) = 0.65599 0.57145
# Poissons Ratio (y) = 0.30441 -0.00964
# Poissons Ratio (z) = 0.68229 -0.02480
#
# Static dielectric constant tensor:
#      x y z
#    x 1.861390 0.004480 0.010380 
#    y 0.004480 1.882830 0.022790 
#    z 0.010380 0.022790 1.862710 
# 
# From -- ./inp_files/315830.got.cif
#   From: 2010.05.17/outbox.cif.g08.bks.cpg/sg2_158_cif.got.tgz:315830.got - 2010.06.03 11:33:40.
