data_PCOD9060901
_publ_section_title
;
Structure prediction by ZEFSAII (Michael W. Deem and Ramdas Pophale) SiO2 
 PCOD9060901
Probable space group: P -1
;
_chemical_formula_sum "Si O2"
_cell_formula_units_Z 12
_cell_length_a 12.053187
_cell_length_b 8.036452
_cell_length_c 10.024204
_cell_angle_alpha 101.316473
_cell_angle_beta 35.792262
_cell_angle_gamma 80.544297
_cell_volume 459.818443
_symmetry_space_group_name_H-M "P -1"
_symmetry_group_IT_number 2
_symmetry_cell_setting 'triclinic'
loop_
_space_group_symop_operation_xyz
x,y,z
-x,-y,-z
loop_
_atom_site_type_symbol
_atom_site_label
_atom_site_fract_x
_atom_site_fract_y
_atom_site_fract_z
Si Si1 0.761357 0.038843 0.945343
Si Si2 0.004133 0.436597 0.303456
Si Si3 0.568577 0.601666 0.234255
Si Si4 0.535269 0.635571 0.885200
Si Si5 0.698497 0.690260 0.395009
Si Si6 0.889037 0.959447 0.228023
O O1 0.661786 0.125140 0.907425
O O2 0.539123 0.132450 0.273500
O O3 0.925989 0.107993 0.845910
O O4 0.911800 0.794074 0.778605
O O5 0.788731 0.587315 0.633923
O O6 0.878361 0.521400 0.296484
O O7 0.227032 0.438845 0.066413
O O8 0.493790 0.453827 0.239935
O O9 0.344242 0.829576 0.469442
O O10 0.641253 0.594078 0.314561
O O11 0.500000 0.500000 0.000000
O O12 0.814938 0.805405 0.247555
O O13 0.000000 0.000000 0.000000
#
# Coordination Sequence:
#
# PCOD9060901 Si02
#       6
#     2   2   2   2   2   2
#     4  11  23  44  69  97 136 170 212 269 329 395
#     4  11  24  44  70  98 133 175 214 265 335 390
#     4  12  23  42  67  98 136 174 213 264 329 389
#     4  11  28  48  67  93 126 175 232 277 316 371
#     4  11  24  40  66 104 141 166 206 264 331 404
#     4  12  22  39  69 104 141 171 205 262 331 402
#
# _framework density 26.097256000000002
#
# number of rings (size 3 to 8) (size 9 to 14) (size 15 to 20)
#    0.000    0.667    5.000    3.000    0.000    5.333 
#    0.000    0.833    0.000    0.000    0.000    0.000 
#    0.000    0.000    0.000    0.000    0.000    0.000 
#
# Total GULP energy -67234.626109 kJ/mol
# GULP energy per Si atom -5602.885509 kJ/mol
# Density = 2.603786 g / cm^3
# Si number density = 26.097256 Si / 1000 Ang^3
#
#
#
# Elastic Constant Matrix: (Units=GPa)
#
#
# Indices 1 2 3 4 5 6 
#
# 1 71.5759 26.2990 41.7281 -2.5772 -21.7265 -1.7059
# 2 26.2990 128.8978 29.5100 -3.6285 -15.2727 -13.5956
# 3 41.7281 29.5100 130.7170 -6.8927 -47.7641 -20.8979
# 4 -2.5772 -3.6285 -6.8927 54.3500 1.9744 -11.5408
# 5 -21.7265 -15.2727 -47.7641 1.9744 39.9862 -4.0815
# 6 -1.7059 -13.5956 -20.8979 -11.5408 -4.0815 50.9187
#
#
#
# Elastic Compliance Matrix: (Units=1/GPa)
#
#
# Indices 1 2 3 4 5 6 
#
# 1 0.018467 -0.002513 -0.004103 -0.000272 0.004036 -0.001475
# 2 -0.002513 0.008841 0.000227 0.001003 0.002518 0.002799
# 3 -0.004103 0.000227 0.018034 0.003438 0.020222 0.009725
# 4 -0.000272 0.001003 0.003438 0.020135 0.004017 0.006555
# 5 0.004036 0.002518 0.020222 0.004017 0.053581 0.014312
# 6 -0.001475 0.002799 0.009725 0.006555 0.014312 0.026961
#
#
# Mechanical properties :
#
#
# Convention : Reuss Voigt Hill
#
# Bulk Modulus (GPa) = 30.71061 58.47386 44.59223
# Shear Modulus (GPa) = 29.47216 44.62788 37.05002
#
# Velocity S-wave (km/s) = 3.36418 4.13977 3.77197
# Velocity P-wave (km/s) = 5.18494 6.73090 6.00786
#
# Compressibility (1/GPa) = 0.03256204
#
# Stress axis : x y z
#
# Youngs Moduli (GPa) = 54.15116 113.11282 55.45193
#
# Poissons Ratio (x) = 0.28430 0.22753
# Poissons Ratio (y) = 0.13611 -0.01259
# Poissons Ratio (z) = 0.22219 -0.02568
#
# Static dielectric constant tensor:
#      x y z
#    x 2.110410 -0.096140 0.032470 
#    y -0.096140 2.093110 0.021800 
#    z 0.032470 0.021800 2.070600 
# 
# From -- ./inp_files/33825.got.cif
#   From: 2010.05.17/outbox.cif.g08.bks.cpg/sg2_17_cif.got.tgz:33825.got - 2010.06.03 11:33:40.
