data_PCOD9060961
_publ_section_title
;
Structure prediction by ZEFSAII (Michael W. Deem and Ramdas Pophale) SiO2 
 PCOD9060961
Probable space group: P -1
;
_chemical_formula_sum "Si O2"
_cell_formula_units_Z 16
_cell_length_a 16.685461
_cell_length_b 11.494762
_cell_length_c 8.629034
_cell_angle_alpha 53.549065
_cell_angle_beta 121.361131
_cell_angle_gamma 146.620982
_cell_volume 731.306138
_symmetry_space_group_name_H-M "P -1"
_symmetry_group_IT_number 2
_symmetry_cell_setting 'triclinic'
loop_
_space_group_symop_operation_xyz
x,y,z
-x,-y,-z
loop_
_atom_site_type_symbol
_atom_site_label
_atom_site_fract_x
_atom_site_fract_y
_atom_site_fract_z
Si Si1 0.488533 0.574430 0.639957
Si Si2 0.266426 0.546099 0.422519
Si Si3 0.008901 0.847185 0.061808
Si Si4 0.262212 0.652662 0.684881
Si Si5 0.974629 0.131925 0.308704
Si Si6 0.708105 0.005857 0.709522
Si Si7 0.349942 0.149628 0.726058
Si Si8 0.573183 0.997257 0.877885
O O1 0.332610 0.464772 0.537286
O O2 0.450195 0.361317 0.779310
O O3 0.595183 0.732480 0.478243
O O4 0.566764 0.747368 0.721570
O O5 0.272905 0.595490 0.569784
O O6 0.106501 0.375080 0.327887
O O7 0.376250 0.778743 0.257946
O O8 0.876456 0.587236 0.187379
O O9 0.156882 0.943441 0.188759
O O10 0.011245 0.855699 0.871661
O O11 0.000000 0.000000 0.000000
O O12 0.259865 0.822689 0.511757
O O13 0.406995 0.790689 0.819460
O O14 0.819107 0.014348 0.291636
O O15 0.000000 0.000000 0.500000
O O16 0.672632 0.035188 0.816518
O O17 0.386432 0.028753 0.899659
#
# Coordination Sequence:
#
# PCOD9060961 Si02
#       8
#     2   2   2   2   2   2   2   2
#     4  11  24  43  70  97 130 179 223 279 333 392
#     4  11  23  44  70  97 135 177 219 274 340 396
#     4  12  29  43  70 104 131 181 229 272 335 405
#     4  11  24  45  71 101 137 176 221 284 333 396
#     4  12  26  47  66  95 143 176 219 279 337 396
#     4  11  23  47  69  97 137 175 226 278 337 394
#     4  11  27  42  66 100 134 177 224 276 335 397
#     4  11  23  45  69 102 132 175 231 275 333 395
#
# _framework density 21.878661999999998
#
# number of rings (size 3 to 8) (size 9 to 14) (size 15 to 20)
#    0.000    0.750    5.000    1.875    7.000    2.500 
#    0.000    0.000    0.000    0.000    0.000    0.000 
#    0.000    0.000    0.000    0.000    0.000    0.000 
#
# Total GULP energy -89520.638176 kJ/mol
# GULP energy per Si atom -5595.039886 kJ/mol
# Density = 2.182887 g / cm^3
# Si number density = 21.878662 Si / 1000 Ang^3
#
#
#
# Elastic Constant Matrix: (Units=GPa)
#
#
# Indices 1 2 3 4 5 6 
#
# 1 66.3253 15.7398 22.8461 12.0637 10.7286 20.9892
# 2 15.7398 99.6510 13.7292 22.9915 -0.2387 26.3301
# 3 22.8461 13.7292 88.2723 7.2119 10.4306 26.6090
# 4 12.0637 22.9915 7.2119 25.8274 8.4608 5.0613
# 5 10.7286 -0.2387 10.4306 8.4608 27.3100 0.6823
# 6 20.9892 26.3301 26.6090 5.0613 0.6823 36.3872
#
#
#
# Elastic Compliance Matrix: (Units=1/GPa)
#
#
# Indices 1 2 3 4 5 6 
#
# 1 0.020720 0.001325 -0.001033 -0.006616 -0.005405 -0.011133
# 2 0.001325 0.015923 0.001310 -0.014179 0.003795 -0.011343
# 3 -0.001033 0.001310 0.015511 -0.001183 -0.004855 -0.011439
# 4 -0.006616 -0.014179 -0.001183 0.058395 -0.015342 0.007107
# 5 -0.005405 0.003795 -0.004855 -0.015342 0.045250 0.005208
# 6 -0.011133 -0.011343 -0.011439 0.007107 0.005208 0.049391
#
#
# Mechanical properties :
#
#
# Convention : Reuss Voigt Hill
#
# Bulk Modulus (GPa) = 18.06480 39.87541 28.97010
# Shear Modulus (GPa) = 22.68211 31.36716 27.02463
#
# Velocity S-wave (km/s) = 3.22331 3.79051 3.51836
# Velocity P-wave (km/s) = 4.70401 6.11740 5.45666
#
# Compressibility (1/GPa) = 0.05535629
#
# Stress axis : x y z
#
# Youngs Moduli (GPa) = 48.26329 62.80247 64.47170
#
# Poissons Ratio (x) = -0.08321 0.06662
# Poissons Ratio (y) = -0.06395 -0.08445
# Poissons Ratio (z) = 0.04987 -0.08226
#
# Static dielectric constant tensor:
#      x y z
#    x 1.788610 -0.019770 -0.012970 
#    y -0.019770 1.786790 0.000010 
#    z -0.012970 0.000010 1.773750 
# 
# From -- ./inp_files/186725.got.cif
#   From: 2010.05.17/outbox.cif.g08.bks.cpg/sg2_94_cif.got.tgz:186725.got - 2010.06.03 11:33:40.
