data_PCOD9060380
_publ_section_title
;
Structure prediction by ZEFSAII (Michael W. Deem and Ramdas Pophale) SiO2 
 PCOD9060380
Probable space group: P -1
;
_chemical_formula_sum "Si O2"
_cell_formula_units_Z 15
_cell_length_a 8.723876
_cell_length_b 9.243144
_cell_length_c 9.400731
_cell_angle_alpha 105.736844
_cell_angle_beta 79.920013
_cell_angle_gamma 112.156402
_cell_volume 673.494389
_symmetry_space_group_name_H-M "P -1"
_symmetry_group_IT_number 2
_symmetry_cell_setting 'triclinic'
loop_
_space_group_symop_operation_xyz
x,y,z
-x,-y,-z
loop_
_atom_site_type_symbol
_atom_site_label
_atom_site_fract_x
_atom_site_fract_y
_atom_site_fract_z
Si Si1 0.212154 0.193742 0.907828
Si Si2 0.248921 0.692849 0.134924
Si Si3 0.705868 0.268746 0.191741
Si Si4 0.500000 0.500000 0.000000
Si Si5 0.133345 0.149143 0.440862
Si Si6 0.428309 0.022428 0.363198
Si Si7 0.127711 0.382761 0.724325
Si Si8 0.964367 0.158579 0.185404
O O1 0.179896 0.259735 0.780532
O O2 0.188607 0.009070 0.847011
O O3 0.383631 0.311514 0.971456
O O4 0.063665 0.192614 0.033508
O O5 0.335710 0.557035 0.086762
O O6 0.051950 0.621507 0.189931
O O7 0.335730 0.845850 0.263749
O O8 0.270567 0.759746 0.986425
O O9 0.557832 0.136641 0.259705
O O10 0.716255 0.452421 0.241188
O O11 0.873576 0.284226 0.255711
O O12 0.302752 0.118937 0.430270
O O13 0.119278 0.310690 0.550329
O O14 0.086347 0.143357 0.282359
O O15 0.000000 0.000000 0.500000
O O16 0.500000 0.000000 0.500000
#
# Coordination Sequence:
#
# PCOD9060380 Si02
#       8
#     2   2   2   1   2   2   2   2
#     4  11  23  43  70 104 142 186 238 300 344 430
#     4  12  25  47  76 106 146 191 239 299 360 428
#     4  12  26  46  73 111 141 184 244 307 357 420
#     4  12  26  40  72 108 146 178 236 300 372 400
#     4  12  25  47  75 101 143 198 241 286 360 440
#     4  12  29  49  72 106 152 192 237 296 364 430
#     4  12  25  50  74 104 148 191 241 299 357 426
#     4  11  24  43  74 102 139 193 246 283 356 432
#
# _framework density 22.271899999999999
#
# number of rings (size 3 to 8) (size 9 to 14) (size 15 to 20)
#    0.000    0.267    5.333    3.200    5.600    1.067 
#    2.400    0.000    0.000    0.000    0.000    0.000 
#    0.000    0.000    0.000    0.000    0.000    0.000 
#
# Total GULP energy -83551.836061 kJ/mol
# GULP energy per Si atom -5570.122404 kJ/mol
# Density = 2.222121 g / cm^3
# Si number density = 22.271900 Si / 1000 Ang^3
#
#
#
# Elastic Constant Matrix: (Units=GPa)
#
#
# Indices 1 2 3 4 5 6 
#
# 1 77.9370 7.7913 28.7394 -8.2101 -20.3081 -4.3623
# 2 7.7913 69.9424 30.2129 -6.2265 5.2855 30.0544
# 3 28.7394 30.2129 78.2605 6.5672 2.0118 3.5570
# 4 -8.2101 -6.2265 6.5672 27.4057 -0.6167 2.4671
# 5 -20.3081 5.2855 2.0118 -0.6167 38.5485 8.5901
# 6 -4.3623 30.0544 3.5570 2.4671 8.5901 34.1486
#
#
#
# Elastic Compliance Matrix: (Units=1/GPa)
#
#
# Indices 1 2 3 4 5 6 
#
# 1 0.019730 0.002905 -0.009318 0.009285 0.011200 -0.002554
# 2 0.002905 0.034217 -0.014260 0.014911 0.004617 -0.030497
# 3 -0.009318 -0.014260 0.022410 -0.012609 -0.006927 0.011679
# 4 0.009285 0.014911 -0.012609 0.047297 0.007830 -0.016010
# 5 0.011200 0.004617 -0.006927 0.007830 0.034162 -0.011071
# 6 -0.002554 -0.030497 0.011679 -0.016010 -0.011071 0.058523
#
#
# Mechanical properties :
#
#
# Convention : Reuss Voigt Hill
#
# Bulk Modulus (GPa) = 28.56291 39.95857 34.26074
# Shear Modulus (GPa) = 18.56288 30.64699 24.60494
#
# Velocity S-wave (km/s) = 2.89011 3.71352 3.32739
# Velocity P-wave (km/s) = 4.89791 6.03052 5.49348
#
# Compressibility (1/GPa) = 0.03501044
#
# Stress axis : x y z
#
# Youngs Moduli (GPa) = 50.68439 29.22549 44.62291
#
# Poissons Ratio (x) = -0.08489 0.41578
# Poissons Ratio (y) = -0.14722 0.63632
# Poissons Ratio (z) = 0.47226 0.41676
#
# Static dielectric constant tensor:
#      x y z
#    x 1.866960 -0.003600 0.028440 
#    y -0.003600 1.784460 0.006890 
#    z 0.028440 0.006890 1.852560 
# 
# From -- ./inp_files/159615.got.cif
#   From: 2010.05.17/outbox.cif.g08.bks.cpg/sg2_80_cif.got.tgz:159615.got - 2010.06.03 11:33:40.
