data_PCOD9060191
_publ_section_title
;
Structure prediction by ZEFSAII (Michael W. Deem and Ramdas Pophale) SiO2 
 PCOD9060191
Probable space group: P -1
;
_chemical_formula_sum "Si O2"
_cell_formula_units_Z 16
_cell_length_a 7.723012
_cell_length_b 11.787988
_cell_length_c 10.198849
_cell_angle_alpha 128.886755
_cell_angle_beta 69.676687
_cell_angle_gamma 95.807264
_cell_volume 668.993366
_symmetry_space_group_name_H-M "P -1"
_symmetry_group_IT_number 2
_symmetry_cell_setting 'triclinic'
loop_
_space_group_symop_operation_xyz
x,y,z
-x,-y,-z
loop_
_atom_site_type_symbol
_atom_site_label
_atom_site_fract_x
_atom_site_fract_y
_atom_site_fract_z
Si Si1 0.407718 0.667322 0.382603
Si Si2 0.283684 0.981568 0.565359
Si Si3 0.863286 0.621927 0.544650
Si Si4 0.390255 0.966729 0.135006
Si Si5 0.757989 0.790813 0.463150
Si Si6 0.991645 0.090348 0.934033
Si Si7 0.730240 0.348096 0.297890
Si Si8 0.576603 0.672085 0.855573
O O1 0.299605 0.804280 0.427738
O O2 0.627003 0.689352 0.348921
O O3 0.315865 0.693181 0.571559
O O4 0.390552 0.497399 0.225534
O O5 0.500000 0.000000 0.500000
O O6 0.173580 0.092352 0.567339
O O7 0.182623 0.044510 0.771576
O O8 0.908920 0.712990 0.472951
O O9 0.730495 0.521108 0.435844
O O10 0.754193 0.710446 0.756168
O O11 0.000000 0.500000 0.500000
O O12 0.178488 0.951271 0.140026
O O13 0.386548 0.104983 0.329914
O O14 0.490832 0.814070 0.064469
O O15 0.500000 0.000000 0.000000
O O16 0.920656 0.258633 0.122013
O O17 0.000000 0.000000 0.000000
O O18 0.576969 0.324390 0.215969
#
# Coordination Sequence:
#
# PCOD9060191 Si02
#       8
#     2   2   2   2   2   2   2   2
#     4  10  17  38  65  90 120 175 215 255 313 393
#     4  10  24  40  66  96 129 176 209 264 331 381
#     4  11  21  33  57  95 124 162 205 269 321 369
#     4  11  23  37  64  97 127 168 206 275 328 361
#     4  11  21  40  61  90 134 163 216 260 325 384
#     4  11  23  39  63  97 126 163 228 265 305 388
#     4  10  18  35  63  83 119 162 217 260 301 365
#     4  10  19  37  61  86 124 165 215 257 314 373
#
# _framework density 23.916529000000001
#
# number of rings (size 3 to 8) (size 9 to 14) (size 15 to 20)
#    0.000    1.500    5.000    1.500    3.500    0.500 
#    0.000    1.250    0.000    0.000    0.000    0.000 
#    0.000    0.000    0.000    0.000    0.000    0.000 
#
# Total GULP energy -89222.585250 kJ/mol
# GULP energy per Si atom -5576.411578 kJ/mol
# Density = 2.386209 g / cm^3
# Si number density = 23.916529 Si / 1000 Ang^3
#
#
#
# Elastic Constant Matrix: (Units=GPa)
#
#
# Indices 1 2 3 4 5 6 
#
# 1 78.5984 22.5041 5.4327 -0.9310 -11.3778 2.4930
# 2 22.5041 160.4768 14.1275 9.0762 -9.9963 -27.4778
# 3 5.4327 14.1275 78.9365 7.0047 -24.8726 7.4414
# 4 -0.9310 9.0762 7.0047 41.6870 1.9233 -2.5082
# 5 -11.3778 -9.9963 -24.8726 1.9233 31.2763 7.3878
# 6 2.4930 -27.4778 7.4414 -2.5082 7.3878 42.8760
#
#
#
# Elastic Compliance Matrix: (Units=1/GPa)
#
#
# Indices 1 2 3 4 5 6 
#
# 1 0.014424 -0.002441 0.002038 -0.000052 0.007029 -0.003971
# 2 -0.002441 0.007687 -0.002071 -0.000981 -0.001341 0.005602
# 3 0.002038 -0.002071 0.019685 -0.004131 0.017923 -0.008193
# 4 -0.000052 -0.000981 -0.004131 0.025316 -0.005781 0.002568
# 5 0.007029 -0.001341 0.017923 -0.005781 0.051939 -0.013667
# 6 -0.003971 0.005602 -0.008193 0.002568 -0.013667 0.031071
#
#
# Mechanical properties :
#
#
# Convention : Reuss Voigt Hill
#
# Bulk Modulus (GPa) = 27.13934 44.68225 35.91079
# Shear Modulus (GPa) = 29.87680 41.56437 35.72058
#
# Velocity S-wave (km/s) = 3.53825 4.17333 3.86884
# Velocity P-wave (km/s) = 5.29759 6.47652 5.91649
#
# Compressibility (1/GPa) = 0.03684688
#
# Stress axis : x y z
#
# Youngs Moduli (GPa) = 69.32964 130.08589 50.79916
#
# Poissons Ratio (x) = 0.31758 -0.10352
# Poissons Ratio (y) = 0.16925 0.10523
# Poissons Ratio (z) = -0.14129 0.26946
#
# Static dielectric constant tensor:
#      x y z
#    x 2.045700 -0.041520 -0.016320 
#    y -0.041520 2.006820 0.036490 
#    z -0.016320 0.036490 1.976120 
# 
# From -- ./inp_files/391276.got.cif
#   From: 2010.05.17/outbox.cif.g08.bks.cpg/sg2_196_cif.got.tgz:391276.got - 2010.06.03 11:33:40.
