data_PCOD9060812
_publ_section_title
;
Structure prediction by ZEFSAII (Michael W. Deem and Ramdas Pophale) SiO2 
 PCOD9060812
Probable space group: P -1
;
_chemical_formula_sum "Si O2"
_cell_formula_units_Z 16
_cell_length_a 22.085798
_cell_length_b 9.760820
_cell_length_c 25.567197
_cell_angle_alpha 26.048704
_cell_angle_beta 162.543388
_cell_angle_gamma 145.564410
_cell_volume 703.931384
_symmetry_space_group_name_H-M "P -1"
_symmetry_group_IT_number 2
_symmetry_cell_setting 'triclinic'
loop_
_space_group_symop_operation_xyz
x,y,z
-x,-y,-z
loop_
_atom_site_type_symbol
_atom_site_label
_atom_site_fract_x
_atom_site_fract_y
_atom_site_fract_z
Si Si1 0.082947 0.158042 0.463808
Si Si2 0.471772 0.723627 0.186746
Si Si3 0.841210 0.266374 0.809231
Si Si4 0.654555 0.380048 0.355605
Si Si5 0.280295 0.215310 0.046411
Si Si6 0.864020 0.665100 0.783414
Si Si7 0.560721 0.357353 0.697044
Si Si8 0.117141 0.198577 0.664350
O O1 0.327734 0.137745 0.680209
O O2 0.000000 0.000000 0.500000
O O3 0.027864 0.987880 0.423617
O O4 0.938826 0.523382 0.222050
O O5 0.560554 0.445341 0.313502
O O6 0.395402 0.608795 0.217720
O O7 0.285921 0.966861 0.919936
O O8 0.940750 0.476174 0.858699
O O9 0.684610 0.520254 0.557129
O O10 0.730734 0.055247 0.827606
O O11 0.000000 0.000000 0.000000
O O12 0.468253 0.367108 0.166727
O O13 0.757341 0.659950 0.325426
O O14 0.824115 0.041424 0.612560
O O15 0.341170 0.009683 0.114158
O O16 0.649721 0.586180 0.652932
O O17 0.000000 0.500000 0.000000
O O18 0.000000 0.500000 0.500000
#
# Coordination Sequence:
#
# PCOD9060812 Si02
#       8
#     2   2   2   2   2   2   2   2
#     4  12  26  48  74 102 140 190 237 292 356 412
#     4  12  28  46  74 107 144 185 239 293 354 424
#     4  11  23  44  68 103 139 185 235 281 352 423
#     4  12  24  49  70  99 146 188 236 295 350 418
#     4  11  23  45  74  97 142 189 230 295 353 415
#     4  11  26  43  71 103 144 186 230 292 352 420
#     4  11  25  46  68 110 139 182 237 283 361 421
#     4  12  30  48  72 108 142 186 243 293 351 422
#
# _framework density 22.729488
#
# number of rings (size 3 to 8) (size 9 to 14) (size 15 to 20)
#    0.000    0.500    5.000    2.625   10.500    3.000 
#    0.000    0.000    0.000    0.000    0.000    0.000 
#    0.000    0.000    0.000    0.000    0.000    0.000 
#
# Total GULP energy -89499.763156 kJ/mol
# GULP energy per Si atom -5593.735197 kJ/mol
# Density = 2.267775 g / cm^3
# Si number density = 22.729488 Si / 1000 Ang^3
#
#
#
# Elastic Constant Matrix: (Units=GPa)
#
#
# Indices 1 2 3 4 5 6 
#
# 1 94.6500 2.2157 26.3634 -16.0349 -2.9455 -29.1674
# 2 2.2157 44.0759 39.5227 -4.4487 -8.7184 -11.7980
# 3 26.3634 39.5227 138.7283 -1.8409 -8.6907 -34.8241
# 4 -16.0349 -4.4487 -1.8409 36.2859 -8.0597 7.3004
# 5 -2.9455 -8.7184 -8.6907 -8.0597 36.5534 -5.0456
# 6 -29.1674 -11.7980 -34.8241 7.3004 -5.0456 45.1140
#
#
#
# Elastic Compliance Matrix: (Units=1/GPa)
#
#
# Indices 1 2 3 4 5 6 
#
# 1 0.014899 0.004549 -0.001445 0.006234 0.004588 0.009211
# 2 0.004549 0.033913 -0.008641 0.006618 0.008554 0.005025
# 3 -0.001445 -0.008641 0.011518 -0.002142 0.000938 0.006149
# 4 0.006234 0.006618 -0.002142 0.033026 0.008819 -0.000250
# 5 0.004588 0.008554 0.000938 0.008819 0.033066 0.008198
# 6 0.009211 0.005025 0.006149 -0.000250 0.008198 0.035139
#
#
# Mechanical properties :
#
#
# Convention : Reuss Voigt Hill
#
# Bulk Modulus (GPa) = 20.30196 45.96196 33.13196
# Shear Modulus (GPa) = 26.44760 37.54749 31.99755
#
# Velocity S-wave (km/s) = 3.41483 4.06880 3.75608
# Velocity P-wave (km/s) = 4.94969 6.50682 5.78093
#
# Compressibility (1/GPa) = 0.04925634
#
# Stress axis : x y z
#
# Youngs Moduli (GPa) = 67.12055 29.48737 86.81725
#
# Poissons Ratio (x) = -0.13414 0.12545
# Poissons Ratio (y) = -0.30533 0.75017
# Poissons Ratio (z) = 0.09699 0.25479
#
# Static dielectric constant tensor:
#      x y z
#    x 1.785170 -0.137300 -0.220950 
#    y -0.137300 1.593350 -0.458820 
#    z -0.220950 -0.458820 1.021140 
# 
# From -- ./inp_files/613574.got.cif
#   From: 2010.05.17/outbox.cif.g08.bks.cpg/sg2_307_cif.got.tgz:613574.got - 2010.06.03 11:33:40.
