data_PCOD9060693
_publ_section_title
;
Structure prediction by ZEFSAII (Michael W. Deem and Ramdas Pophale) SiO2 
 PCOD9060693
Probable space group: P -1
;
_chemical_formula_sum "Si O2"
_cell_formula_units_Z 14
_cell_length_a 9.345340
_cell_length_b 12.123981
_cell_length_c 9.688328
_cell_angle_alpha 128.302717
_cell_angle_beta 132.642382
_cell_angle_gamma 61.395811
_cell_volume 630.358045
_symmetry_space_group_name_H-M "P -1"
_symmetry_group_IT_number 2
_symmetry_cell_setting 'triclinic'
loop_
_space_group_symop_operation_xyz
x,y,z
-x,-y,-z
loop_
_atom_site_type_symbol
_atom_site_label
_atom_site_fract_x
_atom_site_fract_y
_atom_site_fract_z
Si Si1 0.852824 0.590920 0.575803
Si Si2 0.127314 0.376492 0.068854
Si Si3 0.403956 0.636095 0.677006
Si Si4 0.554326 0.076286 0.952909
Si Si5 0.811726 0.920678 0.777449
Si Si6 0.774264 0.949073 0.466933
Si Si7 0.113997 0.789887 0.410584
O O1 0.926933 0.606732 0.793333
O O2 0.664064 0.502220 0.400920
O O3 0.826905 0.752319 0.634899
O O4 0.000000 0.500000 0.500000
O O5 0.363236 0.370217 0.203291
O O6 0.000000 0.500000 0.000000
O O7 0.040421 0.244904 0.835258
O O8 0.266506 0.665499 0.474037
O O9 0.350291 0.781531 0.838124
O O10 0.381645 0.132484 0.778803
O O11 0.677157 0.959792 0.851150
O O12 0.500000 0.000000 0.000000
O O13 0.738081 0.978392 0.625530
O O14 0.000000 0.000000 0.000000
O O15 0.983694 0.863645 0.506425
O O16 0.765911 0.094406 0.490106
#
# Coordination Sequence:
#
# PCOD9060693 Si02
#       7
#     2   2   2   2   2   2   2
#     4  12  27  47  72 106 153 193 236 310 373 427
#     4  12  26  45  76 107 140 193 250 294 365 448
#     4  12  25  47  76 110 146 190 244 311 363 432
#     4  12  24  45  75 109 144 194 250 301 365 438
#     4  12  27  46  71 108 150 194 243 303 372 440
#     4  11  24  43  73 108 147 190 244 303 366 439
#     4  11  23  43  76 108 142 187 250 301 363 435
#
# _framework density 22.209599999999998
#
# number of rings (size 3 to 8) (size 9 to 14) (size 15 to 20)
#    0.000    0.286    4.286    5.143    2.000    0.000 
#    0.000    4.286    0.000    0.000    0.000    0.000 
#    0.000    0.000    0.000    0.000    0.000    0.000 
#
# Total GULP energy -78193.447289 kJ/mol
# GULP energy per Si atom -5585.246235 kJ/mol
# Density = 2.215905 g / cm^3
# Si number density = 22.209600 Si / 1000 Ang^3
#
#
#
# Elastic Constant Matrix: (Units=GPa)
#
#
# Indices 1 2 3 4 5 6 
#
# 1 130.4601 24.6139 56.0873 -4.5689 -15.6164 -8.0770
# 2 24.6139 68.3441 16.1384 11.0109 11.8057 -9.1060
# 3 56.0873 16.1384 133.7782 1.8763 4.8599 8.4368
# 4 -4.5689 11.0109 1.8763 50.1078 -5.2660 -4.5673
# 5 -15.6164 11.8057 4.8599 -5.2660 44.8836 2.7496
# 6 -8.0770 -9.1060 8.4368 -4.5673 2.7496 27.6138
#
#
#
# Elastic Compliance Matrix: (Units=1/GPa)
#
#
# Indices 1 2 3 4 5 6 
#
# 1 0.011491 -0.004024 -0.004799 0.003026 0.005721 0.003431
# 2 -0.004024 0.018923 -0.000593 -0.004788 -0.007191 0.005169
# 3 -0.004799 -0.000593 0.009959 -0.001361 -0.002468 -0.004621
# 4 0.003026 -0.004788 -0.001361 0.022112 0.004876 0.002894
# 5 0.005721 -0.007191 -0.002468 0.004876 0.027114 -0.001837
# 6 0.003431 0.005169 -0.004621 0.002894 -0.001837 0.040995
#
#
# Mechanical properties :
#
#
# Convention : Reuss Voigt Hill
#
# Bulk Modulus (GPa) = 46.42312 58.47349 52.44830
# Shear Modulus (GPa) = 31.92733 40.23723 36.08228
#
# Velocity S-wave (km/s) = 3.79561 4.26103 4.03504
# Velocity P-wave (km/s) = 6.33692 7.11292 6.73611
#
# Compressibility (1/GPa) = 0.02154099
#
# Stress axis : x y z
#
# Youngs Moduli (GPa) = 87.02831 52.84490 100.41423
#
# Poissons Ratio (x) = 0.21263 0.48186
# Poissons Ratio (y) = 0.35017 0.05960
# Poissons Ratio (z) = 0.41762 0.03136
#
# Static dielectric constant tensor:
#      x y z
#    x 1.851040 -0.042600 0.024470 
#    y -0.042600 1.960940 0.021560 
#    z 0.024470 0.021560 1.912970 
# 
# From -- ./inp_files/190484.got.cif
#   From: 2010.05.17/outbox.cif.g08.bks.cpg/sg2_96_cif.got.tgz:190484.got - 2010.06.03 11:33:40.
