data_PCOD9060339
_publ_section_title
;
Structure prediction by ZEFSAII (Michael W. Deem and Ramdas Pophale) SiO2 
 PCOD9060339
Probable space group: P -1
;
_chemical_formula_sum "Si O2"
_cell_formula_units_Z 12
_cell_length_a 8.924350
_cell_length_b 6.614465
_cell_length_c 15.570813
_cell_angle_alpha 108.283254
_cell_angle_beta 38.116121
_cell_angle_gamma 97.313439
_cell_volume 527.385368
_symmetry_space_group_name_H-M "P -1"
_symmetry_group_IT_number 2
_symmetry_cell_setting 'triclinic'
loop_
_space_group_symop_operation_xyz
x,y,z
-x,-y,-z
loop_
_atom_site_type_symbol
_atom_site_label
_atom_site_fract_x
_atom_site_fract_y
_atom_site_fract_z
Si Si1 0.501980 0.743216 0.562042
Si Si2 0.108154 0.356217 0.350284
Si Si3 0.425648 0.882314 0.797545
Si Si4 0.116505 0.013325 0.669866
Si Si5 0.793040 0.446168 0.850950
Si Si6 0.937210 0.684378 0.980982
O O1 0.500000 0.500000 0.500000
O O2 0.564799 0.773401 0.635592
O O3 0.234063 0.900634 0.688397
O O4 0.692260 0.847632 0.434788
O O5 0.382153 0.210019 0.226571
O O6 0.127286 0.493776 0.272862
O O7 0.000000 0.500000 0.500000
O O8 0.927776 0.187125 0.393519
O O9 0.171929 0.795754 0.901825
O O10 0.324271 0.141722 0.869279
O O11 0.870259 0.193242 0.808041
O O12 0.921641 0.576199 0.880541
O O13 0.500000 0.500000 0.000000
O O14 0.000000 0.500000 0.000000
#
# Coordination Sequence:
#
# PCOD9060339 Si02
#       6
#     2   2   2   2   2   2
#     4  11  23  43  69  98 131 176 229 282 337 403
#     4  12  27  45  67 101 141 179 226 280 338 407
#     4  11  24  41  65  95 133 174 223 279 336 398
#     4  11  24  42  69  97 132 177 225 278 341 399
#     4  12  26  44  69 100 137 180 227 280 340 404
#     4  11  24  43  67  96 131 175 227 281 336 399
#
# _framework density 22.753758000000001
#
# number of rings (size 3 to 8) (size 9 to 14) (size 15 to 20)
#    0.000    0.667    0.000    8.000    0.000   13.333 
#    0.000    0.000    0.000    0.000    0.000    0.000 
#    0.000    0.000    0.000    0.000    0.000    0.000 
#
# Total GULP energy -67087.919702 kJ/mol
# GULP energy per Si atom -5590.659975 kJ/mol
# Density = 2.270197 g / cm^3
# Si number density = 22.753758 Si / 1000 Ang^3
#
#
#
# Elastic Constant Matrix: (Units=GPa)
#
#
# Indices 1 2 3 4 5 6 
#
# 1 125.3731 50.0193 23.7913 9.4526 1.9382 -23.6651
# 2 50.0193 126.6932 40.2141 9.6274 2.0339 -11.6327
# 3 23.7913 40.2141 76.8984 9.0158 2.9003 -14.9899
# 4 9.4526 9.6274 9.0158 39.3708 -3.7586 -10.0215
# 5 1.9382 2.0339 2.9003 -3.7586 41.4054 9.4791
# 6 -23.6651 -11.6327 -14.9899 -10.0215 9.4791 53.1606
#
#
#
# Elastic Compliance Matrix: (Units=1/GPa)
#
#
# Indices 1 2 3 4 5 6 
#
# 1 0.010228 -0.003467 -0.000500 -0.000654 -0.001190 0.003742
# 2 -0.003467 0.010716 -0.004554 -0.000911 0.000023 -0.000658
# 3 -0.000500 -0.004554 0.016493 -0.001852 -0.001858 0.003414
# 4 -0.000654 -0.000911 -0.001852 0.027349 0.001813 0.003820
# 5 -0.001190 0.000023 -0.001858 0.001813 0.025712 -0.005291
# 6 0.003742 -0.000658 0.003414 0.003820 -0.005291 0.022959
#
#
# Mechanical properties :
#
#
# Convention : Reuss Voigt Hill
#
# Bulk Modulus (GPa) = 49.03145 61.89046 55.46095
# Shear Modulus (GPa) = 36.41750 41.11672 38.76711
#
# Velocity S-wave (km/s) = 4.00497 4.25553 4.13215
# Velocity P-wave (km/s) = 6.55606 7.16974 6.86976
#
# Compressibility (1/GPa) = 0.02039507
#
# Stress axis : x y z
#
# Youngs Moduli (GPa) = 97.76628 93.32183 60.63247
#
# Poissons Ratio (x) = 0.32355 0.03034
# Poissons Ratio (y) = 0.33896 0.27609
# Poissons Ratio (z) = 0.04892 0.42494
#
# Static dielectric constant tensor:
#      x y z
#    x 1.440160 0.074090 -0.610750 
#    y 0.074090 1.836710 0.169820 
#    z -0.610750 0.169820 1.081870 
# 
# From -- ./inp_files/17757.got.cif
#   From: 2010.05.17/outbox.cif.g08.bks.cpg/sg2_9_cif.got.tgz:17757.got - 2010.06.03 11:33:40.
