data_PCOD9060719
_publ_section_title
;
Structure prediction by ZEFSAII (Michael W. Deem and Ramdas Pophale) SiO2 
 PCOD9060719
Probable space group: P -1
;
_chemical_formula_sum "Si O2"
_cell_formula_units_Z 16
_cell_length_a 5.846166
_cell_length_b 23.262498
_cell_length_c 8.987874
_cell_angle_alpha 54.407451
_cell_angle_beta 50.685568
_cell_angle_gamma 75.071367
_cell_volume 756.914848
_symmetry_space_group_name_H-M "P -1"
_symmetry_group_IT_number 2
_symmetry_cell_setting 'triclinic'
loop_
_space_group_symop_operation_xyz
x,y,z
-x,-y,-z
loop_
_atom_site_type_symbol
_atom_site_label
_atom_site_fract_x
_atom_site_fract_y
_atom_site_fract_z
Si Si1 0.305197 0.553458 0.429299
Si Si2 0.326082 0.547477 0.102111
Si Si3 0.604263 0.299786 0.657105
Si Si4 0.989031 0.202898 0.773021
Si Si5 0.982294 0.212988 0.101734
Si Si6 0.804433 0.932007 0.263132
Si Si7 0.914818 0.069212 0.512905
Si Si8 0.603445 0.302830 0.314965
O O1 0.500000 0.500000 0.500000
O O2 0.444195 0.570464 0.182999
O O3 0.292027 0.628013 0.403534
O O4 0.977663 0.505909 0.651479
O O5 0.500000 0.500000 0.000000
O O6 0.313653 0.620451 0.911215
O O7 0.715935 0.310030 0.427008
O O8 0.708158 0.227173 0.775813
O O9 0.248809 0.280104 0.861843
O O10 0.108791 0.137484 0.747543
O O11 0.251221 0.272135 0.532485
O O12 0.907804 0.187582 0.001926
O O13 0.055641 0.145397 0.265132
O O14 0.734152 0.245107 0.248455
O O15 0.448943 0.933760 0.367620
O O16 0.937596 0.931294 0.379972
O O17 0.000000 0.000000 0.000000
O O18 0.000000 0.000000 0.500000
#
# Coordination Sequence:
#
# PCOD9060719 Si02
#       8
#     2   2   2   2   2   2   2   2
#     4  11  24  42  61  96 129 173 228 283 350 415
#     4  11  24  40  65  90 131 172 224 285 346 419
#     4  11  25  40  67  96 133 178 225 291 347 421
#     4  11  25  43  68  98 139 176 232 285 351 414
#     4  11  25  43  68  99 136 179 230 285 348 418
#     4  12  27  47  75 106 150 188 237 297 351 420
#     4  12  27  47  75 108 146 191 240 289 357 422
#     4  11  23  44  63  97 132 174 227 282 350 419
#
# _framework density 21.138439000000002
#
# number of rings (size 3 to 8) (size 9 to 14) (size 15 to 20)
#    0.000    0.750    1.250    5.250    5.250   11.000 
#    0.000    0.000    0.000    0.000    0.000    0.000 
#    0.000    0.000    0.000    0.000    0.000    0.000 
#
# Total GULP energy -89225.309823 kJ/mol
# GULP energy per Si atom -5576.581864 kJ/mol
# Density = 2.109033 g / cm^3
# Si number density = 21.138439 Si / 1000 Ang^3
#
#
#
# Elastic Constant Matrix: (Units=GPa)
#
#
# Indices 1 2 3 4 5 6 
#
# 1 92.8010 46.7678 53.3536 17.1112 31.3923 1.3822
# 2 46.7678 162.7734 54.6754 14.0055 17.6228 -0.5585
# 3 53.3536 54.6754 147.2340 1.7524 35.3661 6.5671
# 4 17.1112 14.0055 1.7524 49.6669 3.2844 0.0462
# 5 31.3923 17.6228 35.3661 3.2844 47.8107 4.0669
# 6 1.3822 -0.5585 6.5671 0.0462 4.0669 30.6017
#
#
#
# Elastic Compliance Matrix: (Units=1/GPa)
#
#
# Indices 1 2 3 4 5 6 
#
# 1 0.017594 -0.002626 -0.003530 -0.004686 -0.007732 0.000950
# 2 -0.002626 0.007629 -0.001996 -0.001204 0.000417 0.000632
# 3 -0.003530 -0.001996 0.009876 0.001713 -0.004248 -0.001434
# 4 -0.004686 -0.001204 0.001713 0.021977 0.000771 -0.000313
# 5 -0.007732 0.000417 -0.004248 0.000771 0.029150 -0.002607
# 6 0.000950 0.000632 -0.001434 -0.000313 -0.002607 0.033301
#
#
# Mechanical properties :
#
#
# Convention : Reuss Voigt Hill
#
# Bulk Modulus (GPa) = 53.20145 79.15577 66.17861
# Shear Modulus (GPa) = 35.18781 42.14996 38.66889
#
# Velocity S-wave (km/s) = 4.08442 4.47026 4.28169
# Velocity P-wave (km/s) = 6.88956 8.01074 7.47121
#
# Compressibility (1/GPa) = 0.01879648
#
# Stress axis : x y z
#
# Youngs Moduli (GPa) = 56.83807 131.08061 101.25571
#
# Poissons Ratio (x) = 0.34420 0.35741
# Poissons Ratio (y) = 0.14925 0.20206
# Poissons Ratio (z) = 0.20062 0.26158
#
# Static dielectric constant tensor:
#      x y z
#    x 1.884860 -0.047890 -0.086690 
#    y -0.047890 1.170350 -0.479270 
#    z -0.086690 -0.479270 1.242160 
# 
# From -- ./inp_files/10708.got.cif
#   From: 2010.05.17/outbox.cif.g08.bks.cpg/sg2_6_cif.got.tgz:10708.got - 2010.06.03 11:33:40.
