data_PCOD9060624
_publ_section_title
;
Structure prediction by ZEFSAII (Michael W. Deem and Ramdas Pophale) SiO2 
 PCOD9060624
Probable space group: P -1
;
_chemical_formula_sum "Si O2"
_cell_formula_units_Z 16
_cell_length_a 10.720130
_cell_length_b 8.733002
_cell_length_c 15.647340
_cell_angle_alpha 126.789471
_cell_angle_beta 72.775803
_cell_angle_gamma 66.011192
_cell_volume 723.870828
_symmetry_space_group_name_H-M "P -1"
_symmetry_group_IT_number 2
_symmetry_cell_setting 'triclinic'
loop_
_space_group_symop_operation_xyz
x,y,z
-x,-y,-z
loop_
_atom_site_type_symbol
_atom_site_label
_atom_site_fract_x
_atom_site_fract_y
_atom_site_fract_z
Si Si1 0.126088 0.553009 0.473079
Si Si2 0.651441 0.230762 0.006553
Si Si3 0.205675 0.296406 0.778602
Si Si4 0.499688 0.885870 0.872333
Si Si5 0.270168 0.807482 0.200259
Si Si6 0.804610 0.524283 0.978693
Si Si7 0.410758 0.398756 0.515581
Si Si8 0.922664 0.235899 0.162993
O O1 0.281157 0.373998 0.302372
O O2 0.264611 0.465817 0.495992
O O3 0.000000 0.500000 0.500000
O O4 0.938341 0.906105 0.617730
O O5 0.591799 0.205811 0.101330
O O6 0.462062 0.584524 0.149062
O O7 0.659834 0.136488 0.875061
O O8 0.891303 0.979125 0.881906
O O9 0.126514 0.505512 0.783979
O O10 0.032132 0.338770 0.852235
O O11 0.413424 0.948229 0.612515
O O12 0.224988 0.423595 0.896271
O O13 0.500000 0.000000 0.000000
O O14 0.345028 0.156483 0.928847
O O15 0.232544 0.640998 0.109777
O O16 0.500000 0.500000 0.500000
O O17 0.277347 0.596555 0.690833
O O18 0.000000 0.000000 0.000000
#
# Coordination Sequence:
#
# PCOD9060624 Si02
#       8
#     2   2   2   2   2   2   2   2
#     4  12  28  47  76 107 152 193 243 309 374 436
#     4  11  24  42  73 102 141 186 245 302 360 439
#     4  11  25  44  72 109 149 199 245 303 374 441
#     4  12  24  46  74 105 144 192 244 305 369 440
#     4  11  24  47  73 105 144 194 248 303 377 436
#     4  11  23  43  74 105 145 192 246 303 369 441
#     4  12  28  50  76 111 153 197 251 309 374 443
#     4  12  27  46  75 109 148 197 254 306 367 450
#
# _framework density 22.103390999999998
#
# number of rings (size 3 to 8) (size 9 to 14) (size 15 to 20)
#    0.000    0.500    5.000    2.625    7.000    1.500 
#    0.000    0.000    0.000    0.000    0.000    0.000 
#    0.000    0.000    0.000    0.000    0.000    0.000 
#
# Total GULP energy -89274.586685 kJ/mol
# GULP energy per Si atom -5579.661668 kJ/mol
# Density = 2.205308 g / cm^3
# Si number density = 22.103391 Si / 1000 Ang^3
#
#
#
# Elastic Constant Matrix: (Units=GPa)
#
#
# Indices 1 2 3 4 5 6 
#
# 1 96.0012 15.3163 33.6744 9.4952 -10.1909 2.0607
# 2 15.3163 111.5531 43.8277 24.1218 -10.2464 -9.1857
# 3 33.6744 43.8277 210.4540 15.4128 -32.8624 5.8719
# 4 9.4952 24.1218 15.4128 47.4764 -5.8229 -12.1394
# 5 -10.1909 -10.2464 -32.8624 -5.8229 33.0865 2.5800
# 6 2.0607 -9.1857 5.8719 -12.1394 2.5800 34.3375
#
#
#
# Elastic Compliance Matrix: (Units=1/GPa)
#
#
# Indices 1 2 3 4 5 6 
#
# 1 0.011345 -0.000658 -0.001223 -0.001657 0.001891 -0.001376
# 2 -0.000658 0.010886 -0.001820 -0.004316 0.000469 0.001702
# 3 -0.001223 -0.001820 0.006274 -0.000766 0.005325 -0.002157
# 4 -0.001657 -0.004316 -0.000766 0.026098 0.001346 0.008201
# 5 0.001891 0.000469 0.005325 0.001346 0.036725 -0.003182
# 6 -0.001376 0.001702 -0.002157 0.008201 -0.003182 0.033168
#
#
# Mechanical properties :
#
#
# Convention : Reuss Voigt Hill
#
# Bulk Modulus (GPa) = 47.38822 67.07165 57.22994
# Shear Modulus (GPa) = 35.98856 44.65941 40.32399
#
# Velocity S-wave (km/s) = 4.03946 4.49985 4.27586
# Velocity P-wave (km/s) = 6.57588 7.57684 7.09404
#
# Compressibility (1/GPa) = 0.02110229
#
# Stress axis : x y z
#
# Youngs Moduli (GPa) = 88.14614 91.85930 159.38573
#
# Poissons Ratio (x) = 0.06047 0.19494
# Poissons Ratio (y) = 0.05803 0.29008
# Poissons Ratio (z) = 0.10781 0.16718
#
# Static dielectric constant tensor:
#      x y z
#    x 1.071110 -0.335190 -0.167300 
#    y -0.335190 1.724780 -0.081250 
#    z -0.167300 -0.081250 1.724690 
# 
# From -- ./inp_files/516097.got.cif
#   From: 2010.05.17/outbox.cif.g08.bks.cpg/sg2_259_cif.got.tgz:516097.got - 2010.06.03 11:33:40.
