data_PCOD9060557
_publ_section_title
;
Structure prediction by ZEFSAII (Michael W. Deem and Ramdas Pophale) SiO2 
 PCOD9060557
Probable space group: P -1
;
_chemical_formula_sum "Si O2"
_cell_formula_units_Z 16
_cell_length_a 9.287373
_cell_length_b 9.712438
_cell_length_c 13.972832
_cell_angle_alpha 130.358180
_cell_angle_beta 87.421442
_cell_angle_gamma 60.981909
_cell_volume 707.465552
_symmetry_space_group_name_H-M "P -1"
_symmetry_group_IT_number 2
_symmetry_cell_setting 'triclinic'
loop_
_space_group_symop_operation_xyz
x,y,z
-x,-y,-z
loop_
_atom_site_type_symbol
_atom_site_label
_atom_site_fract_x
_atom_site_fract_y
_atom_site_fract_z
Si Si1 0.233521 0.226891 0.021960
Si Si2 0.902354 0.286371 0.121105
Si Si3 0.420574 0.289111 0.204460
Si Si4 0.761676 0.481348 0.998635
Si Si5 0.447762 0.213826 0.529989
Si Si6 0.229792 0.838846 0.441719
Si Si7 0.689746 0.183634 0.781764
Si Si8 0.219748 0.262762 0.371955
O O1 0.191312 0.370752 0.989884
O O2 0.355194 0.938524 0.877522
O O3 0.375530 0.245107 0.081759
O O4 0.060018 0.316106 0.138304
O O5 0.855974 0.354744 0.040348
O O6 0.711413 0.511441 0.290975
O O7 0.000000 0.000000 0.000000
O O8 0.336645 0.558772 0.327317
O O9 0.305757 0.275488 0.280830
O O10 0.531730 0.653013 0.104055
O O11 0.795574 0.284456 0.838500
O O12 0.661552 0.126842 0.468170
O O13 0.351131 0.220066 0.438247
O O14 0.500000 0.000000 0.500000
O O15 0.302654 0.861485 0.350312
O O16 0.000000 0.000000 0.500000
O O17 0.792206 0.942085 0.728754
O O18 0.000000 0.500000 0.500000
#
# Coordination Sequence:
#
# PCOD9060557 Si02
#       8
#     2   2   2   2   2   2   2   2
#     4  11  24  43  71 102 142 193 235 302 366 434
#     4  12  27  45  73 108 144 185 245 308 366 434
#     4  11  25  44  67 104 144 183 247 301 360 430
#     4  11  23  43  72  96 143 185 235 296 360 432
#     4  12  27  48  76 106 149 195 243 300 367 450
#     4  12  25  47  70 103 144 194 241 301 364 432
#     4  11  23  44  69 102 135 189 239 291 362 430
#     4  12  25  45  73 105 146 191 243 300 370 436
#
# _framework density 22.615943000000001
#
# number of rings (size 3 to 8) (size 9 to 14) (size 15 to 20)
#    0.000    0.500    5.000    2.625    5.250    0.500 
#    2.250    0.000    0.000    0.000    0.000    0.000 
#    0.000    0.000    0.000    0.000    0.000    0.000 
#
# Total GULP energy -89202.123518 kJ/mol
# GULP energy per Si atom -5575.132720 kJ/mol
# Density = 2.256447 g / cm^3
# Si number density = 22.615943 Si / 1000 Ang^3
#
#
#
# Elastic Constant Matrix: (Units=GPa)
#
#
# Indices 1 2 3 4 5 6 
#
# 1 105.9366 18.0914 17.3843 13.2077 -11.3647 -3.6872
# 2 18.0914 144.4787 37.2845 25.3758 0.5320 7.0069
# 3 17.3843 37.2845 53.6114 12.3379 -4.9624 -2.0511
# 4 13.2077 25.3758 12.3379 47.9424 4.4468 4.5640
# 5 -11.3647 0.5320 -4.9624 4.4468 33.0174 -5.4561
# 6 -3.6872 7.0069 -2.0511 4.5640 -5.4561 40.3276
#
#
#
# Elastic Compliance Matrix: (Units=1/GPa)
#
#
# Indices 1 2 3 4 5 6 
#
# 1 0.010692 -0.000418 -0.002106 -0.002728 0.004035 0.001798
# 2 -0.000418 0.009031 -0.005622 -0.002962 -0.001016 -0.001695
# 3 -0.002106 -0.005622 0.024512 -0.003404 0.003997 0.002957
# 4 -0.002728 -0.002962 -0.003404 0.024875 -0.005322 -0.003443
# 5 0.004035 -0.001016 0.003997 -0.005322 0.033993 0.005950
# 6 0.001798 -0.001695 0.002957 -0.003443 0.005950 0.026601
#
#
# Mechanical properties :
#
#
# Convention : Reuss Voigt Hill
#
# Bulk Modulus (GPa) = 35.78839 49.94969 42.86904
# Shear Modulus (GPa) = 32.19329 39.67526 35.93428
#
# Velocity S-wave (km/s) = 3.77699 4.19299 3.99041
# Velocity P-wave (km/s) = 5.90590 6.75096 6.34252
#
# Compressibility (1/GPa) = 0.02794202
#
# Stress axis : x y z
#
# Youngs Moduli (GPa) = 93.52638 110.73039 40.79590
#
# Poissons Ratio (x) = 0.04632 0.08593
# Poissons Ratio (y) = 0.03912 0.22936
# Poissons Ratio (z) = 0.19699 0.62254
#
# Static dielectric constant tensor:
#      x y z
#    x 1.969920 -0.164370 0.022180 
#    y -0.164370 1.778260 0.107770 
#    z 0.022180 0.107770 1.908260 
# 
# From -- ./inp_files/242423.got.cif
#   From: 2010.05.17/outbox.cif.g08.bks.cpg/sg2_122_cif.got.tgz:242423.got - 2010.06.03 11:33:40.
