data_PCOD9060402
_publ_section_title
;
Structure prediction by ZEFSAII (Michael W. Deem and Ramdas Pophale) SiO2 
 PCOD9060402
Probable space group: P -1
;
_chemical_formula_sum "Si O2"
_cell_formula_units_Z 15
_cell_length_a 9.235740
_cell_length_b 13.064709
_cell_length_c 9.663674
_cell_angle_alpha 126.127819
_cell_angle_beta 133.694809
_cell_angle_gamma 76.319253
_cell_volume 651.190533
_symmetry_space_group_name_H-M "P -1"
_symmetry_group_IT_number 2
_symmetry_cell_setting 'triclinic'
loop_
_space_group_symop_operation_xyz
x,y,z
-x,-y,-z
loop_
_atom_site_type_symbol
_atom_site_label
_atom_site_fract_x
_atom_site_fract_y
_atom_site_fract_z
Si Si1 0.500000 0.000000 0.500000
Si Si2 0.167897 0.939045 0.482593
Si Si3 0.749559 0.460208 0.817494
Si Si4 0.806389 0.723933 0.937820
Si Si5 0.509491 0.712333 0.264929
Si Si6 0.693596 0.334909 0.185361
Si Si7 0.423076 0.792388 0.699929
Si Si8 0.132006 0.353707 0.391369
O O1 0.685926 0.989748 0.493325
O O2 0.541293 0.154587 0.617035
O O3 0.326760 0.902926 0.666970
O O4 0.000000 0.000000 0.500000
O O5 0.016605 0.801308 0.213998
O O6 0.688674 0.592997 0.843199
O O7 0.663308 0.408868 0.870360
O O8 0.649912 0.339029 0.550533
O O9 0.000000 0.500000 0.000000
O O10 0.672675 0.825002 0.898990
O O11 0.841646 0.669292 0.769641
O O12 0.730400 0.712417 0.474890
O O13 0.486703 0.692350 0.070033
O O14 0.645281 0.251881 0.225961
O O15 0.780610 0.490241 0.398158
O O16 0.887934 0.297766 0.215357
#
# Coordination Sequence:
#
# PCOD9060402 Si02
#       8
#     1   2   2   2   2   2   2   2
#     4  12  26  54  74 102 156 200 258 304 366 458
#     4  12  30  52  78 110 153 205 258 313 380 459
#     4  12  21  43  80 105 150 194 242 313 392 449
#     4  12  24  47  79 110 146 198 249 316 389 453
#     4  12  26  47  70 106 148 201 243 306 375 444
#     4  11  26  40  70 110 147 183 246 312 370 449
#     4  12  25  47  72 113 145 189 254 313 377 458
#     4  11  23  43  70 107 147 188 240 305 387 438
#
# _framework density 23.034735000000001
#
# number of rings (size 3 to 8) (size 9 to 14) (size 15 to 20)
#    0.000    0.267    5.333    3.200    5.600    0.533 
#    2.400    3.333    0.000    0.000    0.000    0.000 
#    0.000    0.000    0.000    0.000    0.000    0.000 
#
# Total GULP energy -83698.759249 kJ/mol
# GULP energy per Si atom -5579.917283 kJ/mol
# Density = 2.298231 g / cm^3
# Si number density = 23.034735 Si / 1000 Ang^3
#
#
#
# Elastic Constant Matrix: (Units=GPa)
#
#
# Indices 1 2 3 4 5 6 
#
# 1 101.7237 38.8975 5.6380 -1.6595 -5.8347 -0.6614
# 2 38.8975 88.8455 29.1414 -5.6956 -11.6311 -8.8282
# 3 5.6380 29.1414 47.3124 -11.8458 -8.0702 3.7628
# 4 -1.6595 -5.6956 -11.8458 26.8745 1.3599 0.8553
# 5 -5.8347 -11.6311 -8.0702 1.3599 24.2851 -7.6741
# 6 -0.6614 -8.8282 3.7628 0.8553 -7.6741 37.7039
#
#
#
# Elastic Compliance Matrix: (Units=1/GPa)
#
#
# Indices 1 2 3 4 5 6 
#
# 1 0.012091 -0.006259 0.002752 0.000664 0.000317 -0.001479
# 2 -0.006259 0.018901 -0.010792 -0.001662 0.006168 0.006686
# 3 0.002752 -0.010792 0.031419 0.011710 0.003655 -0.005136
# 4 0.000664 -0.001662 0.011710 0.042134 0.000112 -0.002479
# 5 0.000317 0.006168 0.003655 0.000112 0.048904 0.011036
# 6 -0.001479 0.006686 -0.005136 -0.002479 0.011036 0.030877
#
#
# Mechanical properties :
#
#
# Convention : Reuss Voigt Hill
#
# Bulk Modulus (GPa) = 29.57357 42.80393 36.18875
# Shear Modulus (GPa) = 22.30228 28.71969 25.51098
#
# Velocity S-wave (km/s) = 3.11497 3.53484 3.33152
# Velocity P-wave (km/s) = 5.07976 5.93993 5.52660
#
# Compressibility (1/GPa) = 0.03381398
#
# Stress axis : x y z
#
# Youngs Moduli (GPa) = 82.70758 52.90820 31.82795
#
# Poissons Ratio (x) = 0.33115 -0.08760
# Poissons Ratio (y) = 0.51767 0.34347
# Poissons Ratio (z) = -0.22765 0.57096
#
# Static dielectric constant tensor:
#      x y z
#    x 1.923870 -0.107100 0.022940 
#    y -0.107100 1.821080 0.025330 
#    z 0.022940 0.025330 1.815980 
# 
# From -- ./inp_files/190543.got.cif
#   From: 2010.05.17/outbox.cif.g08.bks.cpg/sg2_96_cif.got.tgz:190543.got - 2010.06.03 11:33:40.
