data_PCOD9060621
_publ_section_title
;
Structure prediction by ZEFSAII (Michael W. Deem and Ramdas Pophale) SiO2 
 PCOD9060621
Probable space group: P -1
;
_chemical_formula_sum "Si O2"
_cell_formula_units_Z 14
_cell_length_a 10.785247
_cell_length_b 11.585120
_cell_length_c 15.570422
_cell_angle_alpha 129.477798
_cell_angle_beta 25.052599
_cell_angle_gamma 117.410292
_cell_volume 594.780613
_symmetry_space_group_name_H-M "P -1"
_symmetry_group_IT_number 2
_symmetry_cell_setting 'triclinic'
loop_
_space_group_symop_operation_xyz
x,y,z
-x,-y,-z
loop_
_atom_site_type_symbol
_atom_site_label
_atom_site_fract_x
_atom_site_fract_y
_atom_site_fract_z
Si Si1 0.203889 0.957418 0.936031
Si Si2 0.849471 0.495142 0.793545
Si Si3 0.669038 0.252243 0.995751
Si Si4 0.930163 0.738398 0.712600
Si Si5 0.370115 0.408980 0.832777
Si Si6 0.086823 0.158534 0.536174
Si Si7 0.824458 0.852439 0.243192
O O1 0.120545 0.105734 0.124119
O O2 0.080553 0.831134 0.998538
O O3 0.571874 0.899068 0.663151
O O4 0.000000 0.000000 0.000000
O O5 0.921485 0.604241 0.725103
O O6 0.078790 0.308612 0.552158
O O7 0.500000 0.500000 0.000000
O O8 0.821805 0.564213 0.943080
O O9 0.799991 0.254683 0.820436
O O10 0.969065 0.129481 0.797437
O O11 0.350424 0.224141 0.162883
O O12 0.634368 0.427613 0.131622
O O13 0.258644 0.684876 0.431297
O O14 0.265089 0.304029 0.780498
O O15 0.000000 0.000000 0.500000
O O16 0.500000 0.000000 0.500000
#
# Coordination Sequence:
#
# PCOD9060621 Si02
#       7
#     2   2   2   2   2   2   2
#     4  12  26  47  70 103 145 188 238 292 359 424
#     4  11  23  43  74 105 140 185 233 290 361 412
#     4  11  25  46  69 104 140 182 237 295 355 418
#     4  12  24  48  74 107 141 190 237 295 354 426
#     4  11  25  47  72 102 148 182 240 294 348 434
#     4  11  23  45  71 104 143 180 237 299 344 426
#     4  12  26  47  68 102 140 190 233 293 360 417
#
# _framework density 23.53809
#
# number of rings (size 3 to 8) (size 9 to 14) (size 15 to 20)
#    0.000    0.571    5.714    2.571    2.000    1.714 
#    0.000    2.143    0.000    0.000    0.000    0.000 
#    0.000    0.000    0.000    0.000    0.000    0.000 
#
# Total GULP energy -78031.982793 kJ/mol
# GULP energy per Si atom -5573.713057 kJ/mol
# Density = 2.348452 g / cm^3
# Si number density = 23.538090 Si / 1000 Ang^3
#
#
#
# Elastic Constant Matrix: (Units=GPa)
#
#
# Indices 1 2 3 4 5 6 
#
# 1 105.7749 27.7246 40.4488 3.9420 -32.3531 7.7122
# 2 27.7246 94.2020 25.6144 10.7648 -13.4440 27.1846
# 3 40.4488 25.6144 121.9719 -6.5573 -30.9859 12.4480
# 4 3.9420 10.7648 -6.5573 41.6024 -1.6027 1.6584
# 5 -32.3531 -13.4440 -30.9859 -1.6027 52.8915 -9.7491
# 6 7.7122 27.1846 12.4480 1.6584 -9.7491 34.4886
#
#
#
# Elastic Compliance Matrix: (Units=1/GPa)
#
#
# Indices 1 2 3 4 5 6 
#
# 1 0.012826 -0.002725 -0.002365 -0.000724 0.006094 0.001891
# 2 -0.002725 0.015293 -0.001595 -0.003547 -0.000837 -0.010935
# 3 -0.002365 -0.001595 0.010639 0.002517 0.004279 -0.000965
# 4 -0.000724 -0.003547 0.002517 0.025417 0.001111 0.001141
# 5 0.006094 -0.000837 0.004279 0.001111 0.025886 0.005017
# 6 0.001891 -0.010935 -0.000965 0.001141 0.005017 0.038903
#
#
# Mechanical properties :
#
#
# Convention : Reuss Voigt Hill
#
# Bulk Modulus (GPa) = 39.39041 56.61381 48.00211
# Shear Modulus (GPa) = 33.15734 41.00722 37.08228
#
# Velocity S-wave (km/s) = 3.75729 4.17845 3.97346
# Velocity P-wave (km/s) = 5.96608 6.88357 6.44118
#
# Compressibility (1/GPa) = 0.02538689
#
# Stress axis : x y z
#
# Youngs Moduli (GPa) = 77.96908 65.39105 93.99674
#
# Poissons Ratio (x) = 0.17819 0.22228
# Poissons Ratio (y) = 0.21246 0.14995
# Poissons Ratio (z) = 0.18438 0.10431
#
# Static dielectric constant tensor:
#      x y z
#    x 2.757610 -0.085780 0.039400 
#    y -0.085780 2.157820 0.062840 
#    z 0.039400 0.062840 1.880600 
# 
# From -- ./inp_files/418949.got.cif
#   From: 2010.05.17/outbox.cif.g08.bks.cpg/sg2_210_cif.got.tgz:418949.got - 2010.06.03 11:33:40.
