data_PCOD9060133
_publ_section_title
;
Structure prediction by ZEFSAII (Michael W. Deem and Ramdas Pophale) SiO2 
 PCOD9060133
Probable space group: P -1
;
_chemical_formula_sum "Si O2"
_cell_formula_units_Z 16
_cell_length_a 16.182749
_cell_length_b 7.490478
_cell_length_c 6.095476
_cell_angle_alpha 109.619286
_cell_angle_beta 106.468346
_cell_angle_gamma 65.526348
_cell_volume 624.396479
_symmetry_space_group_name_H-M "P -1"
_symmetry_group_IT_number 2
_symmetry_cell_setting 'triclinic'
loop_
_space_group_symop_operation_xyz
x,y,z
-x,-y,-z
loop_
_atom_site_type_symbol
_atom_site_label
_atom_site_fract_x
_atom_site_fract_y
_atom_site_fract_z
Si Si1 0.568287 0.083556 0.458802
Si Si2 0.372035 0.570284 0.354087
Si Si3 0.363405 0.216350 0.945176
Si Si4 0.765212 0.046336 0.716301
Si Si5 0.086349 0.663569 0.879590
Si Si6 0.744208 0.487009 0.381937
Si Si7 0.060465 0.028473 0.357539
Si Si8 0.179430 0.296604 0.087822
O O1 0.554075 0.319628 0.569216
O O2 0.673718 0.991074 0.592891
O O3 0.500000 0.000000 0.500000
O O4 0.576919 0.003664 0.184978
O O5 0.285461 0.712837 0.197840
O O6 0.320145 0.605018 0.563064
O O7 0.399751 0.343788 0.195914
O O8 0.331607 0.353361 0.761551
O O9 0.270591 0.212391 0.977596
O O10 0.833672 0.992642 0.536866
O O11 0.827537 0.905829 0.894909
O O12 0.170949 0.632259 0.762149
O O13 0.995455 0.754341 0.701853
O O14 0.103992 0.456519 0.943366
O O15 0.075567 0.841255 0.122386
O O16 0.794557 0.579133 0.642725
O O17 0.000000 0.000000 0.500000
#
# Coordination Sequence:
#
# PCOD9060133 Si02
#       8
#     2   2   2   2   2   2   2   2
#     4  10  23  43  64 101 136 166 227 280 325 400
#     4   9  21  37  66  96 123 179 223 264 336 399
#     4  10  20  38  68  93 130 180 212 275 339 386
#     4  10  21  41  63  91 131 174 215 277 330 388
#     4  10  22  35  63  95 126 179 214 279 328 386
#     4  10  17  38  64  92 128 167 223 265 328 396
#     4  11  22  41  60  94 137 170 230 274 326 398
#     4  10  20  37  63  94 130 169 222 269 330 400
#
# _framework density 25.624742999999999
#
# number of rings (size 3 to 8) (size 9 to 14) (size 15 to 20)
#    0.750    1.250    1.250    3.750    0.000    3.000 
#    2.250    3.750    0.000    0.000    0.000    0.000 
#    0.000    0.000    0.000    0.000    0.000    0.000 
#
# Total GULP energy -89320.034643 kJ/mol
# GULP energy per Si atom -5582.502165 kJ/mol
# Density = 2.556642 g / cm^3
# Si number density = 25.624743 Si / 1000 Ang^3
#
#
#
# Elastic Constant Matrix: (Units=GPa)
#
#
# Indices 1 2 3 4 5 6 
#
# 1 119.7081 28.0612 23.2840 9.0622 -24.8877 -9.3129
# 2 28.0612 114.3755 23.5322 -3.4449 -17.1533 -6.2730
# 3 23.2840 23.5322 75.6971 5.1177 -19.8243 -4.6360
# 4 9.0622 -3.4449 5.1177 50.4776 -9.0006 -2.8770
# 5 -24.8877 -17.1533 -19.8243 -9.0006 38.6103 -7.6012
# 6 -9.3129 -6.2730 -4.6360 -2.8770 -7.6012 33.1832
#
#
#
# Elastic Compliance Matrix: (Units=1/GPa)
#
#
# Indices 1 2 3 4 5 6 
#
# 1 0.010504 -0.001222 -0.000881 -0.000500 0.006452 0.004029
# 2 -0.001222 0.010152 -0.001795 0.001887 0.003701 0.002337
# 3 -0.000881 -0.001795 0.016255 -0.000054 0.007644 0.003431
# 4 -0.000500 0.001887 -0.000054 0.021328 0.006142 0.003465
# 5 0.006452 0.003701 0.007644 0.006142 0.039657 0.013195
# 6 0.004029 0.002337 0.003431 0.003465 0.013195 0.035510
#
#
# Mechanical properties :
#
#
# Convention : Reuss Voigt Hill
#
# Bulk Modulus (GPa) = 34.34705 51.05950 42.70327
# Shear Modulus (GPa) = 33.13261 40.11443 36.62352
#
# Velocity S-wave (km/s) = 3.59972 3.96088 3.78461
# Velocity P-wave (km/s) = 5.54169 6.39431 5.98320
#
# Compressibility (1/GPa) = 0.02911458
#
# Stress axis : x y z
#
# Youngs Moduli (GPa) = 95.20024 98.49855 61.51892
#
# Poissons Ratio (x) = 0.12040 0.05418
# Poissons Ratio (y) = 0.11637 0.11046
# Poissons Ratio (z) = 0.08385 0.17685
#
# Static dielectric constant tensor:
#      x y z
#    x 2.087850 -0.008520 0.063940 
#    y -0.008520 2.074350 -0.051060 
#    z 0.063940 -0.051060 2.102180 
# 
# From -- ./inp_files/105160.got.cif
#   From: 2010.05.17/outbox.cif.g08.bks.cpg/sg2_53_cif.got.tgz:105160.got - 2010.06.03 11:33:40.
