data_PCOD9060381
_publ_section_title
;
Structure prediction by ZEFSAII (Michael W. Deem and Ramdas Pophale) SiO2 
 PCOD9060381
Probable space group: P -1
;
_chemical_formula_sum "Si O2"
_cell_formula_units_Z 14
_cell_length_a 7.097231
_cell_length_b 13.674208
_cell_length_c 7.497770
_cell_angle_alpha 124.732945
_cell_angle_beta 93.826731
_cell_angle_gamma 115.833788
_cell_volume 486.983081
_symmetry_space_group_name_H-M "P -1"
_symmetry_group_IT_number 2
_symmetry_cell_setting 'triclinic'
loop_
_space_group_symop_operation_xyz
x,y,z
-x,-y,-z
loop_
_atom_site_type_symbol
_atom_site_label
_atom_site_fract_x
_atom_site_fract_y
_atom_site_fract_z
Si Si1 0.293271 0.114265 0.922311
Si Si2 0.949016 0.357453 0.445900
Si Si3 0.333016 0.809209 0.262420
Si Si4 0.465106 0.095539 0.239830
Si Si5 0.943893 0.792139 0.413524
Si Si6 0.278204 0.383024 0.240364
Si Si7 0.420909 0.597178 0.173819
O O1 0.523742 0.150643 0.869701
O O2 0.270163 0.092628 0.113308
O O3 0.304795 0.259923 0.039068
O O4 0.097021 0.958190 0.665969
O O5 0.061736 0.332873 0.599571
O O6 0.039035 0.296845 0.242003
O O7 0.000000 0.500000 0.500000
O O8 0.684558 0.257322 0.375811
O O9 0.496803 0.907668 0.548441
O O10 0.278981 0.649746 0.127968
O O11 0.099775 0.802235 0.265416
O O12 0.500000 0.000000 0.000000
O O13 0.682342 0.744300 0.359631
O O14 0.500000 0.500000 0.500000
O O15 0.278219 0.492354 0.218753
O O16 0.500000 0.500000 0.000000
#
# Coordination Sequence:
#
# PCOD9060381 Si02
#       7
#     2   2   2   2   2   2   2
#     4  12  25  48  74 108 148 195 240 307 379 428
#     4  11  23  43  70 104 142 193 243 298 368 438
#     4  11  25  49  74 104 155 188 247 308 362 445
#     4  11  24  44  74 108 141 189 246 299 371 440
#     4  11  26  46  74 107 145 195 248 302 375 440
#     4  12  24  45  73 103 144 191 243 303 361 441
#     4  12  26  48  68 108 145 189 252 303 369 439
#
# _framework density 28.748429000000002
#
# number of rings (size 3 to 8) (size 9 to 14) (size 15 to 20)
#    0.000    0.571    5.714    3.857    0.000    4.000 
#    0.000    0.000    0.000    0.000    0.000    0.000 
#    0.000    0.000    0.000    0.000    0.000    0.000 
#
# Total GULP energy -78103.091966 kJ/mol
# GULP energy per Si atom -5578.792283 kJ/mol
# Density = 2.868300 g / cm^3
# Si number density = 28.748429 Si / 1000 Ang^3
#
#
#
# Elastic Constant Matrix: (Units=GPa)
#
#
# Indices 1 2 3 4 5 6 
#
# 1 133.8833 25.8498 36.4892 8.7312 -11.2840 17.1003
# 2 25.8498 132.6045 31.6159 -19.6386 -2.4498 4.3751
# 3 36.4892 31.6159 125.8717 4.9981 -21.8159 -10.9861
# 4 8.7312 -19.6386 4.9981 54.0844 -2.0622 -15.8944
# 5 -11.2840 -2.4498 -21.8159 -2.0622 62.9232 7.0001
# 6 17.1003 4.3751 -10.9861 -15.8944 7.0001 60.0215
#
#
#
# Elastic Compliance Matrix: (Units=1/GPa)
#
#
# Indices 1 2 3 4 5 6 
#
# 1 0.009160 -0.001520 -0.002298 -0.002897 0.001116 -0.003817
# 2 -0.001520 0.008841 -0.001982 0.003761 -0.000546 0.000486
# 3 -0.002298 -0.001982 0.009774 -0.000522 0.002644 0.002142
# 4 -0.002897 0.003761 -0.000522 0.022233 -0.000538 0.006406
# 5 0.001116 -0.000546 0.002644 -0.000538 0.017186 -0.001941
# 6 -0.003817 0.000486 0.002142 0.006406 -0.001941 0.020028
#
#
# Mechanical properties :
#
#
# Convention : Reuss Voigt Hill
#
# Bulk Modulus (GPa) = 61.82269 64.47435 63.14852
# Shear Modulus (GPa) = 47.97843 55.29947 51.63895
#
# Velocity S-wave (km/s) = 4.08966 4.39060 4.24280
# Velocity P-wave (km/s) = 6.62207 6.94111 6.78346
#
# Compressibility (1/GPa) = 0.01617529
#
# Stress axis : x y z
#
# Youngs Moduli (GPa) = 109.17511 113.11145 102.30770
#
# Poissons Ratio (x) = 0.17195 0.23511
# Poissons Ratio (y) = 0.16597 0.20272
# Poissons Ratio (z) = 0.25089 0.22413
#
# Static dielectric constant tensor:
#      x y z
#    x 2.392200 0.062050 0.018830 
#    y 0.062050 2.551720 -0.243630 
#    z 0.018830 -0.243630 2.518450 
# 
# From -- ./inp_files/204298.got.cif
#   From: 2010.05.17/outbox.cif.g08.bks.cpg/sg2_103_cif.got.tgz:204298.got - 2010.06.03 11:33:40.
