data_PCOD9060640
_publ_section_title
;
Structure prediction by ZEFSAII (Michael W. Deem and Ramdas Pophale) SiO2 
 PCOD9060640
Probable space group: P -1
;
_chemical_formula_sum "Si O2"
_cell_formula_units_Z 11
_cell_length_a 15.741996
_cell_length_b 16.169236
_cell_length_c 12.298991
_cell_angle_alpha 149.925643
_cell_angle_beta 153.994347
_cell_angle_gamma 17.502448
_cell_volume 412.003607
_symmetry_space_group_name_H-M "P -1"
_symmetry_group_IT_number 2
_symmetry_cell_setting 'triclinic'
loop_
_space_group_symop_operation_xyz
x,y,z
-x,-y,-z
loop_
_atom_site_type_symbol
_atom_site_label
_atom_site_fract_x
_atom_site_fract_y
_atom_site_fract_z
Si Si1 0.294142 0.085841 0.104016
Si Si2 0.743082 0.239127 0.060630
Si Si3 0.055968 0.018208 0.389015
Si Si4 0.331975 0.482974 0.368135
Si Si5 0.205325 0.385065 0.714171
Si Si6 0.500000 0.000000 0.000000
O O1 0.359558 0.118437 0.099960
O O2 0.009940 0.366634 0.165610
O O3 0.618059 0.877174 0.312441
O O4 0.174031 0.975690 0.829537
O O5 0.943464 0.162179 0.308215
O O6 0.500000 0.500000 0.000000
O O7 0.517048 0.261599 0.883761
O O8 0.000000 0.000000 0.000000
O O9 0.013621 0.203106 0.634157
O O10 0.413615 0.699642 0.446143
O O11 0.500000 0.500000 0.500000
O O12 0.345241 0.292166 0.119393
O O13 0.000000 0.500000 0.500000
#
# Coordination Sequence:
#
# PCOD9060640 Si02
#       6
#     2   2   2   2   2   1
#     4  11  25  46  73 108 152 204 257 316 389 468
#     4  11  23  43  74 109 147 200 262 314 385 480
#     4  11  24  47  71 103 150 199 248 316 392 445
#     4  12  26  47  73 105 148 199 252 318 381 452
#     4  11  25  46  73 108 156 202 251 331 394 448
#     4  12  30  46  76 116 152 200 272 306 390 484
#
# _framework density 26.698796000000002
#
# number of rings (size 3 to 8) (size 9 to 14) (size 15 to 20)
#    0.000    0.727    1.818    6.545    0.000    7.273 
#    0.000    0.000    0.000    0.000    0.000    0.000 
#    0.000    0.000    0.000    0.000    0.000    0.000 
#
# Total GULP energy -61405.565499 kJ/mol
# GULP energy per Si atom -5582.324136 kJ/mol
# Density = 2.663803 g / cm^3
# Si number density = 26.698796 Si / 1000 Ang^3
#
#
#
# Elastic Constant Matrix: (Units=GPa)
#
#
# Indices 1 2 3 4 5 6 
#
# 1 219.2952 69.2002 63.4739 11.1293 -8.0633 -5.9314
# 2 69.2002 204.7004 14.1297 4.4031 -27.1839 -9.2148
# 3 63.4739 14.1297 62.4302 2.9313 10.4938 -6.5966
# 4 11.1293 4.4031 2.9313 47.8839 10.7685 -29.0507
# 5 -8.0633 -27.1839 10.4938 10.7685 60.6226 -0.1125
# 6 -5.9314 -9.2148 -6.5966 -29.0507 -0.1125 64.5888
#
#
#
# Elastic Compliance Matrix: (Units=1/GPa)
#
#
# Indices 1 2 3 4 5 6 
#
# 1 0.007450 -0.001753 -0.007540 -0.002401 0.001934 -0.001412
# 2 -0.001753 0.005822 0.000131 -0.000362 0.002420 0.000524
# 3 -0.007540 0.000131 0.024842 0.003670 -0.005890 0.003504
# 4 -0.002401 -0.000362 0.003670 0.031362 -0.006661 0.014197
# 5 0.001934 0.002420 -0.005890 -0.006661 0.020035 -0.003040
# 6 -0.001412 0.000524 0.003504 0.014197 -0.003040 0.022166
#
#
# Mechanical properties :
#
#
# Convention : Reuss Voigt Hill
#
# Bulk Modulus (GPa) = 50.53224 86.67040 68.60132
# Shear Modulus (GPa) = 36.60394 57.26052 46.93223
#
# Velocity S-wave (km/s) = 3.70671 4.63610 4.19721
# Velocity P-wave (km/s) = 6.10635 7.82244 7.01706
#
# Compressibility (1/GPa) = 0.01978935
#
# Stress axis : x y z
#
# Youngs Moduli (GPa) = 134.22105 171.77252 40.25451
#
# Poissons Ratio (x) = 0.30118 0.30351
# Poissons Ratio (y) = 0.23534 -0.00526
# Poissons Ratio (z) = 1.01198 -0.02245
#
# Static dielectric constant tensor:
#      x y z
#    x 1.904860 0.026770 0.055780 
#    y 0.026770 1.961420 0.124910 
#    z 0.055780 0.124910 1.934910 
# 
# From -- ./inp_files/455305.got.cif
#   From: 2010.05.17/outbox.cif.g08.bks.cpg/sg2_228_cif.got.tgz:455305.got - 2010.06.03 11:33:40.
