data_PCOD9060432
_publ_section_title
;
Structure prediction by ZEFSAII (Michael W. Deem and Ramdas Pophale) SiO2 
 PCOD9060432
Probable space group: P -1
;
_chemical_formula_sum "Si O2"
_cell_formula_units_Z 16
_cell_length_a 6.384481
_cell_length_b 11.168323
_cell_length_c 15.970686
_cell_angle_alpha 88.353643
_cell_angle_beta 49.679524
_cell_angle_gamma 106.672573
_cell_volume 795.108990
_symmetry_space_group_name_H-M "P -1"
_symmetry_group_IT_number 2
_symmetry_cell_setting 'triclinic'
loop_
_space_group_symop_operation_xyz
x,y,z
-x,-y,-z
loop_
_atom_site_type_symbol
_atom_site_label
_atom_site_fract_x
_atom_site_fract_y
_atom_site_fract_z
Si Si1 0.369883 0.096888 0.989866
Si Si2 0.254829 0.616434 0.042242
Si Si3 0.701801 0.556491 0.818779
Si Si4 0.248669 0.775906 0.584131
Si Si5 0.337562 0.551945 0.465134
Si Si6 0.679595 0.929222 0.191915
Si Si7 0.680466 0.000986 0.572444
Si Si8 0.653237 0.643365 0.215787
O O1 0.523473 0.246065 0.977223
O O2 0.420785 0.088094 0.878104
O O3 0.500000 0.000000 0.000000
O O4 0.016181 0.040073 0.102779
O O5 0.189494 0.496520 0.126205
O O6 0.954990 0.637640 0.102879
O O7 0.421593 0.587303 0.920966
O O8 0.603513 0.436979 0.781490
O O9 0.939895 0.682759 0.709298
O O10 0.347778 0.681547 0.504505
O O11 0.261873 0.889132 0.515332
O O12 0.466168 0.857180 0.599657
O O13 0.500000 0.500000 0.500000
O O14 0.562947 0.573464 0.329550
O O15 0.000000 0.500000 0.500000
O O16 0.464089 0.962152 0.309654
O O17 0.690100 0.791044 0.215562
O O18 0.000000 0.000000 0.500000
#
# Coordination Sequence:
#
# PCOD9060432 Si02
#       8
#     2   2   2   2   2   2   2   2
#     4  11  23  43  70  99 137 181 233 296 363 429
#     4  11  24  41  67 102 137 186 229 298 365 435
#     4  11  24  44  66  99 146 176 237 296 367 442
#     4  11  25  47  69 103 142 188 244 298 375 438
#     4  12  27  46  78 111 149 195 249 306 371 445
#     4  11  24  43  68 102 136 179 240 293 357 444
#     4  11  27  46  70 101 142 191 240 305 368 445
#     4  12  23  42  70 101 139 182 241 297 365 434
#
# _framework density 20.123028000000001
#
# number of rings (size 3 to 8) (size 9 to 14) (size 15 to 20)
#    0.000    0.750    5.000    1.875    1.750    5.000 
#    0.000    0.000    0.000    0.000    0.000    0.000 
#    0.000    0.000    0.000    0.000    0.000    0.000 
#
# Total GULP energy -89198.957661 kJ/mol
# GULP energy per Si atom -5574.934854 kJ/mol
# Density = 2.007723 g / cm^3
# Si number density = 20.123028 Si / 1000 Ang^3
#
#
#
# Elastic Constant Matrix: (Units=GPa)
#
#
# Indices 1 2 3 4 5 6 
#
# 1 64.8784 28.5822 18.7543 3.0431 -2.8343 1.1800
# 2 28.5822 107.5434 36.8855 4.9681 -14.3405 13.6316
# 3 18.7543 36.8855 109.6103 6.1424 -4.5799 14.8851
# 4 3.0431 4.9681 6.1424 35.2049 -8.6613 -4.8895
# 5 -2.8343 -14.3405 -4.5799 -8.6613 27.5061 2.1703
# 6 1.1800 13.6316 14.8851 -4.8895 2.1703 23.5975
#
#
#
# Elastic Compliance Matrix: (Units=1/GPa)
#
#
# Indices 1 2 3 4 5 6 
#
# 1 0.017926 -0.004629 -0.001949 -0.000448 -0.001271 0.003031
# 2 -0.004629 0.013036 -0.002441 -0.000352 0.006308 -0.006413
# 3 -0.001949 -0.002441 0.011234 -0.002248 0.000168 -0.006060
# 4 -0.000448 -0.000352 -0.002248 0.032119 0.008920 0.007479
# 5 -0.001271 0.006308 0.000168 0.008920 0.042806 -0.005775
# 6 0.003031 -0.006413 -0.006060 0.007479 -0.005775 0.051834
#
#
# Mechanical properties :
#
#
# Convention : Reuss Voigt Hill
#
# Bulk Modulus (GPa) = 41.39196 50.05289 45.72242
# Shear Modulus (GPa) = 25.63505 30.44905 28.04205
#
# Velocity S-wave (km/s) = 3.57307 3.89414 3.73705
# Velocity P-wave (km/s) = 6.13486 6.71911 6.43362
#
# Compressibility (1/GPa) = 0.02415928
#
# Stress axis : x y z
#
# Youngs Moduli (GPa) = 55.78335 76.70941 89.01567
#
# Poissons Ratio (x) = 0.35507 0.17351
# Poissons Ratio (y) = 0.25821 0.21726
# Poissons Ratio (z) = 0.10873 0.18722
#
# Static dielectric constant tensor:
#      x y z
#    x 1.765300 -0.054000 0.055840 
#    y -0.054000 3.854540 -1.954410 
#    z 0.055840 -1.954410 3.404560 
# 
# From -- ./inp_files/364142.got.cif
#   From: 2010.05.17/outbox.cif.g08.bks.cpg/sg2_183_cif.got.tgz:364142.got - 2010.06.03 11:33:40.
