data_PCOD9060516
_publ_section_title
;
Structure prediction by ZEFSAII (Michael W. Deem and Ramdas Pophale) SiO2 
 PCOD9060516
Probable space group: P -1
;
_chemical_formula_sum "Si O2"
_cell_formula_units_Z 16
_cell_length_a 9.562385
_cell_length_b 9.548411
_cell_length_c 10.996758
_cell_angle_alpha 69.216663
_cell_angle_beta 75.887210
_cell_angle_gamma 119.173475
_cell_volume 704.762459
_symmetry_space_group_name_H-M "P -1"
_symmetry_group_IT_number 2
_symmetry_cell_setting 'triclinic'
loop_
_space_group_symop_operation_xyz
x,y,z
-x,-y,-z
loop_
_atom_site_type_symbol
_atom_site_label
_atom_site_fract_x
_atom_site_fract_y
_atom_site_fract_z
Si Si1 0.230950 0.221435 0.129307
Si Si2 0.914498 0.072499 0.412684
Si Si3 0.198307 0.049389 0.952048
Si Si4 0.095253 0.467411 0.381217
Si Si5 0.416146 0.636154 0.857932
Si Si6 0.510410 0.182328 0.460122
Si Si7 0.542172 0.388070 0.613802
Si Si8 0.685042 0.189509 0.968155
O O1 0.368876 0.269951 0.194647
O O2 0.029785 0.132747 0.245939
O O3 0.239066 0.091381 0.074028
O O4 0.307033 0.415069 0.982685
O O5 0.953876 0.259049 0.409920
O O6 0.701727 0.904459 0.480728
O O7 0.000000 0.000000 0.500000
O O8 0.363787 0.236825 0.782969
O O9 0.204654 0.877907 0.976574
O O10 0.000000 0.000000 0.000000
O O11 0.268350 0.480093 0.389940
O O12 0.189683 0.640956 0.209635
O O13 0.000000 0.500000 0.500000
O O14 0.380862 0.669263 0.719490
O O15 0.368698 0.731343 0.937765
O O16 0.576916 0.272343 0.550696
O O17 0.500000 0.000000 0.500000
O O18 0.500000 0.500000 0.500000
O O19 0.500000 0.000000 0.000000
#
# Coordination Sequence:
#
# PCOD9060516 Si02
#       8
#     2   2   2   2   2   2   2   2
#     4  11  23  43  72 102 134 177 240 285 347 411
#     4  12  25  45  71 106 139 181 239 288 342 428
#     4  12  27  45  72 103 142 184 232 293 365 417
#     4  12  28  46  74 108 139 188 242 290 354 419
#     4  11  23  44  72 100 134 185 232 287 346 415
#     4  12  26  44  70  99 143 183 226 285 358 412
#     4  12  26  47  69 104 146 183 232 291 356 420
#     4  12  24  47  74 101 139 184 243 295 343 428
#
# _framework density 22.702684999999999
#
# number of rings (size 3 to 8) (size 9 to 14) (size 15 to 20)
#    0.000    0.250    5.000    3.750    7.000    0.000 
#    2.250    1.250    0.000    0.000    0.000    0.000 
#    0.000    0.000    0.000    0.000    0.000    0.000 
#
# Total GULP energy -89586.487700 kJ/mol
# GULP energy per Si atom -5599.155481 kJ/mol
# Density = 2.265101 g / cm^3
# Si number density = 22.702685 Si / 1000 Ang^3
#
#
#
# Elastic Constant Matrix: (Units=GPa)
#
#
# Indices 1 2 3 4 5 6 
#
# 1 90.9726 -11.5418 13.9312 -7.1664 -6.2650 -13.7278
# 2 -11.5418 78.0361 5.8345 13.1922 -14.1267 -16.5053
# 3 13.9312 5.8345 103.2304 17.1928 -17.5549 -2.9513
# 4 -7.1664 13.1922 17.1928 32.1165 -9.6419 -1.7342
# 5 -6.2650 -14.1267 -17.5549 -9.6419 30.4603 4.4988
# 6 -13.7278 -16.5053 -2.9513 -1.7342 4.4988 40.1721
#
#
#
# Elastic Compliance Matrix: (Units=1/GPa)
#
#
# Indices 1 2 3 4 5 6 
#
# 1 0.013050 0.003187 -0.001840 0.003946 0.003552 0.005406
# 2 0.003187 0.016581 0.000602 -0.004137 0.006340 0.007057
# 3 -0.001840 0.000602 0.011635 -0.005421 0.004936 -0.000314
# 4 0.003946 -0.004137 -0.005421 0.039060 0.008129 0.000026
# 5 0.003552 0.006340 0.004936 0.008129 0.041943 -0.000165
# 6 0.005406 0.007057 -0.000314 0.000026 -0.000165 0.029636
#
#
# Mechanical properties :
#
#
# Convention : Reuss Voigt Hill
#
# Bulk Modulus (GPa) = 22.14185 32.07632 27.10908
# Shear Modulus (GPa) = 30.66333 38.15080 34.40707
#
# Velocity S-wave (km/s) = 3.67910 4.10378 3.89723
# Velocity P-wave (km/s) = 5.27464 6.05097 5.67609
#
# Compressibility (1/GPa) = 0.04516334
#
# Stress axis : x y z
#
# Youngs Moduli (GPa) = 76.63008 60.31085 85.94992
#
# Poissons Ratio (x) = -0.19222 0.15813
# Poissons Ratio (y) = -0.24423 -0.05172
# Poissons Ratio (z) = 0.14098 -0.03629
#
# Static dielectric constant tensor:
#      x y z
#    x 1.881590 0.013550 0.007410 
#    y 0.013550 1.820420 0.005070 
#    z 0.007410 0.005070 1.801610 
# 
# From -- ./inp_files/261714.got.cif
#   From: 2010.05.17/outbox.cif.g08.bks.cpg/sg2_131_cif.got.tgz:261714.got - 2010.06.03 11:33:40.
