data_PCOD9060348
_publ_section_title
;
Structure prediction by ZEFSAII (Michael W. Deem and Ramdas Pophale) SiO2 
 PCOD9060348
Probable space group: P -1
;
_chemical_formula_sum "Si O2"
_cell_formula_units_Z 14
_cell_length_a 5.240781
_cell_length_b 8.586054
_cell_length_c 19.724559
_cell_angle_alpha 136.207445
_cell_angle_beta 111.821559
_cell_angle_gamma 82.381382
_cell_volume 557.348247
_symmetry_space_group_name_H-M "P -1"
_symmetry_group_IT_number 2
_symmetry_cell_setting 'triclinic'
loop_
_space_group_symop_operation_xyz
x,y,z
-x,-y,-z
loop_
_atom_site_type_symbol
_atom_site_label
_atom_site_fract_x
_atom_site_fract_y
_atom_site_fract_z
Si Si1 0.519769 0.249578 0.897903
Si Si2 0.787791 0.223276 0.320751
Si Si3 0.832182 0.200170 0.044297
Si Si4 0.269265 0.667264 0.205278
Si Si5 0.613030 0.807060 0.602229
Si Si6 0.763060 0.448386 0.244089
Si Si7 0.772421 0.158990 0.544088
O O1 0.697444 0.299370 0.862155
O O2 0.255840 0.048975 0.788719
O O3 0.500000 0.500000 0.000000
O O4 0.640035 0.145467 0.942502
O O5 0.542321 0.233282 0.353316
O O6 0.741717 0.361832 0.292176
O O7 0.103562 0.290822 0.402990
O O8 0.724209 0.238378 0.120903
O O9 0.013961 0.455919 0.126983
O O10 0.000000 0.000000 0.000000
O O11 0.536611 0.589205 0.240456
O O12 0.277475 0.920103 0.312683
O O13 0.364354 0.739375 0.502057
O O14 0.063924 0.626860 0.328406
O O15 0.500000 0.000000 0.500000
O O16 0.000000 0.000000 0.500000
#
# Coordination Sequence:
#
# PCOD9060348 Si02
#       7
#     2   2   2   2   2   2   2
#     4  11  23  43  69  99 141 196 247 296 360 434
#     4  11  28  45  72 110 150 194 242 306 369 438
#     4  12  27  43  70 105 150 195 245 308 371 435
#     4  11  24  43  72 100 140 194 248 299 360 442
#     4  11  25  49  75 106 150 189 249 300 370 441
#     4  12  28  46  71 110 149 189 252 308 368 444
#     4  12  26  47  82 113 144 193 246 309 371 440
#
# _framework density 25.118948
#
# number of rings (size 3 to 8) (size 9 to 14) (size 15 to 20)
#    0.000    0.571    2.857    3.857   12.000    2.286 
#    0.000    0.000    0.000    0.000    0.000    0.000 
#    0.000    0.000    0.000    0.000    0.000    0.000 
#
# Total GULP energy -78395.064993 kJ/mol
# GULP energy per Si atom -5599.647499 kJ/mol
# Density = 2.506178 g / cm^3
# Si number density = 25.118948 Si / 1000 Ang^3
#
#
#
# Elastic Constant Matrix: (Units=GPa)
#
#
# Indices 1 2 3 4 5 6 
#
# 1 103.0434 50.5057 14.8040 -10.8931 17.2393 -6.6579
# 2 50.5057 143.1364 18.5283 -14.2089 -0.9789 13.1803
# 3 14.8040 18.5283 92.2928 -3.6211 13.6123 -8.4422
# 4 -10.8931 -14.2089 -3.6211 60.3071 -5.7780 5.8130
# 5 17.2393 -0.9789 13.6123 -5.7780 33.1592 4.4907
# 6 -6.6579 13.1803 -8.4422 5.8130 4.4907 50.6018
#
#
#
# Elastic Compliance Matrix: (Units=1/GPa)
#
#
# Indices 1 2 3 4 5 6 
#
# 1 0.013899 -0.005370 0.000410 0.000111 -0.008075 0.004000
# 2 -0.005370 0.009794 -0.002139 0.002093 0.004904 -0.004290
# 3 0.000410 -0.002139 0.012342 -0.000566 -0.005883 0.003257
# 4 0.000111 0.002093 -0.000566 0.017706 0.003727 -0.002990
# 5 -0.008075 0.004904 -0.005883 0.003727 0.038536 -0.007169
# 6 0.004000 -0.004290 0.003257 -0.002990 -0.007169 0.022929
#
#
# Mechanical properties :
#
#
# Convention : Reuss Voigt Hill
#
# Bulk Modulus (GPa) = 45.79188 56.23873 51.01531
# Shear Modulus (GPa) = 36.58116 45.78926 41.18521
#
# Velocity S-wave (km/s) = 3.82031 4.27417 4.05360
# Velocity P-wave (km/s) = 6.14242 6.84073 6.50096
#
# Compressibility (1/GPa) = 0.02183793
#
# Stress axis : x y z
#
# Youngs Moduli (GPa) = 71.94844 102.10105 81.02408
#
# Poissons Ratio (x) = 0.54826 -0.03320
# Poissons Ratio (y) = 0.38635 0.17328
# Poissons Ratio (z) = -0.02948 0.21835
#
# Static dielectric constant tensor:
#      x y z
#    x 1.987040 0.069090 0.011930 
#    y 0.069090 1.857840 0.044320 
#    z 0.011930 0.044320 1.916700 
# 
# From -- ./inp_files/367889.got.cif
#   From: 2010.05.17/outbox.cif.g08.bks.cpg/sg2_184_cif.got.tgz:367889.got - 2010.06.03 11:33:40.
