data_PCOD9060673
_publ_section_title
;
Structure prediction by ZEFSAII (Michael W. Deem and Ramdas Pophale) SiO2 
 PCOD9060673
Probable space group: P -1
;
_chemical_formula_sum "Si O2"
_cell_formula_units_Z 16
_cell_length_a 21.696342
_cell_length_b 18.246515
_cell_length_c 11.326690
_cell_angle_alpha 151.557666
_cell_angle_beta 39.362040
_cell_angle_gamma 160.796140
_cell_volume 653.951217
_symmetry_space_group_name_H-M "P -1"
_symmetry_group_IT_number 2
_symmetry_cell_setting 'triclinic'
loop_
_space_group_symop_operation_xyz
x,y,z
-x,-y,-z
loop_
_atom_site_type_symbol
_atom_site_label
_atom_site_fract_x
_atom_site_fract_y
_atom_site_fract_z
Si Si1 0.456220 0.275195 0.581731
Si Si2 0.087770 0.797601 0.632712
Si Si3 0.440751 0.486022 0.697216
Si Si4 0.581529 0.183236 0.760873
Si Si5 0.268263 0.565519 0.497305
Si Si6 0.044800 0.729659 0.866765
Si Si7 0.808615 0.340092 0.024542
Si Si8 0.055922 0.908441 0.325636
O O1 0.493526 0.463990 0.703795
O O2 0.659068 0.502073 0.667884
O O3 0.280528 0.062674 0.637088
O O4 0.371007 0.017156 0.260043
O O5 0.978920 0.478600 0.349141
O O6 0.919198 0.677895 0.659019
O O7 0.139056 0.882459 0.815163
O O8 0.500000 0.500000 0.500000
O O9 0.198206 0.120622 0.527614
O O10 0.470213 0.709585 0.988232
O O11 0.820074 0.487596 0.844629
O O12 0.500000 0.000000 0.500000
O O13 0.465441 0.917756 0.649731
O O14 0.225688 0.606356 0.733815
O O15 0.153259 0.965738 0.147103
O O16 0.870799 0.543940 0.118260
O O17 0.000000 0.500000 0.000000
O O18 0.000000 0.000000 0.500000
#
# Coordination Sequence:
#
# PCOD9060673 Si02
#       8
#     2   2   2   2   2   2   2   2
#     4  12  25  46  70 107 147 194 245 307 376 442
#     4  11  23  43  75 108 141 192 249 302 363 446
#     4  12  29  46  71 113 155 188 245 320 372 439
#     4  12  25  48  76 108 149 202 247 299 375 455
#     4  12  24  42  74 103 144 193 249 301 362 447
#     4  11  23  44  74 107 140 195 246 304 365 435
#     4  12  22  42  70 100 144 194 242 303 370 439
#     4  12  24  43  70 103 141 185 246 297 367 436
#
# _framework density 24.466657000000001
#
# number of rings (size 3 to 8) (size 9 to 14) (size 15 to 20)
#    0.000    0.250    7.500    1.125    3.500    0.000 
#    0.000    2.500    0.000    0.000    0.000    0.000 
#    0.000    0.000    0.000    0.000    0.000    0.000 
#
# Total GULP energy -89639.913377 kJ/mol
# GULP energy per Si atom -5602.494586 kJ/mol
# Density = 2.441097 g / cm^3
# Si number density = 24.466657 Si / 1000 Ang^3
#
#
#
# Elastic Constant Matrix: (Units=GPa)
#
#
# Indices 1 2 3 4 5 6 
#
# 1 166.2189 38.3381 37.1480 -5.7830 -6.6615 7.7027
# 2 38.3381 69.5288 1.4040 -4.5537 8.3873 -8.7471
# 3 37.1480 1.4040 99.7414 -1.9578 9.6241 3.4995
# 4 -5.7830 -4.5537 -1.9578 22.4898 -0.2753 7.3016
# 5 -6.6615 8.3873 9.6241 -0.2753 48.2995 -5.0828
# 6 7.7027 -8.7471 3.4995 7.3016 -5.0828 59.0752
#
#
#
# Elastic Compliance Matrix: (Units=1/GPa)
#
#
# Indices 1 2 3 4 5 6 
#
# 1 0.008010 -0.004746 -0.003066 0.001357 0.002387 -0.001528
# 2 -0.004746 0.017863 0.001827 0.001658 -0.003835 0.002621
# 3 -0.003066 0.001827 0.011463 0.000656 -0.003058 -0.000353
# 4 0.001357 0.001658 0.000656 0.047096 -0.000578 -0.005841
# 5 0.002387 -0.003835 -0.003058 -0.000578 0.022443 0.001304
# 6 -0.001528 0.002621 -0.000353 -0.005841 0.001304 0.018370
#
#
# Mechanical properties :
#
#
# Convention : Reuss Voigt Hill
#
# Bulk Modulus (GPa) = 39.42489 54.36326 46.89407
# Shear Modulus (GPa) = 34.32414 43.21283 38.76849
#
# Velocity S-wave (km/s) = 3.74959 4.20717 3.98495
# Velocity P-wave (km/s) = 5.90716 6.77259 6.35462
#
# Compressibility (1/GPa) = 0.02536469
#
# Stress axis : x y z
#
# Youngs Moduli (GPa) = 124.84734 55.98018 87.24036
#
# Poissons Ratio (x) = 0.26568 0.26752
# Poissons Ratio (y) = 0.59252 -0.15937
# Poissons Ratio (z) = 0.38284 -0.10226
#
# Static dielectric constant tensor:
#      x y z
#    x 1.936280 -0.019070 0.034150 
#    y -0.019070 2.196230 -0.022860 
#    z 0.034150 -0.022860 1.915550 
# 
# From -- ./inp_files/472485.got.cif
#   From: 2010.05.17/outbox.cif.g08.bks.cpg/sg2_237_cif.got.tgz:472485.got - 2010.06.03 11:33:40.
