data_PCOD9060709
_publ_section_title
;
Structure prediction by ZEFSAII (Michael W. Deem and Ramdas Pophale) SiO2 
 PCOD9060709
Probable space group: P -1
;
_chemical_formula_sum "Si O2"
_cell_formula_units_Z 16
_cell_length_a 16.709445
_cell_length_b 9.624211
_cell_length_c 5.442465
_cell_angle_alpha 77.004198
_cell_angle_beta 127.236018
_cell_angle_gamma 100.782614
_cell_volume 677.497884
_symmetry_space_group_name_H-M "P -1"
_symmetry_group_IT_number 2
_symmetry_cell_setting 'triclinic'
loop_
_space_group_symop_operation_xyz
x,y,z
-x,-y,-z
loop_
_atom_site_type_symbol
_atom_site_label
_atom_site_fract_x
_atom_site_fract_y
_atom_site_fract_z
Si Si1 0.001617 0.866722 0.375503
Si Si2 0.840369 0.012504 0.724929
Si Si3 0.517576 0.151127 0.102738
Si Si4 0.281254 0.816002 0.218216
Si Si5 0.303797 0.102282 0.859492
Si Si6 0.232286 0.480687 0.220616
Si Si7 0.846824 0.661099 0.372114
Si Si8 0.462061 0.424751 0.705184
O O1 0.959907 0.727877 0.500690
O O2 0.108307 0.887108 0.432001
O O3 0.000000 0.000000 0.500000
O O4 0.919545 0.899853 0.000061
O O5 0.811223 0.119044 0.837839
O O6 0.740652 0.920971 0.487652
O O7 0.620040 0.175591 0.429606
O O8 0.416707 0.168593 0.069495
O O9 0.510284 0.273712 0.842304
O O10 0.500000 0.000000 0.000000
O O11 0.252815 0.651924 0.171605
O O12 0.305956 0.938793 0.016030
O O13 0.223707 0.202278 0.794173
O O14 0.169513 0.427362 0.369245
O O15 0.341462 0.417627 0.485891
O O16 0.186716 0.426117 0.898801
O O17 0.500000 0.500000 0.500000
O O18 0.500000 0.500000 0.000000
#
# Coordination Sequence:
#
# PCOD9060709 Si02
#       8
#     2   2   2   2   2   2   2   2
#     4  11  23  43  78 111 139 183 245 318 373 433
#     4  11  23  44  74 107 146 183 244 302 384 428
#     4  12  27  43  72 110 148 193 252 309 355 431
#     4  12  27  46  70 107 152 203 234 306 373 438
#     4  12  25  45  74 109 145 190 254 309 361 435
#     4  12  29  47  73 103 159 197 245 294 373 444
#     4  12  26  48  75 110 139 194 250 305 355 445
#     4  12  27  47  69 101 146 203 246 287 360 443
#
# _framework density 23.616309000000001
#
# number of rings (size 3 to 8) (size 9 to 14) (size 15 to 20)
#    0.000    0.250    6.250    1.875    7.000    0.000 
#    0.000    1.250    0.000    0.000    0.000    0.000 
#    0.000    0.000    0.000    0.000    0.000    0.000 
#
# Total GULP energy -89543.723075 kJ/mol
# GULP energy per Si atom -5596.482692 kJ/mol
# Density = 2.356256 g / cm^3
# Si number density = 23.616309 Si / 1000 Ang^3
#
#
#
# Elastic Constant Matrix: (Units=GPa)
#
#
# Indices 1 2 3 4 5 6 
#
# 1 68.5463 -4.5563 13.8421 1.5631 -8.8298 24.8488
# 2 -4.5563 154.1659 41.6786 1.0028 -17.3937 10.1650
# 3 13.8421 41.6786 64.2913 1.6096 -19.7620 10.4406
# 4 1.5631 1.0028 1.6096 45.1561 0.6761 -6.9437
# 5 -8.8298 -17.3937 -19.7620 0.6761 38.8879 -3.2213
# 6 24.8488 10.1650 10.4406 -6.9437 -3.2213 39.0810
#
#
#
# Elastic Compliance Matrix: (Units=1/GPa)
#
#
# Indices 1 2 3 4 5 6 
#
# 1 0.020660 0.002673 -0.002929 -0.002760 0.003347 -0.013263
# 2 0.002673 0.008271 -0.005050 -0.000498 0.001544 -0.002463
# 3 -0.002929 -0.005050 0.022410 -0.001066 0.008291 -0.002317
# 4 -0.002760 -0.000498 -0.001066 0.023262 -0.001282 0.006196
# 5 0.003347 0.001544 0.008291 -0.001282 0.031203 -0.002401
# 6 -0.013263 -0.002463 -0.002317 0.006196 -0.002401 0.036184
#
#
# Mechanical properties :
#
#
# Convention : Reuss Voigt Hill
#
# Bulk Modulus (GPa) = 24.55299 43.21471 33.88385
# Shear Modulus (GPa) = 30.08832 40.36094 35.22463
#
# Velocity S-wave (km/s) = 3.57325 4.13852 3.86623
# Velocity P-wave (km/s) = 5.23864 6.41677 5.85740
#
# Compressibility (1/GPa) = 0.04072824
#
# Stress axis : x y z
#
# Youngs Moduli (GPa) = 48.40271 120.91005 44.62276
#
# Poissons Ratio (x) = -0.32314 0.13069
# Poissons Ratio (y) = -0.12936 0.22534
# Poissons Ratio (z) = 0.14176 0.61059
#
# Static dielectric constant tensor:
#      x y z
#    x 3.013120 0.558310 -0.902670 
#    y 0.558310 2.157460 -0.453800 
#    z -0.902670 -0.453800 2.657770 
# 
# From -- ./inp_files/106809.got.cif
#   From: 2010.05.17/outbox.cif.g08.bks.cpg/sg2_54_cif.got.tgz:106809.got - 2010.06.03 11:33:40.
