data_PCOD9060536
_publ_section_title
;
Structure prediction by ZEFSAII (Michael W. Deem and Ramdas Pophale) SiO2 
 PCOD9060536
Probable space group: P -1
;
_chemical_formula_sum "Si O2"
_cell_formula_units_Z 16
_cell_length_a 18.729750
_cell_length_b 11.678705
_cell_length_c 8.161094
_cell_angle_alpha 118.923774
_cell_angle_beta 66.270165
_cell_angle_gamma 154.754854
_cell_volume 663.444426
_symmetry_space_group_name_H-M "P -1"
_symmetry_group_IT_number 2
_symmetry_cell_setting 'triclinic'
loop_
_space_group_symop_operation_xyz
x,y,z
-x,-y,-z
loop_
_atom_site_type_symbol
_atom_site_label
_atom_site_fract_x
_atom_site_fract_y
_atom_site_fract_z
Si Si1 0.721617 0.391238 0.470300
Si Si2 0.928072 0.757262 0.839400
Si Si3 0.259840 0.177725 0.204346
Si Si4 0.066293 0.551976 0.652265
Si Si5 0.860190 0.549599 0.106869
Si Si6 0.267301 0.924813 0.180331
Si Si7 0.494077 0.257282 0.509236
Si Si8 0.759438 0.940663 0.187709
O O1 0.818401 0.610125 0.677671
O O2 0.795212 0.355112 0.412175
O O3 0.769540 0.483614 0.298171
O O4 0.536715 0.181027 0.499637
O O5 0.833703 0.554734 0.945097
O O6 0.090808 0.909927 0.752911
O O7 0.000000 0.000000 0.000000
O O8 0.335972 0.403972 0.403542
O O9 0.331932 0.145077 0.173226
O O10 0.309555 0.261807 0.024193
O O11 0.057464 0.871867 0.178173
O O12 0.000000 0.500000 0.500000
O O13 0.900861 0.271751 0.711010
O O14 0.146277 0.803395 0.822637
O O15 0.795458 0.302710 0.002326
O O16 0.407790 0.102906 0.309092
O O17 0.368191 0.167997 0.659979
#
# Coordination Sequence:
#
# PCOD9060536 Si02
#       8
#     2   2   2   2   2   2   2   2
#     4  12  25  45  70 107 146 186 235 304 355 419
#     4  11  24  45  75 106 139 187 246 298 349 424
#     4  11  23  43  72 105 136 189 240 295 354 426
#     4  12  20  43  76 100 129 191 249 291 341 431
#     4  11  24  46  78 102 135 188 258 288 344 434
#     4  12  22  47  72 103 135 185 246 298 349 422
#     4  12  28  43  66 107 155 183 226 293 381 428
#     4  11  23  45  72 102 140 186 243 285 360 435
#
# _framework density 24.116562999999999
#
# number of rings (size 3 to 8) (size 9 to 14) (size 15 to 20)
#    0.000    0.500    6.250    3.375    0.000    3.000 
#    4.500    0.000    0.000    0.000    0.000    0.000 
#    0.000    0.000    0.000    0.000    0.000    0.000 
#
# Total GULP energy -89350.735231 kJ/mol
# GULP energy per Si atom -5584.420952 kJ/mol
# Density = 2.406167 g / cm^3
# Si number density = 24.116563 Si / 1000 Ang^3
#
#
#
# Elastic Constant Matrix: (Units=GPa)
#
#
# Indices 1 2 3 4 5 6 
#
# 1 140.5714 22.4007 37.9156 5.6611 3.6320 23.0444
# 2 22.4007 49.9797 35.5470 6.3316 7.1446 12.9404
# 3 37.9156 35.5470 125.6604 6.9204 4.5492 13.2901
# 4 5.6611 6.3316 6.9204 42.9980 2.1316 -2.5239
# 5 3.6320 7.1446 4.5492 2.1316 39.0203 9.0370
# 6 23.0444 12.9404 13.2901 -2.5239 9.0370 39.7155
#
#
#
# Elastic Compliance Matrix: (Units=1/GPa)
#
#
# Indices 1 2 3 4 5 6 
#
# 1 0.008498 -0.001549 -0.001670 -0.000895 0.000681 -0.004079
# 2 -0.001549 0.027482 -0.006466 -0.002989 -0.002705 -0.005466
# 3 -0.001670 -0.006466 0.010362 -0.000538 0.000274 -0.000488
# 4 -0.000895 -0.002989 -0.000538 0.024181 -0.001447 0.003539
# 5 0.000681 -0.002705 0.000274 -0.001447 0.027485 -0.005951
# 6 -0.004079 -0.005466 -0.000488 0.003539 -0.005951 0.031070
#
#
# Mechanical properties :
#
#
# Convention : Reuss Voigt Hill
#
# Bulk Modulus (GPa) = 37.07480 56.43757 46.75619
# Shear Modulus (GPa) = 31.75838 39.03665 35.39752
#
# Velocity S-wave (km/s) = 3.63281 4.02763 3.83530
# Velocity P-wave (km/s) = 5.74482 6.71430 6.24839
#
# Compressibility (1/GPa) = 0.02697250
#
# Stress axis : x y z
#
# Youngs Moduli (GPa) = 117.67097 36.38773 96.50343
#
# Poissons Ratio (x) = 0.05636 0.16116
# Poissons Ratio (y) = 0.18226 0.62400
# Poissons Ratio (z) = 0.19650 0.23529
#
# Static dielectric constant tensor:
#      x y z
#    x 1.958130 -0.028490 0.005840 
#    y -0.028490 1.990310 0.004120 
#    z 0.005840 0.004120 1.952310 
# 
# From -- ./inp_files/332336.got.cif
#   From: 2010.05.17/outbox.cif.g08.bks.cpg/sg2_167_cif.got.tgz:332336.got - 2010.06.03 11:33:40.
