data_PCOD9060581
_publ_section_title
;
Structure prediction by ZEFSAII (Michael W. Deem and Ramdas Pophale) SiO2 
 PCOD9060581
Probable space group: P -1
;
_chemical_formula_sum "Si O2"
_cell_formula_units_Z 15
_cell_length_a 10.433780
_cell_length_b 8.602301
_cell_length_c 17.659899
_cell_angle_alpha 43.533642
_cell_angle_beta 148.592394
_cell_angle_gamma 123.066484
_cell_volume 557.003077
_symmetry_space_group_name_H-M "P -1"
_symmetry_group_IT_number 2
_symmetry_cell_setting 'triclinic'
loop_
_space_group_symop_operation_xyz
x,y,z
-x,-y,-z
loop_
_atom_site_type_symbol
_atom_site_label
_atom_site_fract_x
_atom_site_fract_y
_atom_site_fract_z
Si Si1 0.958190 0.155601 0.753134
Si Si2 0.887468 0.385829 0.366905
Si Si3 0.412822 0.477524 0.196618
Si Si4 0.269330 0.805885 0.146472
Si Si5 0.058207 0.526469 0.860986
Si Si6 0.852094 0.009120 0.253689
Si Si7 0.500000 0.000000 0.500000
Si Si8 0.472715 0.815657 0.845528
O O1 0.980574 0.422533 0.670639
O O2 0.685568 0.123814 0.603051
O O3 0.128992 0.048505 0.804189
O O4 0.058084 0.005010 0.930200
O O5 0.645696 0.501193 0.253287
O O6 0.771562 0.234262 0.301198
O O7 0.056788 0.215332 0.570976
O O8 0.393570 0.657799 0.190492
O O9 0.456162 0.223853 0.341945
O O10 0.167969 0.511121 0.007600
O O11 0.152523 0.622550 0.198935
O O12 0.447950 0.951959 0.225747
O O13 0.970754 0.801411 0.710729
O O14 0.298312 0.396363 0.980124
O O15 0.592076 0.136887 0.115516
#
# Coordination Sequence:
#
# PCOD9060581 Si02
#       8
#     2   2   2   2   2   2   1   2
#     4  12  26  44  76 104 140 177 235 292 355 406
#     4  11  27  47  67 104 143 187 231 291 344 415
#     4  11  23  43  73 105 139 179 236 288 350 409
#     4  12  25  45  73 106 139 185 230 290 350 414
#     4  11  24  46  69 104 140 184 233 289 347 412
#     4  12  24  47  71 102 137 187 235 292 344 411
#     4  12  24  44  70 110 140 176 220 302 354 410
#     4  11  28  46  68 100 144 192 240 274 341 424
#
# _framework density 26.929835000000001
#
# number of rings (size 3 to 8) (size 9 to 14) (size 15 to 20)
#    0.000    0.533    4.000    3.600    7.467    1.067 
#    0.000    0.667    0.000    0.000    0.000    0.000 
#    0.000    0.000    0.000    0.000    0.000    0.000 
#
# Total GULP energy -83929.900522 kJ/mol
# GULP energy per Si atom -5595.326701 kJ/mol
# Density = 2.686854 g / cm^3
# Si number density = 26.929835 Si / 1000 Ang^3
#
#
#
# Elastic Constant Matrix: (Units=GPa)
#
#
# Indices 1 2 3 4 5 6 
#
# 1 59.9709 9.8684 5.3304 -4.5317 -0.9243 -8.0941
# 2 9.8684 232.3738 33.3377 -2.2193 -7.1955 40.0044
# 3 5.3304 33.3377 47.7321 -12.1432 -14.5305 16.3798
# 4 -4.5317 -2.2193 -12.1432 43.7541 5.1432 -5.9825
# 5 -0.9243 -7.1955 -14.5305 5.1432 30.0988 -18.7287
# 6 -8.0941 40.0044 16.3798 -5.9825 -18.7287 57.5601
#
#
#
# Elastic Compliance Matrix: (Units=1/GPa)
#
#
# Indices 1 2 3 4 5 6 
#
# 1 0.017824 -0.001247 -0.001663 0.001720 0.002078 0.004701
# 2 -0.001247 0.005428 -0.003359 -0.001016 -0.002653 -0.003961
# 3 -0.001663 -0.003359 0.029043 0.006168 0.010879 -0.001983
# 4 0.001720 -0.001016 0.006168 0.024971 -0.000460 0.001638
# 5 0.002078 -0.002653 0.010879 -0.000460 0.046840 0.014233
# 6 0.004701 -0.003961 -0.001983 0.001638 0.014233 0.026153
#
#
# Mechanical properties :
#
#
# Convention : Reuss Voigt Hill
#
# Bulk Modulus (GPa) = 25.15168 48.57220 36.86194
# Shear Modulus (GPa) = 28.40087 45.71863 37.05975
#
# Velocity S-wave (km/s) = 3.25102 4.12478 3.71369
# Velocity P-wave (km/s) = 4.84274 6.38442 5.66626
#
# Compressibility (1/GPa) = 0.03975877
#
# Stress axis : x y z
#
# Youngs Moduli (GPa) = 56.10350 184.21923 34.43129
#
# Poissons Ratio (x) = 0.22971 0.05725
# Poissons Ratio (y) = 0.06996 0.11565
# Poissons Ratio (z) = 0.09328 0.61877
#
# Static dielectric constant tensor:
#      x y z
#    x 2.366960 -0.014630 0.117790 
#    y -0.014630 2.118980 0.005630 
#    z 0.117790 0.005630 2.100020 
# 
# From -- ./inp_files/593420.got.cif
#   From: 2010.05.17/outbox.cif.g08.bks.cpg/sg2_297_cif.got.tgz:593420.got - 2010.06.03 11:33:40.
