data_PCOD9060419
_publ_section_title
;
Structure prediction by ZEFSAII (Michael W. Deem and Ramdas Pophale) SiO2 
 PCOD9060419
Probable space group: P -1
;
_chemical_formula_sum "Si O2"
_cell_formula_units_Z 16
_cell_length_a 16.394644
_cell_length_b 13.200719
_cell_length_c 9.415347
_cell_angle_alpha 49.535505
_cell_angle_beta 115.781437
_cell_angle_gamma 147.990463
_cell_volume 787.400901
_symmetry_space_group_name_H-M "P -1"
_symmetry_group_IT_number 2
_symmetry_cell_setting 'triclinic'
loop_
_space_group_symop_operation_xyz
x,y,z
-x,-y,-z
loop_
_atom_site_type_symbol
_atom_site_label
_atom_site_fract_x
_atom_site_fract_y
_atom_site_fract_z
Si Si1 0.092288 0.230593 0.432384
Si Si2 0.953502 0.340561 0.230330
Si Si3 0.940288 0.015750 0.809178
Si Si4 0.412719 0.517860 0.998047
Si Si5 0.600735 0.241244 0.428347
Si Si6 0.426887 0.708807 0.109483
Si Si7 0.950023 0.573867 0.466057
Si Si8 0.389030 0.971405 0.776888
O O1 0.273275 0.467607 0.299639
O O2 0.989972 0.236141 0.304675
O O3 0.069992 0.179943 0.630363
O O4 0.000000 0.000000 0.500000
O O5 0.769262 0.151765 0.293981
O O6 0.059577 0.473786 0.331476
O O7 0.000000 0.500000 0.000000
O O8 0.924916 0.153476 0.709810
O O9 0.770901 0.752177 0.869781
O O10 0.000000 0.000000 0.000000
O O11 0.469699 0.655719 0.065015
O O12 0.500000 0.500000 0.000000
O O13 0.415514 0.644123 0.776417
O O14 0.784498 0.422152 0.413407
O O15 0.500000 0.000000 0.500000
O O16 0.534239 0.178073 0.593599
O O17 0.569038 0.917355 0.138004
O O18 0.374887 0.793041 0.935770
O O19 0.000000 0.500000 0.500000
#
# Coordination Sequence:
#
# PCOD9060419 Si02
#       8
#     2   2   2   2   2   2   2   2
#     4  11  23  43  70  97 137 181 229 286 354 417
#     4  11  24  42  68 103 135 178 237 288 342 418
#     4  11  24  46  69  98 139 186 232 288 351 417
#     4  12  28  47  70 103 145 189 238 291 364 431
#     4  12  25  44  73 104 143 191 232 292 364 424
#     4  11  24  46  70 103 141 183 236 297 359 421
#     4  11  26  43  70 102 136 182 240 287 340 421
#     4  11  24  43  73 103 141 181 236 298 358 414
#
# _framework density 20.320017
#
# number of rings (size 3 to 8) (size 9 to 14) (size 15 to 20)
#    0.000    0.750    5.000    2.250    7.000    1.000 
#    2.250    1.250    0.000    0.000    0.000    0.000 
#    0.000    0.000    0.000    0.000    0.000    0.000 
#
# Total GULP energy -89357.772220 kJ/mol
# GULP energy per Si atom -5584.860764 kJ/mol
# Density = 2.027377 g / cm^3
# Si number density = 20.320017 Si / 1000 Ang^3
#
#
#
# Elastic Constant Matrix: (Units=GPa)
#
#
# Indices 1 2 3 4 5 6 
#
# 1 118.5629 32.2461 45.4424 5.7723 13.2561 -27.6630
# 2 32.2461 79.5280 23.1833 -0.4711 13.6493 -25.4095
# 3 45.4424 23.1833 144.0412 -0.7476 14.5085 -16.7412
# 4 5.7723 -0.4711 -0.7476 33.6721 2.8419 2.7215
# 5 13.2561 13.6493 14.5085 2.8419 32.2657 -6.0749
# 6 -27.6630 -25.4095 -16.7412 2.7215 -6.0749 39.5079
#
#
#
# Elastic Compliance Matrix: (Units=1/GPa)
#
#
# Indices 1 2 3 4 5 6 
#
# 1 0.011537 -0.001858 -0.002532 -0.002395 -0.001523 0.005740
# 2 -0.001858 0.017083 -0.000697 0.000224 -0.004536 0.008678
# 3 -0.002532 -0.000697 0.008183 0.000727 -0.002248 0.000850
# 4 -0.002395 0.000224 0.000727 0.030674 -0.002850 -0.003777
# 5 -0.001523 -0.004536 -0.002248 -0.002850 0.034918 0.000629
# 6 0.005740 0.008678 0.000850 -0.003777 0.000629 0.035629
#
#
# Mechanical properties :
#
#
# Convention : Reuss Voigt Hill
#
# Bulk Modulus (GPa) = 37.55466 60.43064 48.99265
# Shear Modulus (GPa) = 31.83230 37.17317 34.50274
#
# Velocity S-wave (km/s) = 3.96226 4.28177 4.12511
# Velocity P-wave (km/s) = 6.28127 7.36538 6.84482
#
# Compressibility (1/GPa) = 0.02662785
#
# Stress axis : x y z
#
# Youngs Moduli (GPa) = 86.68081 58.53725 122.21139
#
# Poissons Ratio (x) = 0.10877 0.30948
# Poissons Ratio (y) = 0.16107 0.08514
# Poissons Ratio (z) = 0.21950 0.04078
#
# Static dielectric constant tensor:
#      x y z
#    x 1.771540 -0.037740 -0.056920 
#    y -0.037740 1.744940 0.008610 
#    z -0.056920 0.008610 1.722890 
# 
# From -- ./inp_files/306554.got.cif
#   From: 2010.05.17/outbox.cif.g08.bks.cpg/sg2_154_cif.got.tgz:306554.got - 2010.06.03 11:33:40.
