data_PCOD9060868
_publ_section_title
;
Structure prediction by ZEFSAII (Michael W. Deem and Ramdas Pophale) SiO2 
 PCOD9060868
Probable space group: P -1
;
_chemical_formula_sum "Si O2"
_cell_formula_units_Z 16
_cell_length_a 12.972104
_cell_length_b 11.379117
_cell_length_c 8.645054
_cell_angle_alpha 106.044787
_cell_angle_beta 56.727487
_cell_angle_gamma 61.230211
_cell_volume 631.669387
_symmetry_space_group_name_H-M "P -1"
_symmetry_group_IT_number 2
_symmetry_cell_setting 'triclinic'
loop_
_space_group_symop_operation_xyz
x,y,z
-x,-y,-z
loop_
_atom_site_type_symbol
_atom_site_label
_atom_site_fract_x
_atom_site_fract_y
_atom_site_fract_z
Si Si1 0.692075 0.622557 0.529024
Si Si2 0.620355 0.028305 0.880700
Si Si3 0.286975 0.625610 0.789429
Si Si4 0.299345 0.606378 0.129064
Si Si5 0.483666 0.224808 0.740548
Si Si6 0.217651 0.270233 0.751803
Si Si7 0.849267 0.956854 0.165929
Si Si8 0.992839 0.767363 0.664127
O O1 0.708501 0.518289 0.330846
O O2 0.697427 0.750941 0.490251
O O3 0.869280 0.437977 0.430673
O O4 0.493484 0.778831 0.853115
O O5 0.601745 0.085225 0.741482
O O6 0.842582 0.831459 0.685679
O O7 0.500000 0.000000 0.000000
O O8 0.500000 0.500000 0.500000
O O9 0.275108 0.667309 0.995227
O O10 0.067592 0.837904 0.985802
O O11 0.321344 0.444040 0.022795
O O12 0.500000 0.500000 0.000000
O O13 0.128562 0.755501 0.451564
O O14 0.364263 0.214411 0.740530
O O15 0.646188 0.171543 0.481766
O O16 0.180079 0.158835 0.784717
O O17 0.000000 0.500000 0.000000
O O18 0.857859 0.935286 0.967894
#
# Coordination Sequence:
#
# PCOD9060868 Si02
#       8
#     2   2   2   2   2   2   2   2
#     4  11  23  44  69 102 142 189 241 291 359 421
#     4  12  26  42  67 107 150 186 233 295 355 431
#     4  11  24  46  74  99 136 187 242 296 357 426
#     4  12  25  48  71 102 142 186 240 301 362 420
#     4  12  25  43  70 107 146 184 241 295 359 426
#     4  12  21  41  72 101 142 191 236 291 354 439
#     4  11  23  45  69 106 136 189 242 290 358 431
#     4  11  24  45  69  99 146 185 235 290 355 419
#
# _framework density 25.329706999999999
#
# number of rings (size 3 to 8) (size 9 to 14) (size 15 to 20)
#    0.000    0.500    5.000    4.875    0.000    1.500 
#    2.250    2.500    0.000    0.000    0.000    0.000 
#    0.000    0.000    0.000    0.000    0.000    0.000 
#
# Total GULP energy -89453.545276 kJ/mol
# GULP energy per Si atom -5590.846580 kJ/mol
# Density = 2.527206 g / cm^3
# Si number density = 25.329707 Si / 1000 Ang^3
#
#
#
# Elastic Constant Matrix: (Units=GPa)
#
#
# Indices 1 2 3 4 5 6 
#
# 1 78.6284 49.5871 39.0370 2.2245 -18.7866 -31.4081
# 2 49.5871 117.8551 29.7454 -12.2977 -4.6284 -44.9511
# 3 39.0370 29.7454 158.2519 -32.7422 3.6273 -28.9091
# 4 2.2245 -12.2977 -32.7422 42.6420 -7.4660 3.2534
# 5 -18.7866 -4.6284 3.6273 -7.4660 52.4728 9.0056
# 6 -31.4081 -44.9511 -28.9091 3.2534 9.0056 58.3538
#
#
#
# Elastic Compliance Matrix: (Units=1/GPa)
#
#
# Indices 1 2 3 4 5 6 
#
# 1 0.023132 -0.007535 -0.005142 -0.006461 0.006459 0.003462
# 2 -0.007535 0.014805 0.001647 0.004910 -0.002220 0.008234
# 3 -0.005142 0.001647 0.009407 0.007419 -0.001810 0.003027
# 4 -0.006461 0.004910 0.007419 0.031043 0.001682 0.001990
# 5 0.006459 -0.002220 -0.001810 0.001682 0.021988 -0.002618
# 6 0.003462 0.008234 0.003027 0.001990 -0.002618 0.027136
#
#
# Mechanical properties :
#
#
# Convention : Reuss Voigt Hill
#
# Bulk Modulus (GPa) = 39.55084 65.71938 52.63511
# Shear Modulus (GPa) = 31.64546 46.45144 39.04845
#
# Velocity S-wave (km/s) = 3.53844 4.28702 3.93059
# Velocity P-wave (km/s) = 5.68703 7.10680 6.43619
#
# Compressibility (1/GPa) = 0.02528391
#
# Stress axis : x y z
#
# Youngs Moduli (GPa) = 43.23019 67.54297 106.29977
#
# Poissons Ratio (x) = 0.50893 0.54663
# Poissons Ratio (y) = 0.32574 -0.17506
# Poissons Ratio (z) = 0.22230 -0.11123
#
# Static dielectric constant tensor:
#      x y z
#    x 2.003300 0.090100 0.023830 
#    y 0.090100 2.069850 -0.035170 
#    z 0.023830 -0.035170 2.009290 
# 
# From -- ./inp_files/273621.got.cif
#   From: 2010.05.17/outbox.cif.g08.bks.cpg/sg2_137_cif.got.tgz:273621.got - 2010.06.03 11:33:40.
