data_PCOD9060268
_publ_section_title
;
Structure prediction by ZEFSAII (Michael W. Deem and Ramdas Pophale) SiO2 
 PCOD9060268
Probable space group: P -1
;
_chemical_formula_sum "Si O2"
_cell_formula_units_Z 14
_cell_length_a 8.369129
_cell_length_b 9.007693
_cell_length_c 12.111263
_cell_angle_alpha 56.331659
_cell_angle_beta 130.461236
_cell_angle_gamma 107.933890
_cell_volume 576.207175
_symmetry_space_group_name_H-M "P -1"
_symmetry_group_IT_number 2
_symmetry_cell_setting 'triclinic'
loop_
_space_group_symop_operation_xyz
x,y,z
-x,-y,-z
loop_
_atom_site_type_symbol
_atom_site_label
_atom_site_fract_x
_atom_site_fract_y
_atom_site_fract_z
Si Si1 0.045737 0.749496 0.737395
Si Si2 0.371303 0.795356 0.326683
Si Si3 0.822752 0.415336 0.844156
Si Si4 0.983441 0.310554 0.508793
Si Si5 0.868719 0.899079 0.801637
Si Si6 0.494311 0.309360 0.333126
Si Si7 0.363408 0.024309 0.818083
O O1 0.993378 0.562322 0.848582
O O2 0.900970 0.892793 0.686673
O O3 0.986217 0.717387 0.598086
O O4 0.267143 0.839423 0.811762
O O5 0.283906 0.622054 0.304733
O O6 0.507162 0.750332 0.514688
O O7 0.498381 0.894193 0.249954
O O8 0.166669 0.915888 0.228955
O O9 0.631108 0.495106 0.802166
O O10 0.938892 0.228961 0.012326
O O11 0.735566 0.288924 0.418952
O O12 0.000000 0.500000 0.500000
O O13 0.167529 0.170876 0.695525
O O14 0.647871 0.811251 0.753363
O O15 0.500000 0.000000 0.000000
#
# Coordination Sequence:
#
# PCOD9060268 Si02
#       7
#     2   2   2   2   2   2   2
#     4  11  24  45  71 102 142 183 229 288 346 410
#     4  12  24  44  71 101 136 184 233 284 344 417
#     4  11  24  45  71 101 137 181 233 287 341 412
#     4  12  26  46  72 104 141 185 234 289 350 414
#     4  11  24  44  71 102 135 182 235 287 343 410
#     4  11  23  43  68  99 134 182 231 279 345 420
#     4  12  27  47  71 107 144 181 230 292 349 409
#
# _framework density 24.296817000000001
#
# number of rings (size 3 to 8) (size 9 to 14) (size 15 to 20)
#    0.000    0.571    0.000    9.429    0.000    4.571 
#    0.000    5.714    0.000    0.000    0.000    0.000 
#    0.000    0.000    0.000    0.000    0.000    0.000 
#
# Total GULP energy -78268.979697 kJ/mol
# GULP energy per Si atom -5590.641407 kJ/mol
# Density = 2.424152 g / cm^3
# Si number density = 24.296817 Si / 1000 Ang^3
#
#
#
# Elastic Constant Matrix: (Units=GPa)
#
#
# Indices 1 2 3 4 5 6 
#
# 1 145.9984 30.0468 42.2552 -7.3088 11.1022 -8.7451
# 2 30.0468 116.3929 18.2306 -2.7598 1.8168 -15.2242
# 3 42.2552 18.2306 126.4658 -5.0775 26.4100 -13.7780
# 4 -7.3088 -2.7598 -5.0775 38.9148 -6.8072 8.2031
# 5 11.1022 1.8168 26.4100 -6.8072 22.5990 -1.0219
# 6 -8.7451 -15.2242 -13.7780 8.2031 -1.0219 42.5376
#
#
#
# Elastic Compliance Matrix: (Units=1/GPa)
#
#
# Indices 1 2 3 4 5 6 
#
# 1 0.007943 -0.001657 -0.002161 0.000893 -0.000968 0.000145
# 2 -0.001657 0.009488 -0.000707 -0.000171 0.000956 0.002882
# 3 -0.002161 -0.000707 0.011711 -0.001862 -0.012986 0.003143
# 4 0.000893 -0.000171 -0.001862 0.028589 0.010103 -0.005751
# 5 -0.000968 0.000956 -0.012986 0.010103 0.062664 -0.004506
# 6 0.000145 0.002882 0.003143 -0.005751 -0.004506 0.026589
#
#
# Mechanical properties :
#
#
# Convention : Reuss Voigt Hill
#
# Bulk Modulus (GPa) = 49.77086 63.32470 56.54778
# Shear Modulus (GPa) = 30.72572 40.69857 35.71215
#
# Velocity S-wave (km/s) = 3.55998 4.09719 3.83799
# Velocity P-wave (km/s) = 6.11775 6.96435 6.55473
#
# Compressibility (1/GPa) = 0.02009208
#
# Stress axis : x y z
#
# Youngs Moduli (GPa) = 125.89969 105.39657 85.39093
#
# Poissons Ratio (x) = 0.17461 0.18457
# Poissons Ratio (y) = 0.20858 0.06034
# Poissons Ratio (z) = 0.27212 0.07448
#
# Static dielectric constant tensor:
#      x y z
#    x 1.997740 0.046990 -0.058700 
#    y 0.046990 1.945390 -0.028030 
#    z -0.058700 -0.028030 1.976990 
# 
# From -- ./inp_files/381524.got.cif
#   From: 2010.05.17/outbox.cif.g08.bks.cpg/sg2_191_cif.got.tgz:381524.got - 2010.06.03 11:33:40.
