data_PCOD9060276
_publ_section_title
;
Structure prediction by ZEFSAII (Michael W. Deem and Ramdas Pophale) SiO2 
 PCOD9060276
Probable space group: P -1
;
_chemical_formula_sum "Si O2"
_cell_formula_units_Z 16
_cell_length_a 6.287804
_cell_length_b 11.354144
_cell_length_c 26.123048
_cell_angle_alpha 31.113417
_cell_angle_beta 129.698105
_cell_angle_gamma 122.206010
_cell_volume 741.041841
_symmetry_space_group_name_H-M "P -1"
_symmetry_group_IT_number 2
_symmetry_cell_setting 'triclinic'
loop_
_space_group_symop_operation_xyz
x,y,z
-x,-y,-z
loop_
_atom_site_type_symbol
_atom_site_label
_atom_site_fract_x
_atom_site_fract_y
_atom_site_fract_z
Si Si1 0.194285 0.429784 0.464398
Si Si2 0.816731 0.193855 0.762253
Si Si3 0.400058 0.400603 0.260130
Si Si4 0.776876 0.544104 0.095438
Si Si5 0.785603 0.678999 0.927829
Si Si6 0.320234 0.221859 0.904399
Si Si7 0.404137 0.517212 0.624889
Si Si8 0.700932 0.930413 0.460806
O O1 0.500000 0.500000 0.500000
O O2 0.110564 0.610547 0.339539
O O3 0.241645 0.172639 0.547768
O O4 0.919731 0.442632 0.451286
O O5 0.519917 0.279168 0.707438
O O6 0.027236 0.202733 0.838586
O O7 0.835325 0.947391 0.830268
O O8 0.526705 0.565838 0.175809
O O9 0.524441 0.465558 0.310339
O O10 0.069818 0.430489 0.198797
O O11 0.496895 0.146066 0.355085
O O12 0.519929 0.378270 0.117044
O O13 0.710967 0.740007 0.054187
O O14 0.800777 0.635093 0.007543
O O15 0.000000 0.500000 0.000000
O O16 0.500000 0.000000 0.000000
O O17 0.574527 0.721492 0.550254
O O18 0.000000 0.000000 0.500000
#
# Coordination Sequence:
#
# PCOD9060276 Si02
#       8
#     2   2   2   2   2   2   2   2
#     4  11  26  44  67 101 141 187 234 288 355 423
#     4  11  24  44  69  98 139 183 232 293 350 423
#     4  12  23  40  70 102 134 177 232 290 352 408
#     4  11  26  43  69 101 135 184 235 287 355 422
#     4  11  26  48  66  99 144 183 232 290 354 424
#     4  12  25  42  70 105 138 181 239 290 347 423
#     4  11  23  43  69 100 138 179 233 293 353 412
#     4  11  24  42  68 101 135 182 234 293 346 420
#
# _framework density 21.591221999999998
#
# number of rings (size 3 to 8) (size 9 to 14) (size 15 to 20)
#    0.000    0.750    3.750    3.375    1.750    9.000 
#    0.000    0.000    0.000    0.000    0.000    0.000 
#    0.000    0.000    0.000    0.000    0.000    0.000 
#
# Total GULP energy -89462.309434 kJ/mol
# GULP energy per Si atom -5591.394340 kJ/mol
# Density = 2.154208 g / cm^3
# Si number density = 21.591222 Si / 1000 Ang^3
#
#
#
# Elastic Constant Matrix: (Units=GPa)
#
#
# Indices 1 2 3 4 5 6 
#
# 1 127.1510 54.7635 46.0809 -1.7779 35.0786 -0.7332
# 2 54.7635 121.2485 42.9616 -2.2254 31.6480 -0.0885
# 3 46.0809 42.9616 83.4934 -15.8861 28.0352 -11.0439
# 4 -1.7779 -2.2254 -15.8861 43.9742 -0.8758 15.0601
# 5 35.0786 31.6480 28.0352 -0.8758 45.7593 3.6597
# 6 -0.7332 -0.0885 -11.0439 15.0601 3.6597 46.5059
#
#
#
# Elastic Compliance Matrix: (Units=1/GPa)
#
#
# Indices 1 2 3 4 5 6 
#
# 1 0.011682 -0.002750 -0.003593 -0.001082 -0.004878 0.000060
# 2 -0.002750 0.011686 -0.003355 -0.000714 -0.003910 -0.000279
# 3 -0.003593 -0.003355 0.019540 0.005450 -0.007062 0.003368
# 4 -0.001082 -0.000714 0.005450 0.027163 -0.000899 -0.007450
# 5 -0.004878 -0.003910 -0.007062 -0.000899 0.032931 -0.004062
# 6 0.000060 -0.000279 0.003368 -0.007450 -0.004062 0.025035
#
#
# Mechanical properties :
#
#
# Convention : Reuss Voigt Hill
#
# Bulk Modulus (GPa) = 42.53122 68.83387 55.68255
# Shear Modulus (GPa) = 32.20220 39.78699 35.99459
#
# Velocity S-wave (km/s) = 3.86612 4.29737 4.08744
# Velocity P-wave (km/s) = 6.29844 7.52150 6.93697
#
# Compressibility (1/GPa) = 0.02351214
#
# Stress axis : x y z
#
# Youngs Moduli (GPa) = 85.60196 85.57567 51.17765
#
# Poissons Ratio (x) = 0.23533 0.18386
# Poissons Ratio (y) = 0.23541 0.17170
# Poissons Ratio (z) = 0.30753 0.28711
#
# Static dielectric constant tensor:
#      x y z
#    x 1.678110 -0.076020 -0.025550 
#    y -0.076020 1.763280 0.012280 
#    z -0.025550 0.012280 1.768960 
# 
# From -- ./inp_files/78689.got.cif
#   From: 2010.05.17/outbox.cif.g08.bks.cpg/sg2_40_cif.got.tgz:78689.got - 2010.06.03 11:33:40.
