data_PCOD9060510
_publ_section_title
;
Structure prediction by ZEFSAII (Michael W. Deem and Ramdas Pophale) SiO2 
 PCOD9060510
Probable space group: P -1
;
_chemical_formula_sum "Si O2"
_cell_formula_units_Z 14
_cell_length_a 10.227671
_cell_length_b 9.106970
_cell_length_c 9.523960
_cell_angle_alpha 100.050070
_cell_angle_beta 46.361318
_cell_angle_gamma 93.237455
_cell_volume 629.591163
_symmetry_space_group_name_H-M "P -1"
_symmetry_group_IT_number 2
_symmetry_cell_setting 'triclinic'
loop_
_space_group_symop_operation_xyz
x,y,z
-x,-y,-z
loop_
_atom_site_type_symbol
_atom_site_label
_atom_site_fract_x
_atom_site_fract_y
_atom_site_fract_z
Si Si1 0.531999 0.993280 0.145054
Si Si2 0.345194 0.728417 0.172892
Si Si3 0.661229 0.733305 0.506908
Si Si4 0.945836 0.902566 0.894496
Si Si5 0.010395 0.106803 0.639511
Si Si6 0.519297 0.524471 0.786389
Si Si7 0.841816 0.615721 0.068347
O O1 0.409550 0.859153 0.244089
O O2 0.481077 0.130753 0.311648
O O3 0.739716 0.942141 0.006355
O O4 0.500000 0.000000 0.000000
O O5 0.334794 0.593606 0.267392
O O6 0.178778 0.790453 0.209177
O O7 0.493598 0.661373 0.938874
O O8 0.838831 0.778583 0.463241
O O9 0.588056 0.584440 0.598936
O O10 0.730738 0.708909 0.291804
O O11 0.945586 0.729836 0.913157
O O12 0.053001 0.984073 0.708535
O O13 0.000000 0.000000 0.000000
O O14 0.000000 0.000000 0.500000
O O15 0.320661 0.461599 0.903707
O O16 0.000000 0.500000 0.000000
#
# Coordination Sequence:
#
# PCOD9060510 Si02
#       7
#     2   2   2   2   2   2   2
#     4  12  22  46  78 103 140 183 240 303 348 418
#     4  11  23  43  72 101 137 185 231 293 354 423
#     4  12  25  44  70 104 140 187 238 292 352 426
#     4  12  26  47  73 103 141 192 236 294 362 414
#     4  12  24  42  71 107 138 174 241 302 348 410
#     4  11  25  44  69 101 141 186 233 282 363 427
#     4  12  28  48  67  98 148 191 233 288 360 430
#
# _framework density 22.236654000000001
#
# number of rings (size 3 to 8) (size 9 to 14) (size 15 to 20)
#    0.000    0.286    7.143    1.286    2.000    2.286 
#    2.571    0.000    0.000    0.000    0.000    0.000 
#    0.000    0.000    0.000    0.000    0.000    0.000 
#
# Total GULP energy -78033.983163 kJ/mol
# GULP energy per Si atom -5573.855940 kJ/mol
# Density = 2.218604 g / cm^3
# Si number density = 22.236654 Si / 1000 Ang^3
#
#
#
# Elastic Constant Matrix: (Units=GPa)
#
#
# Indices 1 2 3 4 5 6 
#
# 1 82.5462 23.4036 -8.2866 -6.9833 6.4624 4.1207
# 2 23.4036 121.4103 20.0680 -10.2923 -4.2615 -11.4129
# 3 -8.2866 20.0680 50.2175 10.2026 17.2334 -6.6371
# 4 -6.9833 -10.2923 10.2026 27.3647 8.5777 -4.8632
# 5 6.4624 -4.2615 17.2334 8.5777 38.7759 1.4884
# 6 4.1207 -11.4129 -6.6371 -4.8632 1.4884 39.8427
#
#
#
# Elastic Compliance Matrix: (Units=1/GPa)
#
#
# Indices 1 2 3 4 5 6 
#
# 1 0.014360 -0.003796 0.005238 0.001775 -0.005482 -0.001278
# 2 -0.003796 0.010939 -0.006913 0.005079 0.003674 0.002857
# 3 0.005238 -0.006913 0.029970 -0.007920 -0.013277 0.002000
# 4 0.001775 0.005079 -0.007920 0.044860 -0.006359 0.005665
# 5 -0.005482 0.003674 -0.013277 -0.006359 0.034516 -0.002658
# 6 -0.001278 0.002857 0.002000 0.005665 -0.002658 0.027173
#
#
# Mechanical properties :
#
#
# Convention : Reuss Voigt Hill
#
# Bulk Modulus (GPa) = 22.55944 36.06046 29.30995
# Shear Modulus (GPa) = 26.66164 35.79593 31.22878
#
# Velocity S-wave (km/s) = 3.46641 4.01655 3.75158
# Velocity P-wave (km/s) = 5.11747 6.14509 5.65467
#
# Compressibility (1/GPa) = 0.04432734
#
# Stress axis : x y z
#
# Youngs Moduli (GPa) = 69.63943 91.41563 33.36647
#
# Poissons Ratio (x) = 0.34701 -0.17478
# Poissons Ratio (y) = 0.26435 0.23066
# Poissons Ratio (z) = -0.36479 0.63196
#
# Static dielectric constant tensor:
#      x y z
#    x 1.841760 -0.056880 0.051430 
#    y -0.056880 1.958040 -0.055710 
#    z 0.051430 -0.055710 2.035250 
# 
# From -- ./inp_files/159065.got.cif
#   From: 2010.05.17/outbox.cif.g08.bks.cpg/sg2_80_cif.got.tgz:159065.got - 2010.06.03 11:33:40.
