data_PCOD9060170
_publ_section_title
;
Structure prediction by ZEFSAII (Michael W. Deem and Ramdas Pophale) SiO2 
 PCOD9060170
Probable space group: P -1
;
_chemical_formula_sum "Si O2"
_cell_formula_units_Z 16
_cell_length_a 22.992750
_cell_length_b 8.709346
_cell_length_c 7.938417
_cell_angle_alpha 96.657499
_cell_angle_beta 120.330378
_cell_angle_gamma 131.841608
_cell_volume 725.797996
_symmetry_space_group_name_H-M "P -1"
_symmetry_group_IT_number 2
_symmetry_cell_setting 'triclinic'
loop_
_space_group_symop_operation_xyz
x,y,z
-x,-y,-z
loop_
_atom_site_type_symbol
_atom_site_label
_atom_site_fract_x
_atom_site_fract_y
_atom_site_fract_z
Si Si1 0.018233 0.862752 0.437629
Si Si2 0.951540 0.593980 0.625434
Si Si3 0.927081 0.251532 0.730635
Si Si4 0.741848 0.408010 0.424860
Si Si5 0.471329 0.212832 0.807148
Si Si6 0.221412 0.281589 0.188544
Si Si7 0.349566 0.295909 0.583694
Si Si8 0.292079 0.475674 0.958739
O O1 0.000994 0.768874 0.211165
O O2 0.933280 0.600740 0.405226
O O3 0.000000 0.000000 0.500000
O O4 0.169471 0.128285 0.706623
O O5 0.935439 0.381654 0.599786
O O6 0.847309 0.481867 0.566063
O O7 0.088122 0.934913 0.915404
O O8 0.785861 0.961616 0.554087
O O9 0.000000 0.500000 0.000000
O O10 0.786857 0.629408 0.645738
O O11 0.619813 0.095625 0.292898
O O12 0.715944 0.423556 0.199994
O O13 0.393308 0.204702 0.615558
O O14 0.574500 0.348275 0.845782
O O15 0.549835 0.428622 0.110415
O O16 0.325241 0.351000 0.389581
O O17 0.265496 0.467582 0.114034
#
# Coordination Sequence:
#
# PCOD9060170 Si02
#       8
#     2   2   2   2   2   2   2   2
#     4  11  23  43  67 100 140 179 227 284 351 418
#     4  11  24  41  67 102 136 181 224 287 356 410
#     4  12  23  42  72 101 140 179 231 292 353 418
#     4  12  23  45  69 101 139 186 238 283 344 424
#     4  11  24  44  73  92 134 193 234 279 353 414
#     4  11  25  42  70 103 141 176 234 296 353 410
#     4  11  23  45  67 100 135 183 233 292 351 410
#     4  11  24  43  69  98 139 185 226 286 351 409
#
# _framework density 22.044699999999999
#
# number of rings (size 3 to 8) (size 9 to 14) (size 15 to 20)
#    0.000    0.750    6.250    1.125    0.000    3.000 
#    0.000    0.000    0.000    0.000    0.000    0.000 
#    0.000    0.000    0.000    0.000    0.000    0.000 
#
# Total GULP energy -89282.044132 kJ/mol
# GULP energy per Si atom -5580.127758 kJ/mol
# Density = 2.199453 g / cm^3
# Si number density = 22.044700 Si / 1000 Ang^3
#
#
#
# Elastic Constant Matrix: (Units=GPa)
#
#
# Indices 1 2 3 4 5 6 
#
# 1 136.4263 29.0852 30.7184 1.7675 3.1802 6.1140
# 2 29.0852 99.7609 11.5958 4.6300 -4.3358 8.9388
# 3 30.7184 11.5958 51.7558 3.5699 0.5457 3.1197
# 4 1.7675 4.6300 3.5699 40.0067 2.2571 2.0788
# 5 3.1802 -4.3358 0.5457 2.2571 23.9896 5.5108
# 6 6.1140 8.9388 3.1197 2.0788 5.5108 30.2706
#
#
#
# Elastic Compliance Matrix: (Units=1/GPa)
#
#
# Indices 1 2 3 4 5 6 
#
# 1 0.008901 -0.002072 -0.004802 0.000377 -0.001374 -0.000467
# 2 -0.002072 0.011236 -0.001045 -0.001124 0.003192 -0.003296
# 3 -0.004802 -0.001045 0.022576 -0.001648 0.000317 -0.000993
# 4 0.000377 -0.001124 -0.001648 0.025438 -0.002406 -0.000883
# 5 -0.001374 0.003192 0.000317 -0.002406 0.044653 -0.008662
# 6 -0.000467 -0.003296 -0.000993 -0.000883 -0.008662 0.035843
#
#
# Mechanical properties :
#
#
# Convention : Reuss Voigt Hill
#
# Bulk Modulus (GPa) = 37.21025 47.86020 42.53523
# Shear Modulus (GPa) = 28.82798 33.28961 31.05880
#
# Velocity S-wave (km/s) = 3.62014 3.89021 3.75760
# Velocity P-wave (km/s) = 5.86430 6.47580 6.17762
#
# Compressibility (1/GPa) = 0.02687432
#
# Stress axis : x y z
#
# Youngs Moduli (GPa) = 112.34587 89.00130 44.29497
#
# Poissons Ratio (x) = 0.18444 0.21271
# Poissons Ratio (y) = 0.23281 0.04628
# Poissons Ratio (z) = 0.53950 0.09299
#
# Static dielectric constant tensor:
#      x y z
#    x 1.866020 -0.033800 -0.040480 
#    y -0.033800 1.874170 -0.088570 
#    z -0.040480 -0.088570 1.876000 
# 
# From -- ./inp_files/352259.got.cif
#   From: 2010.05.17/outbox.cif.g08.bks.cpg/sg2_177_cif.got.tgz:352259.got - 2010.06.03 11:33:40.
