data_PCOD9060745
_publ_section_title
;
Structure prediction by ZEFSAII (Michael W. Deem and Ramdas Pophale) SiO2 
 PCOD9060745
Probable space group: P -1
;
_chemical_formula_sum "Si O2"
_cell_formula_units_Z 14
_cell_length_a 9.333706
_cell_length_b 8.922019
_cell_length_c 8.854088
_cell_angle_alpha 62.276097
_cell_angle_beta 107.962176
_cell_angle_gamma 127.200061
_cell_volume 519.496363
_symmetry_space_group_name_H-M "P -1"
_symmetry_group_IT_number 2
_symmetry_cell_setting 'triclinic'
loop_
_space_group_symop_operation_xyz
x,y,z
-x,-y,-z
loop_
_atom_site_type_symbol
_atom_site_label
_atom_site_fract_x
_atom_site_fract_y
_atom_site_fract_z
Si Si1 0.491363 0.564218 0.733524
Si Si2 0.204159 0.141983 0.688285
Si Si3 0.598601 0.154617 0.612495
Si Si4 0.143864 0.906810 0.483987
Si Si5 0.671675 0.125398 0.100428
Si Si6 0.232030 0.451704 0.986623
Si Si7 0.035371 0.535538 0.311036
O O1 0.751999 0.313921 0.702332
O O2 0.454838 0.710806 0.558520
O O3 0.381185 0.528088 0.868158
O O4 0.692200 0.635624 0.823199
O O5 0.381610 0.350575 0.704832
O O6 0.020905 0.130567 0.656860
O O7 0.196956 0.088112 0.533244
O O8 0.204877 0.960085 0.852394
O O9 0.428162 0.967546 0.726470
O O10 0.052471 0.698679 0.651534
O O11 0.294800 0.917437 0.420008
O O12 0.754477 0.359962 0.014415
O O13 0.500000 0.000000 0.000000
O O14 0.057706 0.373927 0.858980
O O15 0.000000 0.500000 0.500000
#
# Coordination Sequence:
#
# PCOD9060745 Si02
#       7
#     2   2   2   2   2   2   2
#     4  11  21  38  68 104 132 179 226 286 333 410
#     4  11  21  38  69 100 145 168 232 277 353 393
#     4  11  23  44  74  99 136 182 242 269 345 416
#     4  10  20  38  69 105 133 186 222 283 336 425
#     4  12  26  46  68 100 138 183 226 298 343 403
#     4  11  22  40  70  96 147 179 221 272 363 403
#     4  10  17  39  66  97 130 180 221 271 331 415
#
# _framework density 26.949180999999999
#
# number of rings (size 3 to 8) (size 9 to 14) (size 15 to 20)
#    0.000    1.143    7.143    0.857    0.000    2.857 
#    0.000    1.429    6.286    0.000    0.000    0.000 
#    0.000    0.000    0.000    0.000    0.000    0.000 
#
# Total GULP energy -78259.778853 kJ/mol
# GULP energy per Si atom -5589.984204 kJ/mol
# Density = 2.688784 g / cm^3
# Si number density = 26.949181 Si / 1000 Ang^3
#
#
#
# Elastic Constant Matrix: (Units=GPa)
#
#
# Indices 1 2 3 4 5 6 
#
# 1 105.2258 31.9875 65.1154 -26.5482 43.3117 -14.4043
# 2 31.9875 117.5622 34.4400 16.5485 5.3372 -12.4651
# 3 65.1154 34.4400 166.2424 2.3767 54.4626 -17.2479
# 4 -26.5482 16.5485 2.3767 39.9668 -5.6981 8.8646
# 5 43.3117 5.3372 54.4626 -5.6981 65.4871 -2.6786
# 6 -14.4043 -12.4651 -17.2479 8.8646 -2.6786 39.5179
#
#
#
# Elastic Compliance Matrix: (Units=1/GPa)
#
#
# Indices 1 2 3 4 5 6 
#
# 1 0.022190 -0.006634 -0.004716 0.016600 -0.008784 -0.000382
# 2 -0.006634 0.012036 -0.000369 -0.009739 0.003014 0.003606
# 3 -0.004716 -0.000369 0.010219 -0.005148 -0.005658 0.003396
# 4 0.016600 -0.009739 -0.005148 0.041979 -0.002614 -0.008862
# 5 -0.008784 0.003014 -0.005658 -0.002614 0.025213 -0.002425
# 6 -0.000382 0.003606 0.003396 -0.008862 -0.002425 0.029609
#
#
# Mechanical properties :
#
#
# Convention : Reuss Voigt Hill
#
# Bulk Modulus (GPa) = 47.60674 72.45736 60.03205
# Shear Modulus (GPa) = 29.12299 46.16021 37.64160
#
# Velocity S-wave (km/s) = 3.29091 4.14316 3.74138
# Velocity P-wave (km/s) = 5.66955 7.05923 6.40221
#
# Compressibility (1/GPa) = 0.02100543
#
# Stress axis : x y z
#
# Youngs Moduli (GPa) = 45.06493 83.08629 97.86115
#
# Poissons Ratio (x) = 0.55123 0.46155
# Poissons Ratio (y) = 0.29898 0.03609
# Poissons Ratio (z) = 0.21254 0.03064
#
# Static dielectric constant tensor:
#      x y z
#    x 2.178450 0.057320 0.045490 
#    y 0.057320 2.162610 0.079490 
#    z 0.045490 0.079490 2.223110 
# 
# From -- ./inp_files/212024.got.cif
#   From: 2010.05.17/outbox.cif.g08.bks.cpg/sg2_107_cif.got.tgz:212024.got - 2010.06.03 11:33:40.
