data_PCOD9060891
_publ_section_title
;
Structure prediction by ZEFSAII (Michael W. Deem and Ramdas Pophale) SiO2 
 PCOD9060891
Probable space group: P -1
;
_chemical_formula_sum "Si O2"
_cell_formula_units_Z 14
_cell_length_a 5.273143
_cell_length_b 14.398961
_cell_length_c 18.927757
_cell_angle_alpha 33.561741
_cell_angle_beta 121.116444
_cell_angle_gamma 134.281155
_cell_volume 561.077595
_symmetry_space_group_name_H-M "P -1"
_symmetry_group_IT_number 2
_symmetry_cell_setting 'triclinic'
loop_
_space_group_symop_operation_xyz
x,y,z
-x,-y,-z
loop_
_atom_site_type_symbol
_atom_site_label
_atom_site_fract_x
_atom_site_fract_y
_atom_site_fract_z
Si Si1 0.808702 0.061416 0.151316
Si Si2 0.398077 0.192362 0.921779
Si Si3 0.434985 0.577289 0.711312
Si Si4 0.424981 0.105571 0.359943
Si Si5 0.395665 0.629075 0.315869
Si Si6 0.510591 0.073993 0.241435
Si Si7 0.380848 0.253735 0.521244
O O1 0.763101 0.151731 0.160038
O O2 0.194445 0.105658 0.164202
O O3 0.537795 0.813797 0.273275
O O4 0.673863 0.139892 0.020113
O O5 0.467602 0.390167 0.845022
O O6 0.428772 0.251144 0.807525
O O7 0.000000 0.000000 0.000000
O O8 0.520127 0.700616 0.717097
O O9 0.657919 0.711278 0.590014
O O10 0.029066 0.490306 0.682564
O O11 0.651392 0.157803 0.287734
O O12 0.500000 0.000000 0.500000
O O13 0.011858 0.931897 0.392084
O O14 0.490991 0.463056 0.441304
O O15 0.379296 0.836887 0.381021
#
# Coordination Sequence:
#
# PCOD9060891 Si02
#       7
#     2   2   2   2   2   2   2
#     4  12  27  46  70 104 155 186 232 294 359 436
#     4  11  24  46  75 104 141 188 247 293 349 417
#     4  11  24  41  77 110 132 184 251 299 345 411
#     4  12  23  46  74 102 145 186 245 295 345 432
#     4  11  24  43  74 110 135 187 244 293 357 419
#     4  12  27  45  71 105 148 196 225 288 379 419
#     4  11  23  44  69 111 140 183 239 292 361 420
#
# _framework density 24.951988
#
# number of rings (size 3 to 8) (size 9 to 14) (size 15 to 20)
#    0.000    0.571    5.714    1.714    4.000    1.143 
#    0.000    1.429    0.000    0.000    0.000    0.000 
#    0.000    0.000    0.000    0.000    0.000    0.000 
#
# Total GULP energy -78408.052259 kJ/mol
# GULP energy per Si atom -5600.575161 kJ/mol
# Density = 2.489520 g / cm^3
# Si number density = 24.951988 Si / 1000 Ang^3
#
#
#
# Elastic Constant Matrix: (Units=GPa)
#
#
# Indices 1 2 3 4 5 6 
#
# 1 115.2565 29.3073 25.7714 -0.8769 22.2875 -14.5571
# 2 29.3073 91.5131 0.5164 -7.2310 8.8923 -36.6418
# 3 25.7714 0.5164 96.4032 1.2950 38.0998 -7.0102
# 4 -0.8769 -7.2310 1.2950 33.5318 -3.7503 14.6532
# 5 22.2875 8.8923 38.0998 -3.7503 55.3975 -1.2878
# 6 -14.5571 -36.6418 -7.0102 14.6532 -1.2878 55.4273
#
#
#
# Elastic Compliance Matrix: (Units=1/GPa)
#
#
# Indices 1 2 3 4 5 6 
#
# 1 0.010362 -0.002781 -0.001636 -0.000938 -0.002640 0.000862
# 2 -0.002781 0.016295 0.002749 -0.001737 -0.003255 0.010773
# 3 -0.001636 0.002749 0.015200 -0.002866 -0.010342 0.003828
# 4 -0.000938 -0.001737 -0.002866 0.034804 0.004731 -0.010848
# 5 -0.002640 -0.003255 -0.010342 0.004731 0.026958 -0.004777
# 6 0.000862 0.010773 0.003828 -0.010848 -0.004777 0.028631
#
#
# Mechanical properties :
#
#
# Convention : Reuss Voigt Hill
#
# Bulk Modulus (GPa) = 25.96068 46.04034 36.00051
# Shear Modulus (GPa) = 33.68672 45.37651 39.53161
#
# Velocity S-wave (km/s) = 3.67830 4.26908 3.98465
# Velocity P-wave (km/s) = 5.33542 6.54153 5.96902
#
# Compressibility (1/GPa) = 0.03851980
#
# Stress axis : x y z
#
# Youngs Moduli (GPa) = 96.50846 61.36760 65.79010
#
# Poissons Ratio (x) = 0.17069 0.10765
# Poissons Ratio (y) = 0.26844 -0.18088
# Poissons Ratio (z) = 0.15792 -0.16872
#
# Static dielectric constant tensor:
#      x y z
#    x 2.068580 0.011260 -0.032860 
#    y 0.011260 2.041340 0.005980 
#    z -0.032860 0.005980 1.976020 
# 
# From -- ./inp_files/583614.got.cif
#   From: 2010.05.17/outbox.cif.g08.bks.cpg/sg2_292_cif.got.tgz:583614.got - 2010.06.03 11:33:40.
