data_PCOD9060088
_publ_section_title
;
Structure prediction by ZEFSAII (Michael W. Deem and Ramdas Pophale) SiO2 
 PCOD9060088
Probable space group: P -1
;
_chemical_formula_sum "Si O2"
_cell_formula_units_Z 12
_cell_length_a 4.847525
_cell_length_b 8.710610
_cell_length_c 15.264084
_cell_angle_alpha 121.552939
_cell_angle_beta 110.616721
_cell_angle_gamma 83.270925
_cell_volume 512.239741
_symmetry_space_group_name_H-M "P -1"
_symmetry_group_IT_number 2
_symmetry_cell_setting 'triclinic'
loop_
_space_group_symop_operation_xyz
x,y,z
-x,-y,-z
loop_
_atom_site_type_symbol
_atom_site_label
_atom_site_fract_x
_atom_site_fract_y
_atom_site_fract_z
Si Si1 0.515900 0.904505 0.378084
Si Si2 0.822425 0.588044 0.580664
Si Si3 0.206568 0.030050 0.920675
Si Si4 0.106643 0.310891 0.124094
Si Si5 0.924361 0.011460 0.299773
Si Si6 0.254359 0.483230 0.744215
O O1 0.174333 0.873578 0.301771
O O2 0.664838 0.715508 0.332866
O O3 0.500000 0.000000 0.500000
O O4 0.286683 0.979510 0.637179
O O5 0.500000 0.500000 0.500000
O O6 0.000000 0.500000 0.500000
O O7 0.976320 0.531193 0.669411
O O8 0.878462 0.801015 0.637001
O O9 0.251337 0.030522 0.822028
O O10 0.980873 0.859632 0.872222
O O11 0.091882 0.215153 0.998973
O O12 0.500000 0.000000 0.000000
O O13 0.869436 0.457943 0.157660
O O14 0.443017 0.391485 0.201101
#
# Coordination Sequence:
#
# PCOD9060088 Si02
#       6
#     2   2   2   2   2   2
#     4  12  29  52  73 103 156 210 249 304 375 447
#     4  12  25  42  70 109 141 184 257 320 357 432
#     4  11  24  45  79 119 150 185 246 316 390 434
#     4  11  23  42  78 106 149 189 238 308 379 440
#     4  12  27  47  78 108 147 201 254 302 380 448
#     4  12  25  48  72 106 151 198 247 308 377 432
#
# _framework density 23.426534
#
# number of rings (size 3 to 8) (size 9 to 14) (size 15 to 20)
#    0.000    0.333    3.333    4.500    7.000    2.667 
#    0.000    5.000    0.000    0.000    0.000    0.000 
#    0.000    0.000    0.000    0.000    0.000    0.000 
#
# Total GULP energy -67111.649306 kJ/mol
# GULP energy per Si atom -5592.637442 kJ/mol
# Density = 2.337321 g / cm^3
# Si number density = 23.426534 Si / 1000 Ang^3
#
#
#
# Elastic Constant Matrix: (Units=GPa)
#
#
# Indices 1 2 3 4 5 6 
#
# 1 196.7366 51.8221 82.3519 3.6091 -5.4191 -3.4067
# 2 51.8221 83.6454 67.6587 15.0341 -6.9402 -4.6440
# 3 82.3519 67.6587 161.4261 10.1066 -17.6623 3.2065
# 4 3.6091 15.0341 10.1066 39.5937 -4.8697 -8.5258
# 5 -5.4191 -6.9402 -17.6623 -4.8697 54.0960 8.3621
# 6 -3.4067 -4.6440 3.2065 -8.5258 8.3621 35.6504
#
#
#
# Elastic Compliance Matrix: (Units=1/GPa)
#
#
# Indices 1 2 3 4 5 6 
#
# 1 0.006765 -0.002212 -0.002667 0.001048 -0.000533 0.000974
# 2 -0.002212 0.020026 -0.007053 -0.005274 -0.000730 0.001942
# 3 -0.002667 -0.007053 0.010883 -0.000123 0.002809 -0.002841
# 4 0.001048 -0.005274 -0.000123 0.028620 0.001033 0.006026
# 5 -0.000533 -0.000730 0.002809 0.001033 0.020101 -0.004867
# 6 0.000974 0.001942 -0.002841 0.006026 -0.004867 0.031234
#
#
# Mechanical properties :
#
#
# Convention : Reuss Voigt Hill
#
# Bulk Modulus (GPa) = 72.41779 93.94149 83.17964
# Shear Modulus (GPa) = 34.22352 41.86638 38.04495
#
# Velocity S-wave (km/s) = 3.82630 4.23204 4.03427
# Velocity P-wave (km/s) = 7.10638 8.00423 7.56863
#
# Compressibility (1/GPa) = 0.01380876
#
# Stress axis : x y z
#
# Youngs Moduli (GPa) = 147.81633 49.93462 91.88437
#
# Poissons Ratio (x) = 0.11048 0.24508
# Poissons Ratio (y) = 0.32703 0.64808
# Poissons Ratio (z) = 0.39427 0.35220
#
# Static dielectric constant tensor:
#      x y z
#    x 1.880830 0.015540 -0.061580 
#    y 0.015540 1.819250 0.040470 
#    z -0.061580 0.040470 1.914390 
# 
# From -- ./inp_files/478729.got.cif
#   From: 2010.05.17/outbox.cif.g08.bks.cpg/sg2_240_cif.got.tgz:478729.got - 2010.06.03 11:33:40.
