data_PCOD9060125
_publ_section_title
;
Structure prediction by ZEFSAII (Michael W. Deem and Ramdas Pophale) SiO2 
 PCOD9060125
Probable space group: P -1
;
_chemical_formula_sum "Si O2"
_cell_formula_units_Z 16
_cell_length_a 11.615191
_cell_length_b 9.884213
_cell_length_c 8.011219
_cell_angle_alpha 88.273222
_cell_angle_beta 102.467838
_cell_angle_gamma 131.909416
_cell_volume 660.046996
_symmetry_space_group_name_H-M "P -1"
_symmetry_group_IT_number 2
_symmetry_cell_setting 'triclinic'
loop_
_space_group_symop_operation_xyz
x,y,z
-x,-y,-z
loop_
_atom_site_type_symbol
_atom_site_label
_atom_site_fract_x
_atom_site_fract_y
_atom_site_fract_z
Si Si1 0.242235 0.615637 0.044847
Si Si2 0.825858 0.929458 0.990625
Si Si3 0.065454 0.711449 0.819566
Si Si4 0.333204 0.810867 0.391907
Si Si5 0.062223 0.798700 0.438124
Si Si6 0.277023 0.196010 0.402545
Si Si7 0.723098 0.594372 0.162663
Si Si8 0.366003 0.543814 0.510221
O O1 0.345042 0.780336 0.202669
O O2 0.092544 0.444850 0.115051
O O3 0.176998 0.667300 0.883199
O O4 0.321622 0.548469 0.986935
O O5 0.735140 0.752376 0.085812
O O6 0.853278 0.093758 0.080059
O O7 0.740700 0.872357 0.787642
O O8 0.000000 0.000000 0.000000
O O9 0.038148 0.718770 0.616531
O O10 0.187243 0.798994 0.380718
O O11 0.301834 0.644983 0.482419
O O12 0.500000 0.000000 0.500000
O O13 0.900557 0.692469 0.285717
O O14 0.147509 0.011808 0.472618
O O15 0.260158 0.345306 0.396556
O O16 0.457014 0.311266 0.518013
O O17 0.614680 0.493733 0.294175
#
# Coordination Sequence:
#
# PCOD9060125 Si02
#       8
#     2   2   2   2   2   2   2   2
#     4  11  23  43  65  98 137 170 218 281 335 383
#     4  12  23  41  68  99 135 177 217 273 338 386
#     4  11  24  40  68 101 134 172 220 281 329 390
#     4  12  25  45  70  94 135 184 217 271 339 401
#     4  12  24  44  71 102 134 174 228 272 335 398
#     4  11  24  47  68  96 141 179 219 279 330 400
#     4  12  25  43  72 104 131 175 225 281 330 399
#     4  11  26  44  70  98 133 180 227 270 335 398
#
# _framework density 24.240697999999998
#
# number of rings (size 3 to 8) (size 9 to 14) (size 15 to 20)
#    0.000    0.500    3.750    5.250    1.750    3.000 
#    2.250    1.250    0.000    0.000    0.000    0.000 
#    0.000    0.000    0.000    0.000    0.000    0.000 
#
# Total GULP energy -89708.489382 kJ/mol
# GULP energy per Si atom -5606.780586 kJ/mol
# Density = 2.418552 g / cm^3
# Si number density = 24.240698 Si / 1000 Ang^3
#
#
#
# Elastic Constant Matrix: (Units=GPa)
#
#
# Indices 1 2 3 4 5 6 
#
# 1 63.4114 39.7433 6.3531 9.2800 0.2090 -8.9790
# 2 39.7433 134.7898 44.4177 5.3011 5.5134 -27.7373
# 3 6.3531 44.4177 115.3088 0.0004 0.0955 -5.7511
# 4 9.2800 5.3011 0.0004 51.0542 -12.3454 0.8781
# 5 0.2090 5.5134 0.0955 -12.3454 28.9289 0.1133
# 6 -8.9790 -27.7373 -5.7511 0.8781 0.1133 37.4358
#
#
#
# Elastic Compliance Matrix: (Units=1/GPa)
#
#
# Indices 1 2 3 4 5 6 
#
# 1 0.019970 -0.006051 0.001259 -0.003088 -0.000315 0.000573
# 2 -0.006051 0.012081 -0.003973 -0.000918 -0.002664 0.006919
# 3 0.001259 -0.003973 0.010078 0.000420 0.000898 -0.001106
# 4 -0.003088 -0.000918 0.000420 0.022665 0.009875 -0.001918
# 5 -0.000315 -0.002664 0.000898 0.009875 0.039298 -0.002262
# 6 0.000573 0.006919 -0.001106 -0.001918 -0.002262 0.031858
#
#
# Mechanical properties :
#
#
# Convention : Reuss Voigt Hill
#
# Bulk Modulus (GPa) = 40.65050 54.94869 47.79959
# Shear Modulus (GPa) = 30.92534 38.35018 34.63776
#
# Velocity S-wave (km/s) = 3.57565 3.98182 3.78419
# Velocity P-wave (km/s) = 5.81833 6.62247 6.23338
#
# Compressibility (1/GPa) = 0.02459994
#
# Stress axis : x y z
#
# Youngs Moduli (GPa) = 50.07386 82.77214 99.23071
#
# Poissons Ratio (x) = 0.50086 -0.12498
# Poissons Ratio (y) = 0.30300 0.39425
# Poissons Ratio (z) = -0.06307 0.32886
#
# Static dielectric constant tensor:
#      x y z
#    x 1.939320 0.004490 0.025180 
#    y 0.004490 1.926090 0.011960 
#    z 0.025180 0.011960 1.923320 
# 
# From -- ./inp_files/244134.got.cif
#   From: 2010.05.17/outbox.cif.g08.bks.cpg/sg2_123_cif.got.tgz:244134.got - 2010.06.03 11:33:40.
