data_PCOD9060612
_publ_section_title
;
Structure prediction by ZEFSAII (Michael W. Deem and Ramdas Pophale) SiO2 
 PCOD9060612
Probable space group: P -1
;
_chemical_formula_sum "Si O2"
_cell_formula_units_Z 15
_cell_length_a 9.176877
_cell_length_b 18.142025
_cell_length_c 9.647979
_cell_angle_alpha 34.935131
_cell_angle_beta 135.250204
_cell_angle_gamma 128.753512
_cell_volume 643.742219
_symmetry_space_group_name_H-M "P -1"
_symmetry_group_IT_number 2
_symmetry_cell_setting 'triclinic'
loop_
_space_group_symop_operation_xyz
x,y,z
-x,-y,-z
loop_
_atom_site_type_symbol
_atom_site_label
_atom_site_fract_x
_atom_site_fract_y
_atom_site_fract_z
Si Si1 0.091467 0.880862 0.321286
Si Si2 0.331578 0.104530 0.602050
Si Si3 0.725462 0.247730 0.595244
Si Si4 0.758713 0.497027 0.894978
Si Si5 0.907804 0.182073 0.103018
Si Si6 0.500000 0.500000 0.000000
Si Si7 0.650008 0.217257 0.141123
Si Si8 0.676046 0.762489 0.326195
O O1 0.119533 0.771346 0.395448
O O2 0.287034 0.891397 0.542465
O O3 0.913796 0.819041 0.398379
O O4 0.000000 0.000000 0.000000
O O5 0.553413 0.121445 0.650586
O O6 0.402448 0.171985 0.690830
O O7 0.153560 0.175590 0.296366
O O8 0.214465 0.962722 0.764118
O O9 0.852539 0.249714 0.820334
O O10 0.598130 0.369876 0.312924
O O11 0.690005 0.523075 0.966778
O O12 0.661214 0.608679 0.569186
O O13 0.655479 0.352469 0.016058
O O14 0.000000 0.500000 0.000000
O O15 0.812352 0.238546 0.089202
O O16 0.432683 0.191802 0.954635
#
# Coordination Sequence:
#
# PCOD9060612 Si02
#       8
#     2   2   2   2   2   1   2   2
#     4  12  28  47  69 108 155 190 247 313 378 449
#     4  11  23  43  74 103 140 191 245 310 359 444
#     4  12  25  46  71 107 147 190 243 314 375 435
#     4  12  23  48  78 110 153 198 251 315 377 449
#     4  11  24  43  74 106 138 193 259 291 377 454
#     4  12  24  46  76 110 154 190 252 312 370 458
#     4  12  25  44  75 111 139 203 248 297 385 448
#     4  12  24  47  75 103 148 198 246 307 378 449
#
# _framework density 23.301251000000001
#
# number of rings (size 3 to 8) (size 9 to 14) (size 15 to 20)
#    0.000    0.267    6.667    1.600    3.733    1.600 
#    0.000    0.667    0.000    0.000    0.000    0.000 
#    0.000    0.000    0.000    0.000    0.000    0.000 
#
# Total GULP energy -83534.197862 kJ/mol
# GULP energy per Si atom -5568.946524 kJ/mol
# Density = 2.324822 g / cm^3
# Si number density = 23.301251 Si / 1000 Ang^3
#
#
#
# Elastic Constant Matrix: (Units=GPa)
#
#
# Indices 1 2 3 4 5 6 
#
# 1 69.7614 -15.2837 8.0360 9.3235 2.5117 -15.0797
# 2 -15.2837 58.1478 51.1500 8.5549 6.4852 -2.4929
# 3 8.0360 51.1500 173.0845 14.8836 2.4888 -11.7763
# 4 9.3235 8.5549 14.8836 35.8284 -2.6793 3.8152
# 5 2.5117 6.4852 2.4888 -2.6793 33.4660 0.2985
# 6 -15.0797 -2.4929 -11.7763 3.8152 0.2985 29.0807
#
#
#
# Elastic Compliance Matrix: (Units=1/GPa)
#
#
# Indices 1 2 3 4 5 6 
#
# 1 0.020397 0.009422 -0.002181 -0.008184 -0.003953 0.011616
# 2 0.009422 0.028502 -0.007816 -0.007027 -0.006258 0.005150
# 3 -0.002181 -0.007816 0.008394 -0.001168 0.000945 0.001742
# 4 -0.008184 -0.007027 -0.001168 0.033607 0.004841 -0.009778
# 5 -0.003953 -0.006258 0.000945 0.004841 0.031736 -0.003165
# 6 0.011616 0.005150 0.001742 -0.009778 -0.003165 0.042873
#
#
# Mechanical properties :
#
#
# Convention : Reuss Voigt Hill
#
# Bulk Modulus (GPa) = 17.81096 43.19981 30.50538
# Shear Modulus (GPa) = 26.97290 36.81444 31.89367
#
# Velocity S-wave (km/s) = 3.40600 3.97915 3.70368
# Velocity P-wave (km/s) = 4.80918 6.30012 5.60445
#
# Compressibility (1/GPa) = 0.05614522
#
# Stress axis : x y z
#
# Youngs Moduli (GPa) = 49.02645 35.08545 119.13503
#
# Poissons Ratio (x) = -0.33059 0.25978
# Poissons Ratio (y) = -0.46195 0.93112
# Poissons Ratio (z) = 0.10691 0.27422
#
# Static dielectric constant tensor:
#      x y z
#    x 1.928020 0.022340 0.014770 
#    y 0.022340 1.896090 -0.028460 
#    z 0.014770 -0.028460 1.908630 
# 
# From -- ./inp_files/214159.got.cif
#   From: 2010.05.17/outbox.cif.g08.bks.cpg/sg2_108_cif.got.tgz:214159.got - 2010.06.03 11:33:40.
