data_PCOD9060018
_publ_section_title
;
Structure prediction by ZEFSAII (Michael W. Deem and Ramdas Pophale) SiO2 
 PCOD9060018
Probable space group: P -1
;
_chemical_formula_sum "Si O2"
_cell_formula_units_Z 16
_cell_length_a 11.293728
_cell_length_b 14.592326
_cell_length_c 9.665252
_cell_angle_alpha 61.154743
_cell_angle_beta 68.239070
_cell_angle_gamma 119.241602
_cell_volume 741.031761
_symmetry_space_group_name_H-M "P -1"
_symmetry_group_IT_number 2
_symmetry_cell_setting 'triclinic'
loop_
_space_group_symop_operation_xyz
x,y,z
-x,-y,-z
loop_
_atom_site_type_symbol
_atom_site_label
_atom_site_fract_x
_atom_site_fract_y
_atom_site_fract_z
Si Si1 0.682195 0.908137 0.156444
Si Si2 0.086466 0.910099 0.809569
Si Si3 0.828056 0.274898 0.099923
Si Si4 0.553685 0.837312 0.763259
Si Si5 0.832883 0.126783 0.671959
Si Si6 0.413588 0.369554 0.755658
Si Si7 0.650933 0.523372 0.828702
Si Si8 0.218771 0.695867 0.583596
O O1 0.616597 0.765714 0.195279
O O2 0.458710 0.803658 0.397520
O O3 0.845737 0.987667 0.152300
O O4 0.788802 0.065186 0.893344
O O5 0.131362 0.817760 0.884945
O O6 0.251279 0.053158 0.511216
O O7 0.830149 0.756745 0.997503
O O8 0.600351 0.171313 0.217144
O O9 0.824694 0.282993 0.262253
O O10 0.028831 0.480852 0.805029
O O11 0.669421 0.950030 0.773193
O O12 0.404677 0.633373 0.990105
O O13 0.791028 0.220156 0.587597
O O14 0.088972 0.277618 0.411888
O O15 0.500000 0.500000 0.500000
O O16 0.580676 0.485633 0.726843
O O17 0.500000 0.500000 0.000000
#
# Coordination Sequence:
#
# PCOD9060018 Si02
#       8
#     2   2   2   2   2   2   2   2
#     4  12  26  45  69 106 147 189 235 287 363 432
#     4  12  25  44  76 101 142 195 235 294 353 422
#     4  11  23  44  74 109 140 181 249 294 352 414
#     4  12  24  47  75 106 143 182 242 299 349 418
#     4  12  25  47  70 107 147 184 238 294 359 423
#     4  12  28  49  69 104 148 189 237 288 359 434
#     4  12  29  47  75 107 141 191 241 297 353 417
#     4  11  23  42  73 107 144 189 233 299 355 417
#
# _framework density 21.591517
#
# number of rings (size 3 to 8) (size 9 to 14) (size 15 to 20)
#    0.000    0.250    5.000    4.125    3.500    1.000 
#    0.000    1.875    0.000    0.000    0.000    0.000 
#    0.000    0.000    0.000    0.000    0.000    0.000 
#
# Total GULP energy -89656.527505 kJ/mol
# GULP energy per Si atom -5603.532969 kJ/mol
# Density = 2.154237 g / cm^3
# Si number density = 21.591517 Si / 1000 Ang^3
#
#
#
# Elastic Constant Matrix: (Units=GPa)
#
#
# Indices 1 2 3 4 5 6 
#
# 1 42.6797 -9.0075 -14.2220 -1.3614 -0.3089 -10.2987
# 2 -9.0075 54.7195 -14.8750 -1.8787 2.4223 -4.6572
# 3 -14.2220 -14.8750 75.1114 -10.3342 6.8886 -9.0573
# 4 -1.3614 -1.8787 -10.3342 29.6500 9.2221 -0.7813
# 5 -0.3089 2.4223 6.8886 9.2221 44.9249 -0.2735
# 6 -10.2987 -4.6572 -9.0573 -0.7813 -0.2735 34.4891
#
#
#
# Elastic Compliance Matrix: (Units=1/GPa)
#
#
# Indices 1 2 3 4 5 6 
#
# 1 0.033057 0.010177 0.011380 0.007609 -0.003541 0.014378
# 2 0.010177 0.023487 0.008862 0.006464 -0.003830 0.008654
# 3 0.011380 0.008862 0.020352 0.010170 -0.005546 0.010126
# 4 0.007609 0.006464 0.010170 0.041415 -0.010316 0.006672
# 5 -0.003541 -0.003830 -0.005546 -0.010316 0.025391 -0.003063
# 6 0.014378 0.008654 0.010126 0.006672 -0.003063 0.037243
#
#
# Mechanical properties :
#
#
# Convention : Reuss Voigt Hill
#
# Bulk Modulus (GPa) = 7.26032 10.70017 8.98024
# Shear Modulus (GPa) = 30.11717 35.85382 32.98549
#
# Velocity S-wave (km/s) = 3.73884 4.07941 3.91283
# Velocity P-wave (km/s) = 4.69131 5.21107 4.95801
#
# Compressibility (1/GPa) = 0.13773499
#
# Stress axis : x y z
#
# Youngs Moduli (GPa) = 30.25092 42.57602 49.13454
#
# Poissons Ratio (x) = -0.43329 -0.55915
# Poissons Ratio (y) = -0.30786 -0.43545
# Poissons Ratio (z) = -0.34426 -0.37733
#
# Static dielectric constant tensor:
#      x y z
#    x 1.767160 0.001530 0.010680 
#    y 0.001530 1.754500 -0.016580 
#    z 0.010680 -0.016580 1.760220 
# 
# From -- ./inp_files/272477.got.cif
#   From: 2010.05.17/outbox.cif.g08.bks.cpg/sg2_137_cif.got.tgz:272477.got - 2010.06.03 11:33:40.
