data_PCOD9060415
_publ_section_title
;
Structure prediction by ZEFSAII (Michael W. Deem and Ramdas Pophale) SiO2 
 PCOD9060415
Probable space group: P -1
;
_chemical_formula_sum "Si O2"
_cell_formula_units_Z 15
_cell_length_a 6.856163
_cell_length_b 14.893496
_cell_length_c 7.980551
_cell_angle_alpha 110.998379
_cell_angle_beta 115.244360
_cell_angle_gamma 103.886041
_cell_volume 609.146985
_symmetry_space_group_name_H-M "P -1"
_symmetry_group_IT_number 2
_symmetry_cell_setting 'triclinic'
loop_
_space_group_symop_operation_xyz
x,y,z
-x,-y,-z
loop_
_atom_site_type_symbol
_atom_site_label
_atom_site_fract_x
_atom_site_fract_y
_atom_site_fract_z
Si Si1 0.594181 0.482659 0.705121
Si Si2 0.370079 0.780140 0.746436
Si Si3 0.500000 0.500000 0.000000
Si Si4 0.762774 0.944140 0.762994
Si Si5 0.721639 0.153798 0.890905
Si Si6 0.004578 0.550754 0.352100
Si Si7 0.810417 0.876958 0.405012
Si Si8 0.222193 0.280329 0.990185
O O1 0.500000 0.500000 0.500000
O O2 0.815084 0.464541 0.720005
O O3 0.428402 0.407408 0.739844
O O4 0.668485 0.591673 0.923962
O O5 0.521277 0.867422 0.721764
O O6 0.135525 0.679146 0.520215
O O7 0.302094 0.835550 0.911512
O O8 0.565523 0.738200 0.854189
O O9 0.744760 0.489277 0.131809
O O10 0.833132 0.877892 0.611465
O O11 0.726770 0.045471 0.755509
O O12 0.000000 0.000000 0.000000
O O13 0.472804 0.150627 0.736163
O O14 0.982913 0.249244 0.992785
O O15 0.000000 0.500000 0.500000
O O16 0.853134 0.795170 0.249102
O O17 0.000000 0.000000 0.500000
#
# Coordination Sequence:
#
# PCOD9060415 Si02
#       8
#     2   2   1   2   2   2   2   2
#     4  12  25  48  80 104 151 193 247 314 375 442
#     4  11  24  41  71 108 136 185 241 295 367 436
#     4  12  28  48  76 112 146 198 252 308 378 452
#     4  12  23  44  68 101 142 183 232 299 354 427
#     4  11  23  43  70  96 140 185 235 286 364 428
#     4  12  25  50  78 108 154 199 246 313 381 441
#     4  11  24  44  67  97 142 186 237 289 355 439
#     4  11  23  45  72 105 135 189 239 292 370 437
#
# _framework density 24.624600999999998
#
# number of rings (size 3 to 8) (size 9 to 14) (size 15 to 20)
#    0.000    0.533    5.333    2.800    0.000    3.200 
#    2.400    0.000    0.000    0.000    0.000    0.000 
#    0.000    0.000    0.000    0.000    0.000    0.000 
#
# Total GULP energy -83738.676458 kJ/mol
# GULP energy per Si atom -5582.578431 kJ/mol
# Density = 2.456855 g / cm^3
# Si number density = 24.624601 Si / 1000 Ang^3
#
#
#
# Elastic Constant Matrix: (Units=GPa)
#
#
# Indices 1 2 3 4 5 6 
#
# 1 109.6825 -7.8651 28.7395 -14.9807 -13.6872 30.4021
# 2 -7.8651 56.0744 14.2438 9.9044 6.2292 21.0333
# 3 28.7395 14.2438 142.8943 -5.8165 -18.8039 12.2024
# 4 -14.9807 9.9044 -5.8165 45.3067 0.5455 5.1340
# 5 -13.6872 6.2292 -18.8039 0.5455 61.1012 -0.1644
# 6 30.4021 21.0333 12.2024 5.1340 -0.1644 43.9529
#
#
#
# Elastic Compliance Matrix: (Units=1/GPa)
#
#
# Indices 1 2 3 4 5 6 
#
# 1 0.014648 0.006491 -0.002024 0.004638 0.001920 -0.013211
# 2 0.006491 0.026058 -0.002908 -0.002094 -0.002122 -0.015916
# 3 -0.002024 -0.002908 0.007994 0.000912 0.002296 0.000474
# 4 0.004638 -0.002094 0.000912 0.024771 0.001298 -0.005348
# 5 0.001920 -0.002122 0.002296 0.001298 0.017705 -0.001035
# 6 -0.013211 -0.015916 0.000474 -0.005348 -0.001035 0.039995
#
#
# Mechanical properties :
#
#
# Convention : Reuss Voigt Hill
#
# Bulk Modulus (GPa) = 19.29785 42.09863 30.69824
# Shear Modulus (GPa) = 34.40556 48.30768 41.35662
#
# Velocity S-wave (km/s) = 3.74197 4.43399 4.10260
# Velocity P-wave (km/s) = 5.15011 6.58384 5.91061
#
# Compressibility (1/GPa) = 0.05181925
#
# Stress axis : x y z
#
# Youngs Moduli (GPa) = 68.26894 38.37537 125.09571
#
# Poissons Ratio (x) = -0.24911 0.25314
# Poissons Ratio (y) = -0.44317 0.36383
# Poissons Ratio (z) = 0.13814 0.11161
#
# Static dielectric constant tensor:
#      x y z
#    x 0.647930 -2.358470 -0.026080 
#    y -2.358470 -1.873270 -0.074680 
#    z -0.026080 -0.074680 2.062380 
# 
# From -- ./inp_files/138119.got.cif
#   From: 2010.05.17/outbox.cif.g08.bks.cpg/sg2_70_cif.got.tgz:138119.got - 2010.06.03 11:33:40.
