data_PCOD9060108
_publ_section_title
;
Structure prediction by ZEFSAII (Michael W. Deem and Ramdas Pophale) SiO2 
 PCOD9060108
Probable space group: P -1
;
_chemical_formula_sum "Si O2"
_cell_formula_units_Z 14
_cell_length_a 11.818997
_cell_length_b 20.154703
_cell_length_c 21.836311
_cell_angle_alpha 160.837468
_cell_angle_beta 158.899922
_cell_angle_gamma 29.460537
_cell_volume 612.205622
_symmetry_space_group_name_H-M "P -1"
_symmetry_group_IT_number 2
_symmetry_cell_setting 'triclinic'
loop_
_space_group_symop_operation_xyz
x,y,z
-x,-y,-z
loop_
_atom_site_type_symbol
_atom_site_label
_atom_site_fract_x
_atom_site_fract_y
_atom_site_fract_z
Si Si1 0.178533 0.819089 0.730170
Si Si2 0.841249 0.529590 0.228650
Si Si3 0.113329 0.662361 0.124077
Si Si4 0.192361 0.210272 0.361535
Si Si5 0.195617 0.269197 0.091162
Si Si6 0.826517 0.784940 0.204943
Si Si7 0.852904 0.247398 0.106264
O O1 0.934425 0.755358 0.496310
O O2 0.040877 0.753307 0.668905
O O3 0.228425 0.062862 0.965381
O O4 0.485396 0.709891 0.769662
O O5 0.836017 0.401195 0.176516
O O6 0.500000 0.500000 0.000000
O O7 0.102148 0.446714 0.243279
O O8 0.458476 0.721173 0.378294
O O9 0.078607 0.745993 0.111739
O O10 0.875470 0.757348 0.133485
O O11 0.045890 0.417412 0.877334
O O12 0.122060 0.303739 0.341555
O O13 0.133669 0.971415 0.108711
O O14 0.467253 0.772905 0.033857
O O15 0.000000 0.000000 0.500000
#
# Coordination Sequence:
#
# PCOD9060108 Si02
#       7
#     2   2   2   2   2   2   2
#     4  11  25  45  71  95 139 183 224 284 334 410
#     4  12  26  44  71 102 136 181 227 281 339 403
#     4  11  25  42  72  99 134 180 227 282 340 409
#     4  11  23  44  69 100 131 181 227 281 341 397
#     4  11  25  46  67 102 137 177 233 273 344 403
#     4  11  23  43  64  99 135 173 222 281 340 398
#     4  11  24  43  68  98 139 173 227 283 340 403
#
# _framework density 22.868134000000001
#
# number of rings (size 3 to 8) (size 9 to 14) (size 15 to 20)
#    0.000    0.857    2.857    3.857    2.000    6.857 
#    0.000    1.429    0.000    0.000    0.000    0.000 
#    0.000    0.000    0.000    0.000    0.000    0.000 
#
# Total GULP energy -78310.005579 kJ/mol
# GULP energy per Si atom -5593.571827 kJ/mol
# Density = 2.281608 g / cm^3
# Si number density = 22.868134 Si / 1000 Ang^3
#
#
#
# Elastic Constant Matrix: (Units=GPa)
#
#
# Indices 1 2 3 4 5 6 
#
# 1 139.2312 42.0752 33.1222 -9.0150 -13.6685 -17.8816
# 2 42.0752 57.8380 26.5890 4.1246 -19.2646 -3.7002
# 3 33.1222 26.5890 77.6235 -7.2315 -22.1347 -4.6225
# 4 -9.0150 4.1246 -7.2315 48.3213 -3.8742 -9.3180
# 5 -13.6685 -19.2646 -22.1347 -3.8742 28.8349 -0.7816
# 6 -17.8816 -3.7002 -4.6225 -9.3180 -0.7816 49.0613
#
#
#
# Elastic Compliance Matrix: (Units=1/GPa)
#
#
# Indices 1 2 3 4 5 6 
#
# 1 0.010247 -0.006822 -0.001700 0.002892 -0.000519 0.003601
# 2 -0.006822 0.028196 -0.003624 -0.003457 0.012326 -0.001161
# 3 -0.001700 -0.003624 0.018677 0.004078 0.011708 0.001828
# 4 0.002892 -0.003457 0.004078 0.023695 0.005532 0.005766
# 5 -0.000519 0.012326 0.011708 0.005532 0.052501 0.003731
# 6 0.003601 -0.001161 0.001828 0.005766 0.003731 0.022934
#
#
# Mechanical properties :
#
#
# Convention : Reuss Voigt Hill
#
# Bulk Modulus (GPa) = 30.46062 53.14063 41.80063
# Shear Modulus (GPa) = 26.11189 36.77058 31.44124
#
# Velocity S-wave (km/s) = 3.38279 4.01426 3.71198
# Velocity P-wave (km/s) = 5.34852 6.69134 6.05726
#
# Compressibility (1/GPa) = 0.03282927
#
# Stress axis : x y z
#
# Youngs Moduli (GPa) = 97.58965 35.46609 53.54310
#
# Poissons Ratio (x) = 0.24194 0.09101
# Poissons Ratio (y) = 0.66572 0.19403
# Poissons Ratio (z) = 0.16588 0.12852
#
# Static dielectric constant tensor:
#      x y z
#    x 1.821420 -0.005850 0.015560 
#    y -0.005850 1.895700 0.002860 
#    z 0.015560 0.002860 1.891850 
# 
# From -- ./inp_files/282268.got.cif
#   From: 2010.05.17/outbox.cif.g08.bks.cpg/sg2_142_cif.got.tgz:282268.got - 2010.06.03 11:33:40.
