data_PCOD9060328
_publ_section_title
;
Structure prediction by ZEFSAII (Michael W. Deem and Ramdas Pophale) SiO2 
 PCOD9060328
Probable space group: P -1
;
_chemical_formula_sum "Si O2"
_cell_formula_units_Z 16
_cell_length_a 10.017567
_cell_length_b 12.605952
_cell_length_c 12.201055
_cell_angle_alpha 35.724228
_cell_angle_beta 60.130416
_cell_angle_gamma 83.196724
_cell_volume 643.898485
_symmetry_space_group_name_H-M "P -1"
_symmetry_group_IT_number 2
_symmetry_cell_setting 'triclinic'
loop_
_space_group_symop_operation_xyz
x,y,z
-x,-y,-z
loop_
_atom_site_type_symbol
_atom_site_label
_atom_site_fract_x
_atom_site_fract_y
_atom_site_fract_z
Si Si1 0.757180 0.522914 0.279995
Si Si2 0.510031 0.577481 0.217209
Si Si3 0.989295 0.231968 0.564448
Si Si4 0.169243 0.081388 0.774868
Si Si5 0.193935 0.045698 0.343659
Si Si6 0.822695 0.289844 0.007572
Si Si7 0.779029 0.297453 0.256527
Si Si8 0.327529 0.767659 0.228352
O O1 0.656039 0.646767 0.200220
O O2 0.696518 0.370466 0.324058
O O3 0.709017 0.393912 0.520424
O O4 0.979550 0.667069 0.069142
O O5 0.351235 0.324398 0.517096
O O6 0.397228 0.690337 0.167110
O O7 0.651444 0.697162 0.956977
O O8 0.857665 0.092502 0.632718
O O9 0.855301 0.233250 0.709307
O O10 0.091904 0.125512 0.658293
O O11 0.124430 0.484274 0.258938
O O12 0.238184 0.919511 0.866983
O O13 0.000000 0.000000 0.000000
O O14 0.250685 0.927859 0.503273
O O15 0.000000 0.000000 0.500000
O O16 0.714541 0.265305 0.184280
O O17 0.000000 0.500000 0.000000
O O18 0.500000 0.000000 0.000000
#
# Coordination Sequence:
#
# PCOD9060328 Si02
#       8
#     2   2   2   2   2   2   2   2
#     4  10  20  38  65  97 131 163 227 293 339 393
#     4  12  26  40  65 105 136 180 232 283 345 412
#     4  11  23  45  70  99 136 183 231 289 346 406
#     4  12  28  47  65  97 148 193 228 273 348 425
#     4  12  22  41  74 102 135 173 231 296 344 401
#     4  10  22  43  70 100 132 181 231 283 344 410
#     4  10  17  38  68 101 127 163 226 283 344 401
#     4  11  21  38  66  99 129 165 232 292 344 394
#
# _framework density 24.848638000000001
#
# number of rings (size 3 to 8) (size 9 to 14) (size 15 to 20)
#    0.000    1.000    5.000    4.875    1.750    2.000 
#    2.250    3.125    0.000    0.000    0.000    0.000 
#    0.000    0.000    0.000    0.000    0.000    0.000 
#
# Total GULP energy -89412.967042 kJ/mol
# GULP energy per Si atom -5588.310440 kJ/mol
# Density = 2.479208 g / cm^3
# Si number density = 24.848638 Si / 1000 Ang^3
#
#
#
# Elastic Constant Matrix: (Units=GPa)
#
#
# Indices 1 2 3 4 5 6 
#
# 1 50.9755 -5.0301 17.5251 4.4488 14.5534 -6.2295
# 2 -5.0301 82.7074 29.4413 -1.3275 -2.6720 -6.4535
# 3 17.5251 29.4413 144.2977 -12.8549 2.5716 2.0546
# 4 4.4488 -1.3275 -12.8549 41.0721 -10.1874 -0.4564
# 5 14.5534 -2.6720 2.5716 -10.1874 37.9301 -3.3125
# 6 -6.2295 -6.4535 2.0546 -0.4564 -3.3125 28.2483
#
#
#
# Elastic Compliance Matrix: (Units=1/GPa)
#
#
# Indices 1 2 3 4 5 6 
#
# 1 0.025613 0.003016 -0.004197 -0.006569 -0.010633 0.005290
# 2 0.003016 0.013760 -0.003309 -0.000831 0.000168 0.004056
# 3 -0.004197 -0.003309 0.008414 0.003336 0.001523 -0.002061
# 4 -0.006569 -0.000831 0.003336 0.028522 0.009873 -0.000262
# 5 -0.010633 0.000168 0.001523 0.009873 0.033147 0.001629
# 6 0.005290 0.004056 -0.002061 -0.000262 0.001629 0.037830
#
#
# Mechanical properties :
#
#
# Convention : Reuss Voigt Hill
#
# Bulk Modulus (GPa) = 25.76797 40.20592 32.98695
# Shear Modulus (GPa) = 29.55026 37.18638 33.36832
#
# Velocity S-wave (km/s) = 3.45223 3.87268 3.66849
# Velocity P-wave (km/s) = 5.12670 6.01767 5.58996
#
# Compressibility (1/GPa) = 0.03880787
#
# Stress axis : x y z
#
# Youngs Moduli (GPa) = 39.04237 72.67183 118.84525
#
# Poissons Ratio (x) = -0.21915 0.49880
# Poissons Ratio (y) = -0.11773 0.39321
# Poissons Ratio (z) = 0.16386 0.24044
#
# Static dielectric constant tensor:
#      x y z
#    x 1.987030 -0.004790 -0.007160 
#    y -0.004790 2.123360 -0.038160 
#    z -0.007160 -0.038160 1.911150 
# 
# From -- ./inp_files/522129.got.cif
#   From: 2010.05.17/outbox.cif.g08.bks.cpg/sg2_262_cif.got.tgz:522129.got - 2010.06.03 11:33:40.
