data_PCOD9060087
_publ_section_title
;
Structure prediction by ZEFSAII (Michael W. Deem and Ramdas Pophale) SiO2 
 PCOD9060087
Probable space group: P -1
;
_chemical_formula_sum "Si O2"
_cell_formula_units_Z 14
_cell_length_a 5.074442
_cell_length_b 16.991255
_cell_length_c 13.618265
_cell_angle_alpha 146.591456
_cell_angle_beta 81.931996
_cell_angle_gamma 79.505694
_cell_volume 535.015592
_symmetry_space_group_name_H-M "P -1"
_symmetry_group_IT_number 2
_symmetry_cell_setting 'triclinic'
loop_
_space_group_symop_operation_xyz
x,y,z
-x,-y,-z
loop_
_atom_site_type_symbol
_atom_site_label
_atom_site_fract_x
_atom_site_fract_y
_atom_site_fract_z
Si Si1 0.593785 0.402809 0.251080
Si Si2 0.266620 0.385238 0.651974
Si Si3 0.891076 0.931205 0.842961
Si Si4 0.409562 0.686136 0.229956
Si Si5 0.426706 0.265324 0.938335
Si Si6 0.175266 0.091922 0.377522
Si Si7 0.200207 0.267926 0.215575
O O1 0.537423 0.581254 0.403102
O O2 0.331167 0.390212 0.314816
O O3 0.917202 0.313787 0.203779
O O4 0.625317 0.308287 0.047684
O O5 0.387159 0.353660 0.724128
O O6 0.242148 0.226144 0.468344
O O7 0.922764 0.564666 0.856464
O O8 0.022120 0.923029 0.717939
O O9 0.913937 0.763578 0.708418
O O10 0.524228 0.080990 0.994070
O O11 0.000000 0.000000 0.000000
O O12 0.480867 0.755945 0.202360
O O13 0.052727 0.816739 0.422253
O O14 0.500000 0.500000 0.000000
O O15 0.516186 0.083879 0.785344
#
# Coordination Sequence:
#
# PCOD9060087 Si02
#       7
#     2   2   2   2   2   2   2
#     4  12  22  45  78 109 158 210 261 319 412 464
#     4  12  26  47  77 110 167 209 267 332 400 467
#     4  11  23  46  78 116 161 202 267 333 405 475
#     4  12  26  47  76 113 167 212 264 332 403 472
#     4  12  25  49  78 114 161 216 261 332 402 476
#     4  12  27  48  77 123 151 211 278 325 399 490
#     4  11  23  42  77 114 148 213 255 332 404 467
#
# _framework density 26.167459000000001
#
# number of rings (size 3 to 8) (size 9 to 14) (size 15 to 20)
#    0.000    0.286    7.143    0.857    0.000    5.143 
#    0.000    1.429    0.000    4.286    0.000    0.000 
#    0.000    0.000    0.000    0.000    0.000    0.000 
#
# Total GULP energy -78326.343294 kJ/mol
# GULP energy per Si atom -5594.738807 kJ/mol
# Density = 2.610790 g / cm^3
# Si number density = 26.167459 Si / 1000 Ang^3
#
#
#
# Elastic Constant Matrix: (Units=GPa)
#
#
# Indices 1 2 3 4 5 6 
#
# 1 150.8934 77.6937 44.7361 10.4741 -2.1101 -8.3968
# 2 77.6937 250.2060 67.7114 19.1373 1.6991 9.4956
# 3 44.7361 67.7114 101.5749 28.2203 -9.0390 3.2270
# 4 10.4741 19.1373 28.2203 64.1393 -3.6818 7.7565
# 5 -2.1101 1.6991 -9.0390 -3.6818 33.5977 1.0320
# 6 -8.3968 9.4956 3.2270 7.7565 1.0320 59.9434
#
#
#
# Elastic Compliance Matrix: (Units=1/GPa)
#
#
# Indices 1 2 3 4 5 6 
#
# 1 0.008491 -0.002038 -0.002468 0.000106 -0.000066 0.001633
# 2 -0.002038 0.005430 -0.002789 -0.000007 -0.001124 -0.000975
# 3 -0.002468 -0.002789 0.014459 -0.004922 0.003340 -0.000103
# 4 0.000106 -0.000007 -0.004922 0.018033 0.000722 -0.002065
# 5 -0.000066 -0.001124 0.003340 0.000722 0.030814 -0.000635
# 6 0.001633 -0.000975 -0.000103 -0.002065 -0.000635 0.017349
#
#
# Mechanical properties :
#
#
# Convention : Reuss Voigt Hill
#
# Bulk Modulus (GPa) = 72.52141 98.10631 85.31386
# Shear Modulus (GPa) = 43.95130 52.37162 48.16146
#
# Velocity S-wave (km/s) = 4.10276 4.47856 4.29477
# Velocity P-wave (km/s) = 7.08647 8.01975 7.56751
#
# Compressibility (1/GPa) = 0.01378903
#
# Stress axis : x y z
#
# Youngs Moduli (GPa) = 117.77187 184.17849 69.16042
#
# Poissons Ratio (x) = 0.37541 0.17070
# Poissons Ratio (y) = 0.24006 0.19288
# Poissons Ratio (z) = 0.29068 0.51364
#
# Static dielectric constant tensor:
#      x y z
#    x 2.182410 -0.004330 -0.006000 
#    y -0.004330 2.100070 -0.059860 
#    z -0.006000 -0.059860 2.187610 
# 
# From -- ./inp_files/485313.got.cif
#   From: 2010.05.17/outbox.cif.g08.bks.cpg/sg2_243_cif.got.tgz:485313.got - 2010.06.03 11:33:40.
