data_PCOD9060695
_publ_section_title
;
Structure prediction by ZEFSAII (Michael W. Deem and Ramdas Pophale) SiO2 
 PCOD9060695
Probable space group: P -1
;
_chemical_formula_sum "Si O2"
_cell_formula_units_Z 16
_cell_length_a 7.925968
_cell_length_b 19.063751
_cell_length_c 10.178353
_cell_angle_alpha 41.695016
_cell_angle_beta 124.510959
_cell_angle_gamma 141.645872
_cell_volume 634.108633
_symmetry_space_group_name_H-M "P -1"
_symmetry_group_IT_number 2
_symmetry_cell_setting 'triclinic'
loop_
_space_group_symop_operation_xyz
x,y,z
-x,-y,-z
loop_
_atom_site_type_symbol
_atom_site_label
_atom_site_fract_x
_atom_site_fract_y
_atom_site_fract_z
Si Si1 0.089752 0.724030 0.545710
Si Si2 0.274016 0.314409 0.888085
Si Si3 0.305965 0.579218 0.319557
Si Si4 0.226191 0.791276 0.048549
Si Si5 0.374443 0.112831 0.282272
Si Si6 0.600639 0.611771 0.670896
Si Si7 0.980192 0.873190 0.619846
Si Si8 0.242575 0.997654 0.114643
O O1 0.378368 0.796158 0.636051
O O2 0.125531 0.844212 0.312337
O O3 0.944346 0.582160 0.598489
O O4 0.884486 0.670832 0.650898
O O5 0.455815 0.365012 0.762830
O O6 0.443750 0.452189 0.863442
O O7 0.256590 0.189958 0.107396
O O8 0.971135 0.259592 0.842755
O O9 0.430316 0.598490 0.490835
O O10 0.207194 0.665796 0.161196
O O11 0.110812 0.837380 0.829993
O O12 0.549344 0.922520 0.026127
O O13 0.431132 0.096610 0.182006
O O14 0.167651 0.953137 0.462554
O O15 0.686663 0.729402 0.648023
O O16 0.000000 0.000000 0.500000
O O17 0.000000 0.000000 0.000000
#
# Coordination Sequence:
#
# PCOD9060695 Si02
#       8
#     2   2   2   2   2   2   2   2
#     4  11  23  43  76 108 150 203 254 312 380 445
#     4  11  26  46  78 112 154 199 257 311 379 453
#     4  11  27  50  78 112 155 204 257 312 381 457
#     4  12  26  48  77 111 153 199 256 313 381 455
#     4  12  24  44  74 110 151 199 260 311 378 453
#     4  11  26  48  78 107 158 202 254 315 380 455
#     4  12  26  48  74 115 155 199 255 320 380 450
#     4  12  25  44  76 112 150 203 259 312 380 457
#
# _framework density 25.232271000000001
#
# number of rings (size 3 to 8) (size 9 to 14) (size 15 to 20)
#    0.000    0.500    5.000    3.375    3.500    3.000 
#    0.000    3.750    0.000    0.000    0.000    0.000 
#    0.000    0.000    0.000    0.000    0.000    0.000 
#
# Total GULP energy -89548.213015 kJ/mol
# GULP energy per Si atom -5596.763313 kJ/mol
# Density = 2.517484 g / cm^3
# Si number density = 25.232271 Si / 1000 Ang^3
#
#
#
# Elastic Constant Matrix: (Units=GPa)
#
#
# Indices 1 2 3 4 5 6 
#
# 1 138.0110 56.5170 53.6198 -12.6399 17.4557 1.3463
# 2 56.5170 143.1917 39.3845 -15.9590 6.7311 -5.3003
# 3 53.6198 39.3845 125.0639 -24.2454 17.0894 -6.3002
# 4 -12.6399 -15.9590 -24.2454 36.5897 -2.3536 -5.7922
# 5 17.4557 6.7311 17.0894 -2.3536 35.5382 -10.8229
# 6 1.3463 -5.3003 -6.3002 -5.7922 -10.8229 37.2759
#
#
#
# Elastic Compliance Matrix: (Units=1/GPa)
#
#
# Indices 1 2 3 4 5 6 
#
# 1 0.010182 -0.003145 -0.003099 -0.000542 -0.003713 -0.002501
# 2 -0.003145 0.008792 -0.000999 0.002457 0.001100 0.001896
# 3 -0.003099 -0.000999 0.011299 0.006133 -0.002691 0.002051
# 4 -0.000542 0.002457 0.006133 0.033454 0.001183 0.006947
# 5 -0.003713 0.001100 -0.002691 0.001183 0.034153 0.009936
# 6 -0.002501 0.001896 0.002051 0.006947 0.009936 0.031498
#
#
# Mechanical properties :
#
#
# Convention : Reuss Voigt Hill
#
# Bulk Modulus (GPa) = 63.33955 78.36769 70.85362
# Shear Modulus (GPa) = 33.52889 38.99710 36.26300
#
# Velocity S-wave (km/s) = 3.64924 3.93558 3.79511
# Velocity P-wave (km/s) = 6.55080 7.19567 6.88080
#
# Compressibility (1/GPa) = 0.01578792
#
# Stress axis : x y z
#
# Youngs Moduli (GPa) = 98.21284 113.73972 88.50361
#
# Poissons Ratio (x) = 0.35770 0.27426
# Poissons Ratio (y) = 0.30887 0.08839
# Poissons Ratio (z) = 0.30434 0.11360
#
# Static dielectric constant tensor:
#      x y z
#    x 2.170590 -0.032620 -0.081670 
#    y -0.032620 2.013080 0.017760 
#    z -0.081670 0.017760 1.978650 
# 
# From -- ./inp_files/405437.got.cif
#   From: 2010.05.17/outbox.cif.g08.bks.cpg/sg2_203_cif.got.tgz:405437.got - 2010.06.03 11:33:40.
