data_PCOD9060586
_publ_section_title
;
Structure prediction by ZEFSAII (Michael W. Deem and Ramdas Pophale) SiO2 
 PCOD9060586
Probable space group: P -1
;
_chemical_formula_sum "Si O2"
_cell_formula_units_Z 14
_cell_length_a 11.585289
_cell_length_b 8.882114
_cell_length_c 8.604468
_cell_angle_alpha 83.881240
_cell_angle_beta 85.440139
_cell_angle_gamma 40.845191
_cell_volume 575.777540
_symmetry_space_group_name_H-M "P -1"
_symmetry_group_IT_number 2
_symmetry_cell_setting 'triclinic'
loop_
_space_group_symop_operation_xyz
x,y,z
-x,-y,-z
loop_
_atom_site_type_symbol
_atom_site_label
_atom_site_fract_x
_atom_site_fract_y
_atom_site_fract_z
Si Si1 0.982180 0.838370 0.995429
Si Si2 0.263940 0.577138 0.544594
Si Si3 0.701140 0.644480 0.141932
Si Si4 0.630041 0.071570 0.059442
Si Si5 0.959498 0.389445 0.662497
Si Si6 0.700194 0.860620 0.524596
Si Si7 0.380840 0.758312 0.623840
O O1 0.008418 0.731994 0.171155
O O2 0.116086 0.615878 0.895406
O O3 0.782853 0.998698 0.951419
O O4 0.000000 0.000000 0.000000
O O5 0.330004 0.382767 0.677263
O O6 0.101104 0.668990 0.458108
O O7 0.255773 0.736668 0.630081
O O8 0.415295 0.471017 0.415295
O O9 0.681655 0.844243 0.102396
O O10 0.552713 0.729963 0.031555
O O11 0.622030 0.160231 0.217687
O O12 0.792060 0.668558 0.667690
O O13 0.136550 0.303752 0.601132
O O14 0.500000 0.000000 0.500000
O O15 0.682359 0.057682 0.517310
#
# Coordination Sequence:
#
# PCOD9060586 Si02
#       7
#     2   2   2   2   2   2   2
#     4  12  27  48  74 110 150 198 240 299 371 451
#     4  11  25  44  69 117 140 190 246 303 372 436
#     4  11  27  46  75 104 149 191 253 305 361 444
#     4  11  25  50  71 103 142 202 247 303 366 432
#     4  11  25  45  76 107 145 186 249 297 364 438
#     4  11  23  43  73 107 135 191 236 305 358 427
#     4  11  23  43  74 100 150 186 245 301 364 437
#
# _framework density 24.314945999999999
#
# number of rings (size 3 to 8) (size 9 to 14) (size 15 to 20)
#    0.000    0.857    2.857    3.000    2.000    6.286 
#    2.571    0.000    0.000    0.000    0.000    0.000 
#    0.000    0.000    0.000    0.000    0.000    0.000 
#
# Total GULP energy -78275.659937 kJ/mol
# GULP energy per Si atom -5591.118567 kJ/mol
# Density = 2.425960 g / cm^3
# Si number density = 24.314946 Si / 1000 Ang^3
#
#
#
# Elastic Constant Matrix: (Units=GPa)
#
#
# Indices 1 2 3 4 5 6 
#
# 1 147.2427 30.1353 20.3164 6.1995 1.9382 9.1354
# 2 30.1353 75.6163 14.1396 17.0042 -3.1071 -5.8620
# 3 20.3164 14.1396 71.8991 11.8862 3.7133 -5.2075
# 4 6.1995 17.0042 11.8862 41.1124 6.9772 -5.1559
# 5 1.9382 -3.1071 3.7133 6.9772 37.0997 0.7779
# 6 9.1354 -5.8620 -5.2075 -5.1559 0.7779 39.6591
#
#
#
# Elastic Compliance Matrix: (Units=1/GPa)
#
#
# Indices 1 2 3 4 5 6 
#
# 1 0.007812 -0.003072 -0.001819 0.000400 -0.000508 -0.002430
# 2 -0.003072 0.016351 -0.001326 -0.006123 0.002770 0.002100
# 3 -0.001819 -0.001326 0.015402 -0.003231 -0.000989 0.001845
# 4 0.000400 -0.006123 -0.003231 0.029009 -0.005717 0.002462
# 5 -0.000508 0.002770 -0.000989 -0.005717 0.028406 -0.000904
# 6 -0.002430 0.002100 0.001845 0.002462 -0.000904 0.026665
#
#
# Mechanical properties :
#
#
# Convention : Reuss Voigt Hill
#
# Bulk Modulus (GPa) = 36.86054 47.10450 41.98252
# Shear Modulus (GPa) = 34.45358 38.91870 36.68614
#
# Velocity S-wave (km/s) = 3.76835 4.00510 3.88853
# Velocity P-wave (km/s) = 5.84179 6.38768 6.12082
#
# Compressibility (1/GPa) = 0.02712928
#
# Stress axis : x y z
#
# Youngs Moduli (GPa) = 128.00908 61.16020 64.92652
#
# Poissons Ratio (x) = 0.18791 0.11811
# Poissons Ratio (y) = 0.39329 0.08610
# Poissons Ratio (z) = 0.23287 0.08110
#
# Static dielectric constant tensor:
#      x y z
#    x 1.980940 -0.001770 0.011420 
#    y -0.001770 1.995610 0.053830 
#    z 0.011420 0.053830 1.976450 
# 
# From -- ./inp_files/243456.got.cif
#   From: 2010.05.17/outbox.cif.g08.bks.cpg/sg2_122_cif.got.tgz:243456.got - 2010.06.03 11:33:40.
