data_PCOD9060311
_publ_section_title
;
Structure prediction by ZEFSAII (Michael W. Deem and Ramdas Pophale) SiO2 
 PCOD9060311
Probable space group: P -1
;
_chemical_formula_sum "Si O2"
_cell_formula_units_Z 14
_cell_length_a 9.005035
_cell_length_b 8.855896
_cell_length_c 9.367938
_cell_angle_alpha 108.917080
_cell_angle_beta 56.892118
_cell_angle_gamma 97.761542
_cell_volume 591.146744
_symmetry_space_group_name_H-M "P -1"
_symmetry_group_IT_number 2
_symmetry_cell_setting 'triclinic'
loop_
_space_group_symop_operation_xyz
x,y,z
-x,-y,-z
loop_
_atom_site_type_symbol
_atom_site_label
_atom_site_fract_x
_atom_site_fract_y
_atom_site_fract_z
Si Si1 0.210289 0.963173 0.636435
Si Si2 0.090626 0.466480 0.596047
Si Si3 0.152049 0.747797 0.852544
Si Si4 0.517731 0.159869 0.948737
Si Si5 0.928511 0.176230 0.753880
Si Si6 0.492308 0.414274 0.276320
Si Si7 0.554078 0.773366 0.303615
O O1 0.149212 0.904296 0.804403
O O2 0.351472 0.827803 0.466156
O O3 0.318116 0.124517 0.636575
O O4 0.040741 0.007897 0.643304
O O5 0.059193 0.613623 0.767814
O O6 0.302973 0.440992 0.458125
O O7 0.000000 0.500000 0.500000
O O8 0.015253 0.310209 0.656996
O O9 0.359610 0.689990 0.746371
O O10 0.077764 0.772471 0.058472
O O11 0.726590 0.165001 0.810917
O O12 0.416858 0.169586 0.855723
O O13 0.461924 0.314371 0.118575
O O14 0.500000 0.000000 0.000000
O O15 0.573093 0.584160 0.252716
#
# Coordination Sequence:
#
# PCOD9060311 Si02
#       7
#     2   2   2   2   2   2   2
#     4  11  25  41  74 104 139 184 235 285 342 412
#     4  12  26  43  69 107 141 179 232 291 346 407
#     4  11  24  47  69 100 140 186 235 279 346 416
#     4  11  26  47  70 100 140 182 232 289 353 412
#     4  11  26  44  71 101 140 183 230 289 349 406
#     4  11  24  45  73  97 138 188 230 281 345 416
#     4  11  23  43  69 106 139 182 235 282 349 411
#
# _framework density 23.682783000000001
#
# number of rings (size 3 to 8) (size 9 to 14) (size 15 to 20)
#    0.000    0.857    1.429    5.143    6.000    5.143 
#    0.000    0.000    0.000    0.000    0.000    0.000 
#    0.000    0.000    0.000    0.000    0.000    0.000 
#
# Total GULP energy -78473.963765 kJ/mol
# GULP energy per Si atom -5605.283126 kJ/mol
# Density = 2.362888 g / cm^3
# Si number density = 23.682783 Si / 1000 Ang^3
#
#
#
# Elastic Constant Matrix: (Units=GPa)
#
#
# Indices 1 2 3 4 5 6 
#
# 1 50.7218 10.8444 15.0702 -6.0358 11.4464 -14.6400
# 2 10.8444 129.9223 16.8830 -25.6673 -9.7359 -9.0253
# 3 15.0702 16.8830 59.7239 -10.5982 3.5271 -19.8075
# 4 -6.0358 -25.6673 -10.5982 48.0483 -1.6165 5.4454
# 5 11.4464 -9.7359 3.5271 -1.6165 37.6375 -3.3545
# 6 -14.6400 -9.0253 -19.8075 5.4454 -3.3545 28.0864
#
#
#
# Elastic Compliance Matrix: (Units=1/GPa)
#
#
# Indices 1 2 3 4 5 6 
#
# 1 0.025251 -0.001552 -0.002012 0.000496 -0.006951 0.010318
# 2 -0.001552 0.009170 -0.001375 0.004430 0.003225 0.000694
# 3 -0.002012 -0.001375 0.022752 0.002425 -0.000522 0.014022
# 4 0.000496 0.004430 0.002425 0.023952 0.001703 -0.001049
# 5 -0.006951 0.003225 -0.000522 0.001703 0.029663 0.000257
# 6 0.010318 0.000694 0.014022 -0.001049 0.000257 0.051329
#
#
# Mechanical properties :
#
#
# Convention : Reuss Voigt Hill
#
# Bulk Modulus (GPa) = 21.14431 36.21813 28.68122
# Shear Modulus (GPa) = 26.62977 35.92580 31.27778
#
# Velocity S-wave (km/s) = 3.35690 3.89904 3.63808
# Velocity P-wave (km/s) = 4.89618 5.96626 5.45751
#
# Compressibility (1/GPa) = 0.04729405
#
# Stress axis : x y z
#
# Youngs Moduli (GPa) = 39.60250 109.04792 43.95296
#
# Poissons Ratio (x) = 0.16929 0.08845
# Poissons Ratio (y) = 0.06148 0.06042
# Poissons Ratio (z) = 0.07970 0.14989
#
# Static dielectric constant tensor:
#      x y z
#    x 1.890150 0.014590 0.041080 
#    y 0.014590 1.847180 0.045620 
#    z 0.041080 0.045620 1.969910 
# 
# From -- ./inp_files/156735.got.cif
#   From: 2010.05.17/outbox.cif.g08.bks.cpg/sg2_79_cif.got.tgz:156735.got - 2010.06.03 11:33:40.
