data_PCOD9060657
_publ_section_title
;
Structure prediction by ZEFSAII (Michael W. Deem and Ramdas Pophale) SiO2 
 PCOD9060657
Probable space group: P -1
;
_chemical_formula_sum "Si O2"
_cell_formula_units_Z 16
_cell_length_a 12.570560
_cell_length_b 9.157775
_cell_length_c 11.357595
_cell_angle_alpha 53.650712
_cell_angle_beta 131.353911
_cell_angle_gamma 132.335707
_cell_volume 699.305621
_symmetry_space_group_name_H-M "P -1"
_symmetry_group_IT_number 2
_symmetry_cell_setting 'triclinic'
loop_
_space_group_symop_operation_xyz
x,y,z
-x,-y,-z
loop_
_atom_site_type_symbol
_atom_site_label
_atom_site_fract_x
_atom_site_fract_y
_atom_site_fract_z
Si Si1 0.938087 0.621769 0.716173
Si Si2 0.990810 0.244019 0.921586
Si Si3 0.741754 0.880902 0.790310
Si Si4 0.440572 0.657997 0.833487
Si Si5 0.632911 0.554394 0.673408
Si Si6 0.497216 0.793976 0.054594
Si Si7 0.869644 0.983865 0.194197
Si Si8 0.887387 0.592036 0.420392
O O1 0.016644 0.470333 0.854453
O O2 0.789467 0.559616 0.725788
O O3 0.876628 0.593866 0.552000
O O4 0.059815 0.854679 0.725583
O O5 0.861860 0.120869 0.784175
O O6 0.912507 0.116459 0.043774
O O7 0.152807 0.226003 0.030202
O O8 0.585369 0.821255 0.783161
O O9 0.685378 0.773008 0.673254
O O10 0.284881 0.545999 0.695392
O O11 0.500000 0.500000 0.000000
O O12 0.405251 0.740593 0.888743
O O13 0.500000 0.500000 0.500000
O O14 0.569971 0.384700 0.812109
O O15 0.680525 0.850422 0.134343
O O16 0.500000 0.000000 0.000000
O O17 0.942556 0.827516 0.314572
O O18 0.000000 0.500000 0.500000
#
# Coordination Sequence:
#
# PCOD9060657 Si02
#       8
#     2   2   2   2   2   2   2   2
#     4  12  28  47  73 109 154 188 246 307 378 441
#     4  11  25  44  76 111 141 195 252 306 365 443
#     4  11  23  43  75 102 147 189 249 296 372 426
#     4  12  23  48  76 102 145 195 251 302 358 447
#     4  12  26  47  69 103 148 195 235 302 379 434
#     4  12  27  44  78 108 143 190 254 303 364 437
#     4  12  24  50  74 110 149 197 249 304 366 447
#     4  12  30  49  76 112 151 196 247 308 376 437
#
# _framework density 22.879839
#
# number of rings (size 3 to 8) (size 9 to 14) (size 15 to 20)
#    0.000    0.250    5.000    3.000    8.750    0.000 
#    2.250    1.250    0.000    0.000    0.000    0.000 
#    0.000    0.000    0.000    0.000    0.000    0.000 
#
# Total GULP energy -89628.610042 kJ/mol
# GULP energy per Si atom -5601.788128 kJ/mol
# Density = 2.282776 g / cm^3
# Si number density = 22.879839 Si / 1000 Ang^3
#
#
#
# Elastic Constant Matrix: (Units=GPa)
#
#
# Indices 1 2 3 4 5 6 
#
# 1 105.3273 41.6852 35.6211 11.0184 -22.2902 -2.8903
# 2 41.6852 136.4428 47.8564 27.9640 -4.8561 -22.8578
# 3 35.6211 47.8564 86.9962 32.9365 -17.9566 -2.0055
# 4 11.0184 27.9640 32.9365 43.2522 -10.3549 -2.5647
# 5 -22.2902 -4.8561 -17.9566 -10.3549 45.4738 5.2200
# 6 -2.8903 -22.8578 -2.0055 -2.5647 5.2200 47.4915
#
#
#
# Elastic Compliance Matrix: (Units=1/GPa)
#
#
# Indices 1 2 3 4 5 6 
#
# 1 0.012745 -0.003311 -0.003317 0.002615 0.005340 -0.001404
# 2 -0.003311 0.011294 -0.003951 -0.003973 -0.003483 0.005236
# 3 -0.003317 -0.003951 0.019881 -0.011023 0.003551 -0.002249
# 4 0.002615 -0.003973 -0.011023 0.034430 0.004442 -0.000848
# 5 0.005340 -0.003483 0.003551 0.004442 0.027103 -0.003940
# 6 -0.001404 0.005236 -0.002249 -0.000848 -0.003940 0.023783
#
#
# Mechanical properties :
#
#
# Convention : Reuss Voigt Hill
#
# Bulk Modulus (GPa) = 43.93577 64.34353 54.13965
# Shear Modulus (GPa) = 31.64947 40.81707 36.23327
#
# Velocity S-wave (km/s) = 3.72330 4.22830 3.98381
# Velocity P-wave (km/s) = 6.14235 7.21259 6.69887
#
# Compressibility (1/GPa) = 0.02276050
#
# Stress axis : x y z
#
# Youngs Moduli (GPa) = 78.46461 88.54281 50.30023
#
# Poissons Ratio (x) = 0.29320 0.16685
# Poissons Ratio (y) = 0.25983 0.19873
# Poissons Ratio (z) = 0.26027 0.34982
#
# Static dielectric constant tensor:
#      x y z
#    x 2.151570 -0.143520 -0.145460 
#    y -0.143520 1.928430 0.070190 
#    z -0.145460 0.070190 1.911980 
# 
# From -- ./inp_files/419237.got.cif
#   From: 2010.05.17/outbox.cif.g08.bks.cpg/sg2_210_cif.got.tgz:419237.got - 2010.06.03 11:33:40.
