data_PCOD9060796
_publ_section_title
;
Structure prediction by ZEFSAII (Michael W. Deem and Ramdas Pophale) SiO2 
 PCOD9060796
Probable space group: P -1
;
_chemical_formula_sum "Si O2"
_cell_formula_units_Z 16
_cell_length_a 9.765166
_cell_length_b 11.724813
_cell_length_c 19.929253
_cell_angle_alpha 137.939762
_cell_angle_beta 44.596593
_cell_angle_gamma 102.514617
_cell_volume 803.178138
_symmetry_space_group_name_H-M "P -1"
_symmetry_group_IT_number 2
_symmetry_cell_setting 'triclinic'
loop_
_space_group_symop_operation_xyz
x,y,z
-x,-y,-z
loop_
_atom_site_type_symbol
_atom_site_label
_atom_site_fract_x
_atom_site_fract_y
_atom_site_fract_z
Si Si1 0.426856 0.666327 0.516471
Si Si2 0.317096 0.078604 0.662236
Si Si3 0.897121 0.991892 0.639697
Si Si4 0.823533 0.438224 0.547738
Si Si5 0.384565 0.830657 0.318126
Si Si6 0.631819 0.101930 0.018163
Si Si7 0.890995 0.182555 0.176785
Si Si8 0.267903 0.695294 0.048774
O O1 0.263125 0.613628 0.511649
O O2 0.725670 0.432940 0.313435
O O3 0.316660 0.767864 0.673917
O O4 0.395226 0.851631 0.565356
O O5 0.395377 0.178413 0.731072
O O6 0.008564 0.243471 0.829693
O O7 0.500000 0.000000 0.500000
O O8 0.021968 0.775145 0.548662
O O9 0.139427 0.956583 0.508795
O O10 0.726561 0.033770 0.653956
O O11 0.724024 0.211012 0.843028
O O12 0.565812 0.660270 0.769799
O O13 0.000000 0.500000 0.500000
O O14 0.501751 0.573692 0.156660
O O15 0.725947 0.162924 0.949282
O O16 0.500000 0.000000 0.000000
O O17 0.864109 0.917753 0.906321
O O18 0.000000 0.000000 0.000000
#
# Coordination Sequence:
#
# PCOD9060796 Si02
#       8
#     2   2   2   2   2   2   2   2
#     4  11  24  44  69  99 141 177 225 287 340 407
#     4  12  24  45  71  98 137 183 231 274 339 405
#     4  11  23  45  68  99 138 170 228 284 333 399
#     4  12  23  44  73  96 136 182 222 280 351 405
#     4  11  25  43  68 100 133 179 225 281 337 392
#     4  12  25  44  70 103 134 180 228 277 347 418
#     4  11  23  44  68 100 137 175 224 283 341 397
#     4  12  23  47  70  96 138 177 231 278 335 411
#
# _framework density 19.920862
#
# number of rings (size 3 to 8) (size 9 to 14) (size 15 to 20)
#    0.000    0.500    6.250    2.250    0.000    3.000 
#    4.500    0.000    0.000    0.000    0.000    0.000 
#    0.000    0.000    0.000    0.000    0.000    0.000 
#
# Total GULP energy -89398.674444 kJ/mol
# GULP energy per Si atom -5587.417153 kJ/mol
# Density = 1.987552 g / cm^3
# Si number density = 19.920862 Si / 1000 Ang^3
#
#
#
# Elastic Constant Matrix: (Units=GPa)
#
#
# Indices 1 2 3 4 5 6 
#
# 1 74.3806 25.3277 18.6830 -1.1922 11.0135 -10.1807
# 2 25.3277 53.7001 19.9228 0.1399 9.3327 -4.2202
# 3 18.6830 19.9228 115.3937 -1.1676 17.0576 -6.0426
# 4 -1.1922 0.1399 -1.1676 38.3003 -6.1683 -4.7149
# 5 11.0135 9.3327 17.0576 -6.1683 32.8725 4.8222
# 6 -10.1807 -4.2202 -6.0426 -4.7149 4.8222 29.1474
#
#
#
# Elastic Compliance Matrix: (Units=1/GPa)
#
#
# Indices 1 2 3 4 5 6 
#
# 1 0.017337 -0.006723 -0.000710 0.000561 -0.004267 0.005732
# 2 -0.006723 0.023356 -0.002394 -0.000800 -0.003429 0.000975
# 3 -0.000710 -0.002394 0.009992 -0.000181 -0.004626 0.002213
# 4 0.000561 -0.000800 -0.000181 0.027338 0.004723 0.003683
# 5 -0.004267 -0.003429 -0.004626 0.004723 0.037337 -0.008359
# 6 0.005732 0.000975 0.002213 0.003683 -0.008359 0.038889
#
#
# Mechanical properties :
#
#
# Convention : Reuss Voigt Hill
#
# Bulk Modulus (GPa) = 32.22540 41.26015 36.74277
# Shear Modulus (GPa) = 27.13745 32.03344 29.58544
#
# Velocity S-wave (km/s) = 3.69489 4.01438 3.85794
# Velocity P-wave (km/s) = 5.86641 6.49954 6.19107
#
# Compressibility (1/GPa) = 0.03103142
#
# Stress axis : x y z
#
# Youngs Moduli (GPa) = 57.67887 42.81584 100.07906
#
# Poissons Ratio (x) = 0.28786 0.07102
# Poissons Ratio (y) = 0.38779 0.23959
# Poissons Ratio (z) = 0.04093 0.10250
#
# Static dielectric constant tensor:
#      x y z
#    x 1.634120 0.039370 0.049750 
#    y 0.039370 1.658840 -0.049240 
#    z 0.049750 -0.049240 1.682280 
# 
# From -- ./inp_files/521772.got.cif
#   From: 2010.05.17/outbox.cif.g08.bks.cpg/sg2_261_cif.got.tgz:521772.got - 2010.06.03 11:33:40.
