data_PCOD9060547
_publ_section_title
;
Structure prediction by ZEFSAII (Michael W. Deem and Ramdas Pophale) SiO2 
 PCOD9060547
Probable space group: P -1
;
_chemical_formula_sum "Si O2"
_cell_formula_units_Z 16
_cell_length_a 16.523585
_cell_length_b 19.690497
_cell_length_c 11.023850
_cell_angle_alpha 136.182041
_cell_angle_beta 34.076697
_cell_angle_gamma 158.478115
_cell_volume 715.997273
_symmetry_space_group_name_H-M "P -1"
_symmetry_group_IT_number 2
_symmetry_cell_setting 'triclinic'
loop_
_space_group_symop_operation_xyz
x,y,z
-x,-y,-z
loop_
_atom_site_type_symbol
_atom_site_label
_atom_site_fract_x
_atom_site_fract_y
_atom_site_fract_z
Si Si1 0.734844 0.888209 0.755076
Si Si2 0.109493 0.967299 0.978034
Si Si3 0.197195 0.861624 0.083678
Si Si4 0.918299 0.510157 0.404736
Si Si5 0.692082 0.901020 0.353911
Si Si6 0.183204 0.834183 0.334098
Si Si7 0.263812 0.512446 0.975912
Si Si8 0.708875 0.557700 0.901197
O O1 0.483661 0.665600 0.794117
O O2 0.685646 0.960114 0.839120
O O3 0.000000 0.000000 0.500000
O O4 0.787439 0.950775 0.909866
O O5 0.962509 0.777015 0.904079
O O6 0.332392 0.102537 0.766120
O O7 0.873345 0.910623 0.168522
O O8 0.068445 0.771012 0.259296
O O9 0.967522 0.697104 0.058670
O O10 0.480538 0.967324 0.844181
O O11 0.074829 0.673588 0.327312
O O12 0.615017 0.293521 0.459529
O O13 0.834820 0.536730 0.649618
O O14 0.108772 0.525963 0.215931
O O15 0.865162 0.095415 0.438195
O O16 0.409552 0.550765 0.963242
O O17 0.500000 0.500000 0.000000
#
# Coordination Sequence:
#
# PCOD9060547 Si02
#       8
#     2   2   2   2   2   2   2   2
#     4  12  27  48  70 100 144 192 236 292 362 427
#     4  11  24  44  71 102 146 187 240 292 357 429
#     4  11  25  46  68 103 142 188 237 291 350 428
#     4  12  24  44  74 110 142 188 235 297 364 416
#     4  11  23  43  72 108 140 186 236 299 355 422
#     4  11  24  43  72 103 144 185 237 290 358 425
#     4  12  27  48  73 107 147 183 243 299 354 424
#     4  12  25  45  73 109 146 187 237 293 358 432
#
# _framework density 22.346454000000001
#
# number of rings (size 3 to 8) (size 9 to 14) (size 15 to 20)
#    0.000    0.500    6.250    1.875    1.750    4.000 
#    0.000    2.500    0.000    0.000    0.000    0.000 
#    0.000    0.000    0.000    0.000    0.000    0.000 
#
# Total GULP energy -89412.301997 kJ/mol
# GULP energy per Si atom -5588.268875 kJ/mol
# Density = 2.229559 g / cm^3
# Si number density = 22.346454 Si / 1000 Ang^3
#
#
#
# Elastic Constant Matrix: (Units=GPa)
#
#
# Indices 1 2 3 4 5 6 
#
# 1 92.1731 26.8849 11.5049 -6.0187 12.3758 -13.2203
# 2 26.8849 103.8668 13.7708 -6.6826 3.6689 -17.3085
# 3 11.5049 13.7708 74.4481 -6.5471 2.0916 -7.5507
# 4 -6.0187 -6.6826 -6.5471 26.3067 -5.1602 -1.3543
# 5 12.3758 3.6689 2.0916 -5.1602 26.7285 2.7183
# 6 -13.2203 -17.3085 -7.5507 -1.3543 2.7183 36.6183
#
#
#
# Elastic Compliance Matrix: (Units=1/GPa)
#
#
# Indices 1 2 3 4 5 6 
#
# 1 0.013063 -0.002324 -0.000921 0.001229 -0.005817 0.003905
# 2 -0.002324 0.011256 -0.001074 0.002206 -0.000404 0.004372
# 3 -0.000921 -0.001074 0.014282 0.003154 -0.000162 0.002233
# 4 0.001229 0.002206 0.003154 0.041076 0.006489 0.003174
# 5 -0.005817 -0.000404 -0.000162 0.006489 0.041956 -0.005199
# 6 0.003905 0.004372 0.002233 0.003174 -0.005199 0.031749
#
#
# Mechanical properties :
#
#
# Convention : Reuss Voigt Hill
#
# Bulk Modulus (GPa) = 33.37499 41.64549 37.51024
# Shear Modulus (GPa) = 29.06828 32.48585 30.77707
#
# Velocity S-wave (km/s) = 3.61057 3.81693 3.71518
# Velocity P-wave (km/s) = 5.68765 6.17268 5.93512
#
# Compressibility (1/GPa) = 0.02996255
#
# Stress axis : x y z
#
# Youngs Moduli (GPa) = 76.54964 88.83872 70.01987
#
# Poissons Ratio (x) = 0.20645 0.06451
# Poissons Ratio (y) = 0.17789 0.07522
# Poissons Ratio (z) = 0.07053 0.09543
#
# Static dielectric constant tensor:
#      x y z
#    x 1.855200 -0.013390 0.022390 
#    y -0.013390 1.852740 0.019420 
#    z 0.022390 0.019420 1.930560 
# 
# From -- ./inp_files/467131.got.cif
#   From: 2010.05.17/outbox.cif.g08.bks.cpg/sg2_234_cif.got.tgz:467131.got - 2010.06.03 11:33:40.
