data_PCOD9060468
_publ_section_title
;
Structure prediction by ZEFSAII (Michael W. Deem and Ramdas Pophale) SiO2 
 PCOD9060468
Probable space group: P -1
;
_chemical_formula_sum "Si O2"
_cell_formula_units_Z 14
_cell_length_a 13.046027
_cell_length_b 4.898174
_cell_length_c 9.062249
_cell_angle_alpha 81.020263
_cell_angle_beta 78.519011
_cell_angle_gamma 112.970980
_cell_volume 504.663550
_symmetry_space_group_name_H-M "P -1"
_symmetry_group_IT_number 2
_symmetry_cell_setting 'triclinic'
loop_
_space_group_symop_operation_xyz
x,y,z
-x,-y,-z
loop_
_atom_site_type_symbol
_atom_site_label
_atom_site_fract_x
_atom_site_fract_y
_atom_site_fract_z
Si Si1 0.328661 0.143353 0.800836
Si Si2 0.195768 0.720423 0.625209
Si Si3 0.553473 0.381970 0.857912
Si Si4 0.905624 0.149070 0.601704
Si Si5 0.816933 0.490105 0.811578
Si Si6 0.882017 0.706503 0.082025
Si Si7 0.592086 0.334738 0.515901
O O1 0.426755 0.103091 0.873675
O O2 0.383323 0.413335 0.638899
O O3 0.267018 0.851541 0.741765
O O4 0.228795 0.213588 0.896226
O O5 0.152483 0.938587 0.537393
O O6 0.287868 0.689333 0.494681
O O7 0.102947 0.409220 0.748915
O O8 0.681251 0.424640 0.861791
O O9 0.580221 0.473064 0.667260
O O10 0.500000 0.500000 0.000000
O O11 0.829727 0.227341 0.736639
O O12 0.000000 0.500000 0.500000
O O13 0.897863 0.827257 0.689760
O O14 0.865410 0.497523 0.961001
O O15 0.000000 0.000000 0.000000
O O16 0.500000 0.000000 0.500000
#
# Coordination Sequence:
#
# PCOD9060468 Si02
#       7
#     2   2   2   2   2   2   2
#     4  11  25  44  72 104 144 201 252 304 383 461
#     4  11  25  45  74 106 143 198 256 307 375 461
#     4  12  24  45  69 106 154 192 246 313 381 454
#     4  12  28  50  79 111 150 198 259 318 380 455
#     4  12  28  49  76 114 153 199 248 321 390 445
#     4  11  27  48  72 106 149 197 254 315 382 458
#     4  11  23  43  71 104 141 196 252 303 371 460
#
# _framework density 27.741254000000001
#
# number of rings (size 3 to 8) (size 9 to 14) (size 15 to 20)
#    0.000    0.571    4.286    2.571    8.000    0.571 
#    0.000    2.143    0.000    0.000    0.000    0.000 
#    0.000    0.000    0.000    0.000    0.000    0.000 
#
# Total GULP energy -78006.667252 kJ/mol
# GULP energy per Si atom -5571.904804 kJ/mol
# Density = 2.767811 g / cm^3
# Si number density = 27.741254 Si / 1000 Ang^3
#
#
#
# Elastic Constant Matrix: (Units=GPa)
#
#
# Indices 1 2 3 4 5 6 
#
# 1 53.2080 5.0452 50.0393 4.1438 -11.2261 -1.5163
# 2 5.0452 77.8753 49.6252 -7.6222 9.7596 -10.3428
# 3 50.0393 49.6252 157.5623 -6.4236 -12.1686 6.7753
# 4 4.1438 -7.6222 -6.4236 69.3475 -4.8841 1.0140
# 5 -11.2261 9.7596 -12.1686 -4.8841 38.2315 8.3753
# 6 -1.5163 -10.3428 6.7753 1.0140 8.3753 34.4095
#
#
#
# Elastic Compliance Matrix: (Units=1/GPa)
#
#
# Indices 1 2 3 4 5 6 
#
# 1 0.029603 0.005257 -0.011141 -0.002110 0.002545 0.004521
# 2 0.005257 0.021142 -0.009482 0.000330 -0.009168 0.010675
# 3 -0.011141 -0.009482 0.013651 0.001367 0.005280 -0.007354
# 4 -0.002110 0.000330 0.001367 0.014859 0.001884 -0.001160
# 5 0.002545 -0.009168 0.005280 0.001884 0.033786 -0.011962
# 6 0.004521 0.010675 -0.007354 -0.001160 -0.011962 0.036864
#
#
# Mechanical properties :
#
#
# Convention : Reuss Voigt Hill
#
# Bulk Modulus (GPa) = 29.70563 55.34059 42.52311
# Shear Modulus (GPa) = 26.06101 40.66009 33.36055
#
# Velocity S-wave (km/s) = 3.06834 3.83259 3.47156
# Velocity P-wave (km/s) = 4.82538 6.29103 5.60631
#
# Compressibility (1/GPa) = 0.03366366
#
# Stress axis : x y z
#
# Youngs Moduli (GPa) = 33.77994 47.30008 73.25450
#
# Poissons Ratio (x) = -0.24864 0.81614
# Poissons Ratio (y) = -0.17757 0.69458
# Poissons Ratio (z) = 0.37635 0.44849
#
# Static dielectric constant tensor:
#      x y z
#    x 2.600580 -0.149550 -0.267310 
#    y -0.149550 2.794260 0.057050 
#    z -0.267310 0.057050 2.427860 
# 
# From -- ./inp_files/130613.got.cif
#   From: 2010.05.17/outbox.cif.g08.bks.cpg/sg2_66_cif.got.tgz:130613.got - 2010.06.03 11:33:40.
