data_PCOD9060138
_publ_section_title
;
Structure prediction by ZEFSAII (Michael W. Deem and Ramdas Pophale) SiO2 
 PCOD9060138
Probable space group: P -1
;
_chemical_formula_sum "Si O2"
_cell_formula_units_Z 10
_cell_length_a 14.599163
_cell_length_b 15.129632
_cell_length_c 12.286151
_cell_angle_alpha 151.147553
_cell_angle_beta 151.149139
_cell_angle_gamma 19.862935
_cell_volume 421.864915
_symmetry_space_group_name_H-M "P -1"
_symmetry_group_IT_number 2
_symmetry_cell_setting 'triclinic'
loop_
_space_group_symop_operation_xyz
x,y,z
-x,-y,-z
loop_
_atom_site_type_symbol
_atom_site_label
_atom_site_fract_x
_atom_site_fract_y
_atom_site_fract_z
Si Si1 0.894509 0.453700 0.610176
Si Si2 0.500169 0.431148 0.245910
Si Si3 0.914539 0.830568 0.953603
Si Si4 0.168175 0.690102 0.842810
Si Si5 0.697712 0.740809 0.003983
O O1 0.684695 0.481438 0.494076
O O2 0.819129 0.720405 0.801702
O O3 0.884426 0.374510 0.394441
O O4 0.200361 0.236131 0.752268
O O5 0.443561 0.350557 0.207063
O O6 0.196204 0.698713 0.166765
O O7 0.678043 0.158302 0.061955
O O8 0.029106 0.691701 0.804514
O O9 0.500000 0.500000 0.000000
O O10 0.000000 0.000000 0.000000
O O11 0.000000 0.500000 0.000000
O O12 0.500000 0.000000 0.000000
#
# Coordination Sequence:
#
# PCOD9060138 Si02
#       5
#     2   2   2   2   2
#     4  11  25  44  74  98 139 186 219 277 350 383
#     4  11  24  44  71 100 136 176 228 278 334 412
#     4  11  23  43  66 105 143 175 223 270 327 420
#     4  12  23  42  68 104 141 179 220 269 332 413
#     4  11  26  47  68 100 132 173 236 287 333 401
#
# _framework density 23.704272
#
# number of rings (size 3 to 8) (size 9 to 14) (size 15 to 20)
#    0.000    0.800    4.000    3.000    0.000   11.200 
#    0.000    7.000    0.000    0.000    0.000    0.000 
#    0.000    0.000    0.000    0.000    0.000    0.000 
#
# Total GULP energy -55971.561970 kJ/mol
# GULP energy per Si atom -5597.156197 kJ/mol
# Density = 2.365032 g / cm^3
# Si number density = 23.704272 Si / 1000 Ang^3
#
#
#
# Elastic Constant Matrix: (Units=GPa)
#
#
# Indices 1 2 3 4 5 6 
#
# 1 181.2244 30.6178 38.1108 -16.8987 28.5860 -0.8271
# 2 30.6178 138.6935 33.7257 -19.1746 2.0756 -8.7721
# 3 38.1108 33.7257 112.2080 -21.9253 23.9318 3.6963
# 4 -16.8987 -19.1746 -21.9253 21.8316 4.8014 -6.0406
# 5 28.5860 2.0756 23.9318 4.8014 58.5868 -1.4021
# 6 -0.8271 -8.7721 3.6963 -6.0406 -1.4021 42.3499
#
#
#
# Elastic Compliance Matrix: (Units=1/GPa)
#
#
# Indices 1 2 3 4 5 6 
#
# 1 0.006749 -0.000570 -0.000338 0.005357 -0.003557 0.000690
# 2 -0.000570 0.008756 -0.001181 0.006870 -0.000043 0.002884
# 3 -0.000338 -0.001181 0.013398 0.013646 -0.006377 0.000315
# 4 0.005357 0.006870 0.013646 0.075807 -0.014388 0.010673
# 5 -0.003557 -0.000043 -0.006377 -0.014388 0.022570 -0.000827
# 6 0.000690 0.002884 0.000315 0.010673 -0.000827 0.025691
#
#
# Mechanical properties :
#
#
# Convention : Reuss Voigt Hill
#
# Bulk Modulus (GPa) = 40.44723 70.78160 55.61442
# Shear Modulus (GPa) = 30.23097 46.53177 38.38137
#
# Velocity S-wave (km/s) = 3.57506 4.43540 4.02826
# Velocity P-wave (km/s) = 5.84309 7.49369 6.71927
#
# Compressibility (1/GPa) = 0.02472357
#
# Stress axis : x y z
#
# Youngs Moduli (GPa) = 148.16403 114.20471 74.63799
#
# Poissons Ratio (x) = 0.06513 0.02525
# Poissons Ratio (y) = 0.08449 0.08818
# Poissons Ratio (z) = 0.05012 0.13493
#
# Static dielectric constant tensor:
#      x y z
#    x 2.010220 -0.017190 -0.052800 
#    y -0.017190 1.832150 0.018360 
#    z -0.052800 0.018360 1.867170 
# 
# From -- ./inp_files/5562.got.cif
#   From: 2010.05.17/outbox.cif.g08.bks.cpg/sg2_3_cif.got.tgz:5562.got - 2010.06.03 11:33:40.
