data_PCOD9060266
_publ_section_title
;
Structure prediction by ZEFSAII (Michael W. Deem and Ramdas Pophale) SiO2 
 PCOD9060266
Probable space group: P -1
;
_chemical_formula_sum "Si O2"
_cell_formula_units_Z 12
_cell_length_a 18.429663
_cell_length_b 7.943695
_cell_length_c 10.918166
_cell_angle_alpha 115.283637
_cell_angle_beta 143.444291
_cell_angle_gamma 39.369034
_cell_volume 518.282896
_symmetry_space_group_name_H-M "P -1"
_symmetry_group_IT_number 2
_symmetry_cell_setting 'triclinic'
loop_
_space_group_symop_operation_xyz
x,y,z
-x,-y,-z
loop_
_atom_site_type_symbol
_atom_site_label
_atom_site_fract_x
_atom_site_fract_y
_atom_site_fract_z
Si Si1 0.582470 0.267863 0.772101
Si Si2 0.808552 0.392785 0.547892
Si Si3 0.199161 0.327007 0.785603
Si Si4 0.912618 0.989135 0.989565
Si Si5 0.596021 0.599322 0.071902
Si Si6 0.940548 0.553333 0.104049
O O1 0.370047 0.421902 0.538371
O O2 0.672911 0.258017 0.770811
O O3 0.573001 0.437881 0.915913
O O4 0.747869 0.910718 0.917297
O O5 0.731917 0.411143 0.319541
O O6 0.876427 0.522402 0.654295
O O7 0.995534 0.067853 0.770645
O O8 0.297620 0.378216 0.863602
O O9 0.122883 0.465843 0.861097
O O10 0.000000 0.500000 0.500000
O O11 0.375398 0.954565 0.915796
O O12 0.997874 0.679430 0.979296
O O13 0.000000 0.000000 0.000000
#
# Coordination Sequence:
#
# PCOD9060266 Si02
#       6
#     2   2   2   2   2   2
#     4  11  24  44  68  97 137 171 227 274 321 407
#     4  11  23  43  68  98 131 181 215 272 333 389
#     4  11  23  43  68  98 139 171 214 281 326 393
#     4  11  27  47  65  98 133 176 228 274 331 391
#     4  11  24  42  67 105 131 177 224 262 341 390
#     4  11  24  43  68  99 133 177 224 270 330 392
#
# _framework density 23.153378
#
# number of rings (size 3 to 8) (size 9 to 14) (size 15 to 20)
#    0.000    1.000    3.333    3.500    0.000   10.000 
#    0.000    0.000    0.000    0.000    0.000    0.000 
#    0.000    0.000    0.000    0.000    0.000    0.000 
#
# Total GULP energy -67080.292106 kJ/mol
# GULP energy per Si atom -5590.024342 kJ/mol
# Density = 2.310068 g / cm^3
# Si number density = 23.153378 Si / 1000 Ang^3
#
#
#
# Elastic Constant Matrix: (Units=GPa)
#
#
# Indices 1 2 3 4 5 6 
#
# 1 168.3862 4.8427 24.6911 -8.1597 19.7726 -7.0804
# 2 4.8427 91.8686 19.8393 7.4089 1.0784 -8.8641
# 3 24.6911 19.8393 77.8503 -12.2523 14.4964 -5.2965
# 4 -8.1597 7.4089 -12.2523 17.8147 -3.8225 5.2959
# 5 19.7726 1.0784 14.4964 -3.8225 53.8314 -0.2576
# 6 -7.0804 -8.8641 -5.2965 5.2959 -0.2576 38.4223
#
#
#
# Elastic Compliance Matrix: (Units=1/GPa)
#
#
# Indices 1 2 3 4 5 6 
#
# 1 0.006470 -0.000047 -0.001419 0.001368 -0.001892 0.000785
# 2 -0.000047 0.013018 -0.004632 -0.009645 0.000337 0.003688
# 3 -0.001419 -0.004632 0.016965 0.012505 -0.003070 -0.000736
# 4 0.001368 -0.009645 0.012505 0.072732 0.001439 -0.010265
# 5 -0.001892 0.000337 -0.003070 0.001439 0.020190 -0.000757
# 6 0.000785 0.003688 -0.000736 -0.010265 -0.000757 0.028330
#
#
# Mechanical properties :
#
#
# Convention : Reuss Voigt Hill
#
# Bulk Modulus (GPa) = 41.22664 48.53904 44.88284
# Shear Modulus (GPa) = 28.09197 41.26248 34.67722
#
# Velocity S-wave (km/s) = 3.48702 4.22612 3.87423
# Velocity P-wave (km/s) = 5.83584 6.69500 6.28013
#
# Compressibility (1/GPa) = 0.02425616
#
# Stress axis : x y z
#
# Youngs Moduli (GPa) = 154.56860 76.81858 58.94357
#
# Poissons Ratio (x) = 0.00361 0.08364
# Poissons Ratio (y) = 0.00726 0.27305
# Poissons Ratio (z) = 0.21932 0.35585
#
# Static dielectric constant tensor:
#      x y z
#    x 1.948710 0.006720 0.012750 
#    y 0.006720 1.829960 -0.000410 
#    z 0.012750 -0.000410 1.881190 
# 
# From -- ./inp_files/470093.got.cif
#   From: 2010.05.17/outbox.cif.g08.bks.cpg/sg2_236_cif.got.tgz:470093.got - 2010.06.03 11:33:40.
