data_PCOD9060145
_publ_section_title
;
Structure prediction by ZEFSAII (Michael W. Deem and Ramdas Pophale) SiO2 
 PCOD9060145
Probable space group: P -1
;
_chemical_formula_sum "Si O2"
_cell_formula_units_Z 16
_cell_length_a 7.953463
_cell_length_b 20.208147
_cell_length_c 5.482506
_cell_angle_alpha 105.214069
_cell_angle_beta 114.964651
_cell_angle_gamma 51.840287
_cell_volume 628.123226
_symmetry_space_group_name_H-M "P -1"
_symmetry_group_IT_number 2
_symmetry_cell_setting 'triclinic'
loop_
_space_group_symop_operation_xyz
x,y,z
-x,-y,-z
loop_
_atom_site_type_symbol
_atom_site_label
_atom_site_fract_x
_atom_site_fract_y
_atom_site_fract_z
Si Si1 0.701347 0.730534 0.343196
Si Si2 0.919793 0.280238 0.711089
Si Si3 0.167642 0.454564 0.835035
Si Si4 0.348229 0.948172 0.668912
Si Si5 0.752402 0.112762 0.948440
Si Si6 0.587653 0.411326 0.343684
Si Si7 0.007833 0.629718 0.772086
Si Si8 0.143518 0.114477 0.986370
O O1 0.793757 0.634394 0.254086
O O2 0.452994 0.791669 0.146989
O O3 0.853667 0.759664 0.355245
O O4 0.755178 0.713898 0.650158
O O5 0.664932 0.332561 0.492835
O O6 0.980421 0.207820 0.866119
O O7 0.913132 0.355558 0.913265
O O8 0.065571 0.537853 0.689136
O O9 0.412898 0.428793 0.046097
O O10 0.000000 0.500000 0.000000
O O11 0.267798 0.932806 0.348282
O O12 0.222529 0.046184 0.752251
O O13 0.293623 0.912972 0.842622
O O14 0.619712 0.905759 0.785467
O O15 0.990000 0.102486 0.064974
O O16 0.500000 0.500000 0.500000
O O17 0.827020 0.372928 0.326923
#
# Coordination Sequence:
#
# PCOD9060145 Si02
#       8
#     2   2   2   2   2   2   2   2
#     4  11  25  42  67 103 138 187 240 313 359 445
#     4  11  23  47  65 102 140 181 241 302 370 438
#     4  12  23  42  65  93 133 186 238 292 367 425
#     4  11  27  53  78 116 156 197 255 315 383 469
#     4  12  27  50  79 114 157 197 258 313 385 458
#     4  11  24  41  65  95 132 186 238 299 359 442
#     4  11  23  43  66  88 141 183 235 299 365 429
#     4  11  26  47  82 111 151 205 245 316 391 459
#
# _framework density 25.472709999999999
#
# number of rings (size 3 to 8) (size 9 to 14) (size 15 to 20)
#    0.000    0.750    3.750    3.000    1.750    5.000 
#    6.750    0.000    0.000    0.000    0.000    0.000 
#    0.000    0.000    0.000    0.000    0.000    0.000 
#
# Total GULP energy -89344.114656 kJ/mol
# GULP energy per Si atom -5584.007166 kJ/mol
# Density = 2.541473 g / cm^3
# Si number density = 25.472710 Si / 1000 Ang^3
#
#
#
# Elastic Constant Matrix: (Units=GPa)
#
#
# Indices 1 2 3 4 5 6 
#
# 1 126.7376 17.6765 30.1641 -9.7253 8.8122 2.6210
# 2 17.6765 144.8910 29.2349 -18.8699 2.6725 5.1327
# 3 30.1641 29.2349 -12.9362 6.1723 -44.7587 22.0685
# 4 -9.7253 -18.8699 6.1723 34.1494 6.9921 0.9982
# 5 8.8122 2.6725 -44.7587 6.9921 -7.7615 10.4408
# 6 2.6210 5.1327 22.0685 0.9982 10.4408 32.4544
#
#
#
# Elastic Compliance Matrix: (Units=1/GPa)
#
#
# Indices 1 2 3 4 5 6 
#
# 1 0.007758 -0.000926 0.000520 0.000925 0.003604 -0.002022
# 2 -0.000926 0.007523 -0.000386 0.003253 0.003781 -0.002169
# 3 0.000520 -0.000386 0.005134 0.003331 -0.021604 0.003376
# 4 0.000925 0.003253 0.003331 0.030164 0.003521 -0.004915
# 5 0.003604 0.003781 -0.021604 0.003521 0.015863 0.008590
# 6 -0.002022 -0.002169 0.003376 -0.004915 0.008590 0.026411
#
#
# Mechanical properties :
#
#
# Convention : Reuss Voigt Hill
#
# Bulk Modulus (GPa) = 53.10592 45.87147 49.48869
# Shear Modulus (GPa) = 49.64535 23.87626 36.76081
#
# Velocity S-wave (km/s) = 4.41949 3.06490 3.80300
# Velocity P-wave (km/s) = 6.85099 5.52920 6.22527
#
# Compressibility (1/GPa) = 0.01883029
#
# Stress axis : x y z
#
# Youngs Moduli (GPa) = 128.90153 132.91940 194.79772
#
# Poissons Ratio (x) = 0.12305 -0.10131
# Poissons Ratio (y) = 0.11933 0.07529
# Poissons Ratio (z) = -0.06704 0.05137
#
# Static dielectric constant tensor:
#      x y z
#    x 2.169740 0.070880 -0.014130 
#    y 0.070880 1.919930 0.083220 
#    z -0.014130 0.083220 2.063050 
# 
# From -- ./inp_files/53567.got.cif
#   From: 2010.05.17/outbox.cif.g08.bks.cpg/sg2_27_cif.got.tgz:53567.got - 2010.06.03 11:33:40.
