data_PCOD9060665
_publ_section_title
;
Structure prediction by ZEFSAII (Michael W. Deem and Ramdas Pophale) SiO2 
 PCOD9060665
Probable space group: P -1
;
_chemical_formula_sum "Si O2"
_cell_formula_units_Z 13
_cell_length_a 15.270995
_cell_length_b 9.439055
_cell_length_c 5.274039
_cell_angle_alpha 74.675842
_cell_angle_beta 68.919738
_cell_angle_gamma 120.235078
_cell_volume 510.819443
_symmetry_space_group_name_H-M "P -1"
_symmetry_group_IT_number 2
_symmetry_cell_setting 'triclinic'
loop_
_space_group_symop_operation_xyz
x,y,z
-x,-y,-z
loop_
_atom_site_type_symbol
_atom_site_label
_atom_site_fract_x
_atom_site_fract_y
_atom_site_fract_z
Si Si1 0.327377 0.218351 0.351323
Si Si2 0.807832 0.231203 0.263034
Si Si3 0.060300 0.443058 0.647129
Si Si4 0.617210 0.143890 0.119333
Si Si5 0.492654 0.748042 0.181502
Si Si6 0.074384 0.130679 0.609336
Si Si7 0.500000 0.500000 0.500000
O O1 0.212001 0.202884 0.423441
O O2 0.387603 0.317642 0.509176
O O3 0.279410 0.001282 0.507970
O O4 0.431103 0.320731 0.964098
O O5 0.825740 0.362404 0.413198
O O6 0.743972 0.255769 0.090544
O O7 0.945346 0.305778 0.032417
O O8 0.083143 0.315084 0.543645
O O9 0.000000 0.500000 0.500000
O O10 0.500000 0.000000 0.500000
O O11 0.589435 0.974313 0.051090
O O12 0.593954 0.268109 0.928953
O O13 0.426463 0.592973 0.547119
O O14 0.000000 0.000000 0.500000
O O15 0.000000 0.000000 0.000000
#
# Coordination Sequence:
#
# PCOD9060665 Si02
#       7
#     2   2   2   2   2   2   1
#     4  12  26  48  77 105 159 201 251 328 386 472
#     4  11  24  46  76 106 151 191 257 317 383 460
#     4  11  27  47  76 112 144 200 259 317 386 464
#     4  11  23  43  75 105 145 192 252 308 386 456
#     4  11  25  44  71 111 142 200 248 316 381 467
#     4  12  29  51  81 116 156 209 262 322 400 466
#     4  12  26  46  70 110 150 196 258 306 410 448
#
# _framework density 25.449307000000001
#
# number of rings (size 3 to 8) (size 9 to 14) (size 15 to 20)
#    0.000    0.615    4.615    1.385    8.615    3.692 
#    0.000    0.000    0.000    0.000    0.000    0.000 
#    0.000    0.000    0.000    0.000    0.000    0.000 
#
# Total GULP energy -72653.099052 kJ/mol
# GULP energy per Si atom -5588.699927 kJ/mol
# Density = 2.539138 g / cm^3
# Si number density = 25.449307 Si / 1000 Ang^3
#
#
#
# Elastic Constant Matrix: (Units=GPa)
#
#
# Indices 1 2 3 4 5 6 
#
# 1 219.9715 117.5867 44.6357 17.1468 20.4492 -15.4838
# 2 117.5867 259.3087 53.9591 16.3130 15.1196 10.9014
# 3 44.6357 53.9591 66.0854 1.3059 -3.0223 -3.5997
# 4 17.1468 16.3130 1.3059 51.4114 -7.3587 9.9119
# 5 20.4492 15.1196 -3.0223 -7.3587 51.4444 1.2057
# 6 -15.4838 10.9014 -3.5997 9.9119 1.2057 56.0993
#
#
#
# Elastic Compliance Matrix: (Units=1/GPa)
#
#
# Indices 1 2 3 4 5 6 
#
# 1 0.007013 -0.002433 -0.002675 -0.002400 -0.002637 0.002718
# 2 -0.002433 0.005816 -0.003237 -0.000736 -0.000994 -0.001858
# 3 -0.002675 -0.003237 0.019746 0.001757 0.003408 0.000774
# 4 -0.002400 -0.000736 0.001757 0.021931 0.004513 -0.004379
# 5 -0.002637 -0.000994 0.003408 0.004513 0.021662 -0.001579
# 6 0.002718 -0.001858 0.000774 -0.004379 -0.001579 0.019794
#
#
# Mechanical properties :
#
#
# Convention : Reuss Voigt Hill
#
# Bulk Modulus (GPa) = 62.96088 108.63651 85.79870
# Shear Modulus (GPa) = 42.39230 53.73662 48.06446
#
# Velocity S-wave (km/s) = 4.08579 4.60011 4.35056
# Velocity P-wave (km/s) = 6.85942 8.42584 7.68266
#
# Compressibility (1/GPa) = 0.01588288
#
# Stress axis : x y z
#
# Youngs Moduli (GPa) = 142.59318 171.94986 50.64406
#
# Poissons Ratio (x) = 0.41833 0.13549
# Poissons Ratio (y) = 0.34691 0.16396
# Poissons Ratio (z) = 0.38149 0.55667
#
# Static dielectric constant tensor:
#      x y z
#    x 2.421760 -0.157220 1.219490 
#    y -0.157220 2.010450 -0.337890 
#    z 1.219490 -0.337890 5.722080 
# 
# From -- ./inp_files/35120.got.cif
#   From: 2010.05.17/outbox.cif.g08.bks.cpg/sg2_18_cif.got.tgz:35120.got - 2010.06.03 11:33:40.
