data_PCOD9060142
_publ_section_title
;
Structure prediction by ZEFSAII (Michael W. Deem and Ramdas Pophale) SiO2 
 PCOD9060142
Probable space group: P -1
;
_chemical_formula_sum "Si O2"
_cell_formula_units_Z 12
_cell_length_a 13.336260
_cell_length_b 8.137758
_cell_length_c 7.224593
_cell_angle_alpha 143.076943
_cell_angle_beta 88.629518
_cell_angle_gamma 82.113190
_cell_volume 454.651897
_symmetry_space_group_name_H-M "P -1"
_symmetry_group_IT_number 2
_symmetry_cell_setting 'triclinic'
loop_
_space_group_symop_operation_xyz
x,y,z
-x,-y,-z
loop_
_atom_site_type_symbol
_atom_site_label
_atom_site_fract_x
_atom_site_fract_y
_atom_site_fract_z
Si Si1 0.591974 0.145163 0.659110
Si Si2 0.923393 0.806479 0.299979
Si Si3 0.381902 0.015094 0.086798
Si Si4 0.202161 0.839955 0.708521
Si Si5 0.796093 0.523616 0.300754
Si Si6 0.295905 0.435415 0.030000
O O1 0.603114 0.439672 0.842731
O O2 0.500000 0.000000 0.500000
O O3 0.602957 0.175850 0.904122
O O4 0.678257 0.888623 0.326802
O O5 0.864429 0.920753 0.210955
O O6 0.849196 0.273519 0.213350
O O7 0.000000 0.000000 0.500000
O O8 0.000000 0.500000 0.000000
O O9 0.312704 0.310379 0.444765
O O10 0.500000 0.000000 0.000000
O O11 0.143510 0.247678 0.565717
O O12 0.304628 0.921267 0.861873
O O13 0.234110 0.560634 0.325882
O O14 0.769443 0.406949 0.999343
#
# Coordination Sequence:
#
# PCOD9060142 Si02
#       6
#     2   2   2   2   2   2
#     4  11  23  43  66 108 163 219 277 332 379 473
#     4  12  31  56  88 123 160 216 286 356 441 503
#     4  11  26  45  77 125 169 225 280 328 408 508
#     4  12  27  50  86 117 173 221 276 355 416 501
#     4  11  28  51  82 121 171 216 284 345 419 509
#     4  11  24  45  72 108 159 216 262 333 407 472
#
# _framework density 26.393820000000002
#
# number of rings (size 3 to 8) (size 9 to 14) (size 15 to 20)
#    0.000    0.667    1.667    4.500   11.667    3.333 
#    0.000    0.000    0.000    0.000    0.000    0.000 
#    0.000    0.000    0.000    0.000    0.000    0.000 
#
# Total GULP energy -66981.658583 kJ/mol
# GULP energy per Si atom -5581.804882 kJ/mol
# Density = 2.633375 g / cm^3
# Si number density = 26.393820 Si / 1000 Ang^3
#
#
#
# Elastic Constant Matrix: (Units=GPa)
#
#
# Indices 1 2 3 4 5 6 
#
# 1 150.4629 69.8984 45.6814 2.6596 30.3058 4.6433
# 2 69.8984 215.5375 58.3917 -23.6850 7.2077 -9.4222
# 3 45.6814 58.3917 153.7458 -9.0754 22.0810 -4.3089
# 4 2.6596 -23.6850 -9.0754 57.2487 -2.1136 7.4189
# 5 30.3058 7.2077 22.0810 -2.1136 48.8684 0.7797
# 6 4.6433 -9.4222 -4.3089 7.4189 0.7797 45.4069
#
#
#
# Elastic Compliance Matrix: (Units=1/GPa)
#
#
# Indices 1 2 3 4 5 6 
#
# 1 0.009367 -0.002815 -0.001147 -0.001799 -0.004933 -0.001272
# 2 -0.002815 0.006237 -0.001598 0.002387 0.001635 0.001012
# 3 -0.001147 -0.001598 0.007867 0.000479 -0.002595 0.000499
# 4 -0.001799 0.002387 0.000479 0.018978 0.001406 -0.002400
# 5 -0.004933 0.001635 -0.002595 0.001406 0.024515 -0.000053
# 6 -0.001272 0.001012 0.000499 -0.002400 -0.000053 0.022804
#
#
# Mechanical properties :
#
#
# Convention : Reuss Voigt Hill
#
# Bulk Modulus (GPa) = 80.97057 96.40993 88.69025
# Shear Modulus (GPa) = 47.61663 53.35646 50.48654
#
# Velocity S-wave (km/s) = 4.25206 4.50104 4.37832
# Velocity P-wave (km/s) = 7.40615 7.97617 7.69644
#
# Compressibility (1/GPa) = 0.01235017
#
# Stress axis : x y z
#
# Youngs Moduli (GPa) = 106.75878 160.32479 127.11432
#
# Poissons Ratio (x) = 0.45135 0.14584
# Poissons Ratio (y) = 0.30055 0.20313
# Poissons Ratio (z) = 0.12249 0.25620
#
# Static dielectric constant tensor:
#      x y z
#    x 2.356460 0.060520 -0.034910 
#    y 0.060520 2.207080 0.059170 
#    z -0.034910 0.059170 2.056100 
# 
# From -- ./inp_files/103011.got.cif
#   From: 2010.05.17/outbox.cif.g08.bks.cpg/sg2_52_cif.got.tgz:103011.got - 2010.06.03 11:33:40.
