data_PCOD9060639
_publ_section_title
;
Structure prediction by ZEFSAII (Michael W. Deem and Ramdas Pophale) SiO2 
 PCOD9060639
Probable space group: P -1
;
_chemical_formula_sum "Si O2"
_cell_formula_units_Z 11
_cell_length_a 8.569614
_cell_length_b 10.343625
_cell_length_c 7.774789
_cell_angle_alpha 135.106985
_cell_angle_beta 87.911770
_cell_angle_gamma 69.191787
_cell_volume 409.034151
_symmetry_space_group_name_H-M "P -1"
_symmetry_group_IT_number 2
_symmetry_cell_setting 'triclinic'
loop_
_space_group_symop_operation_xyz
x,y,z
-x,-y,-z
loop_
_atom_site_type_symbol
_atom_site_label
_atom_site_fract_x
_atom_site_fract_y
_atom_site_fract_z
Si Si1 0.500000 0.500000 0.500000
Si Si2 0.268280 0.092538 0.739946
Si Si3 0.179408 0.951426 0.050501
Si Si4 0.665646 0.818307 0.567254
Si Si5 0.672819 0.376700 0.743204
Si Si6 0.860873 0.359485 0.026723
O O1 0.360460 0.762900 0.772269
O O2 0.611463 0.488108 0.666942
O O3 0.289933 0.166244 0.619753
O O4 0.451600 0.013885 0.770183
O O5 0.269882 0.871610 0.508117
O O6 0.068809 0.276922 0.992055
O O7 0.170325 0.832493 0.109223
O O8 0.204312 0.144709 0.282412
O O9 0.000000 0.000000 0.000000
O O10 0.711588 0.571548 0.345081
O O11 0.500000 0.500000 0.000000
O O12 0.829446 0.390104 0.852631
#
# Coordination Sequence:
#
# PCOD9060639 Si02
#       6
#     1   2   2   2   2   2
#     4  12  26  44  74 112 144 194 248 302 364 438
#     4  11  23  43  74 109 145 192 251 303 368 442
#     4  12  28  48  74 108 151 195 250 307 369 445
#     4  11  25  45  73 112 146 197 249 304 372 442
#     4  12  22  47  78 106 152 198 246 305 374 435
#     4  12  25  47  76 108 146 200 250 305 370 445
#
# _framework density 26.892619
#
# number of rings (size 3 to 8) (size 9 to 14) (size 15 to 20)
#    0.000    0.364    5.455    2.182    5.091    2.182 
#    0.000    6.364    0.000    0.000    0.000    0.000 
#    0.000    0.000    0.000    0.000    0.000    0.000 
#
# Total GULP energy -61419.276505 kJ/mol
# GULP energy per Si atom -5583.570591 kJ/mol
# Density = 2.683141 g / cm^3
# Si number density = 26.892619 Si / 1000 Ang^3
#
#
#
# Elastic Constant Matrix: (Units=GPa)
#
#
# Indices 1 2 3 4 5 6 
#
# 1 77.8753 13.2116 22.3266 -0.0024 14.0910 -39.2523
# 2 13.2116 116.1062 18.4282 -26.8602 17.8265 -30.4328
# 3 22.3266 18.4282 82.4112 7.4080 20.2278 -25.4459
# 4 -0.0024 -26.8602 7.4080 38.1828 -2.4487 0.3774
# 5 14.0910 17.8265 20.2278 -2.4487 64.0276 -1.8821
# 6 -39.2523 -30.4328 -25.4459 0.3774 -1.8821 54.8887
#
#
#
# Elastic Compliance Matrix: (Units=1/GPa)
#
#
# Indices 1 2 3 4 5 6 
#
# 1 0.021950 0.003260 -0.000293 0.001857 -0.005070 0.017182
# 2 0.003260 0.013526 -0.001064 0.009405 -0.003519 0.009152
# 3 -0.000293 -0.001064 0.015972 -0.004210 -0.004656 0.006475
# 4 0.001857 0.009405 -0.004210 0.033562 -0.000286 0.004351
# 5 -0.005070 -0.003519 -0.004656 -0.000286 0.018965 -0.007083
# 6 0.017182 0.009152 0.006475 0.004351 -0.007083 0.038309
#
#
# Mechanical properties :
#
#
# Convention : Reuss Voigt Hill
#
# Bulk Modulus (GPa) = 18.09785 42.70283 30.40034
# Shear Modulus (GPa) = 31.86861 46.24823 39.05842
#
# Velocity S-wave (km/s) = 3.44616 4.15147 3.81515
# Velocity P-wave (km/s) = 4.75174 6.23643 5.54401
#
# Compressibility (1/GPa) = 0.05525520
#
# Stress axis : x y z
#
# Youngs Moduli (GPa) = 45.55847 73.93359 62.61041
#
# Poissons Ratio (x) = -0.24106 0.01834
# Poissons Ratio (y) = -0.14854 0.06660
# Poissons Ratio (z) = 0.01334 0.07864
#
# Static dielectric constant tensor:
#      x y z
#    x 1.848530 -0.392790 0.047590 
#    y -0.392790 1.679530 0.106960 
#    z 0.047590 0.106960 2.007160 
# 
# From -- ./inp_files/166871.got.cif
#   From: 2010.05.17/outbox.cif.g08.bks.cpg/sg2_84_cif.got.tgz:166871.got - 2010.06.03 11:33:40.
