data_PCOD9060863
_publ_section_title
;
Structure prediction by ZEFSAII (Michael W. Deem and Ramdas Pophale) SiO2 
 PCOD9060863
Probable space group: P -1
;
_chemical_formula_sum "Si O2"
_cell_formula_units_Z 12
_cell_length_a 5.559542
_cell_length_b 20.532864
_cell_length_c 5.091937
_cell_angle_alpha 56.159694
_cell_angle_beta 94.079461
_cell_angle_gamma 108.987819
_cell_volume 452.018078
_symmetry_space_group_name_H-M "P -1"
_symmetry_group_IT_number 2
_symmetry_cell_setting 'triclinic'
loop_
_space_group_symop_operation_xyz
x,y,z
-x,-y,-z
loop_
_atom_site_type_symbol
_atom_site_label
_atom_site_fract_x
_atom_site_fract_y
_atom_site_fract_z
Si Si1 0.126081 0.344947 0.503941
Si Si2 0.449690 0.049671 0.136276
Si Si3 0.898083 0.191409 0.080115
Si Si4 0.259535 0.518193 0.317520
Si Si5 0.143186 0.145563 0.688445
Si Si6 0.425802 0.692676 0.682785
O O1 0.399361 0.214266 0.430764
O O2 0.386713 0.332275 0.453774
O O3 0.851961 0.306225 0.423315
O O4 0.027749 0.292765 0.887787
O O5 0.616927 0.143935 0.044808
O O6 0.500000 0.000000 0.500000
O O7 0.198066 0.065709 0.979192
O O8 0.500000 0.000000 0.000000
O O9 0.939858 0.143977 0.449529
O O10 0.061554 0.177375 0.879715
O O11 0.500000 0.500000 0.500000
O O12 0.000000 0.500000 0.500000
O O13 0.177381 0.443815 0.264024
O O14 0.362281 0.615482 0.046198
#
# Coordination Sequence:
#
# PCOD9060863 Si02
#       6
#     2   2   2   2   2   2
#     4  11  23  44  69 101 145 198 249 306 367 441
#     4  12  26  46  72 107 142 185 242 310 374 450
#     4  11  25  46  71 105 144 193 242 304 371 446
#     4  12  24  40  64 106 144 196 249 307 366 435
#     4  11  25  46  71 105 144 193 242 304 371 446
#     4  11  23  44  69 101 145 198 249 306 367 441
#
# _framework density 26.547609000000001
#
# number of rings (size 3 to 8) (size 9 to 14) (size 15 to 20)
#    0.000    0.667    1.667    6.000    0.000    6.667 
#    3.000    0.000    0.000    0.000    0.000    0.000 
#    0.000    0.000    0.000    0.000    0.000    0.000 
#
# Total GULP energy -66897.212536 kJ/mol
# GULP energy per Si atom -5574.767711 kJ/mol
# Density = 2.648719 g / cm^3
# Si number density = 26.547609 Si / 1000 Ang^3
#
#
#
# Elastic Constant Matrix: (Units=GPa)
#
#
# Indices 1 2 3 4 5 6 
#
# 1 123.0946 35.6085 39.9104 -1.9283 7.7870 3.1241
# 2 35.6085 84.0289 19.1867 14.2662 -0.1492 13.1620
# 3 39.9104 19.1867 176.3223 -2.8479 23.2207 -2.4945
# 4 -1.9283 14.2662 -2.8479 38.4896 -1.7235 -7.2275
# 5 7.7870 -0.1492 23.2207 -1.7235 43.3070 -8.3360
# 6 3.1241 13.1620 -2.4945 -7.2275 -8.3360 54.3881
#
#
#
# Elastic Compliance Matrix: (Units=1/GPa)
#
#
# Indices 1 2 3 4 5 6 
#
# 1 0.009961 -0.004275 -0.001652 0.002031 -0.000734 0.000544
# 2 -0.004275 0.015828 -0.000956 -0.006994 0.000186 -0.004530
# 3 -0.001652 -0.000956 0.006580 0.000660 -0.003164 0.000231
# 4 0.002031 -0.006994 0.000660 0.029886 0.001566 0.005818
# 5 -0.000734 0.000186 -0.003164 0.001566 0.025754 0.004007
# 6 0.000544 -0.004530 0.000231 0.005818 0.004007 0.020849
#
#
# Mechanical properties :
#
#
# Convention : Reuss Voigt Hill
#
# Bulk Modulus (GPa) = 53.75833 63.65078 58.70455
# Shear Modulus (GPa) = 38.81237 46.48628 42.64932
#
# Velocity S-wave (km/s) = 3.82775 4.18910 4.01249
# Velocity P-wave (km/s) = 6.31104 6.88667 6.60513
#
# Compressibility (1/GPa) = 0.01860177
#
# Stress axis : x y z
#
# Youngs Moduli (GPa) = 100.39538 63.18013 151.97541
#
# Poissons Ratio (x) = 0.27009 0.25109
# Poissons Ratio (y) = 0.42918 0.14532
# Poissons Ratio (z) = 0.16587 0.06041
#
# Static dielectric constant tensor:
#      x y z
#    x 1.915870 0.079410 -0.059370 
#    y 0.079410 2.346200 -0.110510 
#    z -0.059370 -0.110510 2.177720 
# 
# From -- ./inp_files/12662.got.cif
#   From: 2010.05.17/outbox.cif.g08.bks.cpg/sg2_7_cif.got.tgz:12662.got - 2010.06.03 11:33:40.
