data_PCOD9060265
_publ_section_title
;
Structure prediction by ZEFSAII (Michael W. Deem and Ramdas Pophale) SiO2 
 PCOD9060265
Probable space group: P -1
;
_chemical_formula_sum "Si O2"
_cell_formula_units_Z 16
_cell_length_a 7.579275
_cell_length_b 11.806134
_cell_length_c 9.355955
_cell_angle_alpha 100.239287
_cell_angle_beta 118.911256
_cell_angle_gamma 69.072238
_cell_volume 684.491574
_symmetry_space_group_name_H-M "P -1"
_symmetry_group_IT_number 2
_symmetry_cell_setting 'triclinic'
loop_
_space_group_symop_operation_xyz
x,y,z
-x,-y,-z
loop_
_atom_site_type_symbol
_atom_site_label
_atom_site_fract_x
_atom_site_fract_y
_atom_site_fract_z
Si Si1 0.947118 0.751951 0.384101
Si Si2 0.340800 0.701617 0.327015
Si Si3 0.421604 0.031182 0.814407
Si Si4 0.124395 0.475864 0.813620
Si Si5 0.966915 0.258228 0.259036
Si Si6 0.195635 0.875990 0.054061
Si Si7 0.429470 0.215541 0.334201
Si Si8 0.666097 0.545078 0.813073
O O1 0.803555 0.867973 0.267969
O O2 0.852055 0.641046 0.300076
O O3 0.971262 0.780106 0.564242
O O4 0.176271 0.710129 0.392261
O O5 0.205676 0.780408 0.162722
O O6 0.510304 0.756701 0.475832
O O7 0.431437 0.561850 0.283952
O O8 0.593986 0.088228 0.832726
O O9 0.432274 0.911918 0.703023
O O10 0.500000 0.000000 0.000000
O O11 0.122103 0.596313 0.756024
O O12 0.896297 0.505619 0.813256
O O13 0.293655 0.448880 0.001821
O O14 0.184158 0.219396 0.241710
O O15 0.812799 0.193917 0.111776
O O16 0.000000 0.000000 0.000000
O O17 0.449875 0.324357 0.267825
#
# Coordination Sequence:
#
# PCOD9060265 Si02
#       8
#     2   2   2   2   2   2   2   2
#     4  11  25  41  67  98 137 169 217 270 324 383
#     4  11  24  43  68 102 128 173 218 269 323 388
#     4  12  27  45  67  97 133 174 218 267 328 389
#     4   9  18  38  66  94 132 170 215 264 330 379
#     4  11  23  43  68  98 130 175 216 274 322 382
#     4  12  25  44  70  95 132 170 223 264 328 390
#     4  11  24  41  69  94 134 174 221 264 324 385
#     4   9  18  38  68  98 125 169 220 270 316 384
#
# _framework density 23.375015000000001
#
# number of rings (size 3 to 8) (size 9 to 14) (size 15 to 20)
#    0.000    1.250    2.500    3.000    5.250    1.500 
#    0.000    1.875    0.000    0.000    0.000    0.000 
#    0.000    0.000    0.000    0.000    0.000    0.000 
#
# Total GULP energy -89609.135071 kJ/mol
# GULP energy per Si atom -5600.570942 kJ/mol
# Density = 2.332181 g / cm^3
# Si number density = 23.375015 Si / 1000 Ang^3
#
#
#
# Elastic Constant Matrix: (Units=GPa)
#
#
# Indices 1 2 3 4 5 6 
#
# 1 31.7825 5.6752 -5.4809 2.8654 3.6876 2.5804
# 2 5.6752 118.0029 33.8067 13.8989 10.3721 8.0075
# 3 -5.4809 33.8067 121.7445 5.5502 9.0881 14.3040
# 4 2.8654 13.8989 5.5502 44.1517 9.5154 2.2509
# 5 3.6876 10.3721 9.0881 9.5154 27.8410 -5.4692
# 6 2.5804 8.0075 14.3040 2.2509 -5.4692 23.1397
#
#
#
# Elastic Compliance Matrix: (Units=1/GPa)
#
#
# Indices 1 2 3 4 5 6 
#
# 1 0.033555 -0.001489 0.003169 -0.000467 -0.006056 -0.006572
# 2 -0.001489 0.009799 -0.002252 -0.002065 -0.002447 -0.002211
# 3 0.003169 -0.002252 0.010100 0.000539 -0.004420 -0.006915
# 4 -0.000467 -0.002065 0.000539 0.025374 -0.008826 -0.004121
# 5 -0.006056 -0.002447 -0.004420 -0.008826 0.045194 0.015795
# 6 -0.006572 -0.002211 -0.006915 -0.004121 0.015795 0.053122
#
#
# Mechanical properties :
#
#
# Convention : Reuss Voigt Hill
#
# Bulk Modulus (GPa) = 19.11595 37.72577 28.42086
# Shear Modulus (GPa) = 25.54630 34.86172 30.20401
#
# Velocity S-wave (km/s) = 3.30947 3.86607 3.59855
# Velocity P-wave (km/s) = 4.77485 6.00858 5.42689
#
# Compressibility (1/GPa) = 0.05231234
#
# Stress axis : x y z
#
# Youngs Moduli (GPa) = 29.80218 102.04744 99.01307
#
# Poissons Ratio (x) = 0.15190 -0.31382
# Poissons Ratio (y) = 0.04436 0.22294
# Poissons Ratio (z) = -0.09446 0.22977
#
# Static dielectric constant tensor:
#      x y z
#    x 1.919910 0.023150 0.010700 
#    y 0.023150 1.852170 0.004510 
#    z 0.010700 0.004510 1.834940 
# 
# From -- ./inp_files/184822.got.cif
#   From: 2010.05.17/outbox.cif.g08.bks.cpg/sg2_93_cif.got.tgz:184822.got - 2010.06.03 11:33:40.
