data_PCOD9060654
_publ_section_title
;
Structure prediction by ZEFSAII (Michael W. Deem and Ramdas Pophale) SiO2 
 PCOD9060654
Probable space group: P -1
;
_chemical_formula_sum "Si O2"
_cell_formula_units_Z 14
_cell_length_a 20.278800
_cell_length_b 12.851192
_cell_length_c 9.345792
_cell_angle_alpha 136.175128
_cell_angle_beta 146.753507
_cell_angle_gamma 28.519374
_cell_volume 636.706810
_symmetry_space_group_name_H-M "P -1"
_symmetry_group_IT_number 2
_symmetry_cell_setting 'triclinic'
loop_
_space_group_symop_operation_xyz
x,y,z
-x,-y,-z
loop_
_atom_site_type_symbol
_atom_site_label
_atom_site_fract_x
_atom_site_fract_y
_atom_site_fract_z
Si Si1 0.410542 0.888878 0.986771
Si Si2 0.963411 0.595112 0.686889
Si Si3 0.940456 0.970933 0.504424
Si Si4 0.309217 0.315757 0.232815
Si Si5 0.435034 0.388012 0.279774
Si Si6 0.755826 0.532380 0.411039
Si Si7 0.060772 0.814319 0.028552
O O1 0.452971 0.815535 0.825296
O O2 0.563594 0.673627 0.142615
O O3 0.222730 0.989361 0.779544
O O4 0.405937 0.070184 0.185806
O O5 0.823623 0.619618 0.538361
O O6 0.000000 0.500000 0.500000
O O7 0.136571 0.436573 0.944046
O O8 0.922164 0.809212 0.803875
O O9 0.101308 0.726354 0.612248
O O10 0.000000 0.000000 0.500000
O O11 0.887331 0.147917 0.694926
O O12 0.423262 0.326729 0.354933
O O13 0.255168 0.428900 0.400528
O O14 0.500000 0.500000 0.500000
O O15 0.234113 0.576655 0.048630
O O16 0.000000 0.000000 0.000000
#
# Coordination Sequence:
#
# PCOD9060654 Si02
#       7
#     2   2   2   2   2   2   2
#     4  12  26  46  74 103 140 189 239 286 359 422
#     4  11  23  43  75 102 139 187 237 289 350 426
#     4  12  26  47  72 101 146 186 228 296 359 416
#     4  11  25  46  71 101 145 189 233 301 353 412
#     4  11  23  44  68  99 141 181 236 290 347 421
#     4  12  26  48  73 107 142 184 244 290 352 429
#     4  11  24  43  69 104 138 185 232 287 358 413
#
# _framework density 21.988142
#
# number of rings (size 3 to 8) (size 9 to 14) (size 15 to 20)
#    0.000    0.571    2.857    6.429    2.000    1.714 
#    2.571    0.000    0.000    0.000    0.000    0.000 
#    0.000    0.000    0.000    0.000    0.000    0.000 
#
# Total GULP energy -78355.287122 kJ/mol
# GULP energy per Si atom -5596.806223 kJ/mol
# Density = 2.193810 g / cm^3
# Si number density = 21.988142 Si / 1000 Ang^3
#
#
#
# Elastic Constant Matrix: (Units=GPa)
#
#
# Indices 1 2 3 4 5 6 
#
# 1 144.1998 21.3709 31.8085 -2.0517 7.1300 5.1544
# 2 21.3709 91.1617 10.9498 -4.3516 15.1654 6.9025
# 3 31.8085 10.9498 66.3832 1.0416 -5.6032 3.8064
# 4 -2.0517 -4.3516 1.0416 35.2882 8.2983 -0.5593
# 5 7.1300 15.1654 -5.6032 8.2983 34.9057 11.4483
# 6 5.1544 6.9025 3.8064 -0.5593 11.4483 35.2061
#
#
#
# Elastic Compliance Matrix: (Units=1/GPa)
#
#
# Indices 1 2 3 4 5 6 
#
# 1 0.008059 -0.001040 -0.003889 0.000949 -0.002090 0.000139
# 2 -0.001040 0.012682 -0.002183 0.003070 -0.006387 0.000027
# 3 -0.003889 -0.002183 0.018026 -0.002540 0.006230 -0.003018
# 4 0.000949 0.003070 -0.002540 0.031377 -0.010529 0.003456
# 5 -0.002090 -0.006387 0.006230 -0.010529 0.039311 -0.012066
# 6 0.000139 0.000027 -0.003018 0.003456 -0.012066 0.032683
#
#
# Mechanical properties :
#
#
# Convention : Reuss Voigt Hill
#
# Bulk Modulus (GPa) = 40.74225 47.77814 44.26020
# Shear Modulus (GPa) = 30.38711 36.92104 33.65408
#
# Velocity S-wave (km/s) = 3.72153 4.10217 3.91648
# Velocity P-wave (km/s) = 6.08570 6.64931 6.37374
#
# Compressibility (1/GPa) = 0.02454454
#
# Stress axis : x y z
#
# Youngs Moduli (GPa) = 124.09000 78.84933 55.47409
#
# Poissons Ratio (x) = 0.08197 0.21575
# Poissons Ratio (y) = 0.12900 0.12108
# Poissons Ratio (z) = 0.48261 0.17210
#
# Static dielectric constant tensor:
#      x y z
#    x 1.834590 -0.012500 -0.014980 
#    y -0.012500 1.823040 -0.014880 
#    z -0.014980 -0.014880 1.833360 
# 
# From -- ./inp_files/179298.got.cif
#   From: 2010.05.17/outbox.cif.g08.bks.cpg/sg2_90_cif.got.tgz:179298.got - 2010.06.03 11:33:40.
