data_PCOD9060844
_publ_section_title
;
Structure prediction by ZEFSAII (Michael W. Deem and Ramdas Pophale) SiO2 
 PCOD9060844
Probable space group: P -1
;
_chemical_formula_sum "Si O2"
_cell_formula_units_Z 16
_cell_length_a 19.493093
_cell_length_b 10.234015
_cell_length_c 5.546482
_cell_angle_alpha 71.273869
_cell_angle_beta 50.512486
_cell_angle_gamma 47.734803
_cell_volume 620.836675
_symmetry_space_group_name_H-M "P -1"
_symmetry_group_IT_number 2
_symmetry_cell_setting 'triclinic'
loop_
_space_group_symop_operation_xyz
x,y,z
-x,-y,-z
loop_
_atom_site_type_symbol
_atom_site_label
_atom_site_fract_x
_atom_site_fract_y
_atom_site_fract_z
Si Si1 0.106912 0.791669 0.383999
Si Si2 0.945071 0.400044 0.062100
Si Si3 0.849830 0.789904 0.038221
Si Si4 0.257477 0.553062 0.791388
Si Si5 0.406188 0.080018 0.451583
Si Si6 0.611479 0.311851 0.570309
Si Si7 0.734472 0.148156 0.870270
Si Si8 0.575355 0.704198 0.038795
O O1 0.078972 0.662732 0.596187
O O2 0.203858 0.764546 0.356186
O O3 0.168602 0.741783 0.020669
O O4 0.000000 0.000000 0.500000
O O5 0.927971 0.578409 0.932953
O O6 0.838885 0.439536 0.131920
O O7 0.084591 0.232351 0.843928
O O8 0.720194 0.858984 0.280194
O O9 0.835070 0.936130 0.815683
O O10 0.363087 0.554258 0.499610
O O11 0.321898 0.394177 0.941472
O O12 0.500000 0.000000 0.500000
O O13 0.470566 0.908351 0.231903
O O14 0.383647 0.260286 0.313347
O O15 0.664486 0.182559 0.764585
O O16 0.479038 0.392413 0.810549
O O17 0.664461 0.221628 0.239958
#
# Coordination Sequence:
#
# PCOD9060844 Si02
#       8
#     2   2   2   2   2   2   2   2
#     4  11  23  44  68  98 140 191 242 294 360 438
#     4  11  24  45  66 103 146 185 242 301 369 428
#     4  11  23  44  70 104 142 188 246 300 363 437
#     4  11  25  44  68 104 141 190 237 303 369 432
#     4  11  23  44  69  97 139 191 237 297 366 435
#     4  11  24  45  73 109 144 194 245 302 365 438
#     4  11  23  45  74 105 146 191 249 298 362 440
#     4  11  24  42  68 102 140 184 246 297 366 431
#
# _framework density 25.771673
#
# number of rings (size 3 to 8) (size 9 to 14) (size 15 to 20)
#    0.000    1.000    3.750    2.625    0.000    2.500 
#    2.250    5.000    0.000    0.000    0.000    0.000 
#    0.000    0.000    0.000    0.000    0.000    0.000 
#
# Total GULP energy -89116.602499 kJ/mol
# GULP energy per Si atom -5569.787656 kJ/mol
# Density = 2.571302 g / cm^3
# Si number density = 25.771673 Si / 1000 Ang^3
#
#
#
# Elastic Constant Matrix: (Units=GPa)
#
#
# Indices 1 2 3 4 5 6 
#
# 1 158.9362 44.3133 46.3018 -22.1132 -27.0930 -39.1894
# 2 44.3133 100.8830 13.7691 -21.1966 -1.3013 -26.5146
# 3 46.3018 13.7691 61.9627 -14.1002 -16.9248 -1.8277
# 4 -22.1132 -21.1966 -14.1002 41.5729 6.5632 -6.1069
# 5 -27.0930 -1.3013 -16.9248 6.5632 47.6756 -11.9452
# 6 -39.1894 -26.5146 -1.8277 -6.1069 -11.9452 63.1416
#
#
#
# Elastic Compliance Matrix: (Units=1/GPa)
#
#
# Indices 1 2 3 4 5 6 
#
# 1 0.012041 -0.001410 -0.005833 0.003934 0.006266 0.008279
# 2 -0.001410 0.013412 -0.000248 0.006813 -0.000111 0.005388
# 3 -0.005833 -0.000248 0.022256 0.003449 0.003586 -0.002068
# 4 0.003934 0.006813 0.003449 0.031847 0.001457 0.008759
# 5 0.006266 -0.000111 0.003586 0.001457 0.027954 0.009375
# 6 0.008279 0.005388 -0.002068 0.008759 0.009375 0.025799
#
#
# Mechanical properties :
#
#
# Convention : Reuss Voigt Hill
#
# Bulk Modulus (GPa) = 30.55587 58.95003 44.75295
# Shear Modulus (GPa) = 31.40691 44.97121 38.18906
#
# Velocity S-wave (km/s) = 3.49472 4.18184 3.85362
# Velocity P-wave (km/s) = 5.30718 6.80005 6.09946
#
# Compressibility (1/GPa) = 0.03272694
#
# Stress axis : x y z
#
# Youngs Moduli (GPa) = 83.04913 74.56231 44.93096
#
# Poissons Ratio (x) = 0.10510 0.26210
# Poissons Ratio (y) = 0.11707 0.01114
# Poissons Ratio (z) = 0.48447 0.01849
#
# Static dielectric constant tensor:
#      x y z
#    x 2.212720 0.059240 0.031470 
#    y 0.059240 2.059070 0.007570 
#    z 0.031470 0.007570 2.166540 
# 
# From -- ./inp_files/118490.got.cif
#   From: 2010.05.17/outbox.cif.g08.bks.cpg/sg2_60_cif.got.tgz:118490.got - 2010.06.03 11:33:40.
