data_PCOD9060619
_publ_section_title
;
Structure prediction by ZEFSAII (Michael W. Deem and Ramdas Pophale) SiO2 
 PCOD9060619
Probable space group: P -1
;
_chemical_formula_sum "Si O2"
_cell_formula_units_Z 16
_cell_length_a 5.745533
_cell_length_b 14.793434
_cell_length_c 13.619721
_cell_angle_alpha 50.078949
_cell_angle_beta 54.601863
_cell_angle_gamma 83.818836
_cell_volume 655.976357
_symmetry_space_group_name_H-M "P -1"
_symmetry_group_IT_number 2
_symmetry_cell_setting 'triclinic'
loop_
_space_group_symop_operation_xyz
x,y,z
-x,-y,-z
loop_
_atom_site_type_symbol
_atom_site_label
_atom_site_fract_x
_atom_site_fract_y
_atom_site_fract_z
Si Si1 0.096545 0.335364 0.444125
Si Si2 0.265035 0.923913 0.377549
Si Si3 0.959175 0.053576 0.076536
Si Si4 0.335569 0.623405 0.844448
Si Si5 0.699890 0.833820 0.911782
Si Si6 0.241130 0.855459 0.640818
Si Si7 0.586447 0.439202 0.426494
Si Si8 0.851041 0.314599 0.946853
O O1 0.363862 0.398766 0.249304
O O2 0.280967 0.370975 0.478309
O O3 0.935444 0.179717 0.580677
O O4 0.801035 0.368973 0.465229
O O5 0.111404 0.869697 0.557076
O O6 0.630808 0.949229 0.274113
O O7 0.287205 0.063727 0.246582
O O8 0.249478 0.088189 0.054746
O O9 0.933745 0.192090 0.987719
O O10 0.000000 0.000000 0.000000
O O11 0.355334 0.741687 0.686753
O O12 0.342000 0.676395 0.916356
O O13 0.000000 0.500000 0.000000
O O14 0.998478 0.810375 0.821952
O O15 0.388929 0.702813 0.072403
O O16 0.500000 0.000000 0.500000
O O17 0.500000 0.500000 0.500000
O O18 0.831952 0.557811 0.220189
#
# Coordination Sequence:
#
# PCOD9060619 Si02
#       8
#     2   2   2   2   2   2   2   2
#     4  12  28  49  77 114 155 203 261 324 390 469
#     4  11  25  42  71 110 142 198 256 320 392 460
#     4  11  26  46  73 105 146 200 257 323 386 462
#     4  12  25  46  77 116 159 203 258 324 404 474
#     4  11  23  43  74 104 150 195 256 317 395 460
#     4  12  21  43  76 108 156 198 253 326 393 478
#     4  12  30  51  78 111 155 212 265 319 386 468
#     4  11  26  47  73 108 150 201 255 320 396 465
#
# _framework density 24.391124000000001
#
# number of rings (size 3 to 8) (size 9 to 14) (size 15 to 20)
#    0.000    0.500    3.750    3.750    7.000    3.500 
#    0.000    0.000    0.000    0.000    0.000    0.000 
#    0.000    0.000    0.000    0.000    0.000    0.000 
#
# Total GULP energy -89382.026444 kJ/mol
# GULP energy per Si atom -5586.376653 kJ/mol
# Density = 2.433561 g / cm^3
# Si number density = 24.391124 Si / 1000 Ang^3
#
#
#
# Elastic Constant Matrix: (Units=GPa)
#
#
# Indices 1 2 3 4 5 6 
#
# 1 115.8456 55.1732 3.7116 -6.1446 -9.1391 29.6768
# 2 55.1732 115.1559 7.8144 4.2507 1.9497 22.0518
# 3 3.7116 7.8144 18.6329 -14.5661 -8.8403 2.6015
# 4 -6.1446 4.2507 -14.5661 48.3036 16.6581 -2.7528
# 5 -9.1391 1.9497 -8.8403 16.6581 31.8491 -5.7165
# 6 29.6768 22.0518 2.6015 -2.7528 -5.7165 57.3856
#
#
#
# Elastic Compliance Matrix: (Units=1/GPa)
#
#
# Indices 1 2 3 4 5 6 
#
# 1 0.012586 -0.005586 0.003300 0.001743 0.003221 -0.004107
# 2 -0.005586 0.012450 -0.007844 -0.003166 -0.003248 -0.002015
# 3 0.003300 -0.007844 0.078143 0.020378 0.012456 -0.000016
# 4 0.001743 -0.003166 0.020378 0.030695 -0.009723 -0.000105
# 5 0.003221 -0.003248 0.012456 -0.009723 0.041547 0.002690
# 6 -0.004107 -0.002015 -0.000016 -0.000105 0.002690 0.020588
#
#
# Mechanical properties :
#
#
# Convention : Reuss Voigt Hill
#
# Bulk Modulus (GPa) = 12.06004 42.55920 27.30962
# Shear Modulus (GPa) = 20.49952 39.70335 30.10144
#
# Velocity S-wave (km/s) = 2.90220 4.03895 3.51681
# Velocity P-wave (km/s) = 4.02312 6.26397 5.26416
#
# Compressibility (1/GPa) = 0.08291848
#
# Stress axis : x y z
#
# Youngs Moduli (GPa) = 79.45534 80.31859 12.79711
#
# Poissons Ratio (x) = 0.44868 -0.04223
# Poissons Ratio (y) = 0.44386 0.10037
# Poissons Ratio (z) = -0.26218 0.62998
#
# Static dielectric constant tensor:
#      x y z
#    x 2.201520 -0.093780 -0.030530 
#    y -0.093780 2.019460 0.045760 
#    z -0.030530 0.045760 1.936650 
# 
# From -- ./inp_files/109758.got.cif
#   From: 2010.05.17/outbox.cif.g08.bks.cpg/sg2_55_cif.got.tgz:109758.got - 2010.06.03 11:33:40.
