data_PCOD9060752
_publ_section_title
;
Structure prediction by ZEFSAII (Michael W. Deem and Ramdas Pophale) SiO2 
 PCOD9060752
Probable space group: P -1
;
_chemical_formula_sum "Si O2"
_cell_formula_units_Z 16
_cell_length_a 10.615695
_cell_length_b 12.069596
_cell_length_c 6.062339
_cell_angle_alpha 93.496219
_cell_angle_beta 119.811055
_cell_angle_gamma 73.740659
_cell_volume 644.148568
_symmetry_space_group_name_H-M "P -1"
_symmetry_group_IT_number 2
_symmetry_cell_setting 'triclinic'
loop_
_space_group_symop_operation_xyz
x,y,z
-x,-y,-z
loop_
_atom_site_type_symbol
_atom_site_label
_atom_site_fract_x
_atom_site_fract_y
_atom_site_fract_z
Si Si1 0.898323 0.611800 0.797482
Si Si2 0.318913 0.741836 0.125324
Si Si3 0.355454 0.434193 0.697811
Si Si4 0.341507 0.072672 0.762850
Si Si5 0.098628 0.145176 0.232831
Si Si6 0.675804 0.307244 0.390997
Si Si7 0.639551 0.708039 0.929692
Si Si8 0.149050 0.974138 0.881168
O O1 0.808651 0.569525 0.523173
O O2 0.963269 0.715620 0.788340
O O3 0.761240 0.679967 0.843761
O O4 0.000000 0.500000 0.000000
O O5 0.495860 0.666739 0.264442
O O6 0.250813 0.715799 0.300341
O O7 0.267570 0.723728 0.820442
O O8 0.282129 0.880345 0.116408
O O9 0.374222 0.554157 0.649658
O O10 0.348882 0.412190 0.948628
O O11 0.274064 0.103600 0.462626
O O12 0.321605 0.199287 0.865221
O O13 0.227677 0.002700 0.738676
O O14 0.500000 0.000000 0.000000
O O15 0.986138 0.084665 0.253063
O O16 0.095130 0.094200 0.980375
O O17 0.536384 0.251301 0.283366
#
# Coordination Sequence:
#
# PCOD9060752 Si02
#       8
#     2   2   2   2   2   2   2   2
#     4  12  27  45  70 101 146 202 251 314 386 457
#     4  11  24  44  73 113 140 197 252 319 384 459
#     4  11  24  44  70 103 147 193 251 324 374 457
#     4  12  25  45  77 110 145 195 248 323 396 454
#     4  11  27  51  70 107 152 195 260 317 384 473
#     4  11  25  42  73 108 153 191 253 319 388 453
#     4  11  23  44  66 106 146 182 252 319 377 458
#     4  11  27  47  77 103 151 202 248 318 389 466
#
# _framework density 24.838991
#
# number of rings (size 3 to 8) (size 9 to 14) (size 15 to 20)
#    0.000    0.750    3.750    3.750    7.000    1.000 
#    2.250    0.000    0.000    0.000    0.000    0.000 
#    0.000    0.000    0.000    0.000    0.000    0.000 
#
# Total GULP energy -89153.400545 kJ/mol
# GULP energy per Si atom -5572.087534 kJ/mol
# Density = 2.478246 g / cm^3
# Si number density = 24.838991 Si / 1000 Ang^3
#
#
#
# Elastic Constant Matrix: (Units=GPa)
#
#
# Indices 1 2 3 4 5 6 
#
# 1 72.1918 16.9935 41.8194 3.0431 0.0728 7.0119
# 2 16.9935 103.7098 29.1938 -10.7618 9.5407 24.2624
# 3 41.8194 29.1938 127.0341 -7.5518 2.1660 7.3153
# 4 3.0431 -10.7618 -7.5518 30.1909 8.6663 2.6706
# 5 0.0728 9.5407 2.1660 8.6663 39.5956 -4.4923
# 6 7.0119 24.2624 7.3153 2.6706 -4.4923 36.5897
#
#
#
# Elastic Compliance Matrix: (Units=1/GPa)
#
#
# Indices 1 2 3 4 5 6 
#
# 1 0.017804 -0.001754 -0.005702 -0.004240 0.001561 -0.000608
# 2 -0.001754 0.014004 -0.001527 0.007396 -0.006032 -0.009925
# 3 -0.005702 -0.001527 0.010300 0.002873 -0.000844 -0.000268
# 4 -0.004240 0.007396 0.002873 0.041151 -0.011975 -0.009140
# 5 0.001561 -0.006032 -0.000844 -0.011975 0.030334 0.008468
# 6 -0.000608 -0.009925 -0.000268 -0.009140 0.008468 0.035788
#
#
# Mechanical properties :
#
#
# Convention : Reuss Voigt Hill
#
# Bulk Modulus (GPa) = 41.41865 53.21656 47.31761
# Shear Modulus (GPa) = 28.50743 35.60384 32.05563
#
# Velocity S-wave (km/s) = 3.39143 3.79011 3.59630
# Velocity P-wave (km/s) = 5.66099 6.37373 6.02790
#
# Compressibility (1/GPa) = 0.02414371
#
# Stress axis : x y z
#
# Youngs Moduli (GPa) = 56.16760 71.40939 97.08403
#
# Poissons Ratio (x) = 0.12522 0.55354
# Poissons Ratio (y) = 0.09850 0.14824
# Poissons Ratio (z) = 0.32025 0.10903
#
# Static dielectric constant tensor:
#      x y z
#    x 2.067210 -0.014910 0.020640 
#    y -0.014910 1.983510 -0.020140 
#    z 0.020640 -0.020140 2.077690 
# 
# From -- ./inp_files/70843.got.cif
#   From: 2010.05.17/outbox.cif.g08.bks.cpg/sg2_36_cif.got.tgz:70843.got - 2010.06.03 11:33:40.
