data_PCOD9060588
_publ_section_title
;
Structure prediction by ZEFSAII (Michael W. Deem and Ramdas Pophale) SiO2 
 PCOD9060588
Probable space group: P -1
;
_chemical_formula_sum "Si O2"
_cell_formula_units_Z 15
_cell_length_a 10.927404
_cell_length_b 9.178454
_cell_length_c 8.800402
_cell_angle_alpha 63.154562
_cell_angle_beta 88.511744
_cell_angle_gamma 123.660277
_cell_volume 608.441912
_symmetry_space_group_name_H-M "P -1"
_symmetry_group_IT_number 2
_symmetry_cell_setting 'triclinic'
loop_
_space_group_symop_operation_xyz
x,y,z
-x,-y,-z
loop_
_atom_site_type_symbol
_atom_site_label
_atom_site_fract_x
_atom_site_fract_y
_atom_site_fract_z
Si Si1 0.412403 0.572448 0.554837
Si Si2 0.502153 0.173455 0.003447
Si Si3 0.968748 0.804966 0.803622
Si Si4 0.796059 0.541635 0.651369
Si Si5 0.000000 0.500000 0.500000
Si Si6 0.718645 0.389942 0.182099
Si Si7 0.190279 0.996453 0.255057
Si Si8 0.291623 0.983636 0.583107
O O1 0.500000 0.500000 0.500000
O O2 0.251756 0.464719 0.517154
O O3 0.351094 0.524144 0.752529
O O4 0.539980 0.828632 0.436683
O O5 0.592263 0.236371 0.130777
O O6 0.328257 0.091574 0.082262
O O7 0.621802 0.387879 0.804506
O O8 0.500000 0.000000 0.000000
O O9 0.900299 0.740766 0.663228
O O10 0.153660 0.927449 0.726176
O O11 0.912994 0.931360 0.806420
O O12 0.877002 0.587365 0.003085
O O13 0.886185 0.447018 0.679417
O O14 0.924131 0.254543 0.610652
O O15 0.736777 0.233763 0.344850
O O16 0.274689 0.066828 0.386008
#
# Coordination Sequence:
#
# PCOD9060588 Si02
#       8
#     2   2   2   2   1   2   2   2
#     4  12  27  44  73 109 149 192 239 298 366 433
#     4  11  23  43  73 107 140 190 243 296 352 435
#     4  11  27  48  74 106 144 191 244 303 361 428
#     4  11  25  44  72 106 143 189 243 292 355 433
#     4  12  24  42  72 106 136 184 242 300 338 434
#     4  11  26  47  73 105 150 190 239 303 368 427
#     4  12  25  44  75 105 143 185 246 296 361 426
#     4  12  24  49  75 106 144 198 239 302 363 435
#
# _framework density 24.653134999999999
#
# number of rings (size 3 to 8) (size 9 to 14) (size 15 to 20)
#    0.000    0.533    4.000    3.600    3.733    1.067 
#    0.000    0.667    0.000    0.000    0.000    0.000 
#    0.000    0.000    0.000    0.000    0.000    0.000 
#
# Total GULP energy -83674.802229 kJ/mol
# GULP energy per Si atom -5578.320149 kJ/mol
# Density = 2.459702 g / cm^3
# Si number density = 24.653135 Si / 1000 Ang^3
#
#
#
# Elastic Constant Matrix: (Units=GPa)
#
#
# Indices 1 2 3 4 5 6 
#
# 1 79.4111 29.4129 41.2709 1.9698 -35.8561 -4.2184
# 2 29.4129 64.2940 24.3680 6.4633 -6.0864 -6.3353
# 3 41.2709 24.3680 76.6792 -0.7136 -34.6683 -5.7759
# 4 1.9698 6.4633 -0.7136 40.1555 -0.9611 -9.8835
# 5 -35.8561 -6.0864 -34.6683 -0.9611 53.2383 0.7962
# 6 -4.2184 -6.3353 -5.7759 -9.8835 0.7962 46.9914
#
#
#
# Elastic Compliance Matrix: (Units=1/GPa)
#
#
# Indices 1 2 3 4 5 6 
#
# 1 0.023175 -0.007713 -0.004725 0.000384 0.011651 0.000343
# 2 -0.007713 0.020888 -0.005305 -0.002996 -0.006329 0.000949
# 3 -0.004725 -0.005305 0.022286 0.002202 0.010735 0.001881
# 4 0.000384 -0.002996 0.002202 0.026804 0.001751 0.005509
# 5 0.011651 -0.006329 0.010735 0.001751 0.032910 0.001323
# 6 0.000343 0.000949 0.001881 0.005509 0.001323 0.022807
#
#
# Mechanical properties :
#
#
# Convention : Reuss Voigt Hill
#
# Bulk Modulus (GPa) = 32.40049 45.60975 39.00512
# Shear Modulus (GPa) = 25.68820 36.43253 31.06036
#
# Velocity S-wave (km/s) = 3.23148 3.84839 3.55335
# Velocity P-wave (km/s) = 5.20523 6.18770 5.71760
#
# Compressibility (1/GPa) = 0.03086373
#
# Stress axis : x y z
#
# Youngs Moduli (GPa) = 43.15060 47.87427 44.87096
#
# Poissons Ratio (x) = 0.36925 0.21201
# Poissons Ratio (y) = 0.33281 0.23803
# Poissons Ratio (z) = 0.20388 0.25396
#
# Static dielectric constant tensor:
#      x y z
#    x 2.047750 0.004590 0.005740 
#    y 0.004590 1.945970 0.054960 
#    z 0.005740 0.054960 2.057510 
# 
# From -- ./inp_files/237695.got.cif
#   From: 2010.05.17/outbox.cif.g08.bks.cpg/sg2_119_cif.got.tgz:237695.got - 2010.06.03 11:33:40.
