data_PCOD9060198
_publ_section_title
;
Structure prediction by ZEFSAII (Michael W. Deem and Ramdas Pophale) SiO2 
 PCOD9060198
Probable space group: P -1
;
_chemical_formula_sum "Si O2"
_cell_formula_units_Z 16
_cell_length_a 20.541945
_cell_length_b 23.441988
_cell_length_c 6.766422
_cell_angle_alpha 57.354244
_cell_angle_beta 127.983953
_cell_angle_gamma 163.126318
_cell_volume 727.783054
_symmetry_space_group_name_H-M "P -1"
_symmetry_group_IT_number 2
_symmetry_cell_setting 'triclinic'
loop_
_space_group_symop_operation_xyz
x,y,z
-x,-y,-z
loop_
_atom_site_type_symbol
_atom_site_label
_atom_site_fract_x
_atom_site_fract_y
_atom_site_fract_z
Si Si1 0.274402 0.126106 0.385429
Si Si2 0.863386 0.041137 0.966809
Si Si3 0.610354 0.059581 0.298913
Si Si4 0.708125 0.263406 0.380326
Si Si5 0.937578 0.671095 0.245937
Si Si6 0.406734 0.672655 0.052669
Si Si7 0.502990 0.576425 0.966107
Si Si8 0.132810 0.169235 0.505221
O O1 0.208805 0.027996 0.262483
O O2 0.316811 0.234458 0.176484
O O3 0.517121 0.292942 0.651147
O O4 0.041130 0.938301 0.443299
O O5 0.644412 0.838204 0.056927
O O6 0.885312 0.136326 0.878631
O O7 0.113389 0.201848 0.217234
O O8 0.646511 0.153859 0.325257
O O9 0.881394 0.235325 0.461567
O O10 0.424621 0.863155 0.427576
O O11 0.500000 0.000000 0.000000
O O12 0.620091 0.267480 0.123423
O O13 0.000000 0.500000 0.500000
O O14 0.811493 0.531546 0.094784
O O15 0.741947 0.566329 0.197472
O O16 0.500000 0.500000 0.000000
O O17 0.614138 0.651447 0.252377
O O18 0.000000 0.000000 0.500000
#
# Coordination Sequence:
#
# PCOD9060198 Si02
#       8
#     2   2   2   2   2   2   2   2
#     4  11  24  44  67  96 141 188 236 291 348 419
#     4  11  24  45  67  97 142 183 232 288 351 416
#     4  11  27  48  76 111 147 185 238 295 363 439
#     4  11  24  48  75 108 146 184 235 297 363 438
#     4  12  25  47  70 101 146 182 231 295 356 421
#     4  11  24  45  70 104 138 186 230 287 357 422
#     4  12  26  42  66 106 138 186 249 289 348 422
#     4  11  23  43  67  91 132 190 233 296 353 397
#
# _framework density 21.984573999999999
#
# number of rings (size 3 to 8) (size 9 to 14) (size 15 to 20)
#    0.000    0.750    5.000    1.875    5.250    2.000 
#    0.000    0.000    0.000    0.000    0.000    0.000 
#    0.000    0.000    0.000    0.000    0.000    0.000 
#
# Total GULP energy -89331.875219 kJ/mol
# GULP energy per Si atom -5583.242201 kJ/mol
# Density = 2.193454 g / cm^3
# Si number density = 21.984574 Si / 1000 Ang^3
#
#
#
# Elastic Constant Matrix: (Units=GPa)
#
#
# Indices 1 2 3 4 5 6 
#
# 1 90.7131 33.8459 56.3953 11.6606 15.0799 -11.6491
# 2 33.8459 105.4942 53.2173 18.8764 -3.0205 -20.4109
# 3 56.3953 53.2173 191.1777 26.1348 9.4948 -7.0853
# 4 11.6606 18.8764 26.1348 30.8192 0.0232 8.2687
# 5 15.0799 -3.0205 9.4948 0.0232 35.1531 -2.9714
# 6 -11.6491 -20.4109 -7.0853 8.2687 -2.9714 42.6580
#
#
#
# Elastic Compliance Matrix: (Units=1/GPa)
#
#
# Indices 1 2 3 4 5 6 
#
# 1 0.015565 -0.002697 -0.003156 -0.002216 -0.005847 0.002458
# 2 -0.002697 0.014391 -0.001989 -0.008163 0.003583 0.007651
# 3 -0.003156 -0.001989 0.007272 -0.003773 -0.000773 0.000072
# 4 -0.002216 -0.008163 -0.003773 0.045214 0.000064 -0.013897
# 5 -0.005847 0.003583 -0.000773 0.000064 0.031656 0.002182
# 6 0.002458 0.007651 0.000072 -0.013897 0.002182 0.030632
#
#
# Mechanical properties :
#
#
# Convention : Reuss Voigt Hill
#
# Bulk Modulus (GPa) = 46.41652 74.92244 60.66948
# Shear Modulus (GPa) = 29.83376 37.98783 33.91080
#
# Velocity S-wave (km/s) = 3.68779 4.16135 3.93170
# Velocity P-wave (km/s) = 6.26834 7.56589 6.94747
#
# Compressibility (1/GPa) = 0.02154406
#
# Stress axis : x y z
#
# Youngs Moduli (GPa) = 64.24820 69.48669 137.50744
#
# Poissons Ratio (x) = 0.18739 0.43402
# Poissons Ratio (y) = 0.17326 0.27350
# Poissons Ratio (z) = 0.20279 0.13821
#
# Static dielectric constant tensor:
#      x y z
#    x 1.842930 0.084030 -0.029020 
#    y 0.084030 1.893740 -0.070520 
#    z -0.029020 -0.070520 2.065360 
# 
# From -- ./inp_files/120640.got.cif
#   From: 2010.05.17/outbox.cif.g08.bks.cpg/sg2_61_cif.got.tgz:120640.got - 2010.06.03 11:33:40.
