data_PCOD9060759
_publ_section_title
;
Structure prediction by ZEFSAII (Michael W. Deem and Ramdas Pophale) SiO2 
 PCOD9060759
Probable space group: P -1
;
_chemical_formula_sum "Si O2"
_cell_formula_units_Z 16
_cell_length_a 8.540220
_cell_length_b 20.189524
_cell_length_c 21.996061
_cell_angle_alpha 17.916489
_cell_angle_beta 33.960493
_cell_angle_gamma 41.089816
_cell_volume 637.683864
_symmetry_space_group_name_H-M "P -1"
_symmetry_group_IT_number 2
_symmetry_cell_setting 'triclinic'
loop_
_space_group_symop_operation_xyz
x,y,z
-x,-y,-z
loop_
_atom_site_type_symbol
_atom_site_label
_atom_site_fract_x
_atom_site_fract_y
_atom_site_fract_z
Si Si1 0.815711 0.647136 0.758592
Si Si2 0.896424 0.296808 0.962379
Si Si3 0.827770 0.261773 0.313639
Si Si4 0.786022 0.621139 0.577704
Si Si5 0.222879 0.003931 0.042512
Si Si6 0.052258 0.052004 0.655454
Si Si7 0.347206 0.170757 0.186228
Si Si8 0.568295 0.132155 0.026685
O O1 0.811967 0.856036 0.533239
O O2 0.971070 0.666892 0.755546
O O3 0.500000 0.500000 0.000000
O O4 0.010006 0.513963 0.773242
O O5 0.622324 0.336363 0.978282
O O6 0.805935 0.105166 0.209723
O O7 0.104102 0.212298 0.922492
O O8 0.541562 0.354471 0.325869
O O9 0.067075 0.271294 0.175146
O O10 0.720206 0.003756 0.586045
O O11 0.952647 0.736055 0.484580
O O12 0.969754 0.791663 0.321853
O O13 0.742403 0.377231 0.774391
O O14 0.281296 0.996822 0.958014
O O15 0.500000 0.000000 0.000000
O O16 0.742801 0.894256 0.881810
O O17 0.461744 0.043600 0.205036
#
# Coordination Sequence:
#
# PCOD9060759 Si02
#       8
#     2   2   2   2   2   2   2   2
#     4  12  25  45  72 108 145 189 240 297 357 434
#     4  11  23  47  71  99 144 188 233 295 368 417
#     4  11  23  44  66  98 147 180 229 302 352 423
#     4  11  24  45  73 103 141 190 242 291 368 426
#     4  11  23  46  72 102 145 186 240 307 352 424
#     4  11  24  46  70 105 147 184 242 293 351 431
#     4  11  23  44  66  99 141 183 229 296 355 421
#     4  12  24  45  75 103 140 192 243 293 363 426
#
# _framework density 25.090803999999999
#
# number of rings (size 3 to 8) (size 9 to 14) (size 15 to 20)
#    0.000    0.750    7.500    1.875    0.000    1.500 
#    2.250    0.625    0.000    0.000    0.000    0.000 
#    0.000    0.000    0.000    0.000    0.000    0.000 
#
# Total GULP energy -89173.509898 kJ/mol
# GULP energy per Si atom -5573.344369 kJ/mol
# Density = 2.503370 g / cm^3
# Si number density = 25.090804 Si / 1000 Ang^3
#
#
#
# Elastic Constant Matrix: (Units=GPa)
#
#
# Indices 1 2 3 4 5 6 
#
# 1 107.1753 36.0089 20.7327 5.5983 -15.7845 12.3611
# 2 36.0089 143.2126 14.2056 5.6326 3.9720 19.7457
# 3 20.7327 14.2056 69.0414 9.0520 -15.9240 -0.9246
# 4 5.5983 5.6326 9.0520 41.8799 13.9853 -2.6273
# 5 -15.7845 3.9720 -15.9240 13.9853 47.2544 0.7092
# 6 12.3611 19.7457 -0.9246 -2.6273 0.7092 44.0181
#
#
#
# Elastic Compliance Matrix: (Units=1/GPa)
#
#
# Indices 1 2 3 4 5 6 
#
# 1 0.011492 -0.002414 -0.001699 -0.002402 0.004216 -0.002392
# 2 -0.002414 0.008201 -0.001448 -0.000009 -0.001936 -0.003001
# 3 -0.001699 -0.001448 0.017724 -0.005753 0.007214 0.001039
# 4 -0.002402 -0.000009 -0.005753 0.029437 -0.011490 0.002500
# 5 0.004216 -0.001936 0.007214 -0.011490 0.028584 -0.001310
# 6 -0.002392 -0.003001 0.001039 0.002500 -0.001310 0.024928
#
#
# Mechanical properties :
#
#
# Convention : Reuss Voigt Hill
#
# Bulk Modulus (GPa) = 38.02889 51.25819 44.64354
# Shear Modulus (GPa) = 35.64956 43.19596 39.42276
#
# Velocity S-wave (km/s) = 3.77347 4.15370 3.96814
# Velocity P-wave (km/s) = 5.84592 6.59376 6.23107
#
# Compressibility (1/GPa) = 0.02629580
#
# Stress axis : x y z
#
# Youngs Moduli (GPa) = 87.01391 121.93704 56.41984
#
# Poissons Ratio (x) = 0.29433 0.09586
# Poissons Ratio (y) = 0.21003 0.08170
# Poissons Ratio (z) = 0.14785 0.17657
#
# Static dielectric constant tensor:
#      x y z
#    x 2.090370 0.036830 0.028780 
#    y 0.036830 2.054630 0.021710 
#    z 0.028780 0.021710 2.078280 
# 
# From -- ./inp_files/608628.got.cif
#   From: 2010.05.17/outbox.cif.g08.bks.cpg/sg2_305_cif.got.tgz:608628.got - 2010.06.03 11:33:40.
