data_PCOD9060957
_publ_section_title
;
Structure prediction by ZEFSAII (Michael W. Deem and Ramdas Pophale) SiO2 
 PCOD9060957
Probable space group: P -1
;
_chemical_formula_sum "Si O2"
_cell_formula_units_Z 16
_cell_length_a 12.678277
_cell_length_b 10.785332
_cell_length_c 11.076884
_cell_angle_alpha 121.582097
_cell_angle_beta 56.595266
_cell_angle_gamma 76.310180
_cell_volume 726.596042
_symmetry_space_group_name_H-M "P -1"
_symmetry_group_IT_number 2
_symmetry_cell_setting 'triclinic'
loop_
_space_group_symop_operation_xyz
x,y,z
-x,-y,-z
loop_
_atom_site_type_symbol
_atom_site_label
_atom_site_fract_x
_atom_site_fract_y
_atom_site_fract_z
Si Si1 0.221565 0.320924 0.241659
Si Si2 0.756358 0.902021 0.330572
Si Si3 0.274011 0.946542 0.014743
Si Si4 0.956331 0.254107 0.750735
Si Si5 0.609330 0.531823 0.704804
Si Si6 0.210359 0.869062 0.766635
Si Si7 0.656744 0.715636 0.129198
Si Si8 0.923529 0.171931 0.475180
O O1 0.302996 0.380514 0.303574
O O2 0.000000 0.500000 0.500000
O O3 0.271794 0.318592 0.069561
O O4 0.308967 0.086839 0.084703
O O5 0.727626 0.787025 0.205420
O O6 0.917414 0.747699 0.249811
O O7 0.797392 0.003198 0.268404
O O8 0.565639 0.095826 0.622328
O O9 0.390073 0.750008 0.936353
O O10 0.312719 0.856628 0.809995
O O11 0.051818 0.114523 0.255803
O O12 0.988757 0.215286 0.567619
O O13 0.744958 0.491701 0.011972
O O14 0.015387 0.044070 0.648927
O O15 0.678274 0.366157 0.471544
O O16 0.705860 0.377801 0.684214
O O17 0.000000 0.000000 0.000000
#
# Coordination Sequence:
#
# PCOD9060957 Si02
#       8
#     2   2   2   2   2   2   2   2
#     4  12  23  48  71 102 143 185 232 295 346 416
#     4  11  25  45  69 102 141 182 233 284 346 419
#     4  12  25  45  72 100 139 184 234 289 353 413
#     4  11  23  44  70  96 141 181 228 280 352 416
#     4  12  25  43  69 106 134 181 234 287 358 403
#     4  12  23  48  71 102 143 185 232 295 346 416
#     4  11  25  45  69 102 141 182 233 284 346 419
#     4  11  24  42  68 105 130 179 234 286 344 416
#
# _framework density 22.020489000000001
#
# number of rings (size 3 to 8) (size 9 to 14) (size 15 to 20)
#    0.000    0.500    6.250    1.125    3.500    0.000 
#    4.500    3.125    0.000    0.000    0.000    0.000 
#    0.000    0.000    0.000    0.000    0.000    0.000 
#
# Total GULP energy -89329.953672 kJ/mol
# GULP energy per Si atom -5583.122105 kJ/mol
# Density = 2.197037 g / cm^3
# Si number density = 22.020489 Si / 1000 Ang^3
#
#
#
# Elastic Constant Matrix: (Units=GPa)
#
#
# Indices 1 2 3 4 5 6 
#
# 1 60.9687 10.2098 16.4130 1.4945 19.9704 -5.2126
# 2 10.2098 94.3699 41.2323 22.4628 2.6629 -3.3686
# 3 16.4130 41.2323 80.2431 15.9963 5.5516 1.5014
# 4 1.4945 22.4628 15.9963 45.5545 -0.3382 2.6302
# 5 19.9704 2.6629 5.5516 -0.3382 40.1254 9.0556
# 6 -5.2126 -3.3686 1.5014 2.6302 9.0556 32.3117
#
#
#
# Elastic Compliance Matrix: (Units=1/GPa)
#
#
# Indices 1 2 3 4 5 6 
#
# 1 0.021964 -0.000204 -0.003729 0.000194 -0.011989 0.007040
# 2 -0.000204 0.014803 -0.006547 -0.005136 -0.000558 0.002389
# 3 -0.003729 -0.006547 0.017108 -0.002541 0.000346 -0.001969
# 4 0.000194 -0.005136 -0.002541 0.025547 0.001460 -0.002875
# 5 -0.011989 -0.000558 0.000346 0.001460 0.033488 -0.011513
# 6 0.007040 0.002389 -0.001969 -0.002875 -0.011513 0.035885
#
#
# Mechanical properties :
#
#
# Convention : Reuss Voigt Hill
#
# Bulk Modulus (GPa) = 30.38018 41.25464 35.81741
# Shear Modulus (GPa) = 27.66625 34.78009 31.22317
#
# Velocity S-wave (km/s) = 3.54840 3.97853 3.76961
# Velocity P-wave (km/s) = 5.53303 6.31508 5.93695
#
# Compressibility (1/GPa) = 0.03291619
#
# Stress axis : x y z
#
# Youngs Moduli (GPa) = 45.52925 67.55602 58.45141
#
# Poissons Ratio (x) = 0.01376 0.21795
# Poissons Ratio (y) = 0.00927 0.38267
# Poissons Ratio (z) = 0.16977 0.44228
#
# Static dielectric constant tensor:
#      x y z
#    x 1.833690 -0.003460 0.027700 
#    y -0.003460 1.820990 0.015210 
#    z 0.027700 0.015210 1.778530 
# 
# From -- ./inp_files/428877.got.cif
#   From: 2010.05.17/outbox.cif.g08.bks.cpg/sg2_215_cif.got.tgz:428877.got - 2010.06.03 11:33:40.
