data_PCOD9060069
_publ_section_title
;
Structure prediction by ZEFSAII (Michael W. Deem and Ramdas Pophale) SiO2 
 PCOD9060069
Probable space group: P -1
;
_chemical_formula_sum "Si O2"
_cell_formula_units_Z 16
_cell_length_a 15.128169
_cell_length_b 15.582576
_cell_length_c 15.170474
_cell_angle_alpha 152.986872
_cell_angle_beta 29.355158
_cell_angle_gamma 134.132252
_cell_volume 742.831261
_symmetry_space_group_name_H-M "P -1"
_symmetry_group_IT_number 2
_symmetry_cell_setting 'triclinic'
loop_
_space_group_symop_operation_xyz
x,y,z
-x,-y,-z
loop_
_atom_site_type_symbol
_atom_site_label
_atom_site_fract_x
_atom_site_fract_y
_atom_site_fract_z
Si Si1 0.857395 0.399114 0.345561
Si Si2 0.621777 0.101121 0.430155
Si Si3 0.623627 0.099774 0.748150
Si Si4 0.091293 0.156352 0.599033
Si Si5 0.434742 0.435999 0.756684
Si Si6 0.198458 0.201255 0.156453
Si Si7 0.124380 0.953383 0.687859
Si Si8 0.020584 0.475775 0.093021
O O1 0.651163 0.386132 0.485067
O O2 0.838706 0.559562 0.586940
O O3 0.941934 0.477059 0.259852
O O4 0.999311 0.174143 0.035884
O O5 0.484063 0.286825 0.661570
O O6 0.742684 0.170079 0.461042
O O7 0.500000 0.000000 0.500000
O O8 0.760487 0.922287 0.083756
O O9 0.750562 0.012052 0.470214
O O10 0.712339 0.982246 0.651897
O O11 0.624848 0.326712 0.954261
O O12 0.407281 0.106010 0.933581
O O13 0.084154 0.310530 0.668178
O O14 0.982574 0.306313 0.910617
O O15 0.000000 0.000000 0.500000
O O16 0.253796 0.421380 0.846133
O O17 0.023911 0.153679 0.309481
#
# Coordination Sequence:
#
# PCOD9060069 Si02
#       8
#     2   2   2   2   2   2   2   2
#     4  11  25  43  70 101 135 182 228 276 341 405
#     4  12  24  44  69 102 139 185 232 281 337 402
#     4  11  23  47  70  97 139 182 227 283 344 407
#     4  11  23  42  75 103 133 178 230 278 345 414
#     4  11  24  45  69  99 140 182 228 277 342 405
#     4  11  25  44  67 100 136 182 228 281 334 403
#     4  12  24  44  70  95 142 184 225 283 338 400
#     4  11  23  45  72 100 139 181 218 284 347 405
#
# _framework density 21.539213
#
# number of rings (size 3 to 8) (size 9 to 14) (size 15 to 20)
#    0.000    0.750    5.000    2.625    0.000    1.000 
#    2.250    6.250    0.000    0.000    0.000    0.000 
#    0.000    0.000    0.000    0.000    0.000    0.000 
#
# Total GULP energy -89345.696021 kJ/mol
# GULP energy per Si atom -5584.106001 kJ/mol
# Density = 2.149019 g / cm^3
# Si number density = 21.539213 Si / 1000 Ang^3
#
#
#
# Elastic Constant Matrix: (Units=GPa)
#
#
# Indices 1 2 3 4 5 6 
#
# 1 114.2189 48.2924 31.2248 11.2561 -18.7265 17.6245
# 2 48.2924 89.5697 32.9164 18.6980 -8.2986 11.3713
# 3 31.2248 32.9164 68.4580 18.8624 -20.9073 1.8574
# 4 11.2561 18.6980 18.8624 34.2536 2.5460 -6.5523
# 5 -18.7265 -8.2986 -20.9073 2.5460 24.9866 -1.2494
# 6 17.6245 11.3713 1.8574 -6.5523 -1.2494 34.3243
#
#
#
# Elastic Compliance Matrix: (Units=1/GPa)
#
#
# Indices 1 2 3 4 5 6 
#
# 1 0.013483 -0.005061 -0.000083 -0.003313 0.008414 -0.005568
# 2 -0.005061 0.017199 -0.004802 -0.005718 -0.001716 -0.003993
# 3 -0.000083 -0.004802 0.028330 -0.015066 0.023487 -0.001921
# 4 -0.003313 -0.005718 -0.015066 0.045626 -0.021019 0.012355
# 5 0.008414 -0.001716 0.023487 -0.021019 0.067223 -0.006588
# 6 -0.005568 -0.003993 -0.001921 0.012355 -0.006588 0.035538
#
#
# Mechanical properties :
#
#
# Convention : Reuss Voigt Hill
#
# Bulk Modulus (GPa) = 25.56132 55.23490 40.39811
# Shear Modulus (GPa) = 20.80468 29.36711 25.08589
#
# Velocity S-wave (km/s) = 3.11126 3.69646 3.41642
# Velocity P-wave (km/s) = 4.97993 6.62707 5.86164
#
# Compressibility (1/GPa) = 0.03912161
#
# Stress axis : x y z
#
# Youngs Moduli (GPa) = 74.16954 58.14159 35.29783
#
# Poissons Ratio (x) = 0.29425 0.00292
# Poissons Ratio (y) = 0.37536 0.16949
# Poissons Ratio (z) = 0.00614 0.27918
#
# Static dielectric constant tensor:
#      x y z
#    x 1.797550 0.036480 -0.004510 
#    y 0.036480 1.785390 0.004750 
#    z -0.004510 0.004750 1.818740 
# 
# From -- ./inp_files/534496.got.cif
#   From: 2010.05.17/outbox.cif.g08.bks.cpg/sg2_268_cif.got.tgz:534496.got - 2010.06.03 11:33:40.
