data_PCOD9060241
_publ_section_title
;
Structure prediction by ZEFSAII (Michael W. Deem and Ramdas Pophale) SiO2 
 PCOD9060241
Probable space group: P -1
;
_chemical_formula_sum "Si O2"
_cell_formula_units_Z 11
_cell_length_a 16.319112
_cell_length_b 5.751212
_cell_length_c 7.589240
_cell_angle_alpha 62.164232
_cell_angle_beta 39.451947
_cell_angle_gamma 55.142408
_cell_volume 370.950463
_symmetry_space_group_name_H-M "P -1"
_symmetry_group_IT_number 2
_symmetry_cell_setting 'triclinic'
loop_
_space_group_symop_operation_xyz
x,y,z
-x,-y,-z
loop_
_atom_site_type_symbol
_atom_site_label
_atom_site_fract_x
_atom_site_fract_y
_atom_site_fract_z
Si Si1 0.001315 0.814310 0.888202
Si Si2 0.534016 0.224405 0.242348
Si Si3 0.801219 0.745367 0.825138
Si Si4 0.000000 0.000000 0.500000
Si Si5 0.721154 0.263845 0.185797
Si Si6 0.356041 0.163075 0.284567
O O1 0.102860 0.827054 0.562895
O O2 0.000000 0.500000 0.000000
O O3 0.862454 0.045049 0.932590
O O4 0.000000 0.000000 0.000000
O O5 0.589465 0.395369 0.228334
O O6 0.405585 0.343792 0.281007
O O7 0.500000 0.000000 0.500000
O O8 0.673831 0.034874 0.979654
O O9 0.764070 0.692236 0.706567
O O10 0.952143 0.732959 0.623237
O O11 0.767266 0.512970 0.084630
O O12 0.689594 0.062702 0.450675
O O13 0.500000 0.000000 0.000000
#
# Coordination Sequence:
#
# PCOD9060241 Si02
#       6
#     2   2   2   1   2   2
#     4  12  28  49  77 111 156 208 262 325 392 473
#     4   9  20  41  66 101 139 185 241 308 375 446
#     4  11  23  43  68 103 149 195 251 311 381 459
#     4  12  26  48  76 110 154 206 266 318 392 464
#     4  11  23  44  71 103 147 197 246 319 394 449
#     4   9  21  41  71 107 145 188 259 312 383 466
#
# _framework density 29.653556999999999
#
# number of rings (size 3 to 8) (size 9 to 14) (size 15 to 20)
#    0.000    1.455    1.818    2.182    0.000   11.636 
#    0.000    3.636    0.000    0.000    0.000    0.000 
#    0.000    0.000    0.000    0.000    0.000    0.000 
#
# Total GULP energy -61347.966243 kJ/mol
# GULP energy per Si atom -5577.087840 kJ/mol
# Density = 2.958606 g / cm^3
# Si number density = 29.653557 Si / 1000 Ang^3
#
#
#
# Elastic Constant Matrix: (Units=GPa)
#
#
# Indices 1 2 3 4 5 6 
#
# 1 256.3340 51.9255 66.7340 1.4564 -22.8094 11.5444
# 2 51.9255 135.0649 53.3103 3.6984 -1.9280 8.3103
# 3 66.7340 53.3103 149.6839 -27.9116 -38.5439 10.2459
# 4 1.4564 3.6984 -27.9116 57.8236 3.8887 -13.0461
# 5 -22.8094 -1.9280 -38.5439 3.8887 57.2067 -1.5432
# 6 11.5444 8.3103 10.2459 -13.0461 -1.5432 48.7552
#
#
#
# Elastic Compliance Matrix: (Units=1/GPa)
#
#
# Indices 1 2 3 4 5 6 
#
# 1 0.004655 -0.001044 -0.001654 -0.001090 0.000758 -0.000844
# 2 -0.001044 0.009500 -0.004000 -0.002632 -0.002648 -0.001319
# 3 -0.001654 -0.004000 0.011552 0.005502 0.006624 0.000328
# 4 -0.001090 -0.002632 0.005502 0.021212 0.001884 0.005286
# 5 0.000758 -0.002648 0.006624 0.001884 0.022030 0.000081
# 6 -0.000844 -0.001319 0.000328 0.005286 0.000081 0.022284
#
#
# Mechanical properties :
#
#
# Convention : Reuss Voigt Hill
#
# Bulk Modulus (GPa) = 81.23241 98.33583 89.78412
# Shear Modulus (GPa) = 45.98491 57.36462 51.67477
#
# Velocity S-wave (km/s) = 3.94221 4.40306 4.17899
# Velocity P-wave (km/s) = 6.94080 7.68653 7.32316
#
# Compressibility (1/GPa) = 0.01231036
#
# Stress axis : x y z
#
# Youngs Moduli (GPa) = 214.82824 105.26812 86.56604
#
# Poissons Ratio (x) = 0.10992 0.14316
# Poissons Ratio (y) = 0.22432 0.34627
# Poissons Ratio (z) = 0.35527 0.42108
#
# Static dielectric constant tensor:
#      x y z
#    x 2.440050 0.056740 -0.047710 
#    y 0.056740 2.273900 -0.143880 
#    z -0.047710 -0.143880 1.972120 
# 
# From -- ./inp_files/130369.got.cif
#   From: 2010.05.17/outbox.cif.g08.bks.cpg/sg2_66_cif.got.tgz:130369.got - 2010.06.03 11:33:40.
