data_PCOD9060340
_publ_section_title
;
Structure prediction by ZEFSAII (Michael W. Deem and Ramdas Pophale) SiO2 
 PCOD9060340
Probable space group: P -1
;
_chemical_formula_sum "Si O2"
_cell_formula_units_Z 12
_cell_length_a 8.983293
_cell_length_b 8.628614
_cell_length_c 12.910320
_cell_angle_alpha 110.969389
_cell_angle_beta 76.184934
_cell_angle_gamma 147.551286
_cell_volume 497.366042
_symmetry_space_group_name_H-M "P -1"
_symmetry_group_IT_number 2
_symmetry_cell_setting 'triclinic'
loop_
_space_group_symop_operation_xyz
x,y,z
-x,-y,-z
loop_
_atom_site_type_symbol
_atom_site_label
_atom_site_fract_x
_atom_site_fract_y
_atom_site_fract_z
Si Si1 0.725133 0.483160 0.325257
Si Si2 0.284159 0.657358 0.478952
Si Si3 0.426722 0.499499 0.264156
Si Si4 0.213574 0.807604 0.191053
Si Si5 0.916821 0.087866 0.940197
Si Si6 0.545337 0.329351 0.909690
O O1 0.672331 0.402734 0.435265
O O2 0.637767 0.584578 0.321159
O O3 0.036321 0.713926 0.295314
O O4 0.516121 0.167864 0.226626
O O5 0.290603 0.524099 0.357447
O O6 0.000000 0.500000 0.500000
O O7 0.500000 0.000000 0.500000
O O8 0.203229 0.167938 0.173377
O O9 0.568135 0.708860 0.189963
O O10 0.271703 0.667161 0.146825
O O11 0.052531 0.729633 0.099021
O O12 0.781950 0.666334 0.998602
O O13 0.686382 0.919305 0.025600
#
# Coordination Sequence:
#
# PCOD9060340 Si02
#       6
#     2   2   2   2   2   2
#     4  11  24  45  68 100 133 170 216 271 332 390
#     4  12  27  48  73  99 127 169 221 275 333 394
#     4  11  26  44  68  98 135 174 216 273 330 389
#     4  11  23  43  69  98 134 176 220 269 320 383
#     4  11  24  41  64  99 135 177 221 267 320 382
#     4  12  23  41  66  98 135 178 222 265 316 386
#
# _framework density 24.127099999999999
#
# number of rings (size 3 to 8) (size 9 to 14) (size 15 to 20)
#    0.000    0.667    0.000    8.500    0.000    8.000 
#    0.000    5.833    0.000    0.000    0.000    0.000 
#    0.000    0.000    0.000    0.000    0.000    0.000 
#
# Total GULP energy -67247.848575 kJ/mol
# GULP energy per Si atom -5603.987381 kJ/mol
# Density = 2.407219 g / cm^3
# Si number density = 24.127100 Si / 1000 Ang^3
#
#
#
# Elastic Constant Matrix: (Units=GPa)
#
#
# Indices 1 2 3 4 5 6 
#
# 1 126.3051 27.4789 86.7580 -17.7777 -6.1577 -14.4058
# 2 27.4789 105.6449 36.0777 -28.3870 -6.8503 13.3883
# 3 86.7580 36.0777 150.7957 -34.7005 -2.4622 -13.1724
# 4 -17.7777 -28.3870 -34.7005 36.6697 -5.2817 0.1236
# 5 -6.1577 -6.8503 -2.4622 -5.2817 59.5829 -4.4046
# 6 -14.4058 13.3883 -13.1724 0.1236 -4.4046 39.5416
#
#
#
# Elastic Compliance Matrix: (Units=1/GPa)
#
#
# Indices 1 2 3 4 5 6 
#
# 1 0.013644 -0.001793 -0.007536 -0.001775 0.000970 0.003181
# 2 -0.001793 0.013357 -0.000439 0.009329 0.001778 -0.005153
# 3 -0.007536 -0.000439 0.013223 0.008603 0.000617 0.001850
# 4 -0.001775 0.009329 0.008603 0.042491 0.004973 -0.000518
# 5 0.000970 0.001778 0.000617 0.004973 0.017696 0.001912
# 6 0.003181 -0.005153 0.001850 -0.000518 0.001912 0.029024
#
#
# Mechanical properties :
#
#
# Convention : Reuss Voigt Hill
#
# Bulk Modulus (GPa) = 48.33142 75.93056 62.13099
# Shear Modulus (GPa) = 32.07905 42.65425 37.36665
#
# Velocity S-wave (km/s) = 3.65030 4.20920 3.93968
# Velocity P-wave (km/s) = 6.15157 7.42715 6.81925
#
# Compressibility (1/GPa) = 0.02069048
#
# Stress axis : x y z
#
# Youngs Moduli (GPa) = 73.29370 74.86813 75.62458
#
# Poissons Ratio (x) = 0.13421 0.56988
# Poissons Ratio (y) = 0.13138 0.03316
# Poissons Ratio (z) = 0.55231 0.03283
#
# Static dielectric constant tensor:
#      x y z
#    x 1.965610 -0.041890 0.042810 
#    y -0.041890 1.888420 0.005350 
#    z 0.042810 0.005350 1.915790 
# 
# From -- ./inp_files/35664.got.cif
#   From: 2010.05.17/outbox.cif.g08.bks.cpg/sg2_18_cif.got.tgz:35664.got - 2010.06.03 11:33:40.
