data_PCOD9060830
_publ_section_title
;
Structure prediction by ZEFSAII (Michael W. Deem and Ramdas Pophale) SiO2 
 PCOD9060830
Probable space group: P -1
;
_chemical_formula_sum "Si O2"
_cell_formula_units_Z 14
_cell_length_a 17.355428
_cell_length_b 9.304539
_cell_length_c 12.253005
_cell_angle_alpha 128.390872
_cell_angle_beta 138.098426
_cell_angle_gamma 31.390118
_cell_volume 687.713538
_symmetry_space_group_name_H-M "P -1"
_symmetry_group_IT_number 2
_symmetry_cell_setting 'triclinic'
loop_
_space_group_symop_operation_xyz
x,y,z
-x,-y,-z
loop_
_atom_site_type_symbol
_atom_site_label
_atom_site_fract_x
_atom_site_fract_y
_atom_site_fract_z
Si Si1 0.194871 0.975112 0.652030
Si Si2 0.662179 0.170593 0.508291
Si Si3 0.459327 0.247874 0.023904
Si Si4 0.556146 0.874826 0.279563
Si Si5 0.822143 0.252112 0.871423
Si Si6 0.831016 0.569948 0.852155
Si Si7 0.817327 0.439629 0.531440
O O1 0.244066 0.924005 0.553004
O O2 0.353743 0.876437 0.837681
O O3 0.184532 0.776861 0.582521
O O4 0.005214 0.287460 0.616624
O O5 0.500000 0.500000 0.500000
O O6 0.779195 0.112474 0.699772
O O7 0.597492 0.040892 0.388830
O O8 0.328262 0.510481 0.089710
O O9 0.384082 0.305832 0.850778
O O10 0.500000 0.000000 0.000000
O O11 0.657758 0.696549 0.411020
O O12 0.347880 0.104709 0.169520
O O13 0.838530 0.399679 0.870825
O O14 0.000000 0.000000 0.000000
O O15 0.809627 0.502743 0.679394
O O16 0.000000 0.500000 0.000000
#
# Coordination Sequence:
#
# PCOD9060830 Si02
#       7
#     2   2   2   2   2   2   2
#     4  11  23  44  68  94 140 179 221 282 350 396
#     4  12  21  46  72  95 135 181 226 286 334 401
#     4  12  23  45  72  99 136 178 229 289 336 396
#     4  12  26  43  73 103 131 181 236 279 339 407
#     4  12  28  43  72 104 136 179 232 283 347 399
#     4  12  25  45  65  96 143 177 220 281 342 403
#     4  11  27  42  68 101 137 180 225 276 345 420
#
# _framework density 20.357313000000001
#
# number of rings (size 3 to 8) (size 9 to 14) (size 15 to 20)
#    0.000    0.286    7.143    1.286    4.000    2.286 
#    0.000    0.000    0.000    0.000    0.000    0.000 
#    0.000    0.000    0.000    0.000    0.000    0.000 
#
# Total GULP energy -78272.739447 kJ/mol
# GULP energy per Si atom -5590.909960 kJ/mol
# Density = 2.031098 g / cm^3
# Si number density = 20.357313 Si / 1000 Ang^3
#
#
#
# Elastic Constant Matrix: (Units=GPa)
#
#
# Indices 1 2 3 4 5 6 
#
# 1 87.3174 44.0751 49.1620 -13.7049 6.7888 -12.8471
# 2 44.0751 78.8379 41.0431 -20.0128 -7.5019 -7.6951
# 3 49.1620 41.0431 171.4450 -13.9554 0.3503 -0.9052
# 4 -13.7049 -20.0128 -13.9554 40.9652 2.5188 -1.1954
# 5 6.7888 -7.5019 0.3503 2.5188 40.4080 2.0553
# 6 -12.8471 -7.6951 -0.9052 -1.1954 2.0553 24.5787
#
#
#
# Elastic Compliance Matrix: (Units=1/GPa)
#
#
# Indices 1 2 3 4 5 6 
#
# 1 0.019452 -0.008389 -0.003369 0.001821 -0.005314 0.007950
# 2 -0.008389 0.020690 -0.002029 0.006373 0.004773 0.001929
# 3 -0.003369 -0.002029 0.007296 0.000292 0.000216 -0.002131
# 4 0.001821 0.006373 0.000292 0.028432 -0.001123 0.004434
# 5 -0.005314 0.004773 0.000216 -0.001123 0.026776 -0.003569
# 6 0.007950 0.001929 -0.002131 0.004434 -0.003569 0.045881
#
#
# Mechanical properties :
#
#
# Convention : Reuss Voigt Hill
#
# Bulk Modulus (GPa) = 50.33417 67.35120 58.84268
# Shear Modulus (GPa) = 27.36409 34.74505 31.05457
#
# Velocity S-wave (km/s) = 3.67030 4.13578 3.90997
# Velocity P-wave (km/s) = 6.53762 7.48081 7.02506
#
# Compressibility (1/GPa) = 0.01986722
#
# Stress axis : x y z
#
# Youngs Moduli (GPa) = 51.40842 48.33174 137.05306
#
# Poissons Ratio (x) = 0.40544 0.46168
# Poissons Ratio (y) = 0.43125 0.27801
# Poissons Ratio (z) = 0.17318 0.09804
#
# Static dielectric constant tensor:
#      x y z
#    x 1.768960 -0.019110 0.044280 
#    y -0.019110 1.714710 -0.004530 
#    z 0.044280 -0.004530 1.868120 
# 
# From -- ./inp_files/157596.got.cif
#   From: 2010.05.17/outbox.cif.g08.bks.cpg/sg2_79_cif.got.tgz:157596.got - 2010.06.03 11:33:40.
