data_PCOD9060000
_publ_section_title
;
Structure prediction by ZEFSAII (Michael W. Deem and Ramdas Pophale) SiO2 
 PCOD9060000
Probable space group: P -1
;
_chemical_formula_sum "Si O2"
_cell_formula_units_Z 16
_cell_length_a 6.030247
_cell_length_b 15.872250
_cell_length_c 15.281469
_cell_angle_alpha 143.897727
_cell_angle_beta 70.087568
_cell_angle_gamma 119.719139
_cell_volume 743.314741
_symmetry_space_group_name_H-M "P -1"
_symmetry_group_IT_number 2
_symmetry_cell_setting 'triclinic'
loop_
_space_group_symop_operation_xyz
x,y,z
-x,-y,-z
loop_
_atom_site_type_symbol
_atom_site_label
_atom_site_fract_x
_atom_site_fract_y
_atom_site_fract_z
Si Si1 0.043781 0.341302 0.361248
Si Si2 0.784501 0.354808 0.695531
Si Si3 0.191253 0.922866 0.952390
Si Si4 0.233854 0.635376 0.966603
Si Si5 0.578242 0.507876 0.706368
Si Si6 0.041381 0.875581 0.129851
Si Si7 0.512153 0.672535 0.129841
Si Si8 0.117595 0.224402 0.444199
O O1 0.288740 0.381125 0.298966
O O2 0.083189 0.284382 0.402989
O O3 0.000000 0.500000 0.500000
O O4 0.821950 0.207006 0.225771
O O5 0.750633 0.449037 0.695279
O O6 0.535283 0.276365 0.724231
O O7 0.985267 0.490069 0.843073
O O8 0.890998 0.231389 0.541947
O O9 0.047305 0.860505 0.011583
O O10 0.500000 0.000000 0.000000
O O11 0.000000 0.000000 0.000000
O O12 0.456817 0.595991 0.859776
O O13 0.229401 0.796154 0.069841
O O14 0.282967 0.654083 0.078460
O O15 0.368725 0.352172 0.561780
O O16 0.772986 0.780629 0.136424
O O17 0.123160 0.056083 0.293267
O O18 0.500000 0.500000 0.000000
#
# Coordination Sequence:
#
# PCOD9060000 Si02
#       8
#     2   2   2   2   2   2   2   2
#     4  12  25  46  76 108 144 205 253 308 382 459
#     4  11  23  45  70 104 137 186 249 312 367 455
#     4  12  30  51  78 116 161 201 257 323 387 461
#     4  11  23  42  73 101 141 183 246 309 374 454
#     4  11  24  44  72 104 141 189 258 305 371 455
#     4  12  28  45  71 110 148 198 240 308 393 447
#     4  12  24  44  76 105 139 187 254 311 379 452
#     4  11  27  45  68 104 151 191 248 308 386 451
#
# _framework density 21.525200999999999
#
# number of rings (size 3 to 8) (size 9 to 14) (size 15 to 20)
#    0.000    0.500    5.000    2.250    7.000    1.500 
#    0.000    1.250    0.000    0.000    0.000    0.000 
#    0.000    0.000    0.000    0.000    0.000    0.000 
#
# Total GULP energy -89370.832337 kJ/mol
# GULP energy per Si atom -5585.677021 kJ/mol
# Density = 2.147621 g / cm^3
# Si number density = 21.525201 Si / 1000 Ang^3
#
#
#
# Elastic Constant Matrix: (Units=GPa)
#
#
# Indices 1 2 3 4 5 6 
#
# 1 58.5214 9.9879 17.6656 18.5056 3.5913 -17.7946
# 2 9.9879 98.4311 11.3502 -6.8299 6.3655 -14.5069
# 3 17.6656 11.3502 105.1676 15.8972 -3.5066 -21.8365
# 4 18.5056 -6.8299 15.8972 37.2437 -4.8156 -7.1895
# 5 3.5913 6.3655 -3.5066 -4.8156 30.3504 4.5454
# 6 -17.7946 -14.5069 -21.8365 -7.1895 4.5454 45.3461
#
#
#
# Elastic Compliance Matrix: (Units=1/GPa)
#
#
# Indices 1 2 3 4 5 6 
#
# 1 0.023590 -0.001666 -0.000820 -0.010993 -0.005348 0.007122
# 2 -0.001666 0.011316 -0.000870 0.003636 -0.002201 0.003344
# 3 -0.000820 -0.000870 0.011171 -0.003670 0.000365 0.004161
# 4 -0.010993 0.003636 -0.003670 0.035303 0.005700 0.000108
# 5 -0.005348 -0.002201 0.000365 0.005700 0.035785 -0.005310
# 6 0.007122 0.003344 0.004161 0.000108 -0.005310 0.028470
#
#
# Mechanical properties :
#
#
# Convention : Reuss Voigt Hill
#
# Bulk Modulus (GPa) = 25.40407 37.79195 31.59801
# Shear Modulus (GPa) = 30.21685 37.46247 33.83966
#
# Velocity S-wave (km/s) = 3.75078 4.17634 3.96927
# Velocity P-wave (km/s) = 5.53041 6.39147 5.97647
#
# Compressibility (1/GPa) = 0.03936378
#
# Stress axis : x y z
#
# Youngs Moduli (GPa) = 42.39102 88.36816 89.51622
#
# Poissons Ratio (x) = 0.14726 0.07344
# Poissons Ratio (y) = 0.07064 0.07787
# Poissons Ratio (z) = 0.03478 0.07687
#
# Static dielectric constant tensor:
#      x y z
#    x 1.833870 0.067600 -0.018310 
#    y 0.067600 1.757630 0.025990 
#    z -0.018310 0.025990 1.745950 
# 
# From -- ./inp_files/484463.got.cif
#   From: 2010.05.17/outbox.cif.g08.bks.cpg/sg2_243_cif.got.tgz:484463.got - 2010.06.03 11:33:40.
