data_PCOD9060722
_publ_section_title
;
Structure prediction by ZEFSAII (Michael W. Deem and Ramdas Pophale) SiO2 
 PCOD9060722
Probable space group: P -1
;
_chemical_formula_sum "Si O2"
_cell_formula_units_Z 14
_cell_length_a 11.572065
_cell_length_b 9.443657
_cell_length_c 14.519759
_cell_angle_alpha 150.155528
_cell_angle_beta 122.465740
_cell_angle_gamma 44.992934
_cell_volume 544.899821
_symmetry_space_group_name_H-M "P -1"
_symmetry_group_IT_number 2
_symmetry_cell_setting 'triclinic'
loop_
_space_group_symop_operation_xyz
x,y,z
-x,-y,-z
loop_
_atom_site_type_symbol
_atom_site_label
_atom_site_fract_x
_atom_site_fract_y
_atom_site_fract_z
Si Si1 0.160786 0.136041 0.497494
Si Si2 0.200630 0.371260 0.302698
Si Si3 0.728927 0.489366 0.041254
Si Si4 0.602450 0.371935 0.106231
Si Si5 0.293060 0.405110 0.557030
Si Si6 0.326489 0.815883 0.564300
Si Si7 0.996893 0.177745 0.845617
O O1 0.197611 0.284655 0.509121
O O2 0.991869 0.458044 0.656520
O O3 0.312528 0.929454 0.516993
O O4 0.117785 0.868631 0.297638
O O5 0.315325 0.234090 0.369005
O O6 0.206542 0.688313 0.449571
O O7 0.283724 0.051767 0.086525
O O8 0.582669 0.502949 0.931249
O O9 0.713396 0.841738 0.210303
O O10 0.691639 0.449024 0.107335
O O11 0.915019 0.205642 0.925603
O O12 0.590432 0.580327 0.309173
O O13 0.174500 0.813201 0.711317
O O14 0.500000 0.500000 0.500000
O O15 0.000000 0.500000 0.000000
#
# Coordination Sequence:
#
# PCOD9060722 Si02
#       7
#     2   2   2   2   2   2   2
#     4  11  24  45  68  98 136 182 226 283 346 404
#     4  11  24  44  69 101 139 173 231 285 343 410
#     4  11  23  44  64 101 141 176 231 283 339 414
#     4  11  24  42  71 102 136 183 229 280 343 409
#     4  11  24  45  71 103 136 182 231 280 341 410
#     4  12  25  44  64  98 138 179 225 284 348 404
#     4  11  25  43  71 105 137 176 233 289 341 409
#
# _framework density 25.692795
#
# number of rings (size 3 to 8) (size 9 to 14) (size 15 to 20)
#    0.000    0.857    2.857    5.571    4.000    2.286 
#    0.000    5.000    0.000    0.000    0.000    0.000 
#    0.000    0.000    0.000    0.000    0.000    0.000 
#
# Total GULP energy -78348.123412 kJ/mol
# GULP energy per Si atom -5596.294529 kJ/mol
# Density = 2.563432 g / cm^3
# Si number density = 25.692795 Si / 1000 Ang^3
#
#
#
# Elastic Constant Matrix: (Units=GPa)
#
#
# Indices 1 2 3 4 5 6 
#
# 1 96.2836 1.0885 35.7507 4.5494 2.9965 19.9830
# 2 1.0885 84.6387 21.2670 -16.6021 8.8005 12.9931
# 3 35.7507 21.2670 134.8944 7.2454 23.7341 -2.7271
# 4 4.5494 -16.6021 7.2454 51.2369 8.1699 7.1095
# 5 2.9965 8.8005 23.7341 8.1699 49.5318 6.9667
# 6 19.9830 12.9931 -2.7271 7.1095 6.9667 21.4543
#
#
#
# Elastic Compliance Matrix: (Units=1/GPa)
#
#
# Indices 1 2 3 4 5 6 
#
# 1 0.017184 0.005224 -0.006695 0.003623 0.003801 -0.022455
# 2 0.005224 0.017599 -0.005048 0.008561 0.000248 -0.019083
# 3 -0.006695 -0.005048 0.011427 -0.003689 -0.005500 0.013754
# 4 0.003623 0.008561 -0.003689 0.025099 -0.001753 -0.016776
# 5 0.003801 0.000248 -0.005500 -0.001753 0.024494 -0.011763
# 6 -0.022455 -0.019083 0.013754 -0.016776 -0.011763 0.090210
#
#
# Mechanical properties :
#
#
# Convention : Reuss Voigt Hill
#
# Bulk Modulus (GPa) = 30.14662 48.00323 39.07492
# Shear Modulus (GPa) = 23.79711 41.62530 32.71121
#
# Velocity S-wave (km/s) = 3.04668 4.02943 3.57202
# Velocity P-wave (km/s) = 4.91277 6.35394 5.67925
#
# Compressibility (1/GPa) = 0.03317122
#
# Stress axis : x y z
#
# Youngs Moduli (GPa) = 58.19436 56.82053 87.50914
#
# Poissons Ratio (x) = -0.29683 0.58589
# Poissons Ratio (y) = -0.30400 0.44178
# Poissons Ratio (z) = 0.38962 0.28685
#
# Static dielectric constant tensor:
#      x y z
#    x 2.043700 -0.018320 -0.059900 
#    y -0.018320 2.048980 -0.075140 
#    z -0.059900 -0.075140 2.070020 
# 
# From -- ./inp_files/156964.got.cif
#   From: 2010.05.17/outbox.cif.g08.bks.cpg/sg2_79_cif.got.tgz:156964.got - 2010.06.03 11:33:40.
