data_PCOD9060029
_publ_section_title
;
Structure prediction by ZEFSAII (Michael W. Deem and Ramdas Pophale) SiO2 
 PCOD9060029
Probable space group: P -1
;
_chemical_formula_sum "Si O2"
_cell_formula_units_Z 15
_cell_length_a 8.944406
_cell_length_b 8.438859
_cell_length_c 15.522730
_cell_angle_alpha 75.792320
_cell_angle_beta 141.360578
_cell_angle_gamma 108.909686
_cell_volume 692.064363
_symmetry_space_group_name_H-M "P -1"
_symmetry_group_IT_number 2
_symmetry_cell_setting 'triclinic'
loop_
_space_group_symop_operation_xyz
x,y,z
-x,-y,-z
loop_
_atom_site_type_symbol
_atom_site_label
_atom_site_fract_x
_atom_site_fract_y
_atom_site_fract_z
Si Si1 0.832718 0.862404 0.881963
Si Si2 0.704912 0.064288 0.371372
Si Si3 0.500000 0.500000 0.500000
Si Si4 0.079570 0.018702 0.679236
Si Si5 0.245415 0.344916 0.820602
Si Si6 0.046170 0.422602 0.437586
Si Si7 0.929770 0.725518 0.766364
Si Si8 0.224603 0.453626 0.986065
O O1 0.562316 0.899921 0.750048
O O2 0.916143 0.846158 0.824328
O O3 0.828750 0.680665 0.945034
O O4 0.000000 0.000000 0.000000
O O5 0.813594 0.006843 0.516127
O O6 0.899967 0.232910 0.409756
O O7 0.728481 0.943134 0.318438
O O8 0.314175 0.445629 0.511979
O O9 0.675056 0.648537 0.614705
O O10 0.130687 0.169336 0.749377
O O11 0.097710 0.847847 0.757689
O O12 0.250264 0.347275 0.925579
O O13 0.089291 0.478079 0.703739
O O14 0.519533 0.416312 0.901649
O O15 0.000000 0.500000 0.500000
O O16 0.029874 0.565703 0.864035
#
# Coordination Sequence:
#
# PCOD9060029 Si02
#       8
#     2   2   1   2   2   2   2   2
#     4  12  28  48  72 105 149 192 240 307 370 444
#     4  11  24  47  69 103 144 183 249 289 374 440
#     4  12  26  44  76 108 146 188 252 312 362 440
#     4  11  25  44  72 104 137 192 237 306 363 432
#     4  11  23  42  74 101 138 193 243 298 362 440
#     4  12  22  47  76 105 145 195 246 310 370 435
#     4  12  27  47  69 107 146 186 246 306 366 439
#     4  11  25  46  70 103 140 191 245 290 367 449
#
# _framework density 21.674285000000001
#
# number of rings (size 3 to 8) (size 9 to 14) (size 15 to 20)
#    0.000    0.533    5.333    2.000    3.733    2.133 
#    0.000    0.000    0.000    0.000    0.000    0.000 
#    0.000    0.000    0.000    0.000    0.000    0.000 
#
# Total GULP energy -83538.044622 kJ/mol
# GULP energy per Si atom -5569.202975 kJ/mol
# Density = 2.162495 g / cm^3
# Si number density = 21.674285 Si / 1000 Ang^3
#
#
#
# Elastic Constant Matrix: (Units=GPa)
#
#
# Indices 1 2 3 4 5 6 
#
# 1 105.6125 28.3340 36.3875 12.5746 -11.4394 -2.9282
# 2 28.3340 48.4347 35.2015 -3.1239 -4.6030 -14.8116
# 3 36.3875 35.2015 70.0037 9.2922 -17.3614 -4.6322
# 4 12.5746 -3.1239 9.2922 35.5663 -2.6331 -7.9952
# 5 -11.4394 -4.6030 -17.3614 -2.6331 22.9275 3.5629
# 6 -2.9282 -14.8116 -4.6322 -7.9952 3.5629 23.2749
#
#
#
# Elastic Compliance Matrix: (Units=1/GPa)
#
#
# Indices 1 2 3 4 5 6 
#
# 1 0.013395 -0.009969 -0.000349 -0.006926 0.004842 -0.007849
# 2 -0.009969 0.063356 -0.032302 0.026058 -0.020676 0.044751
# 3 -0.000349 -0.032302 0.037034 -0.015661 0.023025 -0.022134
# 4 -0.006926 0.026058 -0.015661 0.042691 -0.009645 0.028736
# 5 0.004842 -0.020676 0.023025 -0.009645 0.061422 -0.020682
# 6 -0.007849 0.044751 -0.022134 0.028736 -0.020682 0.079088
#
#
# Mechanical properties :
#
#
# Convention : Reuss Voigt Hill
#
# Bulk Modulus (GPa) = 35.03308 47.09964 41.06636
# Shear Modulus (GPa) = 12.76355 24.62894 18.69624
#
# Velocity S-wave (km/s) = 2.42932 3.37459 2.94019
# Velocity P-wave (km/s) = 4.90584 6.07961 5.52399
#
# Compressibility (1/GPa) = 0.02854445
#
# Stress axis : x y z
#
# Youngs Moduli (GPa) = 74.65599 15.78386 27.00231
#
# Poissons Ratio (x) = 0.15735 0.00941
# Poissons Ratio (y) = 0.74427 0.87223
# Poissons Ratio (z) = 0.02602 0.50985
#
# Static dielectric constant tensor:
#      x y z
#    x 1.904110 -0.082250 -0.016220 
#    y -0.082250 1.812410 0.004460 
#    z -0.016220 0.004460 1.770120 
# 
# From -- ./inp_files/157993.got.cif
#   From: 2010.05.17/outbox.cif.g08.bks.cpg/sg2_79_cif.got.tgz:157993.got - 2010.06.03 11:33:40.
