data_PCOD9060109
_publ_section_title
;
Structure prediction by ZEFSAII (Michael W. Deem and Ramdas Pophale) SiO2 
 PCOD9060109
Probable space group: P -1
;
_chemical_formula_sum "Si O2"
_cell_formula_units_Z 16
_cell_length_a 18.033128
_cell_length_b 9.646813
_cell_length_c 12.871141
_cell_angle_alpha 58.087840
_cell_angle_beta 34.887716
_cell_angle_gamma 35.866100
_cell_volume 685.657920
_symmetry_space_group_name_H-M "P -1"
_symmetry_group_IT_number 2
_symmetry_cell_setting 'triclinic'
loop_
_space_group_symop_operation_xyz
x,y,z
-x,-y,-z
loop_
_atom_site_type_symbol
_atom_site_label
_atom_site_fract_x
_atom_site_fract_y
_atom_site_fract_z
Si Si1 0.952507 0.060338 0.857232
Si Si2 0.477762 0.001569 0.718951
Si Si3 0.880478 0.755197 0.102392
Si Si4 0.512037 0.381020 0.793975
Si Si5 0.081298 0.487407 0.646921
Si Si6 0.611094 0.223069 0.511131
Si Si7 0.650704 0.947334 0.922590
Si Si8 0.086889 0.837008 0.569466
O O1 0.147053 0.976092 0.706378
O O2 0.980303 0.027709 0.713794
O O3 0.963219 0.858486 0.957011
O O4 0.728281 0.344806 0.033407
O O5 0.706816 0.706569 0.580358
O O6 0.348468 0.038925 0.763251
O O7 0.510269 0.163628 0.597087
O O8 0.371154 0.078800 0.921797
O O9 0.896480 0.680554 0.231329
O O10 0.000000 0.500000 0.000000
O O11 0.569023 0.238155 0.676354
O O12 0.590044 0.193256 0.873531
O O13 0.667505 0.381194 0.616721
O O14 0.043976 0.688007 0.676100
O O15 0.880941 0.675022 0.732568
O O16 0.500000 0.500000 0.500000
O O17 0.500000 0.000000 0.000000
O O18 0.000000 0.000000 0.500000
#
# Coordination Sequence:
#
# PCOD9060109 Si02
#       8
#     2   2   2   2   2   2   2   2
#     4  11  26  45  70  99 136 186 222 282 345 412
#     4  12  27  44  73 105 136 187 230 289 348 409
#     4  12  23  48  75 100 140 179 239 289 344 405
#     4  11  26  45  69  98 140 182 229 278 345 418
#     4  12  27  45  74 102 139 183 233 288 345 410
#     4  11  27  46  67 101 143 178 228 286 346 407
#     4  12  26  46  68 101 144 184 230 283 340 416
#     4  11  23  43  65 100 136 173 224 281 335 402
#
# _framework density 23.335252000000001
#
# number of rings (size 3 to 8) (size 9 to 14) (size 15 to 20)
#    0.000    0.500    5.000    1.875    7.000    1.500 
#    0.000    0.000    0.000    0.000    0.000    0.000 
#    0.000    0.000    0.000    0.000    0.000    0.000 
#
# Total GULP energy -89541.615699 kJ/mol
# GULP energy per Si atom -5596.350981 kJ/mol
# Density = 2.328214 g / cm^3
# Si number density = 23.335252 Si / 1000 Ang^3
#
#
#
# Elastic Constant Matrix: (Units=GPa)
#
#
# Indices 1 2 3 4 5 6 
#
# 1 53.5557 9.3208 22.0859 -5.0375 -18.7537 4.1620
# 2 9.3208 86.0750 44.2073 2.7809 -2.8975 -6.3376
# 3 22.0859 44.2073 135.3150 24.9017 -20.0671 1.0871
# 4 -5.0375 2.7809 24.9017 60.4156 -3.5787 -5.2189
# 5 -18.7537 -2.8975 -20.0671 -3.5787 29.4329 4.1552
# 6 4.1620 -6.3376 1.0871 -5.2189 4.1552 25.9605
#
#
#
# Elastic Compliance Matrix: (Units=1/GPa)
#
#
# Indices 1 2 3 4 5 6 
#
# 1 0.026482 -0.002004 -0.001750 0.003444 0.016843 -0.006665
# 2 -0.002004 0.014827 -0.005457 0.001603 -0.004069 0.005143
# 3 -0.001750 -0.005457 0.011178 -0.004443 0.005903 -0.003357
# 4 0.003444 0.001603 -0.004443 0.018979 0.001114 0.003662
# 5 0.016843 -0.004069 0.005903 0.001114 0.050124 -0.011740
# 6 -0.006665 0.005143 -0.003357 0.003662 -0.011740 0.043600
#
#
# Mechanical properties :
#
#
# Convention : Reuss Voigt Hill
#
# Bulk Modulus (GPa) = 29.35411 47.35265 38.35338
# Shear Modulus (GPa) = 25.64525 36.45056 31.04791
#
# Velocity S-wave (km/s) = 3.31870 3.95655 3.65158
# Velocity P-wave (km/s) = 5.22414 6.41941 5.85237
#
# Compressibility (1/GPa) = 0.03406679
#
# Stress axis : x y z
#
# Youngs Moduli (GPa) = 37.76084 67.44390 89.45820
#
# Poissons Ratio (x) = 0.13515 0.15656
# Poissons Ratio (y) = 0.07567 0.48814
# Poissons Ratio (z) = 0.06609 0.36801
#
# Static dielectric constant tensor:
#      x y z
#    x 1.884790 0.012830 -0.015160 
#    y 0.012830 1.905060 -0.032830 
#    z -0.015160 -0.032830 1.937250 
# 
# From -- ./inp_files/471037.got.cif
#   From: 2010.05.17/outbox.cif.g08.bks.cpg/sg2_236_cif.got.tgz:471037.got - 2010.06.03 11:33:40.
