data_PCOD9060937
_publ_section_title
;
Structure prediction by ZEFSAII (Michael W. Deem and Ramdas Pophale) SiO2 
 PCOD9060937
Probable space group: P -1
;
_chemical_formula_sum "Si O2"
_cell_formula_units_Z 16
_cell_length_a 16.496449
_cell_length_b 27.462160
_cell_length_c 21.310149
_cell_angle_alpha 168.111702
_cell_angle_beta 23.252864
_cell_angle_gamma 158.454033
_cell_volume 725.644232
_symmetry_space_group_name_H-M "P -1"
_symmetry_group_IT_number 2
_symmetry_cell_setting 'triclinic'
loop_
_space_group_symop_operation_xyz
x,y,z
-x,-y,-z
loop_
_atom_site_type_symbol
_atom_site_label
_atom_site_fract_x
_atom_site_fract_y
_atom_site_fract_z
Si Si1 0.582721 0.449075 0.224032
Si Si2 0.308536 0.099769 0.778026
Si Si3 0.466525 0.756637 0.806309
Si Si4 0.902962 0.785786 0.583653
Si Si5 0.187205 0.102806 0.443057
Si Si6 0.846300 0.112764 0.598196
Si Si7 0.422754 0.599241 0.243065
Si Si8 0.232679 0.991068 0.836539
O O1 0.535096 0.631934 0.539227
O O2 0.656859 0.598199 0.293320
O O3 0.769520 0.332534 0.957491
O O4 0.362738 0.198797 0.057349
O O5 0.336542 0.092318 0.823091
O O6 0.500000 0.000000 0.500000
O O7 0.352949 0.374341 0.060339
O O8 0.068181 0.909598 0.680632
O O9 0.699222 0.881379 0.836576
O O10 0.257453 0.514423 0.677119
O O11 0.353239 0.958835 0.135411
O O12 0.069528 0.839608 0.473449
O O13 0.043769 0.081658 0.456262
O O14 0.000000 0.000000 0.500000
O O15 0.635205 0.850401 0.426552
O O16 0.240211 0.718167 0.505032
O O17 0.500000 0.500000 0.000000
O O18 0.000000 0.000000 0.000000
#
# Coordination Sequence:
#
# PCOD9060937 Si02
#       8
#     2   2   2   2   2   2   2   2
#     4  11  24  46  66  98 141 178 226 283 351 412
#     4  12  24  44  76 103 139 190 239 287 350 420
#     4  11  26  44  70 101 137 182 227 284 351 415
#     4  11  24  43  68 101 139 179 232 279 352 407
#     4  12  27  42  69 102 132 178 234 282 343 417
#     4  11  24  43  69  96 141 178 223 291 347 406
#     4  11  23  44  70 104 135 179 242 288 341 416
#     4  11  26  45  68 104 143 184 228 294 352 410
#
# _framework density 22.049372999999999
#
# number of rings (size 3 to 8) (size 9 to 14) (size 15 to 20)
#    0.000    0.750    3.750    3.000    7.000    2.500 
#    0.000    0.000    0.000    0.000    0.000    0.000 
#    0.000    0.000    0.000    0.000    0.000    0.000 
#
# Total GULP energy -89218.839358 kJ/mol
# GULP energy per Si atom -5576.177460 kJ/mol
# Density = 2.199919 g / cm^3
# Si number density = 22.049373 Si / 1000 Ang^3
#
#
#
# Elastic Constant Matrix: (Units=GPa)
#
#
# Indices 1 2 3 4 5 6 
#
# 1 59.9856 17.5477 39.2585 -8.4488 -11.9872 6.0989
# 2 17.5477 102.8925 44.6262 -5.5210 -10.4666 14.9293
# 3 39.2585 44.6262 149.3814 -15.2022 -36.3545 19.3005
# 4 -8.4488 -5.5210 -15.2022 34.1979 2.1963 -20.3748
# 5 -11.9872 -10.4666 -36.3545 2.1963 39.7925 -3.0201
# 6 6.0989 14.9293 19.3005 -20.3748 -3.0201 49.7103
#
#
#
# Elastic Compliance Matrix: (Units=1/GPa)
#
#
# Indices 1 2 3 4 5 6 
#
# 1 0.020677 -0.001428 -0.004371 0.003494 0.001752 0.001128
# 2 -0.001428 0.011525 -0.002899 -0.001407 -0.000178 -0.002748
# 3 -0.004371 -0.002899 0.010992 0.001875 0.007737 -0.001622
# 4 0.003494 -0.001407 0.001875 0.040004 0.001383 0.015746
# 5 0.001752 -0.000178 0.007737 0.001383 0.032556 -0.000621
# 6 0.001128 -0.002748 -0.001622 0.015746 -0.000621 0.027850
#
#
# Mechanical properties :
#
#
# Convention : Reuss Voigt Hill
#
# Bulk Modulus (GPa) = 38.76391 57.23602 47.99997
# Shear Modulus (GPa) = 29.48113 38.79528 34.13820
#
# Velocity S-wave (km/s) = 3.66054 4.19916 3.93906
# Velocity P-wave (km/s) = 5.95690 7.03740 6.51958
#
# Compressibility (1/GPa) = 0.02579719
#
# Stress axis : x y z
#
# Youngs Moduli (GPa) = 48.36327 86.76828 90.97209
#
# Poissons Ratio (x) = 0.12394 0.39763
# Poissons Ratio (y) = 0.06908 0.26374
# Poissons Ratio (z) = 0.21139 0.25155
#
# Static dielectric constant tensor:
#      x y z
#    x 1.833760 -0.008200 -0.042670 
#    y -0.008200 1.863900 0.035560 
#    z -0.042670 0.035560 1.791140 
# 
# From -- ./inp_files/559811.got.cif
#   From: 2010.05.17/outbox.cif.g08.bks.cpg/sg2_280_cif.got.tgz:559811.got - 2010.06.03 11:33:40.
