data_PCOD9060767
_publ_section_title
;
Structure prediction by ZEFSAII (Michael W. Deem and Ramdas Pophale) SiO2 
 PCOD9060767
Probable space group: P -1
;
_chemical_formula_sum "Si O2"
_cell_formula_units_Z 15
_cell_length_a 7.754445
_cell_length_b 12.407188
_cell_length_c 7.718469
_cell_angle_alpha 65.585046
_cell_angle_beta 72.476975
_cell_angle_gamma 81.711205
_cell_volume 644.649841
_symmetry_space_group_name_H-M "P -1"
_symmetry_group_IT_number 2
_symmetry_cell_setting 'triclinic'
loop_
_space_group_symop_operation_xyz
x,y,z
-x,-y,-z
loop_
_atom_site_type_symbol
_atom_site_label
_atom_site_fract_x
_atom_site_fract_y
_atom_site_fract_z
Si Si1 0.036913 0.863467 0.126170
Si Si2 0.225625 0.298626 0.489728
Si Si3 0.453248 0.867871 0.543515
Si Si4 0.443192 0.866294 0.133112
Si Si5 0.136344 0.726205 0.890694
Si Si6 0.350038 0.529186 0.170947
Si Si7 0.344252 0.363876 0.796175
Si Si8 0.000000 0.500000 0.000000
O O1 0.247219 0.851185 0.119031
O O2 0.926690 0.795868 0.353794
O O3 0.993386 0.796502 0.004576
O O4 0.000000 0.000000 0.000000
O O5 0.383879 0.223018 0.398630
O O6 0.211928 0.422274 0.308764
O O7 0.291356 0.345959 0.625111
O O8 0.434194 0.855330 0.350995
O O9 0.273145 0.820792 0.715482
O O10 0.500000 0.000000 0.500000
O O11 0.584032 0.768188 0.080457
O O12 0.500000 0.000000 0.000000
O O13 0.229496 0.635151 0.060351
O O14 0.072961 0.632352 0.833250
O O15 0.471270 0.563635 0.274643
O O16 0.500000 0.500000 0.000000
O O17 0.179205 0.431351 0.898411
#
# Coordination Sequence:
#
# PCOD9060767 Si02
#       8
#     2   2   2   2   2   2   2   1
#     4  12  25  48  73 106 144 186 246 309 358 432
#     4  11  24  43  70 103 140 188 239 296 361 426
#     4  11  24  46  71 101 142 191 243 300 366 435
#     4  11  25  45  74 103 139 192 245 294 370 435
#     4  12  25  45  68 103 147 190 237 302 367 428
#     4  12  23  42  68 100 141 184 239 286 356 432
#     4  11  23  44  67 101 141 189 234 290 359 434
#     4  12  24  42  70 102 148 186 232 298 360 424
#
# _framework density 23.268445
#
# number of rings (size 3 to 8) (size 9 to 14) (size 15 to 20)
#    0.000    0.533    5.333    3.600    0.000    2.667 
#    0.000    2.667    0.000    0.000    0.000    0.000 
#    0.000    0.000    0.000    0.000    0.000    0.000 
#
# Total GULP energy -83547.046904 kJ/mol
# GULP energy per Si atom -5569.803127 kJ/mol
# Density = 2.321548 g / cm^3
# Si number density = 23.268445 Si / 1000 Ang^3
#
#
#
# Elastic Constant Matrix: (Units=GPa)
#
#
# Indices 1 2 3 4 5 6 
#
# 1 91.6947 34.7051 9.6289 -3.4454 -6.4976 6.4548
# 2 34.7051 160.3213 38.4574 -23.5130 -1.0874 -5.9440
# 3 9.6289 38.4574 103.9041 -29.2704 -17.9124 8.4821
# 4 -3.4454 -23.5130 -29.2704 43.9493 8.9350 -9.9818
# 5 -6.4976 -1.0874 -17.9124 8.9350 31.5031 -1.8729
# 6 6.4548 -5.9440 8.4821 -9.9818 -1.8729 36.2064
#
#
#
# Elastic Compliance Matrix: (Units=1/GPa)
#
#
# Indices 1 2 3 4 5 6 
#
# 1 0.012417 -0.003112 0.000245 -0.001836 0.002927 -0.003137
# 2 -0.003112 0.008149 -0.002371 0.003829 -0.002595 0.003370
# 3 0.000245 -0.002371 0.013310 0.006096 0.005714 -0.001575
# 4 -0.001836 0.003829 0.006096 0.031599 -0.005269 0.007967
# 5 0.002927 -0.002595 0.005714 -0.005269 0.036892 -0.001831
# 6 -0.003137 0.003370 -0.001575 0.007967 -0.001831 0.031203
#
#
# Mechanical properties :
#
#
# Convention : Reuss Voigt Hill
#
# Bulk Modulus (GPa) = 42.73852 57.94476 50.34164
# Shear Modulus (GPa) = 32.92788 40.54035 36.73412
#
# Velocity S-wave (km/s) = 3.76590 4.17860 3.97761
# Velocity P-wave (km/s) = 6.10875 6.94534 6.54043
#
# Compressibility (1/GPa) = 0.02339810
#
# Stress axis : x y z
#
# Youngs Moduli (GPa) = 80.53267 122.71434 75.13075
#
# Poissons Ratio (x) = 0.38194 -0.01838
# Poissons Ratio (y) = 0.25065 0.17816
# Poissons Ratio (z) = -0.01970 0.29100
#
# Static dielectric constant tensor:
#      x y z
#    x 2.011830 0.124110 0.052200 
#    y 0.124110 1.666080 -0.002780 
#    z 0.052200 -0.002780 1.954460 
# 
# From -- ./inp_files/174791.got.cif
#   From: 2010.05.17/outbox.cif.g08.bks.cpg/sg2_88_cif.got.tgz:174791.got - 2010.06.03 11:33:40.
