data_PCOD9060287
_publ_section_title
;
Structure prediction by ZEFSAII (Michael W. Deem and Ramdas Pophale) SiO2 
 PCOD9060287
Probable space group: P -1
;
_chemical_formula_sum "Si O2"
_cell_formula_units_Z 16
_cell_length_a 9.132012
_cell_length_b 9.035228
_cell_length_c 8.868276
_cell_angle_alpha 99.552058
_cell_angle_beta 100.664139
_cell_angle_gamma 75.845070
_cell_volume 691.634101
_symmetry_space_group_name_H-M "P -1"
_symmetry_group_IT_number 2
_symmetry_cell_setting 'triclinic'
loop_
_space_group_symop_operation_xyz
x,y,z
-x,-y,-z
loop_
_atom_site_type_symbol
_atom_site_label
_atom_site_fract_x
_atom_site_fract_y
_atom_site_fract_z
Si Si1 0.490993 0.319243 0.957696
Si Si2 0.678056 0.185298 0.700301
Si Si3 0.398611 0.383903 0.515168
Si Si4 0.687651 0.717930 0.833138
Si Si5 0.894001 0.390395 0.847777
Si Si6 0.968752 0.841966 0.904448
Si Si7 0.808018 0.648131 0.292204
Si Si8 0.093611 0.098755 0.432429
O O1 0.628773 0.220597 0.870760
O O2 0.334309 0.302833 0.841020
O O3 0.500000 0.500000 0.000000
O O4 0.473185 0.254292 0.108837
O O5 0.520895 0.249330 0.595580
O O6 0.798638 0.292780 0.714179
O O7 0.761332 0.019860 0.631755
O O8 0.500000 0.500000 0.500000
O O9 0.329653 0.313286 0.349737
O O10 0.263621 0.453562 0.618484
O O11 0.791725 0.837969 0.897682
O O12 0.782735 0.552986 0.882941
O O13 0.039577 0.413638 0.784348
O O14 0.942284 0.293903 0.993106
O O15 0.994655 0.829011 0.725926
O O16 0.000000 0.000000 0.000000
O O17 0.849815 0.782175 0.426581
O O18 0.000000 0.000000 0.500000
#
# Coordination Sequence:
#
# PCOD9060287 Si02
#       8
#     2   2   2   2   2   2   2   2
#     4  11  23  43  69 101 143 190 234 295 357 426
#     4  11  24  45  73  99 145 190 234 295 365 419
#     4  11  23  45  68 102 146 186 238 291 357 433
#     4  12  24  45  72 107 148 189 242 297 358 434
#     4  12  23  46  76 107 142 192 241 301 363 419
#     4  12  25  45  73 106 145 186 243 301 357 426
#     4  11  24  43  73 103 143 190 235 302 354 426
#     4  12  25  49  72 104 145 185 239 300 362 430
#
# _framework density 23.133620000000001
#
# number of rings (size 3 to 8) (size 9 to 14) (size 15 to 20)
#    0.000    0.500    7.500    1.125    0.000    2.500 
#    4.500    0.625    0.000    0.000    0.000    0.000 
#    0.000    0.000    0.000    0.000    0.000    0.000 
#
# Total GULP energy -89421.274636 kJ/mol
# GULP energy per Si atom -5588.829665 kJ/mol
# Density = 2.308097 g / cm^3
# Si number density = 23.133620 Si / 1000 Ang^3
#
#
#
# Elastic Constant Matrix: (Units=GPa)
#
#
# Indices 1 2 3 4 5 6 
#
# 1 117.3635 28.7154 38.7203 -5.2999 -13.1085 13.0454
# 2 28.7154 90.0151 42.8937 9.0985 -2.1214 8.3596
# 3 38.7203 42.8937 122.0326 -6.3057 -5.4087 -2.5409
# 4 -5.2999 9.0985 -6.3057 42.6582 12.4242 -0.0814
# 5 -13.1085 -2.1214 -5.4087 12.4242 55.7001 8.5546
# 6 13.0454 8.3596 -2.5409 -0.0814 8.5546 42.7556
#
#
#
# Elastic Compliance Matrix: (Units=1/GPa)
#
#
# Indices 1 2 3 4 5 6 
#
# 1 0.010533 -0.001759 -0.002656 0.000533 0.002579 -0.003543
# 2 -0.001759 0.014719 -0.004854 -0.004400 0.001096 -0.002857
# 3 -0.002656 -0.004854 0.010896 0.002527 -0.000708 0.002553
# 4 0.000533 -0.004400 0.002527 0.026587 -0.006051 0.002109
# 5 0.002579 0.001096 -0.000708 -0.006051 0.020680 -0.005192
# 6 -0.003543 -0.002857 0.002553 0.002109 -0.005192 0.026223
#
#
# Mechanical properties :
#
#
# Convention : Reuss Voigt Hill
#
# Bulk Modulus (GPa) = 56.78268 61.11889 58.95079
# Shear Modulus (GPa) = 37.30082 42.82824 40.06453
#
# Velocity S-wave (km/s) = 4.01984 4.30739 4.16609
# Velocity P-wave (km/s) = 6.79296 7.15650 6.97709
#
# Compressibility (1/GPa) = 0.01761100
#
# Stress axis : x y z
#
# Youngs Moduli (GPa) = 94.94010 67.93848 91.77915
#
# Poissons Ratio (x) = 0.11948 0.24375
# Poissons Ratio (y) = 0.16697 0.44549
# Poissons Ratio (z) = 0.25214 0.32977
#
# Static dielectric constant tensor:
#      x y z
#    x 1.885230 0.035240 -0.014610 
#    y 0.035240 1.884840 -0.050100 
#    z -0.014610 -0.050100 1.922040 
# 
# From -- ./inp_files/180331.got.cif
#   From: 2010.05.17/outbox.cif.g08.bks.cpg/sg2_91_cif.got.tgz:180331.got - 2010.06.03 11:33:40.
