data_PCOD9060401
_publ_section_title
;
Structure prediction by ZEFSAII (Michael W. Deem and Ramdas Pophale) SiO2 
 PCOD9060401
Probable space group: P -1
;
_chemical_formula_sum "Si O2"
_cell_formula_units_Z 16
_cell_length_a 8.948214
_cell_length_b 12.074089
_cell_length_c 17.428634
_cell_angle_alpha 41.074831
_cell_angle_beta 140.323656
_cell_angle_gamma 138.354806
_cell_volume 724.562784
_symmetry_space_group_name_H-M "P -1"
_symmetry_group_IT_number 2
_symmetry_cell_setting 'triclinic'
loop_
_space_group_symop_operation_xyz
x,y,z
-x,-y,-z
loop_
_atom_site_type_symbol
_atom_site_label
_atom_site_fract_x
_atom_site_fract_y
_atom_site_fract_z
Si Si1 0.157879 0.874929 0.619490
Si Si2 0.007975 0.305560 0.693435
Si Si3 0.505551 0.494933 0.301450
Si Si4 0.234326 0.453290 0.462508
Si Si5 0.077303 0.661935 0.028563
Si Si6 0.476455 0.870475 0.487255
Si Si7 0.854226 0.991778 0.025325
Si Si8 0.736528 0.262008 0.102661
O O1 0.195298 0.803443 0.755003
O O2 0.988957 0.711032 0.581965
O O3 0.417304 0.002358 0.611858
O O4 0.000000 0.000000 0.500000
O O5 0.863212 0.381480 0.658069
O O6 0.818337 0.264826 0.568045
O O7 0.295395 0.448845 0.719130
O O8 0.030947 0.115986 0.817442
O O9 0.684306 0.577168 0.403600
O O10 0.297397 0.582101 0.167925
O O11 0.388893 0.273860 0.377860
O O12 0.500000 0.500000 0.500000
O O13 0.814930 0.481907 0.025434
O O14 0.107089 0.814513 0.023549
O O15 0.116350 0.746431 0.913837
O O16 0.500000 0.000000 0.500000
O O17 0.556907 0.865020 0.962537
O O18 0.000000 0.000000 0.000000
#
# Coordination Sequence:
#
# PCOD9060401 Si02
#       8
#     2   2   2   2   2   2   2   2
#     4  12  25  42  69 107 140 184 243 306 367 430
#     4  11  24  45  66 104 139 192 243 286 374 434
#     4  11  23  45  73 103 142 189 244 292 370 443
#     4  11  24  42  71  98 142 188 231 306 363 435
#     4  11  26  49  77 108 147 203 247 305 371 446
#     4  11  23  43  70 107 145 186 241 307 365 437
#     4  12  28  47  74 107 151 195 248 307 368 453
#     4  11  26  49  72 109 151 194 255 298 374 441
#
# _framework density 22.082284000000001
#
# number of rings (size 3 to 8) (size 9 to 14) (size 15 to 20)
#    0.000    0.750    1.250    7.125    5.250    3.500 
#    2.250    0.000    0.000    0.000    0.000    0.000 
#    0.000    0.000    0.000    0.000    0.000    0.000 
#
# Total GULP energy -89417.112241 kJ/mol
# GULP energy per Si atom -5588.569515 kJ/mol
# Density = 2.203202 g / cm^3
# Si number density = 22.082284 Si / 1000 Ang^3
#
#
#
# Elastic Constant Matrix: (Units=GPa)
#
#
# Indices 1 2 3 4 5 6 
#
# 1 125.2600 65.7197 34.4783 -15.6031 -3.8026 -7.9224
# 2 65.7197 159.2180 26.9615 -5.2956 14.9756 -23.7778
# 3 34.4783 26.9615 95.9193 -7.3036 -0.9159 -25.6153
# 4 -15.6031 -5.2956 -7.3036 30.6359 -0.0234 -1.3933
# 5 -3.8026 14.9756 -0.9159 -0.0234 36.7932 -7.0889
# 6 -7.9224 -23.7778 -25.6153 -1.3933 -7.0889 44.5274
#
#
#
# Elastic Compliance Matrix: (Units=1/GPa)
#
#
# Indices 1 2 3 4 5 6 
#
# 1 0.011814 -0.004718 -0.002970 0.004425 0.002772 -0.001546
# 2 -0.004718 0.009047 -0.000027 -0.000694 -0.003517 0.003395
# 3 -0.002970 -0.000027 0.013720 0.002103 0.001522 0.007658
# 4 0.004425 -0.000694 0.002103 0.035412 0.001384 0.002955
# 5 0.002772 -0.003517 0.001522 0.001384 0.029759 0.004272
# 6 -0.001546 0.003395 0.007658 0.002955 0.004272 0.029174
#
#
# Mechanical properties :
#
#
# Convention : Reuss Voigt Hill
#
# Bulk Modulus (GPa) = 52.21401 70.52400 61.36901
# Shear Modulus (GPa) = 33.16974 39.27382 36.22178
#
# Velocity S-wave (km/s) = 3.87989 4.22183 4.05447
# Velocity P-wave (km/s) = 6.61574 7.46802 7.05476
#
# Compressibility (1/GPa) = 0.01915195
#
# Stress axis : x y z
#
# Youngs Moduli (GPa) = 84.64719 110.52949 72.88432
#
# Poissons Ratio (x) = 0.52146 0.21645
# Poissons Ratio (y) = 0.39935 0.00197
# Poissons Ratio (z) = 0.25139 0.00299
#
# Static dielectric constant tensor:
#      x y z
#    x 1.825340 0.115630 0.058950 
#    y 0.115630 1.540310 -0.224470 
#    z 0.058950 -0.224470 1.763350 
# 
# From -- ./inp_files/346459.got.cif
#   From: 2010.05.17/outbox.cif.g08.bks.cpg/sg2_174_cif.got.tgz:346459.got - 2010.06.03 11:33:40.
