data_PCOD9060645
_publ_section_title
;
Structure prediction by ZEFSAII (Michael W. Deem and Ramdas Pophale) SiO2 
 PCOD9060645
Probable space group: P -1
;
_chemical_formula_sum "Si O2"
_cell_formula_units_Z 16
_cell_length_a 11.524239
_cell_length_b 7.942546
_cell_length_c 9.678968
_cell_angle_alpha 115.325940
_cell_angle_beta 127.652464
_cell_angle_gamma 66.683318
_cell_volume 622.707644
_symmetry_space_group_name_H-M "P -1"
_symmetry_group_IT_number 2
_symmetry_cell_setting 'triclinic'
loop_
_space_group_symop_operation_xyz
x,y,z
-x,-y,-z
loop_
_atom_site_type_symbol
_atom_site_label
_atom_site_fract_x
_atom_site_fract_y
_atom_site_fract_z
Si Si1 0.884110 0.816688 0.102513
Si Si2 0.161294 0.825621 0.612398
Si Si3 0.566944 0.978026 0.826380
Si Si4 0.797126 0.150206 0.668231
Si Si5 0.480111 0.696047 0.873987
Si Si6 0.814397 0.712597 0.560145
Si Si7 0.492233 0.709177 0.331127
Si Si8 0.909175 0.584390 0.291826
O O1 0.053266 0.769874 0.153501
O O2 0.846587 0.651957 0.119333
O O3 0.890656 0.984756 0.275159
O O4 0.747187 0.907929 0.938233
O O5 0.208755 0.859546 0.504470
O O6 0.302312 0.716765 0.757267
O O7 0.033939 0.707279 0.465048
O O8 0.522550 0.091374 0.692686
O O9 0.517861 0.791399 0.789907
O O10 0.494924 0.148575 0.940182
O O11 0.642219 0.265906 0.650469
O O12 0.810924 0.934140 0.648387
O O13 0.536569 0.471263 0.844413
O O14 0.661722 0.666739 0.499259
O O15 0.979239 0.617092 0.700763
O O16 0.803980 0.640344 0.367214
#
# Coordination Sequence:
#
# PCOD9060645 Si02
#       8
#     2   2   2   2   2   2   2   2
#     4  10  20  41  64  86 118 163 211 249 298 357
#     4  10  17  39  63  87 118 153 207 256 298 358
#     4  10  24  42  66  87 119 167 210 257 291 356
#     4  11  22  38  62  90 128 162 189 256 318 368
#     4  10  22  42  65  91 118 161 211 256 300 355
#     4  11  21  36  59  97 123 154 198 255 314 361
#     4  12  25  41  60  94 132 160 200 247 315 376
#     4  10  19  34  63  89 120 149 205 257 297 358
#
# _framework density 25.694241000000002
#
# number of rings (size 3 to 8) (size 9 to 14) (size 15 to 20)
#    0.000    1.500    3.750    2.250    3.500    1.000 
#    6.750    0.625    0.000    0.000    0.000    0.000 
#    0.000    0.000    0.000    0.000    0.000    0.000 
#
# Total GULP energy -89373.184430 kJ/mol
# GULP energy per Si atom -5585.824027 kJ/mol
# Density = 2.563576 g / cm^3
# Si number density = 25.694241 Si / 1000 Ang^3
#
#
#
# Elastic Constant Matrix: (Units=GPa)
#
#
# Indices 1 2 3 4 5 6 
#
# 1 101.5094 12.7641 4.4333 0.4761 3.6535 -20.9934
# 2 12.7641 83.4003 2.4732 -5.8463 -15.1775 -9.0691
# 3 4.4333 2.4732 37.4219 -11.9313 -7.5553 -6.5420
# 4 0.4761 -5.8463 -11.9313 27.6511 -0.8107 11.4771
# 5 3.6535 -15.1775 -7.5553 -0.8107 23.8918 -4.5095
# 6 -20.9934 -9.0691 -6.5420 11.4771 -4.5095 44.9357
#
#
#
# Elastic Compliance Matrix: (Units=1/GPa)
#
#
# Indices 1 2 3 4 5 6 
#
# 1 0.011393 -0.001854 -0.002034 -0.003763 -0.002682 0.005344
# 2 -0.001854 0.014809 0.003207 0.003727 0.011356 0.002777
# 3 -0.002034 0.003207 0.034911 0.015231 0.014345 0.002329
# 4 -0.003763 0.003727 0.015231 0.048093 0.007442 -0.010325
# 5 -0.002682 0.011356 0.014345 0.007442 0.055552 0.006801
# 6 0.005344 0.002777 0.002329 -0.010325 0.006801 0.028970
#
#
# Mechanical properties :
#
#
# Convention : Reuss Voigt Hill
#
# Bulk Modulus (GPa) = 16.73615 29.07474 22.90545
# Shear Modulus (GPa) = 23.25520 32.80645 28.03082
#
# Velocity S-wave (km/s) = 3.01171 3.57711 3.30652
# Velocity P-wave (km/s) = 4.31527 5.32928 4.84885
#
# Compressibility (1/GPa) = 0.05975088
#
# Stress axis : x y z
#
# Youngs Moduli (GPa) = 87.77567 67.52717 28.64459
#
# Poissons Ratio (x) = 0.12520 0.05826
# Poissons Ratio (y) = 0.16274 -0.09188
# Poissons Ratio (z) = 0.17854 -0.21659
#
# Static dielectric constant tensor:
#      x y z
#    x 2.145000 -0.014860 -0.029840 
#    y -0.014860 2.097250 -0.044830 
#    z -0.029840 -0.044830 2.084770 
# 
# From -- ./inp_files/419810.got.cif
#   From: 2010.05.17/outbox.cif.g08.bks.cpg/sg2_210_cif.got.tgz:419810.got - 2010.06.03 11:33:40.
