data_PCOD9060585
_publ_section_title
;
Structure prediction by ZEFSAII (Michael W. Deem and Ramdas Pophale) SiO2 
 PCOD9060585
Probable space group: P -1
;
_chemical_formula_sum "Si O2"
_cell_formula_units_Z 12
_cell_length_a 7.297655
_cell_length_b 7.602593
_cell_length_c 11.136174
_cell_angle_alpha 98.971897
_cell_angle_beta 132.736029
_cell_angle_gamma 82.758275
_cell_volume 448.074867
_symmetry_space_group_name_H-M "P -1"
_symmetry_group_IT_number 2
_symmetry_cell_setting 'triclinic'
loop_
_space_group_symop_operation_xyz
x,y,z
-x,-y,-z
loop_
_atom_site_type_symbol
_atom_site_label
_atom_site_fract_x
_atom_site_fract_y
_atom_site_fract_z
Si Si1 0.791338 0.658995 0.918431
Si Si2 0.739835 0.979854 0.760704
Si Si3 0.996737 0.260676 0.322880
Si Si4 0.194758 0.840425 0.533672
Si Si5 0.182313 0.379972 0.805369
Si Si6 0.489967 0.353906 0.699055
O O1 0.727249 0.686735 0.032974
O O2 0.825696 0.852218 0.896242
O O3 0.598375 0.545960 0.740765
O O4 0.000000 0.500000 0.000000
O O5 0.454561 0.912130 0.610560
O O6 0.691631 0.190980 0.766130
O O7 0.941403 0.282928 0.634813
O O8 0.073568 0.082093 0.268129
O O9 0.252289 0.321462 0.506159
O O10 0.896044 0.411714 0.204437
O O11 0.798052 0.246822 0.339655
O O12 0.000000 0.000000 0.500000
O O13 0.388136 0.352950 0.790311
#
# Coordination Sequence:
#
# PCOD9060585 Si02
#       6
#     2   2   2   2   2   2
#     4  12  27  45  66 103 145 187 232 276 353 420
#     4  12  25  47  74 104 140 185 231 292 346 409
#     4  11  23  44  73 104 137 177 237 294 342 409
#     4  11  23  43  73 107 132 173 237 289 347 404
#     4  11  23  46  68  99 142 182 228 291 343 418
#     4  11  25  45  71 102 136 184 239 286 345 412
#
# _framework density 26.78124
#
# number of rings (size 3 to 8) (size 9 to 14) (size 15 to 20)
#    0.000    0.667    5.000    5.000    2.333    2.667 
#    3.000    0.000    0.000    0.000    0.000    0.000 
#    0.000    0.000    0.000    0.000    0.000    0.000 
#
# Total GULP energy -67262.432247 kJ/mol
# GULP energy per Si atom -5605.202687 kJ/mol
# Density = 2.672028 g / cm^3
# Si number density = 26.781240 Si / 1000 Ang^3
#
#
#
# Elastic Constant Matrix: (Units=GPa)
#
#
# Indices 1 2 3 4 5 6 
#
# 1 124.2059 39.6997 17.8975 -10.2716 -3.5781 -24.7347
# 2 39.6997 165.6814 31.5092 -19.0802 -2.6993 -13.9952
# 3 17.8975 31.5092 70.7537 -19.0459 -8.7554 -3.6887
# 4 -10.2716 -19.0802 -19.0459 42.7482 3.2273 7.9932
# 5 -3.5781 -2.6993 -8.7554 3.2273 47.1333 -16.0106
# 6 -24.7347 -13.9952 -3.6887 7.9932 -16.0106 48.9232
#
#
#
# Elastic Compliance Matrix: (Units=1/GPa)
#
#
# Indices 1 2 3 4 5 6 
#
# 1 0.009838 -0.001661 -0.001226 -0.000045 0.002167 0.005123
# 2 -0.001661 0.007117 -0.002272 0.001622 0.000007 0.000762
# 3 -0.001226 -0.002272 0.017459 0.006307 0.002536 -0.000154
# 4 -0.000045 0.001622 0.006307 0.027886 -0.002120 -0.004333
# 5 0.002167 0.000007 0.002536 -0.002120 0.025374 0.009939
# 6 0.005123 0.000762 -0.000154 -0.004333 0.009939 0.027197
#
#
# Mechanical properties :
#
#
# Convention : Reuss Voigt Hill
#
# Bulk Modulus (GPa) = 41.50068 59.87263 50.68666
# Shear Modulus (GPa) = 37.53160 45.86324 41.69742
#
# Velocity S-wave (km/s) = 3.74761 4.14274 3.95012
# Velocity P-wave (km/s) = 5.85285 6.72962 6.30649
#
# Compressibility (1/GPa) = 0.02409599
#
# Stress axis : x y z
#
# Youngs Moduli (GPa) = 101.65083 140.50563 57.27711
#
# Poissons Ratio (x) = 0.23343 0.07020
# Poissons Ratio (y) = 0.16888 0.13013
# Poissons Ratio (z) = 0.12458 0.31923
#
# Static dielectric constant tensor:
#      x y z
#    x 2.078160 0.046680 0.023170 
#    y 0.046680 2.095570 -0.024280 
#    z 0.023170 -0.024280 2.214740 
# 
# From -- ./inp_files/411675.got.cif
#   From: 2010.05.17/outbox.cif.g08.bks.cpg/sg2_206_cif.got.tgz:411675.got - 2010.06.03 11:33:40.
