data_PCOD9060873
_publ_section_title
;
Structure prediction by ZEFSAII (Michael W. Deem and Ramdas Pophale) SiO2 
 PCOD9060873
Probable space group: P -1
;
_chemical_formula_sum "Si O2"
_cell_formula_units_Z 14
_cell_length_a 12.768802
_cell_length_b 9.789487
_cell_length_c 11.141839
_cell_angle_alpha 52.932590
_cell_angle_beta 132.310828
_cell_angle_gamma 144.156500
_cell_volume 597.836006
_symmetry_space_group_name_H-M "P -1"
_symmetry_group_IT_number 2
_symmetry_cell_setting 'triclinic'
loop_
_space_group_symop_operation_xyz
x,y,z
-x,-y,-z
loop_
_atom_site_type_symbol
_atom_site_label
_atom_site_fract_x
_atom_site_fract_y
_atom_site_fract_z
Si Si1 0.980804 0.289995 0.145573
Si Si2 0.686852 0.175491 0.633146
Si Si3 0.068992 0.658990 0.644873
Si Si4 0.299006 0.496183 0.914853
Si Si5 0.385055 0.484518 0.261787
Si Si6 0.265630 0.097815 0.037797
Si Si7 0.411052 0.157461 0.571027
O O1 0.934581 0.268765 0.261235
O O2 0.184023 0.362551 0.239330
O O3 0.000000 0.500000 0.000000
O O4 0.821486 0.056079 0.068618
O O5 0.590866 0.178979 0.676300
O O6 0.845856 0.432937 0.561789
O O7 0.500000 0.000000 0.500000
O O8 0.781241 0.075395 0.800841
O O9 0.174061 0.562937 0.776739
O O10 0.203489 0.893262 0.545745
O O11 0.500307 0.694655 0.894949
O O12 0.359153 0.514749 0.089414
O O13 0.198786 0.237445 0.930916
O O14 0.424830 0.317516 0.398595
O O15 0.552699 0.725165 0.334430
#
# Coordination Sequence:
#
# PCOD9060873 Si02
#       7
#     2   2   2   2   2   2   2
#     4  12  22  42  74 101 133 178 234 283 338 405
#     4  12  25  45  68  97 144 183 227 281 348 416
#     4  12  25  45  76 103 133 187 233 284 345 408
#     4  11  24  43  72 104 136 183 232 289 345 401
#     4  11  23  44  69 102 144 182 225 290 344 405
#     4  11  24  44  68 106 141 176 237 287 341 411
#     4  11  25  45  67 102 144 182 231 278 348 416
#
# _framework density 23.417793
#
# number of rings (size 3 to 8) (size 9 to 14) (size 15 to 20)
#    0.000    0.571    5.714    1.714    0.000    5.714 
#    7.714    0.000    0.000    0.000    0.000    0.000 
#    0.000    0.000    0.000    0.000    0.000    0.000 
#
# Total GULP energy -78404.370826 kJ/mol
# GULP energy per Si atom -5600.312202 kJ/mol
# Density = 2.336449 g / cm^3
# Si number density = 23.417793 Si / 1000 Ang^3
#
#
#
# Elastic Constant Matrix: (Units=GPa)
#
#
# Indices 1 2 3 4 5 6 
#
# 1 55.8665 20.8402 4.8240 -6.3782 8.7818 0.6577
# 2 20.8402 162.8791 23.9757 6.9494 6.0439 -1.9873
# 3 4.8240 23.9757 40.0412 4.2354 5.7615 -13.6115
# 4 -6.3782 6.9494 4.2354 34.2652 -3.6646 0.5299
# 5 8.7818 6.0439 5.7615 -3.6646 27.5028 4.8240
# 6 0.6577 -1.9873 -13.6115 0.5299 4.8240 41.8261
#
#
#
# Elastic Compliance Matrix: (Units=1/GPa)
#
#
# Indices 1 2 3 4 5 6 
#
# 1 0.020122 -0.002449 -0.000629 0.003761 -0.005240 -0.000081
# 2 -0.002449 0.007108 -0.004158 -0.001360 0.000080 -0.000969
# 3 -0.000629 -0.004158 0.033191 -0.004463 -0.008476 0.011648
# 4 0.003761 -0.001360 -0.004463 0.031246 0.004636 -0.002507
# 5 -0.005240 0.000080 -0.008476 0.004636 0.041732 -0.007544
# 6 -0.000081 -0.000969 0.011648 -0.002507 -0.007544 0.028556
#
#
# Mechanical properties :
#
#
# Convention : Reuss Voigt Hill
#
# Bulk Modulus (GPa) = 21.76350 39.78518 30.77434
# Shear Modulus (GPa) = 26.07642 34.66196 30.36919
#
# Velocity S-wave (km/s) = 3.34058 3.85145 3.60508
# Velocity P-wave (km/s) = 4.91864 6.06666 5.52257
#
# Compressibility (1/GPa) = 0.04594848
#
# Stress axis : x y z
#
# Youngs Moduli (GPa) = 49.69769 140.68289 30.12852
#
# Poissons Ratio (x) = 0.34453 0.01896
# Poissons Ratio (y) = 0.12171 0.12528
# Poissons Ratio (z) = 0.03127 0.58498
#
# Static dielectric constant tensor:
#      x y z
#    x 1.920280 -0.035990 -0.017300 
#    y -0.035990 1.899980 0.004790 
#    z -0.017300 0.004790 1.855420 
# 
# From -- ./inp_files/183458.got.cif
#   From: 2010.05.17/outbox.cif.g08.bks.cpg/sg2_92_cif.got.tgz:183458.got - 2010.06.03 11:33:40.
