data_PCOD9060600
_publ_section_title
;
Structure prediction by ZEFSAII (Michael W. Deem and Ramdas Pophale) SiO2 
 PCOD9060600
Probable space group: P -1
;
_chemical_formula_sum "Si O2"
_cell_formula_units_Z 14
_cell_length_a 8.488957
_cell_length_b 14.722127
_cell_length_c 18.109211
_cell_angle_alpha 160.983068
_cell_angle_beta 51.595177
_cell_angle_gamma 130.567919
_cell_volume 560.016484
_symmetry_space_group_name_H-M "P -1"
_symmetry_group_IT_number 2
_symmetry_cell_setting 'triclinic'
loop_
_space_group_symop_operation_xyz
x,y,z
-x,-y,-z
loop_
_atom_site_type_symbol
_atom_site_label
_atom_site_fract_x
_atom_site_fract_y
_atom_site_fract_z
Si Si1 0.148709 0.646043 0.724178
Si Si2 0.696674 0.870650 0.857916
Si Si3 0.852052 0.761427 0.447810
Si Si4 0.839946 0.643120 0.197392
Si Si5 0.578614 0.215527 0.383229
Si Si6 0.421110 0.260563 0.769594
Si Si7 0.903232 0.127836 0.331976
O O1 0.154130 0.445826 0.640088
O O2 0.356086 0.726617 0.676167
O O3 0.956840 0.466570 0.596031
O O4 0.148175 0.952539 0.990945
O O5 0.613455 0.543379 0.652728
O O6 0.862003 0.902739 0.768039
O O7 0.500000 0.000000 0.000000
O O8 0.822431 0.584232 0.243959
O O9 0.661712 0.913122 0.629555
O O10 0.062694 0.009746 0.569084
O O11 0.629845 0.564842 0.151550
O O12 0.000000 0.500000 0.000000
O O13 0.744573 0.081652 0.274108
O O14 0.500000 0.000000 0.500000
O O15 0.215358 0.073152 0.724519
O O16 0.500000 0.500000 0.000000
#
# Coordination Sequence:
#
# PCOD9060600 Si02
#       7
#     2   2   2   2   2   2   2
#     4  11  23  43  73  98 147 193 247 310 392 455
#     4  11  24  41  70 107 140 190 252 307 390 460
#     4  11  24  45  72 104 152 191 260 327 391 465
#     4  11  28  45  76 109 146 202 269 325 396 463
#     4  11  25  44  67 108 147 193 252 310 394 470
#     4  12  30  53  81 116 161 212 267 326 402 470
#     4  11  27  45  71 105 156 196 249 325 384 471
#
# _framework density 24.999264
#
# number of rings (size 3 to 8) (size 9 to 14) (size 15 to 20)
#    0.000    0.857    2.857    3.000   12.000    3.429 
#    0.000    0.000    0.000    0.000    0.000    0.000 
#    0.000    0.000    0.000    0.000    0.000    0.000 
#
# Total GULP energy -78027.894567 kJ/mol
# GULP energy per Si atom -5573.421041 kJ/mol
# Density = 2.494237 g / cm^3
# Si number density = 24.999264 Si / 1000 Ang^3
#
#
#
# Elastic Constant Matrix: (Units=GPa)
#
#
# Indices 1 2 3 4 5 6 
#
# 1 109.2288 30.8157 20.7158 -22.5413 -0.1957 -14.8605
# 2 30.8157 109.3577 6.8969 -24.0188 4.4285 1.4450
# 3 20.7158 6.8969 86.7102 -7.5157 14.0949 -8.7111
# 4 -22.5413 -24.0188 -7.5157 31.6363 2.6067 14.6489
# 5 -0.1957 4.4285 14.0949 2.6067 48.3226 1.6181
# 6 -14.8605 1.4450 -8.7111 14.6489 1.6181 43.8581
#
#
#
# Elastic Compliance Matrix: (Units=1/GPa)
#
#
# Indices 1 2 3 4 5 6 
#
# 1 0.011429 -0.001965 -0.002013 0.005328 0.000468 0.001740
# 2 -0.001965 0.011961 0.000195 0.009820 -0.001549 -0.004244
# 3 -0.002013 0.000195 0.012912 0.001381 -0.003919 0.001559
# 4 0.005328 0.009820 0.001381 0.050400 -0.003500 -0.014948
# 5 0.000468 -0.001549 -0.003919 -0.003500 0.022177 -0.000218
# 6 0.001740 -0.004244 0.001559 -0.014948 -0.000218 0.028841
#
#
# Mechanical properties :
#
#
# Convention : Reuss Voigt Hill
#
# Bulk Modulus (GPa) = 34.80244 46.90596 40.85420
# Shear Modulus (GPa) = 32.28614 41.22128 36.75371
#
# Velocity S-wave (km/s) = 3.59762 4.06507 3.83847
# Velocity P-wave (km/s) = 5.58648 6.39036 6.00190
#
# Compressibility (1/GPa) = 0.02873362
#
# Stress axis : x y z
#
# Youngs Moduli (GPa) = 87.50010 83.60213 77.44972
#
# Poissons Ratio (x) = 0.16428 0.15594
# Poissons Ratio (y) = 0.17194 -0.01507
# Poissons Ratio (z) = 0.17618 -0.01627
#
# Static dielectric constant tensor:
#      x y z
#    x 2.040080 -0.028600 0.081410 
#    y -0.028600 1.951120 -0.077230 
#    z 0.081410 -0.077230 2.157110 
# 
# From -- ./inp_files/561462.got.cif
#   From: 2010.05.17/outbox.cif.g08.bks.cpg/sg2_281_cif.got.tgz:561462.got - 2010.06.03 11:33:40.
