data_PCOD9060519
_publ_section_title
;
Structure prediction by ZEFSAII (Michael W. Deem and Ramdas Pophale) SiO2 
 PCOD9060519
Probable space group: P -1
;
_chemical_formula_sum "Si O2"
_cell_formula_units_Z 16
_cell_length_a 11.684831
_cell_length_b 11.809272
_cell_length_c 9.795692
_cell_angle_alpha 125.383292
_cell_angle_beta 48.855901
_cell_angle_gamma 93.610548
_cell_volume 709.897329
_symmetry_space_group_name_H-M "P -1"
_symmetry_group_IT_number 2
_symmetry_cell_setting 'triclinic'
loop_
_space_group_symop_operation_xyz
x,y,z
-x,-y,-z
loop_
_atom_site_type_symbol
_atom_site_label
_atom_site_fract_x
_atom_site_fract_y
_atom_site_fract_z
Si Si1 0.236454 0.627635 0.506444
Si Si2 0.579288 0.742628 0.874491
Si Si3 0.723241 0.993105 0.527835
Si Si4 0.861116 0.828194 0.824304
Si Si5 0.648952 0.110466 0.389520
Si Si6 0.662705 0.727823 0.475770
Si Si7 0.080376 0.947334 0.251850
Si Si8 0.286401 0.593668 0.753433
O O1 0.378466 0.436612 0.244419
O O2 0.306609 0.750003 0.514785
O O3 0.196041 0.641686 0.709716
O O4 0.061274 0.683880 0.594454
O O5 0.725384 0.770286 0.854133
O O6 0.604161 0.752153 0.698189
O O7 0.389130 0.881296 0.176359
O O8 0.602405 0.061104 0.535131
O O9 0.767931 0.817682 0.421531
O O10 0.904462 0.981084 0.332847
O O11 0.855268 0.940028 0.782777
O O12 0.803079 0.946597 0.083581
O O13 0.502589 0.184963 0.436973
O O14 0.754579 0.536775 0.242375
O O15 0.222851 0.757659 0.998414
O O16 0.000000 0.000000 0.500000
O O17 0.500000 0.500000 0.500000
#
# Coordination Sequence:
#
# PCOD9060519 Si02
#       8
#     2   2   2   2   2   2   2   2
#     4  11  23  43  72 103 132 189 240 285 347 426
#     4  11  27  43  74 101 147 186 237 291 360 417
#     4  12  26  44  67 112 139 183 238 301 347 417
#     4  12  23  48  69  99 142 193 233 288 356 432
#     4  12  23  43  73 101 136 188 240 284 356 423
#     4  11  24  44  73  99 142 191 237 283 361 427
#     4  12  27  42  72 106 145 183 243 294 351 415
#     4  11  23  44  72 102 135 189 237 282 351 432
#
# _framework density 22.53847
#
# number of rings (size 3 to 8) (size 9 to 14) (size 15 to 20)
#    0.000    0.500    5.000    3.000    5.250    1.000 
#    2.250    1.250    0.000    0.000    0.000    0.000 
#    0.000    0.000    0.000    0.000    0.000    0.000 
#
# Total GULP energy -89510.913725 kJ/mol
# GULP energy per Si atom -5594.432108 kJ/mol
# Density = 2.248717 g / cm^3
# Si number density = 22.538470 Si / 1000 Ang^3
#
#
#
# Elastic Constant Matrix: (Units=GPa)
#
#
# Indices 1 2 3 4 5 6 
#
# 1 84.2672 14.6611 15.8797 9.0233 3.8597 1.7870
# 2 14.6611 129.8946 26.1815 19.9846 18.5424 -4.2233
# 3 15.8797 26.1815 65.8646 13.3677 10.7518 -8.0455
# 4 9.0233 19.9846 13.3677 30.6643 -5.8494 5.7335
# 5 3.8597 18.5424 10.7518 -5.8494 28.9282 -2.3795
# 6 1.7870 -4.2233 -8.0455 5.7335 -2.3795 43.7521
#
#
#
# Elastic Compliance Matrix: (Units=1/GPa)
#
#
# Indices 1 2 3 4 5 6 
#
# 1 0.012712 -0.000446 -0.002272 -0.002544 -0.001139 -0.000709
# 2 -0.000446 0.010298 -0.000954 -0.007898 -0.007664 0.001455
# 3 -0.002272 -0.000954 0.019980 -0.009814 -0.008124 0.004519
# 4 -0.002544 -0.007898 -0.009814 0.047675 0.018054 -0.007729
# 5 -0.001139 -0.007664 -0.008124 0.018054 0.046134 -0.002044
# 6 -0.000709 0.001455 0.004519 -0.007729 -0.002044 0.024758
#
#
# Mechanical properties :
#
#
# Convention : Reuss Voigt Hill
#
# Bulk Modulus (GPa) = 28.05382 43.71901 35.88641
# Shear Modulus (GPa) = 27.65754 35.55587 31.60671
#
# Velocity S-wave (km/s) = 3.50684 3.97616 3.74885
# Velocity P-wave (km/s) = 5.37320 6.36549 5.89028
#
# Compressibility (1/GPa) = 0.03564578
#
# Stress axis : x y z
#
# Youngs Moduli (GPa) = 78.66361 97.10975 50.05090
#
# Poissons Ratio (x) = 0.04330 0.11371
# Poissons Ratio (y) = 0.03508 0.04776
# Poissons Ratio (z) = 0.17871 0.09266
#
# Static dielectric constant tensor:
#      x y z
#    x 1.969120 0.031270 -0.011770 
#    y 0.031270 1.817920 0.011830 
#    z -0.011770 0.011830 1.820530 
# 
# From -- ./inp_files/262930.got.cif
#   From: 2010.05.17/outbox.cif.g08.bks.cpg/sg2_132_cif.got.tgz:262930.got - 2010.06.03 11:33:40.
