data_PCOD9060338
_publ_section_title
;
Structure prediction by ZEFSAII (Michael W. Deem and Ramdas Pophale) SiO2 
 PCOD9060338
Probable space group: P -1
;
_chemical_formula_sum "Si O2"
_cell_formula_units_Z 15
_cell_length_a 21.062392
_cell_length_b 14.683267
_cell_length_c 6.721696
_cell_angle_alpha 98.412310
_cell_angle_beta 92.021778
_cell_angle_gamma 20.736358
_cell_volume 696.845685
_symmetry_space_group_name_H-M "P -1"
_symmetry_group_IT_number 2
_symmetry_cell_setting 'triclinic'
loop_
_space_group_symop_operation_xyz
x,y,z
-x,-y,-z
loop_
_atom_site_type_symbol
_atom_site_label
_atom_site_fract_x
_atom_site_fract_y
_atom_site_fract_z
Si Si1 0.317587 0.748758 0.419983
Si Si2 0.500000 0.000000 0.000000
Si Si3 0.893103 0.418180 0.074241
Si Si4 0.101297 0.283503 0.812162
Si Si5 0.873425 0.810093 0.637956
Si Si6 0.071308 0.995184 0.802489
Si Si7 0.393174 0.933780 0.004943
Si Si8 0.272236 0.654609 0.079132
O O1 0.500000 0.500000 0.500000
O O2 0.346958 0.638589 0.206604
O O3 0.253632 0.933793 0.383137
O O4 0.150434 0.935431 0.597054
O O5 0.681453 0.724197 0.079415
O O6 0.406944 0.024485 0.035295
O O7 0.955633 0.376664 0.279319
O O8 0.025321 0.291896 0.892188
O O9 0.958637 0.223603 0.997090
O O10 0.065342 0.331965 0.591325
O O11 0.000000 0.500000 0.000000
O O12 0.317478 0.003976 0.803008
O O13 0.749741 0.916870 0.805908
O O14 0.928632 0.106388 0.786253
O O15 0.239674 0.728623 0.872319
O O16 0.589197 0.618997 0.968116
#
# Coordination Sequence:
#
# PCOD9060338 Si02
#       8
#     2   1   2   2   2   2   2   2
#     4  12  24  40  70 104 143 182 230 283 346 412
#     4  12  24  50  68 100 140 182 226 302 348 400
#     4  11  23  45  72  96 136 184 231 286 346 411
#     4  11  23  46  71  96 137 181 231 288 341 407
#     4  11  25  43  71 104 133 184 236 283 351 412
#     4  11  23  43  69  97 143 184 221 287 346 414
#     4  11  25  43  71  99 139 178 236 289 341 413
#     4  11  24  42  67 102 139 183 231 279 347 413
#
# _framework density 21.525568
#
# number of rings (size 3 to 8) (size 9 to 14) (size 15 to 20)
#    0.000    0.800    5.333    2.000    1.867    3.200 
#    0.000    4.000    0.000    0.000    0.000    0.000 
#    0.000    0.000    0.000    0.000    0.000    0.000 
#
# Total GULP energy -83586.216252 kJ/mol
# GULP energy per Si atom -5572.414417 kJ/mol
# Density = 2.147658 g / cm^3
# Si number density = 21.525568 Si / 1000 Ang^3
#
#
#
# Elastic Constant Matrix: (Units=GPa)
#
#
# Indices 1 2 3 4 5 6 
#
# 1 117.0611 24.2351 29.2336 -16.6211 -4.4278 -1.3553
# 2 24.2351 109.0381 24.7740 -42.7068 8.4196 3.2539
# 3 29.2336 24.7740 83.9961 -20.4836 8.7378 -2.1142
# 4 -16.6211 -42.7068 -20.4836 32.6203 0.5321 4.2047
# 5 -4.4278 8.4196 8.7378 0.5321 32.4536 -10.3966
# 6 -1.3553 3.2539 -2.1142 4.2047 -10.3966 47.4640
#
#
#
# Elastic Compliance Matrix: (Units=1/GPa)
#
#
# Indices 1 2 3 4 5 6 
#
# 1 0.009845 -0.001133 -0.002974 0.001537 0.002626 0.000665
# 2 -0.001133 0.021418 0.002062 0.029664 -0.008653 -0.005932
# 3 -0.002974 0.002062 0.015674 0.011360 -0.005935 -0.001834
# 4 0.001537 0.029664 0.011360 0.079202 -0.015666 -0.011932
# 5 0.002626 -0.008653 -0.005935 -0.015666 0.038550 0.010236
# 6 0.000665 -0.005932 -0.001834 -0.011932 0.010236 0.024712
#
#
# Mechanical properties :
#
#
# Convention : Reuss Voigt Hill
#
# Bulk Modulus (GPa) = 23.33890 51.84230 37.59060
# Shear Modulus (GPa) = 24.06472 37.96441 31.01457
#
# Velocity S-wave (km/s) = 3.34722 4.20419 3.79994
# Velocity P-wave (km/s) = 5.07981 6.90675 6.06249
#
# Compressibility (1/GPa) = 0.04284693
#
# Stress axis : x y z
#
# Youngs Moduli (GPa) = 101.57405 46.68924 63.80183
#
# Poissons Ratio (x) = 0.05291 0.18974
# Poissons Ratio (y) = 0.11511 -0.13157
# Poissons Ratio (z) = 0.30206 -0.09628
#
# Static dielectric constant tensor:
#      x y z
#    x 1.779100 0.010400 0.020690 
#    y 0.010400 1.837700 -0.002390 
#    z 0.020690 -0.002390 1.785480 
# 
# From -- ./inp_files/112676.got.cif
#   From: 2010.05.17/outbox.cif.g08.bks.cpg/sg2_57_cif.got.tgz:112676.got - 2010.06.03 11:33:40.
