data_PCOD9060050
_publ_section_title
;
Structure prediction by ZEFSAII (Michael W. Deem and Ramdas Pophale) SiO2 
 PCOD9060050
Probable space group: P -1
;
_chemical_formula_sum "Si O2"
_cell_formula_units_Z 14
_cell_length_a 22.437535
_cell_length_b 5.315016
_cell_length_c 13.416155
_cell_angle_alpha 110.594987
_cell_angle_beta 21.169809
_cell_angle_gamma 111.137698
_cell_volume 538.350946
_symmetry_space_group_name_H-M "P -1"
_symmetry_group_IT_number 2
_symmetry_cell_setting 'triclinic'
loop_
_space_group_symop_operation_xyz
x,y,z
-x,-y,-z
loop_
_atom_site_type_symbol
_atom_site_label
_atom_site_fract_x
_atom_site_fract_y
_atom_site_fract_z
Si Si1 0.114898 0.963140 0.158756
Si Si2 0.012188 0.092503 0.130903
Si Si3 0.657608 0.066171 0.504249
Si Si4 0.694104 0.697690 0.572256
Si Si5 0.193096 0.460913 0.214772
Si Si6 0.397287 0.709364 0.743622
Si Si7 0.799329 0.557932 0.581177
O O1 0.940497 0.795016 0.423322
O O2 0.091779 0.140307 0.122836
O O3 0.186413 0.140038 0.163851
O O4 0.256249 0.770003 0.893494
O O5 0.893336 0.333843 0.342675
O O6 0.888465 0.818893 0.287176
O O7 0.164172 0.041573 0.815930
O O8 0.665821 0.390211 0.535903
O O9 0.613293 0.910823 0.656982
O O10 0.526088 0.955203 0.611582
O O11 0.665900 0.672225 0.732212
O O12 0.255088 0.552027 0.240444
O O13 0.000000 0.500000 0.500000
O O14 0.304925 0.596110 0.971761
O O15 0.500000 0.500000 0.500000
#
# Coordination Sequence:
#
# PCOD9060050 Si02
#       7
#     2   2   2   2   2   2   2
#     4  11  23  42  74 108 148 189 242 315 374 439
#     4  11  23  42  75 106 148 187 256 307 365 438
#     4  12  27  45  70 107 151 200 242 308 373 442
#     4  11  26  45  71 106 147 199 255 300 365 439
#     4  12  24  45  72 110 148 193 250 301 377 447
#     4  12  29  47  72 111 154 192 243 307 383 449
#     4  11  23  43  72 109 139 190 256 313 351 440
#
# _framework density 26.005341999999999
#
# number of rings (size 3 to 8) (size 9 to 14) (size 15 to 20)
#    0.000    0.571    4.286    3.000    8.000    1.143 
#    0.000    1.429    0.000    0.000    0.000    0.000 
#    0.000    0.000    0.000    0.000    0.000    0.000 
#
# Total GULP energy -78353.577852 kJ/mol
# GULP energy per Si atom -5596.684132 kJ/mol
# Density = 2.594615 g / cm^3
# Si number density = 26.005342 Si / 1000 Ang^3
#
#
#
# Elastic Constant Matrix: (Units=GPa)
#
#
# Indices 1 2 3 4 5 6 
#
# 1 92.0440 12.3881 2.2339 -6.6195 8.3880 -5.0681
# 2 12.3881 131.1144 10.3639 -13.5077 11.0769 10.7778
# 3 2.2339 10.3639 68.7666 -10.7744 19.5501 -1.7576
# 4 -6.6195 -13.5077 -10.7744 38.9059 1.7656 -9.7566
# 5 8.3880 11.0769 19.5501 1.7656 26.7501 -4.6353
# 6 -5.0681 10.7778 -1.7576 -9.7566 -4.6353 42.1360
#
#
#
# Elastic Compliance Matrix: (Units=1/GPa)
#
#
# Indices 1 2 3 4 5 6 
#
# 1 0.011612 -0.000714 0.001419 0.002768 -0.004252 0.001812
# 2 -0.000714 0.008444 0.000219 0.002527 -0.003961 -0.002087
# 3 0.001419 0.000219 0.019915 0.006735 -0.015395 0.000811
# 4 0.002768 0.002527 0.006735 0.030838 -0.007789 0.006251
# 5 -0.004252 -0.003961 -0.015395 -0.007789 0.052791 0.003864
# 6 0.001812 -0.002087 0.000811 0.006251 0.003864 0.026391
#
#
# Mechanical properties :
#
#
# Convention : Reuss Voigt Hill
#
# Bulk Modulus (GPa) = 23.91163 37.98853 30.95008
# Shear Modulus (GPa) = 30.84860 39.35437 35.10149
#
# Velocity S-wave (km/s) = 3.44792 3.89436 3.67792
# Velocity P-wave (km/s) = 5.00657 5.90433 5.47388
#
# Compressibility (1/GPa) = 0.04182065
#
# Stress axis : x y z
#
# Youngs Moduli (GPa) = 86.11570 118.43253 50.21234
#
# Poissons Ratio (x) = 0.08455 -0.07126
# Poissons Ratio (y) = 0.06148 -0.01102
# Poissons Ratio (z) = -0.12220 -0.02599
#
# Static dielectric constant tensor:
#      x y z
#    x 2.439590 -0.081040 0.208820 
#    y -0.081040 2.082820 0.019510 
#    z 0.208820 0.019510 2.144740 
# 
# From -- ./inp_files/542233.got.cif
#   From: 2010.05.17/outbox.cif.g08.bks.cpg/sg2_272_cif.got.tgz:542233.got - 2010.06.03 11:33:40.
