data_PCOD9060860
_publ_section_title
;
Structure prediction by ZEFSAII (Michael W. Deem and Ramdas Pophale) SiO2 
 PCOD9060860
Probable space group: P -1
;
_chemical_formula_sum "Si O2"
_cell_formula_units_Z 16
_cell_length_a 13.992497
_cell_length_b 9.308032
_cell_length_c 11.693080
_cell_angle_alpha 73.333063
_cell_angle_beta 76.492357
_cell_angle_gamma 28.432081
_cell_volume 694.052992
_symmetry_space_group_name_H-M "P -1"
_symmetry_group_IT_number 2
_symmetry_cell_setting 'triclinic'
loop_
_space_group_symop_operation_xyz
x,y,z
-x,-y,-z
loop_
_atom_site_type_symbol
_atom_site_label
_atom_site_fract_x
_atom_site_fract_y
_atom_site_fract_z
Si Si1 0.829584 0.787747 0.261214
Si Si2 0.289101 0.191151 0.310823
Si Si3 0.135634 0.965312 0.669107
Si Si4 0.807312 0.865625 0.989848
Si Si5 0.458637 0.387933 0.573276
Si Si6 0.212149 0.451433 0.510420
Si Si7 0.458960 0.188171 0.883158
Si Si8 0.016995 0.899265 0.896361
O O1 0.743198 0.916415 0.127949
O O2 0.799038 0.673741 0.367953
O O3 0.070844 0.493877 0.247653
O O4 0.771531 0.010711 0.302118
O O5 0.293696 0.279787 0.405414
O O6 0.325601 0.970740 0.383528
O O7 0.474227 0.964682 0.224182
O O8 0.308875 0.617997 0.667291
O O9 0.989275 0.066522 0.771438
O O10 0.005817 0.193078 0.545268
O O11 0.000000 0.500000 0.000000
O O12 0.873021 0.948614 0.932136
O O13 0.629837 0.076274 0.901039
O O14 0.500000 0.500000 0.500000
O O15 0.343988 0.416832 0.522541
O O16 0.236410 0.538732 0.892094
O O17 0.500000 0.000000 0.000000
O O18 0.000000 0.000000 0.000000
#
# Coordination Sequence:
#
# PCOD9060860 Si02
#       8
#     2   2   2   2   2   2   2   2
#     4  11  23  47  72 103 142 192 242 288 360 437
#     4  11  23  44  69 101 141 182 240 295 348 434
#     4  11  24  46  71 100 143 186 231 300 361 423
#     4  12  25  45  78 107 144 196 243 301 363 433
#     4  12  25  43  64 103 143 176 237 296 355 418
#     4  11  26  44  72 102 139 198 235 289 364 431
#     4  12  26  45  75 109 141 192 249 295 361 439
#     4  12  26  50  71 108 150 187 242 305 368 423
#
# _framework density 23.052994000000002
#
# number of rings (size 3 to 8) (size 9 to 14) (size 15 to 20)
#    0.000    0.500    5.000    3.750    5.250    1.500 
#    0.000    0.000    0.000    0.000    0.000    0.000 
#    0.000    0.000    0.000    0.000    0.000    0.000 
#
# Total GULP energy -89377.143160 kJ/mol
# GULP energy per Si atom -5586.071447 kJ/mol
# Density = 2.300052 g / cm^3
# Si number density = 23.052994 Si / 1000 Ang^3
#
#
#
# Elastic Constant Matrix: (Units=GPa)
#
#
# Indices 1 2 3 4 5 6 
#
# 1 137.1788 8.2999 49.5046 3.9068 -18.1378 14.9379
# 2 8.2999 82.3530 3.0311 14.3913 7.6921 10.2403
# 3 49.5046 3.0311 118.7630 8.1467 -13.4474 2.2455
# 4 3.9068 14.3913 8.1467 36.2335 4.7601 -5.5756
# 5 -18.1378 7.6921 -13.4474 4.7601 41.2483 -7.8491
# 6 14.9379 10.2403 2.2455 -5.5756 -7.8491 31.8587
#
#
#
# Elastic Compliance Matrix: (Units=1/GPa)
#
#
# Indices 1 2 3 4 5 6 
#
# 1 0.009302 -0.000443 -0.003455 -0.000918 0.002482 -0.003525
# 2 -0.000443 0.014370 -0.000020 -0.006185 -0.003371 -0.006323
# 3 -0.003455 -0.000020 0.010237 -0.002049 0.002269 0.001105
# 4 -0.000918 -0.006185 -0.002049 0.032076 -0.002166 0.007643
# 5 0.002482 -0.003371 0.002269 -0.002166 0.028155 0.006317
# 6 -0.003525 -0.006323 0.001105 0.007643 0.006317 0.037890
#
#
# Mechanical properties :
#
#
# Convention : Reuss Voigt Hill
#
# Bulk Modulus (GPa) = 38.35455 51.10732 44.73093
# Shear Modulus (GPa) = 33.65704 40.36539 37.01122
#
# Velocity S-wave (km/s) = 3.82512 4.18901 4.01120
# Velocity P-wave (km/s) = 6.01518 6.75387 6.39520
#
# Compressibility (1/GPa) = 0.02607253
#
# Stress axis : x y z
#
# Youngs Moduli (GPa) = 107.50849 69.58851 97.68035
#
# Poissons Ratio (x) = 0.03085 0.33751
# Poissons Ratio (y) = 0.04766 0.00193
# Poissons Ratio (z) = 0.37147 0.00137
#
# Static dielectric constant tensor:
#      x y z
#    x 1.404470 0.052990 0.084140 
#    y 0.052990 1.849960 -0.013400 
#    z 0.084140 -0.013400 1.836170 
# 
# From -- ./inp_files/382676.got.cif
#   From: 2010.05.17/outbox.cif.g08.bks.cpg/sg2_192_cif.got.tgz:382676.got - 2010.06.03 11:33:40.
