data_PCOD9060320
_publ_section_title
;
Structure prediction by ZEFSAII (Michael W. Deem and Ramdas Pophale) SiO2 
 PCOD9060320
Probable space group: P -1
;
_chemical_formula_sum "Si O2"
_cell_formula_units_Z 12
_cell_length_a 4.930811
_cell_length_b 21.415414
_cell_length_c 10.401936
_cell_angle_alpha 28.074399
_cell_angle_beta 91.584476
_cell_angle_gamma 95.281898
_cell_volume 511.354993
_symmetry_space_group_name_H-M "P -1"
_symmetry_group_IT_number 2
_symmetry_cell_setting 'triclinic'
loop_
_space_group_symop_operation_xyz
x,y,z
-x,-y,-z
loop_
_atom_site_type_symbol
_atom_site_label
_atom_site_fract_x
_atom_site_fract_y
_atom_site_fract_z
Si Si1 0.237552 0.144387 0.988836
Si Si2 0.306782 0.193055 0.605193
Si Si3 0.886269 0.637781 0.221983
Si Si4 0.687668 0.979311 0.324666
Si Si5 0.834459 0.356239 0.226965
Si Si6 0.399285 0.713822 0.926347
O O1 0.527177 0.105726 0.105143
O O2 0.224908 0.146460 0.831226
O O3 0.177587 0.283521 0.794044
O O4 0.007876 0.028400 0.249850
O O5 0.371122 0.078720 0.715516
O O6 0.054718 0.254070 0.427557
O O7 0.577256 0.304764 0.408918
O O8 0.000000 0.500000 0.500000
O O9 0.608369 0.627442 0.154178
O O10 0.130614 0.722186 0.991019
O O11 0.569014 0.859218 0.634479
O O12 0.706756 0.350369 0.094000
O O13 0.000000 0.500000 0.000000
#
# Coordination Sequence:
#
# PCOD9060320 Si02
#       6
#     2   2   2   2   2   2
#     4  12  25  43  72 105 142 190 227 283 355 421
#     4  11  23  43  69 108 146 174 234 294 352 413
#     4  12  28  48  70 100 146 191 234 286 346 417
#     4  11  23  44  73 105 140 178 238 292 354 404
#     4  11  24  44  72 104 137 193 229 288 353 410
#     4  11  25  48  72 101 142 183 237 297 339 414
#
# _framework density 23.467063
#
# number of rings (size 3 to 8) (size 9 to 14) (size 15 to 20)
#    0.000    0.667    0.000    9.000    2.333    4.000 
#    0.000    0.000    0.000    0.000    0.000    0.000 
#    0.000    0.000    0.000    0.000    0.000    0.000 
#
# Total GULP energy -67275.622844 kJ/mol
# GULP energy per Si atom -5606.301904 kJ/mol
# Density = 2.341365 g / cm^3
# Si number density = 23.467063 Si / 1000 Ang^3
#
#
#
# Elastic Constant Matrix: (Units=GPa)
#
#
# Indices 1 2 3 4 5 6 
#
# 1 138.0126 15.4343 19.9768 7.8444 5.8146 -0.0565
# 2 15.4343 62.7021 29.2630 0.8704 8.4829 -11.4269
# 3 19.9768 29.2630 61.9294 -6.3188 18.3160 -5.2546
# 4 7.8444 0.8704 -6.3188 16.6136 -7.2048 -5.8261
# 5 5.8146 8.4829 18.3160 -7.2048 47.6703 -1.3100
# 6 -0.0565 -11.4269 -5.2546 -5.8261 -1.3100 39.8981
#
#
#
# Elastic Compliance Matrix: (Units=1/GPa)
#
#
# Indices 1 2 3 4 5 6 
#
# 1 0.008075 -0.000811 -0.002711 -0.005595 -0.000684 -0.001417
# 2 -0.000811 0.021613 -0.009790 -0.003056 -0.000326 0.004443
# 3 -0.002711 -0.009790 0.024452 0.009071 -0.005909 0.001543
# 4 -0.005595 -0.003056 0.009071 0.074517 0.009319 0.011499
# 5 -0.000684 -0.000326 -0.005909 0.009319 0.024833 0.001304
# 6 -0.001417 0.004443 0.001543 0.011499 0.001304 0.028259
#
#
# Mechanical properties :
#
#
# Convention : Reuss Voigt Hill
#
# Bulk Modulus (GPa) = 36.34032 43.55470 39.94751
# Shear Modulus (GPa) = 22.98385 34.03440 28.50913
#
# Velocity S-wave (km/s) = 3.13295 3.81242 3.48926
# Velocity P-wave (km/s) = 5.34850 6.16276 5.77001
#
# Compressibility (1/GPa) = 0.02751764
#
# Stress axis : x y z
#
# Youngs Moduli (GPa) = 123.83986 46.26859 40.89699
#
# Poissons Ratio (x) = 0.03751 0.11085
# Poissons Ratio (y) = 0.10041 0.40037
# Poissons Ratio (z) = 0.33567 0.45295
#
# Static dielectric constant tensor:
#      x y z
#    x 1.837230 -0.012400 -0.016900 
#    y -0.012400 1.885230 -0.015670 
#    z -0.016900 -0.015670 1.883680 
# 
# From -- ./inp_files/370791.got.cif
#   From: 2010.05.17/outbox.cif.g08.bks.cpg/sg2_186_cif.got.tgz:370791.got - 2010.06.03 11:33:40.
