data_PCOD9060625
_publ_section_title
;
Structure prediction by ZEFSAII (Michael W. Deem and Ramdas Pophale) SiO2 
 PCOD9060625
Probable space group: P -1
;
_chemical_formula_sum "Si O2"
_cell_formula_units_Z 16
_cell_length_a 17.204242
_cell_length_b 11.281944
_cell_length_c 9.304934
_cell_angle_alpha 64.600917
_cell_angle_beta 42.949916
_cell_angle_gamma 97.286549
_cell_volume 775.878563
_symmetry_space_group_name_H-M "P -1"
_symmetry_group_IT_number 2
_symmetry_cell_setting 'triclinic'
loop_
_space_group_symop_operation_xyz
x,y,z
-x,-y,-z
loop_
_atom_site_type_symbol
_atom_site_label
_atom_site_fract_x
_atom_site_fract_y
_atom_site_fract_z
Si Si1 0.199831 0.726214 0.807399
Si Si2 0.962499 0.748040 0.246694
Si Si3 0.569322 0.141164 0.117072
Si Si4 0.309329 0.881997 0.291348
Si Si5 0.214016 0.176063 0.700530
Si Si6 0.515654 0.472026 0.329415
Si Si7 0.761732 0.447768 0.928665
Si Si8 0.386696 0.204610 0.167974
O O1 0.202666 0.712837 0.637720
O O2 0.389225 0.927064 0.479594
O O3 0.159273 0.565695 0.039303
O O4 0.081199 0.744698 0.007439
O O5 0.840863 0.720882 0.314602
O O6 0.877848 0.603419 0.568032
O O7 0.066140 0.958154 0.053824
O O8 0.535935 0.247362 0.016365
O O9 0.698502 0.159118 0.843804
O O10 0.644989 0.248214 0.107731
O O11 0.294287 0.019745 0.291722
O O12 0.500000 0.000000 0.000000
O O13 0.348574 0.281208 0.586565
O O14 0.286600 0.178654 0.451549
O O15 0.500000 0.500000 0.500000
O O16 0.652194 0.474193 0.124305
O O17 0.560768 0.633876 0.086827
#
# Coordination Sequence:
#
# PCOD9060625 Si02
#       8
#     2   2   2   2   2   2   2   2
#     4  10  20  38  59  89 126 161 202 253 307 359
#     4  11  22  39  66  88 126 172 208 242 301 388
#     4  10  20  37  65  91 119 162 214 257 300 354
#     4   8  18  34  60  88 118 157 202 259 292 351
#     4  11  21  42  68  87 121 168 214 246 305 377
#     4  12  26  39  64  99 123 155 205 275 312 349
#     4  12  23  37  61  93 127 162 204 253 312 369
#     4  10  17  39  62  89 119 151 214 251 300 363
#
# _framework density 20.621783000000001
#
# number of rings (size 3 to 8) (size 9 to 14) (size 15 to 20)
#    0.000    1.750    5.000    1.875    5.250    0.000 
#    0.000    1.250    2.750    0.000    0.000    0.000 
#    0.000    0.000    0.000    0.000    0.000    0.000 
#
# Total GULP energy -89305.947993 kJ/mol
# GULP energy per Si atom -5581.621750 kJ/mol
# Density = 2.057485 g / cm^3
# Si number density = 20.621783 Si / 1000 Ang^3
#
#
#
# Elastic Constant Matrix: (Units=GPa)
#
#
# Indices 1 2 3 4 5 6 
#
# 1 44.7213 32.8231 17.2731 19.6219 -4.4063 -22.5499
# 2 32.8231 61.5181 39.0564 27.6963 8.3007 3.4152
# 3 17.2731 39.0564 94.1778 25.4831 0.0303 2.7132
# 4 19.6219 27.6963 25.4831 36.3092 1.3244 11.2040
# 5 -4.4063 8.3007 0.0303 1.3244 8.9360 1.4559
# 6 -22.5499 3.4152 2.7132 11.2040 1.4559 16.2266
#
#
#
# Elastic Compliance Matrix: (Units=1/GPa)
#
#
# Indices 1 2 3 4 5 6 
#
# 1 -0.027775 0.010994 -0.005727 0.029400 -0.018703 -0.058576
# 2 0.010994 0.032381 -0.006629 -0.036497 -0.025261 0.037038
# 3 -0.005727 -0.006629 0.014452 0.000937 0.004784 -0.010056
# 4 0.029400 -0.036497 0.000937 0.029932 0.040030 0.024123
# 5 -0.018703 -0.025261 0.004784 0.040030 0.130104 -0.060787
# 6 -0.058576 0.037038 -0.010056 0.024123 -0.060787 -0.037091
#
#
# Mechanical properties :
#
#
# Convention : Reuss Voigt Hill
#
# Bulk Modulus (GPa) = 61.21221 42.08027 51.64624
# Shear Modulus (GPa) = 33.29503 19.71199 26.50351
#
# Velocity S-wave (km/s) = 4.02251 3.09509 3.58888
# Velocity P-wave (km/s) = 7.16393 5.76392 6.50172
#
# Compressibility (1/GPa) = 0.01633661
#
# Stress axis : x y z
#
# Youngs Moduli (GPa) = -36.00416 30.88192 69.19303
#
# Poissons Ratio (x) = -0.33953 0.39626
# Poissons Ratio (y) = 0.39584 0.45866
# Poissons Ratio (z) = -0.20619 0.20471
#
# Static dielectric constant tensor:
#      x y z
#    x 1.758230 0.030560 -0.004750 
#    y 0.030560 1.782480 -0.014470 
#    z -0.004750 -0.014470 1.762210 
# 
# From -- ./inp_files/331809.got.cif
#   From: 2010.05.17/outbox.cif.g08.bks.cpg/sg2_166_cif.got.tgz:331809.got - 2010.06.03 11:33:40.
