data_PCOD9060775
_publ_section_title
;
Structure prediction by ZEFSAII (Michael W. Deem and Ramdas Pophale) SiO2 
 PCOD9060775
Probable space group: P -1
;
_chemical_formula_sum "Si O2"
_cell_formula_units_Z 14
_cell_length_a 9.100035
_cell_length_b 9.973637
_cell_length_c 11.617260
_cell_angle_alpha 74.659065
_cell_angle_beta 58.789246
_cell_angle_gamma 118.226132
_cell_volume 585.282553
_symmetry_space_group_name_H-M "P -1"
_symmetry_group_IT_number 2
_symmetry_cell_setting 'triclinic'
loop_
_space_group_symop_operation_xyz
x,y,z
-x,-y,-z
loop_
_atom_site_type_symbol
_atom_site_label
_atom_site_fract_x
_atom_site_fract_y
_atom_site_fract_z
Si Si1 0.710101 0.890478 0.627281
Si Si2 0.742811 0.222846 0.911012
Si Si3 0.994834 0.946065 0.881986
Si Si4 0.589379 0.009783 0.264718
Si Si5 0.338634 0.338983 0.496259
Si Si6 0.515416 0.665174 0.997667
Si Si7 0.814160 0.473869 0.501143
O O1 0.570670 0.717144 0.623339
O O2 0.617971 0.810024 0.812226
O O3 0.614568 0.992160 0.614486
O O4 0.000000 0.000000 0.500000
O O5 0.018154 0.366970 0.709710
O O6 0.718017 0.374592 0.870624
O O7 0.500000 0.000000 0.000000
O O8 0.716193 0.147644 0.066282
O O9 0.703455 0.770469 0.004196
O O10 0.154252 0.899838 0.800887
O O11 0.116617 0.127248 0.702265
O O12 0.000000 0.000000 0.000000
O O13 0.420530 0.768187 0.375633
O O14 0.500000 0.500000 0.500000
O O15 0.266280 0.430203 0.430526
O O16 0.500000 0.500000 0.000000
O O17 0.000000 0.500000 0.500000
#
# Coordination Sequence:
#
# PCOD9060775 Si02
#       7
#     2   2   2   2   2   2   2
#     4  11  25  48  72 101 150 185 245 303 360 433
#     4  11  23  44  67 104 145 185 247 298 352 442
#     4  12  26  48  75 105 155 190 240 307 371 432
#     4  11  25  46  70 107 144 196 239 306 371 425
#     4  12  26  46  69 109 142 187 240 303 360 439
#     4  11  27  46  73 104 140 196 239 298 371 432
#     4  12  24  40  75 105 141 191 252 293 362 442
#
# _framework density 23.920069000000002
#
# number of rings (size 3 to 8) (size 9 to 14) (size 15 to 20)
#    0.000    0.571    4.286    3.429    6.000    0.571 
#    2.571    1.429    0.000    0.000    0.000    0.000 
#    0.000    0.000    0.000    0.000    0.000    0.000 
#
# Total GULP energy -78036.255083 kJ/mol
# GULP energy per Si atom -5574.018220 kJ/mol
# Density = 2.386563 g / cm^3
# Si number density = 23.920069 Si / 1000 Ang^3
#
#
#
# Elastic Constant Matrix: (Units=GPa)
#
#
# Indices 1 2 3 4 5 6 
#
# 1 119.3647 39.2682 14.4825 1.1061 9.8456 -40.3024
# 2 39.2682 104.4668 9.2037 9.1674 13.0372 -28.9454
# 3 14.4825 9.2037 98.5668 0.8134 0.0072 -7.9500
# 4 1.1061 9.1674 0.8134 27.6782 -5.2835 9.0696
# 5 9.8456 13.0372 0.0072 -5.2835 28.3370 4.6654
# 6 -40.3024 -28.9454 -7.9500 9.0696 4.6654 64.0931
#
#
#
# Elastic Compliance Matrix: (Units=1/GPa)
#
#
# Indices 1 2 3 4 5 6 
#
# 1 0.012040 -0.001262 -0.000992 -0.003653 -0.005568 0.007800
# 2 -0.001262 0.013975 -0.000457 -0.008647 -0.008810 0.007326
# 3 -0.000992 -0.000457 0.010371 -0.000176 0.000445 0.000449
# 4 -0.003653 -0.008647 -0.000176 0.046856 0.016296 -0.014041
# 5 -0.005568 -0.008810 0.000445 0.016296 0.046474 -0.013113
# 6 0.007800 0.007326 0.000449 -0.014041 -0.013113 0.026813
#
#
# Mechanical properties :
#
#
# Convention : Reuss Voigt Hill
#
# Bulk Modulus (GPa) = 32.29280 49.81189 41.05234
# Shear Modulus (GPa) = 29.02391 41.31793 35.17092
#
# Velocity S-wave (km/s) = 3.48713 4.16063 3.83868
# Velocity P-wave (km/s) = 5.45371 6.62953 6.07016
#
# Compressibility (1/GPa) = 0.03096666
#
# Stress axis : x y z
#
# Youngs Moduli (GPa) = 83.05794 71.55588 96.41914
#
# Poissons Ratio (x) = 0.09028 0.09560
# Poissons Ratio (y) = 0.10479 0.04403
# Poissons Ratio (z) = 0.08235 0.03268
#
# Static dielectric constant tensor:
#      x y z
#    x 1.985550 -0.024270 -0.075830 
#    y -0.024270 2.020900 0.046740 
#    z -0.075830 0.046740 2.001650 
# 
# From -- ./inp_files/159343.got.cif
#   From: 2010.05.17/outbox.cif.g08.bks.cpg/sg2_80_cif.got.tgz:159343.got - 2010.06.03 11:33:40.
