data_PCOD9060243
_publ_section_title
;
Structure prediction by ZEFSAII (Michael W. Deem and Ramdas Pophale) SiO2 
 PCOD9060243
Probable space group: P -1
;
_chemical_formula_sum "Si O2"
_cell_formula_units_Z 14
_cell_length_a 13.655479
_cell_length_b 22.631989
_cell_length_c 15.666544
_cell_angle_alpha 163.041248
_cell_angle_beta 153.895837
_cell_angle_gamma 27.283551
_cell_volume 604.414096
_symmetry_space_group_name_H-M "P -1"
_symmetry_group_IT_number 2
_symmetry_cell_setting 'triclinic'
loop_
_space_group_symop_operation_xyz
x,y,z
-x,-y,-z
loop_
_atom_site_type_symbol
_atom_site_label
_atom_site_fract_x
_atom_site_fract_y
_atom_site_fract_z
Si Si1 0.184199 0.813955 0.183546
Si Si2 0.258260 0.504137 0.683403
Si Si3 0.672606 0.353141 0.248196
Si Si4 0.131450 0.455648 0.952882
Si Si5 0.890708 0.726381 0.993157
Si Si6 0.546902 0.030243 0.251162
Si Si7 0.126646 0.888437 0.779069
O O1 0.319032 0.960177 0.541663
O O2 0.341526 0.622853 0.991589
O O3 0.025425 0.924287 0.134871
O O4 0.029653 0.747896 0.045992
O O5 0.259557 0.636977 0.782980
O O6 0.408151 0.269878 0.461938
O O7 0.000000 0.500000 0.500000
O O8 0.745177 0.553026 0.623103
O O9 0.800771 0.145544 0.111961
O O10 0.400177 0.387826 0.085156
O O11 0.063958 0.645115 0.094673
O O12 0.022279 0.279625 0.583372
O O13 0.000000 0.500000 0.000000
O O14 0.721829 0.938603 0.186224
O O15 0.374358 0.877454 0.914579
#
# Coordination Sequence:
#
# PCOD9060243 Si02
#       7
#     2   2   2   2   2   2   2
#     4  12  25  46  70 105 139 181 232 285 340 411
#     4  12  25  50  71  97 139 185 231 287 337 409
#     4  11  24  45  72 102 140 184 223 282 352 399
#     4  11  23  43  68 104 144 177 225 279 348 410
#     4  11  24  42  73 105 137 177 230 287 341 408
#     4  12  25  44  72 102 137 181 228 287 346 399
#     4  11  24  42  68 101 141 176 227 282 339 409
#
# _framework density 23.162927
#
# number of rings (size 3 to 8) (size 9 to 14) (size 15 to 20)
#    0.000    0.571    2.857    5.143    0.000    6.286 
#    0.000    1.429    0.000    0.000    0.000    0.000 
#    0.000    0.000    0.000    0.000    0.000    0.000 
#
# Total GULP energy -78214.996963 kJ/mol
# GULP energy per Si atom -5586.785497 kJ/mol
# Density = 2.311021 g / cm^3
# Si number density = 23.162927 Si / 1000 Ang^3
#
#
#
# Elastic Constant Matrix: (Units=GPa)
#
#
# Indices 1 2 3 4 5 6 
#
# 1 108.9644 63.4493 -22.5439 11.9788 4.1072 77.0937
# 2 63.4493 129.6805 12.4886 -12.6229 8.3102 60.7547
# 3 -22.5439 12.4886 47.5520 -19.3515 8.0509 30.4488
# 4 11.9788 -12.6229 -19.3515 42.0470 -1.4754 7.4294
# 5 4.1072 8.3102 8.0509 -1.4754 42.2318 2.1205
# 6 77.0937 60.7547 30.4488 7.4294 2.1205 -10.7099
#
#
#
# Elastic Compliance Matrix: (Units=1/GPa)
#
#
# Indices 1 2 3 4 5 6 
#
# 1 0.009261 -0.008813 -0.001357 -0.007279 0.000444 0.007846
# 2 -0.008813 0.013314 -0.005462 0.004100 -0.000543 -0.000706
# 3 -0.001357 -0.005462 0.017185 0.004653 -0.002451 0.010846
# 4 -0.007279 0.004100 0.004653 0.028542 -0.000182 0.003850
# 5 0.000444 -0.000543 -0.002451 -0.000182 0.024312 -0.002165
# 6 0.007846 -0.000706 0.010846 0.003850 -0.002165 -0.007820
#
#
# Mechanical properties :
#
#
# Convention : Reuss Voigt Hill
#
# Bulk Modulus (GPa) = 117.72304 43.66498 80.69401
# Shear Modulus (GPa) = 42.05549 30.23398 36.14473
#
# Velocity S-wave (km/s) = 4.26565 3.61678 3.95455
# Velocity P-wave (km/s) = 8.67152 6.02774 7.46756
#
# Compressibility (1/GPa) = 0.00849451
#
# Stress axis : x y z
#
# Youngs Moduli (GPa) = 107.98380 75.10747 58.19155
#
# Poissons Ratio (x) = 0.66195 0.07895
# Poissons Ratio (y) = 0.95170 0.31787
# Poissons Ratio (z) = 0.14651 0.41027
#
# Static dielectric constant tensor:
#      x y z
#    x 1.870030 0.033850 -0.025290 
#    y 0.033850 1.917560 0.056710 
#    z -0.025290 0.056710 1.920780 
# 
# From -- ./inp_files/524161.got.cif
#   From: 2010.05.17/outbox.cif.g08.bks.cpg/sg2_263_cif.got.tgz:524161.got - 2010.06.03 11:33:40.
