data_PCOD9060847
_publ_section_title
;
Structure prediction by ZEFSAII (Michael W. Deem and Ramdas Pophale) SiO2 
 PCOD9060847
Probable space group: P -1
;
_chemical_formula_sum "Si O2"
_cell_formula_units_Z 16
_cell_length_a 9.226259
_cell_length_b 18.840412
_cell_length_c 6.846625
_cell_angle_alpha 73.797546
_cell_angle_beta 130.688609
_cell_angle_gamma 125.374539
_cell_volume 726.449760
_symmetry_space_group_name_H-M "P -1"
_symmetry_group_IT_number 2
_symmetry_cell_setting 'triclinic'
loop_
_space_group_symop_operation_xyz
x,y,z
-x,-y,-z
loop_
_atom_site_type_symbol
_atom_site_label
_atom_site_fract_x
_atom_site_fract_y
_atom_site_fract_z
Si Si1 0.203312 0.233211 0.512551
Si Si2 0.735380 0.424540 0.319095
Si Si3 0.161335 0.778172 0.511602
Si Si4 0.956294 0.944088 0.701940
Si Si5 0.676173 0.313951 0.020901
Si Si6 0.097636 0.666154 0.208089
Si Si7 0.627394 0.952583 0.714060
Si Si8 0.384590 0.420938 0.302563
O O1 0.110061 0.153239 0.340646
O O2 0.293047 0.327010 0.408581
O O3 0.013647 0.209640 0.529129
O O4 0.414014 0.240858 0.807081
O O5 0.669331 0.391287 0.065091
O O6 0.737895 0.349655 0.504150
O O7 0.570501 0.441720 0.283721
O O8 0.000000 0.500000 0.500000
O O9 0.166885 0.703181 0.692033
O O10 0.098129 0.745365 0.257781
O O11 0.419159 0.860285 0.681436
O O12 0.755792 0.939722 0.656792
O O13 0.000000 0.000000 0.500000
O O14 0.181739 0.992481 0.997121
O O15 0.793415 0.325184 0.910686
O O16 0.832995 0.592046 0.994531
O O17 0.500000 0.000000 0.500000
O O18 0.500000 0.500000 0.500000
#
# Coordination Sequence:
#
# PCOD9060847 Si02
#       8
#     2   2   2   2   2   2   2   2
#     4  12  25  44  73 100 143 187 229 291 349 415
#     4  11  26  43  70  97 133 184 235 296 350 406
#     4  11  25  43  70 105 135 183 234 282 354 419
#     4  11  26  48  72 108 144 185 238 290 360 426
#     4  11  23  44  68  99 134 182 234 285 352 411
#     4  11  24  45  70  96 138 178 235 293 344 416
#     4  11  26  45  74 105 145 184 232 297 354 434
#     4  12  27  44  69 102 140 187 237 285 350 412
#
# _framework density 22.024923000000001
#
# number of rings (size 3 to 8) (size 9 to 14) (size 15 to 20)
#    0.000    0.750    2.500    3.750    7.000    5.500 
#    0.000    0.000    0.000    0.000    0.000    0.000 
#    0.000    0.000    0.000    0.000    0.000    0.000 
#
# Total GULP energy -89327.347688 kJ/mol
# GULP energy per Si atom -5582.959231 kJ/mol
# Density = 2.197479 g / cm^3
# Si number density = 22.024923 Si / 1000 Ang^3
#
#
#
# Elastic Constant Matrix: (Units=GPa)
#
#
# Indices 1 2 3 4 5 6 
#
# 1 247.7797 49.6168 80.3819 35.9915 -22.4797 14.0909
# 2 49.6168 80.1749 20.0584 25.8333 -24.3046 -6.9697
# 3 80.3819 20.0584 93.3249 27.3489 -18.2724 -6.7483
# 4 35.9915 25.8333 27.3489 47.1277 -4.0842 1.2786
# 5 -22.4797 -24.3046 -18.2724 -4.0842 48.6052 7.5965
# 6 14.0909 -6.9697 -6.7483 1.2786 7.5965 34.6357
#
#
#
# Elastic Compliance Matrix: (Units=1/GPa)
#
#
# Indices 1 2 3 4 5 6 
#
# 1 0.006666 -0.003043 -0.005298 -0.000209 0.000240 -0.004402
# 2 -0.003043 0.019473 0.003132 -0.009591 0.008020 0.004362
# 3 -0.005298 0.003132 0.018229 -0.008021 0.004409 0.005666
# 4 -0.000209 -0.009591 -0.008021 0.030973 -0.004757 -0.003508
# 5 0.000240 0.008020 0.004409 -0.004757 0.026462 -0.003253
# 6 -0.004402 0.004362 0.005666 -0.003508 -0.003253 0.033487
#
#
# Mechanical properties :
#
#
# Convention : Reuss Voigt Hill
#
# Bulk Modulus (GPa) = 29.45495 80.15485 54.80490
# Shear Modulus (GPa) = 31.84228 44.15521 37.99875
#
# Velocity S-wave (km/s) = 3.80641 4.48234 4.15813
# Velocity P-wave (km/s) = 5.72021 7.95363 6.92752
#
# Compressibility (1/GPa) = 0.03395015
#
# Stress axis : x y z
#
# Youngs Moduli (GPa) = 150.01136 51.35347 54.85868
#
# Poissons Ratio (x) = 0.15624 0.29063
# Poissons Ratio (y) = 0.45642 -0.17179
# Poissons Ratio (z) = 0.79473 -0.16082
#
# Static dielectric constant tensor:
#      x y z
#    x 1.838040 -0.140020 -0.086320 
#    y -0.140020 1.857880 -0.047640 
#    z -0.086320 -0.047640 1.838760 
# 
# From -- ./inp_files/48413.got.cif
#   From: 2010.05.17/outbox.cif.g08.bks.cpg/sg2_25_cif.got.tgz:48413.got - 2010.06.03 11:33:40.
