data_PCOD9060447
_publ_section_title
;
Structure prediction by ZEFSAII (Michael W. Deem and Ramdas Pophale) SiO2 
 PCOD9060447
Probable space group: P -1
;
_chemical_formula_sum "Si O2"
_cell_formula_units_Z 14
_cell_length_a 10.434409
_cell_length_b 9.663448
_cell_length_c 12.964591
_cell_angle_alpha 83.823620
_cell_angle_beta 147.353773
_cell_angle_gamma 108.523273
_cell_volume 635.147197
_symmetry_space_group_name_H-M "P -1"
_symmetry_group_IT_number 2
_symmetry_cell_setting 'triclinic'
loop_
_space_group_symop_operation_xyz
x,y,z
-x,-y,-z
loop_
_atom_site_type_symbol
_atom_site_label
_atom_site_fract_x
_atom_site_fract_y
_atom_site_fract_z
Si Si1 0.037799 0.320802 0.439136
Si Si2 0.209181 0.449782 0.768132
Si Si3 0.372983 0.327131 0.466599
Si Si4 0.972912 0.882586 0.289906
Si Si5 0.873259 0.084620 0.035217
Si Si6 0.442617 0.915091 0.358755
Si Si7 0.633102 0.975152 0.194121
O O1 0.185641 0.414559 0.632623
O O2 0.224919 0.311499 0.476658
O O3 0.885543 0.418208 0.285190
O O4 0.829021 0.149722 0.342208
O O5 0.040681 0.285507 0.719686
O O6 0.500000 0.500000 0.000000
O O7 0.500000 0.500000 0.500000
O O8 0.585408 0.256631 0.629289
O O9 0.147651 0.222092 0.241338
O O10 0.875224 0.943926 0.117340
O O11 0.795660 0.885998 0.266830
O O12 0.269812 0.999722 0.505378
O O13 0.790195 0.064001 0.860733
O O14 0.621045 0.112808 0.901128
O O15 0.500000 0.000000 0.500000
O O16 0.500000 0.000000 0.000000
#
# Coordination Sequence:
#
# PCOD9060447 Si02
#       7
#     2   2   2   2   2   2   2
#     4  11  23  43  63  97 137 167 210 267 317 385
#     4  11  25  39  63 100 136 168 204 258 334 385
#     4  11  26  46  65  93 129 175 220 262 316 386
#     4  10  22  40  65 102 125 162 214 270 325 381
#     4  10  22  42  72  94 126 164 216 273 322 381
#     4  11  25  44  67  94 127 172 221 266 318 377
#     4  10  17  38  70  95 123 155 210 266 325 375
#
# _framework density 22.042134999999998
#
# number of rings (size 3 to 8) (size 9 to 14) (size 15 to 20)
#    0.000    1.429    4.286    2.571    4.000    5.143 
#    2.571    0.000    0.000    0.000    0.000    0.000 
#    0.000    0.000    0.000    0.000    0.000    0.000 
#
# Total GULP energy -78173.552477 kJ/mol
# GULP energy per Si atom -5583.825177 kJ/mol
# Density = 2.199197 g / cm^3
# Si number density = 22.042135 Si / 1000 Ang^3
#
#
#
# Elastic Constant Matrix: (Units=GPa)
#
#
# Indices 1 2 3 4 5 6 
#
# 1 34.4107 19.8726 11.7097 -6.2387 -3.9460 -4.8032
# 2 19.8726 130.2432 20.7798 -27.7953 -3.1760 7.1249
# 3 11.7097 20.7798 136.2773 -29.0728 -24.3300 2.9142
# 4 -6.2387 -27.7953 -29.0728 36.8916 0.1988 5.5252
# 5 -3.9460 -3.1760 -24.3300 0.1988 32.6216 1.1217
# 6 -4.8032 7.1249 2.9142 5.5252 1.1217 32.8570
#
#
#
# Elastic Compliance Matrix: (Units=1/GPa)
#
#
# Indices 1 2 3 4 5 6 
#
# 1 0.033776 -0.005319 -0.002105 -0.000918 0.001785 0.006371
# 2 -0.005319 0.010402 0.000971 0.008381 0.001199 -0.004570
# 3 -0.002105 0.000971 0.010879 0.009405 0.008011 -0.003338
# 4 -0.000918 0.008381 0.009405 0.042154 0.007812 -0.010141
# 5 0.001785 0.001199 0.008011 0.007812 0.037028 -0.003287
# 6 0.006371 -0.004570 -0.003338 -0.010141 -0.003287 0.034471
#
#
# Mechanical properties :
#
#
# Convention : Reuss Voigt Hill
#
# Bulk Modulus (GPa) = 23.72360 45.07281 34.39821
# Shear Modulus (GPa) = 25.55371 37.04533 31.29952
#
# Velocity S-wave (km/s) = 3.40856 4.10403 3.77236
# Velocity P-wave (km/s) = 5.12613 6.55365 5.88335
#
# Compressibility (1/GPa) = 0.04215211
#
# Stress axis : x y z
#
# Youngs Moduli (GPa) = 29.60677 96.13158 91.92037
#
# Poissons Ratio (x) = 0.51129 0.19346
# Poissons Ratio (y) = 0.15747 -0.08922
# Poissons Ratio (z) = 0.06231 -0.09331
#
# Static dielectric constant tensor:
#      x y z
#    x 1.689540 0.111180 -0.034470 
#    y 0.111180 1.791130 -0.020510 
#    z -0.034470 -0.020510 1.812910 
# 
# From -- ./inp_files/515701.got.cif
#   From: 2010.05.17/outbox.cif.g08.bks.cpg/sg2_258_cif.got.tgz:515701.got - 2010.06.03 11:33:40.
