data_PCOD9060255
_publ_section_title
;
Structure prediction by ZEFSAII (Michael W. Deem and Ramdas Pophale) SiO2 
 PCOD9060255
Probable space group: P -1
;
_chemical_formula_sum "Si O2"
_cell_formula_units_Z 16
_cell_length_a 9.829036
_cell_length_b 8.712162
_cell_length_c 12.010153
_cell_angle_alpha 119.814960
_cell_angle_beta 58.014650
_cell_angle_gamma 103.988909
_cell_volume 756.527831
_symmetry_space_group_name_H-M "P -1"
_symmetry_group_IT_number 2
_symmetry_cell_setting 'triclinic'
loop_
_space_group_symop_operation_xyz
x,y,z
-x,-y,-z
loop_
_atom_site_type_symbol
_atom_site_label
_atom_site_fract_x
_atom_site_fract_y
_atom_site_fract_z
Si Si1 0.629578 0.119961 0.544508
Si Si2 0.051216 0.086856 0.625665
Si Si3 0.638505 0.282403 0.223988
Si Si4 0.541983 0.897280 0.155086
Si Si5 0.726645 0.220260 0.913298
Si Si6 0.123640 0.478060 0.659016
Si Si7 0.760086 0.568661 0.874363
Si Si8 0.682111 0.519155 0.630891
O O1 0.576338 0.127999 0.699125
O O2 0.628626 0.317514 0.570415
O O3 0.500000 0.000000 0.500000
O O4 0.806875 0.033078 0.427256
O O5 0.116157 0.281976 0.643100
O O6 0.891819 0.113932 0.777933
O O7 0.000000 0.000000 0.500000
O O8 0.737889 0.409392 0.305000
O O9 0.457128 0.355175 0.313579
O O10 0.629129 0.081451 0.196636
O O11 0.715486 0.278577 0.066310
O O12 0.425242 0.893127 0.097118
O O13 0.669803 0.736287 0.028826
O O14 0.719339 0.393889 0.899738
O O15 0.161494 0.458753 0.504756
O O16 0.952377 0.573292 0.790358
O O17 0.706152 0.553704 0.763748
#
# Coordination Sequence:
#
# PCOD9060255 Si02
#       8
#     2   2   2   2   2   2   2   2
#     4  12  24  40  67  97 128 169 213 264 322 378
#     4  11  23  43  69  92 128 171 214 263 313 386
#     4  12  26  41  67  95 132 172 210 267 327 374
#     4  12  23  43  66  95 129 169 221 261 312 393
#     4  11  23  43  68  94 127 169 222 263 314 383
#     4  11  26  44  62 100 133 165 212 269 327 376
#     4  11  24  42  69  93 126 171 215 268 317 377
#     4  12  23  43  66  93 132 169 211 264 319 384
#
# _framework density 21.149256000000001
#
# number of rings (size 3 to 8) (size 9 to 14) (size 15 to 20)
#    0.000    0.500    3.750    5.250    0.000    4.500 
#    0.000    0.000    0.000    0.000    0.000    0.000 
#    0.000    0.000    0.000    0.000    0.000    0.000 
#
# Total GULP energy -89592.829868 kJ/mol
# GULP energy per Si atom -5599.551867 kJ/mol
# Density = 2.110112 g / cm^3
# Si number density = 21.149256 Si / 1000 Ang^3
#
#
#
# Elastic Constant Matrix: (Units=GPa)
#
#
# Indices 1 2 3 4 5 6 
#
# 1 53.0398 -2.3681 15.6461 13.5212 -8.5783 -1.7084
# 2 -2.3681 37.9729 29.0337 7.3031 -9.3104 6.7430
# 3 15.6461 29.0337 105.8720 10.4249 -22.5945 -11.4805
# 4 13.5212 7.3031 10.4249 35.9254 -3.8843 -4.5862
# 5 -8.5783 -9.3104 -22.5945 -3.8843 36.0612 5.2938
# 6 -1.7084 6.7430 -11.4805 -4.5862 5.2938 13.9688
#
#
#
# Elastic Compliance Matrix: (Units=1/GPa)
#
#
# Indices 1 2 3 4 5 6 
#
# 1 0.024565 0.012296 -0.006132 -0.011088 0.006021 -0.013894
# 2 0.012296 0.056253 -0.018728 -0.015850 0.011432 -0.050579
# 3 -0.006132 -0.018728 0.018083 0.004115 0.001993 0.023748
# 4 -0.011088 -0.015850 0.004115 0.036591 -0.003594 0.023052
# 5 0.006021 0.011432 0.001993 -0.003594 0.035591 -0.017813
# 6 -0.013894 -0.050579 0.023748 0.023052 -0.017813 0.128141
#
#
# Mechanical properties :
#
#
# Convention : Reuss Voigt Hill
#
# Bulk Modulus (GPa) = 13.55498 31.27866 22.41682
# Shear Modulus (GPa) = 14.32901 27.49594 20.91248
#
# Velocity S-wave (km/s) = 2.60574 3.60959 3.14794
# Velocity P-wave (km/s) = 3.93399 5.67395 4.88211
#
# Compressibility (1/GPa) = 0.07377362
#
# Stress axis : x y z
#
# Youngs Moduli (GPa) = 40.70892 17.77668 55.30137
#
# Poissons Ratio (x) = -0.21859 0.33911
# Poissons Ratio (y) = -0.50057 1.03568
# Poissons Ratio (z) = 0.24963 0.33292
#
# Static dielectric constant tensor:
#      x y z
#    x 1.747540 -0.008680 0.022990 
#    y -0.008680 1.745820 -0.020410 
#    z 0.022990 -0.020410 1.767290 
# 
# From -- ./inp_files/190253.got.cif
#   From: 2010.05.17/outbox.cif.g08.bks.cpg/sg2_96_cif.got.tgz:190253.got - 2010.06.03 11:33:40.
