data_PCOD9060135
_publ_section_title
;
Structure prediction by ZEFSAII (Michael W. Deem and Ramdas Pophale) SiO2 
 PCOD9060135
Probable space group: P -1
;
_chemical_formula_sum "Si O2"
_cell_formula_units_Z 16
_cell_length_a 5.478623
_cell_length_b 18.322479
_cell_length_c 9.296339
_cell_angle_alpha 131.408841
_cell_angle_beta 83.028956
_cell_angle_gamma 79.768379
_cell_volume 651.703232
_symmetry_space_group_name_H-M "P -1"
_symmetry_group_IT_number 2
_symmetry_cell_setting 'triclinic'
loop_
_space_group_symop_operation_xyz
x,y,z
-x,-y,-z
loop_
_atom_site_type_symbol
_atom_site_label
_atom_site_fract_x
_atom_site_fract_y
_atom_site_fract_z
Si Si1 0.956374 0.754821 0.750517
Si Si2 0.432014 0.694333 0.422043
Si Si3 0.303769 0.408218 0.319068
Si Si4 0.778336 0.211156 0.962326
Si Si5 0.320937 0.155497 0.392516
Si Si6 0.878590 0.503365 0.265374
Si Si7 0.287242 0.984130 0.384673
Si Si8 0.109640 0.687045 0.178130
O O1 0.213911 0.697376 0.560635
O O2 0.848618 0.670137 0.718998
O O3 0.753432 0.829348 0.749673
O O4 0.033007 0.818868 0.954257
O O5 0.419796 0.814072 0.570090
O O6 0.706421 0.612055 0.349302
O O7 0.363806 0.663018 0.229185
O O8 0.271152 0.485094 0.555336
O O9 0.172844 0.470221 0.265517
O O10 0.583916 0.326470 0.159835
O O11 0.630365 0.132672 0.834101
O O12 0.918658 0.227676 0.830811
O O13 0.120670 0.252715 0.620003
O O14 0.291003 0.057475 0.345192
O O15 0.890462 0.415197 0.035585
O O16 0.500000 0.000000 0.500000
O O17 0.000000 0.000000 0.500000
#
# Coordination Sequence:
#
# PCOD9060135 Si02
#       8
#     2   2   2   2   2   2   2   2
#     4  11  23  46  73  97 150 185 243 301 369 426
#     4  11  24  45  66 104 147 192 234 310 357 441
#     4  11  25  43  67 105 145 189 246 304 348 449
#     4  12  25  47  75 105 140 190 245 304 374 435
#     4  11  25  49  70 106 146 183 242 310 369 432
#     4  11  23  43  66 102 144 196 241 291 369 431
#     4  12  29  51  83 114 147 194 246 310 384 449
#     4  11  25  40  71  99 146 186 244 297 364 438
#
# _framework density 24.551051000000001
#
# number of rings (size 3 to 8) (size 9 to 14) (size 15 to 20)
#    0.000    0.750    5.000    1.125    7.000    4.000 
#    0.000    2.500    0.000    0.000    0.000    0.000 
#    0.000    0.000    0.000    0.000    0.000    0.000 
#
# Total GULP energy -89430.626691 kJ/mol
# GULP energy per Si atom -5589.414168 kJ/mol
# Density = 2.449517 g / cm^3
# Si number density = 24.551051 Si / 1000 Ang^3
#
#
#
# Elastic Constant Matrix: (Units=GPa)
#
#
# Indices 1 2 3 4 5 6 
#
# 1 53.5953 22.0963 20.9483 -12.0890 13.5133 6.6458
# 2 22.0963 104.8772 21.4774 -14.0527 23.5267 5.5825
# 3 20.9483 21.4774 101.7373 -19.3764 41.2425 -7.5248
# 4 -12.0890 -14.0527 -19.3764 43.9165 -9.3226 12.8554
# 5 13.5133 23.5267 41.2425 -9.3226 38.8645 -6.6138
# 6 6.6458 5.5825 -7.5248 12.8554 -6.6138 39.6611
#
#
#
# Elastic Compliance Matrix: (Units=1/GPa)
#
#
# Indices 1 2 3 4 5 6 
#
# 1 0.023694 -0.002465 -0.001945 0.005883 -0.004400 -0.006633
# 2 -0.002465 0.012118 0.001499 0.003168 -0.007879 -0.003349
# 3 -0.001945 0.001499 0.018257 0.004297 -0.018734 -0.000938
# 4 0.005883 0.003168 0.004297 0.029779 -0.003219 -0.010806
# 5 -0.004400 -0.007879 -0.018734 -0.003219 0.052515 0.008093
# 6 -0.006633 -0.003349 -0.000938 -0.010806 0.008093 0.031470
#
#
# Mechanical properties :
#
#
# Convention : Reuss Voigt Hill
#
# Bulk Modulus (GPa) = 20.72712 43.25044 31.98878
# Shear Modulus (GPa) = 26.35236 37.53428 31.94332
#
# Velocity S-wave (km/s) = 3.27979 3.91426 3.61099
# Velocity P-wave (km/s) = 4.77530 6.17117 5.51755
#
# Compressibility (1/GPa) = 0.04824598
#
# Stress axis : x y z
#
# Youngs Moduli (GPa) = 42.20542 82.52461 54.77473
#
# Poissons Ratio (x) = 0.20346 0.10653
# Poissons Ratio (y) = 0.10405 -0.08212
# Poissons Ratio (z) = 0.08208 -0.12373
#
# Static dielectric constant tensor:
#      x y z
#    x 2.118210 0.003080 0.015040 
#    y 0.003080 1.931290 0.013120 
#    z 0.015040 0.013120 1.929520 
# 
# From -- ./inp_files/47804.got.cif
#   From: 2010.05.17/outbox.cif.g08.bks.cpg/sg2_24_cif.got.tgz:47804.got - 2010.06.03 11:33:40.
