data_PCOD9060976
_publ_section_title
;
Structure prediction by ZEFSAII (Michael W. Deem and Ramdas Pophale) SiO2 
 PCOD9060976
Probable space group: P -1
;
_chemical_formula_sum "Si O2"
_cell_formula_units_Z 16
_cell_length_a 9.301353
_cell_length_b 5.681629
_cell_length_c 18.145077
_cell_angle_alpha 88.188907
_cell_angle_beta 97.064124
_cell_angle_gamma 52.195696
_cell_volume 744.860355
_symmetry_space_group_name_H-M "P -1"
_symmetry_group_IT_number 2
_symmetry_cell_setting 'triclinic'
loop_
_space_group_symop_operation_xyz
x,y,z
-x,-y,-z
loop_
_atom_site_type_symbol
_atom_site_label
_atom_site_fract_x
_atom_site_fract_y
_atom_site_fract_z
Si Si1 0.546329 0.228016 0.801252
Si Si2 0.448543 0.305109 0.960475
Si Si3 0.441933 0.605853 0.578936
Si Si4 0.747269 0.529982 0.802844
Si Si5 0.193300 0.562036 0.679806
Si Si6 0.859286 0.230993 0.665746
Si Si7 0.898745 0.742179 0.427081
Si Si8 0.097712 0.649822 0.016946
O O1 0.537595 0.217527 0.887974
O O2 0.628653 0.405472 0.790159
O O3 0.339163 0.426869 0.755452
O O4 0.649156 0.885316 0.783726
O O5 0.500000 0.500000 0.000000
O O6 0.231453 0.523541 0.955689
O O7 0.500000 0.000000 0.000000
O O8 0.500000 0.500000 0.500000
O O9 0.307715 0.568344 0.618466
O O10 0.639848 0.423609 0.634597
O O11 0.300578 0.967314 0.561736
O O12 0.877080 0.366313 0.740516
O O13 0.822011 0.445143 0.892909
O O14 0.149658 0.352542 0.648113
O O15 0.996999 0.871143 0.687766
O O16 0.947378 0.235678 0.594618
O O17 0.000000 0.500000 0.500000
O O18 0.000000 0.500000 0.000000
O O19 0.000000 0.000000 0.000000
#
# Coordination Sequence:
#
# PCOD9060976 Si02
#       8
#     2   2   2   2   2   2   2   2
#     4  12  25  46  74 101 143 190 247 298 361 437
#     4  12  23  46  70 100 137 189 241 294 357 426
#     4  11  23  44  70  99 140 185 235 295 362 430
#     4  12  26  47  72 103 145 194 239 297 370 432
#     4  11  26  43  68 104 139 185 244 292 363 436
#     4  11  26  44  68 103 143 186 238 300 364 427
#     4  11  25  44  69 105 141 185 244 299 358 436
#     4  12  26  44  69 106 145 185 244 298 359 431
#
# _framework density 21.480539
#
# number of rings (size 3 to 8) (size 9 to 14) (size 15 to 20)
#    0.000    0.500    3.750    3.750    5.250    7.000 
#    0.000    0.000    0.000    0.000    0.000    0.000 
#    0.000    0.000    0.000    0.000    0.000    0.000 
#
# Total GULP energy -89086.031227 kJ/mol
# GULP energy per Si atom -5567.876952 kJ/mol
# Density = 2.143165 g / cm^3
# Si number density = 21.480539 Si / 1000 Ang^3
#
#
#
# Elastic Constant Matrix: (Units=GPa)
#
#
# Indices 1 2 3 4 5 6 
#
# 1 98.5730 52.4267 12.1942 -0.4114 11.6337 1.6960
# 2 52.4267 174.7197 25.3392 23.7518 1.7690 -11.1800
# 3 12.1942 25.3392 97.1653 11.8897 3.9129 -1.8008
# 4 -0.4114 23.7518 11.8897 42.5394 -9.6917 -3.3932
# 5 11.6337 1.7690 3.9129 -9.6917 29.8887 3.8177
# 6 1.6960 -11.1800 -1.8008 -3.3932 3.8177 37.2690
#
#
#
# Elastic Compliance Matrix: (Units=1/GPa)
#
#
# Indices 1 2 3 4 5 6 
#
# 1 0.012861 -0.004017 -0.000613 0.001519 -0.004034 -0.001268
# 2 -0.004017 0.007754 -0.000975 -0.004003 -0.000338 0.002132
# 3 -0.000613 -0.000975 0.011086 -0.003036 -0.002167 0.000217
# 4 0.001519 -0.004003 -0.003036 0.028752 0.009335 0.000245
# 5 -0.004034 -0.000338 -0.002167 0.009335 0.038760 -0.003143
# 6 -0.001268 0.002132 0.000217 0.000245 -0.003143 0.027884
#
#
# Mechanical properties :
#
#
# Convention : Reuss Voigt Hill
#
# Bulk Modulus (GPa) = 48.80349 61.15312 54.97831
# Shear Modulus (GPa) = 34.44987 40.63929 37.54458
#
# Velocity S-wave (km/s) = 4.00906 4.35433 4.18526
# Velocity P-wave (km/s) = 6.64825 7.33561 7.00037
#
# Compressibility (1/GPa) = 0.02049034
#
# Stress axis : x y z
#
# Youngs Moduli (GPa) = 77.75244 128.96218 90.20503
#
# Poissons Ratio (x) = 0.51804 0.05533
# Poissons Ratio (y) = 0.31233 0.08796
# Poissons Ratio (z) = 0.04769 0.12575
#
# Static dielectric constant tensor:
#      x y z
#    x 1.696960 -0.001520 0.048620 
#    y -0.001520 1.686050 -0.071910 
#    z 0.048620 -0.071910 1.740990 
# 
# From -- ./inp_files/47690.got.cif
#   From: 2010.05.17/outbox.cif.g08.bks.cpg/sg2_24_cif.got.tgz:47690.got - 2010.06.03 11:33:40.
