data_PCOD9060372
_publ_section_title
;
Structure prediction by ZEFSAII (Michael W. Deem and Ramdas Pophale) SiO2 
 PCOD9060372
Probable space group: P -1
;
_chemical_formula_sum "Si O2"
_cell_formula_units_Z 16
_cell_length_a 8.174300
_cell_length_b 19.025160
_cell_length_c 16.098386
_cell_angle_alpha 22.700244
_cell_angle_beta 42.154592
_cell_angle_gamma 41.791718
_cell_volume 629.774339
_symmetry_space_group_name_H-M "P -1"
_symmetry_group_IT_number 2
_symmetry_cell_setting 'triclinic'
loop_
_space_group_symop_operation_xyz
x,y,z
-x,-y,-z
loop_
_atom_site_type_symbol
_atom_site_label
_atom_site_fract_x
_atom_site_fract_y
_atom_site_fract_z
Si Si1 0.046092 0.806698 0.952970
Si Si2 0.913180 0.541062 0.580559
Si Si3 0.375613 0.173182 0.031938
Si Si4 0.140181 0.847588 0.240249
Si Si5 0.131527 0.617613 0.649440
Si Si6 0.710323 0.028542 0.553281
Si Si7 0.650764 0.401628 0.241001
Si Si8 0.624012 0.741549 0.772125
O O1 0.327258 0.751149 0.870786
O O2 0.971285 0.623316 0.218706
O O3 0.014013 0.957465 0.875053
O O4 0.841851 0.889135 0.870403
O O5 0.627463 0.531654 0.694095
O O6 0.000000 0.500000 0.500000
O O7 0.969071 0.734557 0.378340
O O8 0.629467 0.134944 0.924200
O O9 0.258325 0.396073 0.845966
O O10 0.410546 0.066953 0.222226
O O11 0.240006 0.716253 0.425865
O O12 0.189539 0.686624 0.643667
O O13 0.826524 0.679719 0.689785
O O14 0.652500 0.933829 0.593962
O O15 0.627412 0.251479 0.343803
O O16 0.000000 0.000000 0.500000
O O17 0.728418 0.575269 0.981034
#
# Coordination Sequence:
#
# PCOD9060372 Si02
#       8
#     2   2   2   2   2   2   2   2
#     4  11  27  47  68 105 139 183 235 281 350 403
#     4  11  26  44  70 100 139 184 223 286 343 412
#     4  12  26  46  73 102 142 183 233 288 339 418
#     4  12  27  48  71 101 143 184 230 285 345 415
#     4  12  23  45  73  99 141 186 225 284 348 409
#     4  12  24  44  72 104 133 182 235 279 345 406
#     4  11  23  43  70 103 137 178 232 283 345 402
#     4  11  25  47  69 104 142 179 232 291 340 410
#
# _framework density 25.405926000000001
#
# number of rings (size 3 to 8) (size 9 to 14) (size 15 to 20)
#    0.000    0.500    3.750    4.125    5.250    1.500 
#    2.250    0.000    0.000    0.000    0.000    0.000 
#    0.000    0.000    0.000    0.000    0.000    0.000 
#
# Total GULP energy -89675.987239 kJ/mol
# GULP energy per Si atom -5604.749202 kJ/mol
# Density = 2.534810 g / cm^3
# Si number density = 25.405926 Si / 1000 Ang^3
#
#
#
# Elastic Constant Matrix: (Units=GPa)
#
#
# Indices 1 2 3 4 5 6 
#
# 1 85.1799 6.2051 16.9706 12.7807 3.0169 3.8319
# 2 6.2051 110.8345 41.0752 7.1718 12.7851 9.5030
# 3 16.9706 41.0752 89.0229 8.4652 -2.8200 3.5727
# 4 12.7807 7.1718 8.4652 46.4473 12.7991 -9.5090
# 5 3.0169 12.7851 -2.8200 12.7991 18.2550 -2.8166
# 6 3.8319 9.5030 3.5727 -9.5090 -2.8166 29.2929
#
#
#
# Elastic Compliance Matrix: (Units=1/GPa)
#
#
# Indices 1 2 3 4 5 6 
#
# 1 0.012854 0.000749 -0.002375 -0.003539 -0.000978 -0.002878
# 2 0.000749 0.013028 -0.006490 0.001368 -0.011863 -0.004230
# 3 -0.002375 -0.006490 0.015356 -0.003862 0.010057 0.000257
# 4 -0.003539 0.001368 -0.003862 0.030517 -0.021075 0.008370
# 5 -0.000978 -0.011863 0.010057 -0.021075 0.080137 0.003614
# 6 -0.002878 -0.004230 0.000257 0.008370 0.003614 0.038920
#
#
# Mechanical properties :
#
#
# Convention : Reuss Voigt Hill
#
# Bulk Modulus (GPa) = 39.99061 45.94879 42.96970
# Shear Modulus (GPa) = 23.21491 33.51814 28.36653
#
# Velocity S-wave (km/s) = 3.02613 3.63616 3.34508
# Velocity P-wave (km/s) = 5.29006 5.97947 5.64530
#
# Compressibility (1/GPa) = 0.02500587
#
# Stress axis : x y z
#
# Youngs Moduli (GPa) = 77.79925 76.75597 65.12149
#
# Poissons Ratio (x) = -0.05750 0.15466
# Poissons Ratio (y) = -0.05828 0.42265
# Poissons Ratio (z) = 0.18477 0.49816
#
# Static dielectric constant tensor:
#      x y z
#    x 1.748520 0.863130 0.041470 
#    y 0.863130 -0.394530 -0.116170 
#    z 0.041470 -0.116170 2.032600 
# 
# From -- ./inp_files/285892.got.cif
#   From: 2010.05.17/outbox.cif.g08.bks.cpg/sg2_143_cif.got.tgz:285892.got - 2010.06.03 11:33:40.
