data_PCOD9060658
_publ_section_title
;
Structure prediction by ZEFSAII (Michael W. Deem and Ramdas Pophale) SiO2 
 PCOD9060658
Probable space group: P -1
;
_chemical_formula_sum "Si O2"
_cell_formula_units_Z 14
_cell_length_a 18.465416
_cell_length_b 7.768568
_cell_length_c 14.151478
_cell_angle_alpha 146.151323
_cell_angle_beta 32.116184
_cell_angle_gamma 136.529397
_cell_volume 599.429663
_symmetry_space_group_name_H-M "P -1"
_symmetry_group_IT_number 2
_symmetry_cell_setting 'triclinic'
loop_
_space_group_symop_operation_xyz
x,y,z
-x,-y,-z
loop_
_atom_site_type_symbol
_atom_site_label
_atom_site_fract_x
_atom_site_fract_y
_atom_site_fract_z
Si Si1 0.369297 0.314504 0.464980
Si Si2 0.793523 0.112049 0.697975
Si Si3 0.206180 0.915159 0.679982
Si Si4 0.127737 0.476765 0.914961
Si Si5 0.461245 0.766547 0.235388
Si Si6 0.404070 0.403521 0.798915
Si Si7 0.008363 0.381840 0.687913
O O1 0.272702 0.537064 0.729718
O O2 0.467325 0.499846 0.366459
O O3 0.266405 0.067679 0.409070
O O4 0.453625 0.099344 0.343303
O O5 0.920538 0.376713 0.685916
O O6 0.874164 0.856311 0.548012
O O7 0.668292 0.280498 0.956672
O O8 0.308068 0.703511 0.416546
O O9 0.091703 0.706083 0.763761
O O10 0.136950 0.124200 0.776202
O O11 0.300113 0.155176 0.748537
O O12 0.000000 0.500000 0.000000
O O13 0.097232 0.664886 0.129114
O O14 0.553315 0.742602 0.215804
O O15 0.500000 0.500000 0.000000
#
# Coordination Sequence:
#
# PCOD9060658 Si02
#       7
#     2   2   2   2   2   2   2
#     4  11  25  46  72 105 145 183 238 294 352 425
#     4  11  23  43  75 103 136 190 233 287 365 407
#     4  11  26  48  69 104 144 188 233 292 359 420
#     4  11  23  44  72 101 140 186 237 290 346 423
#     4  11  25  43  70 108 142 185 238 287 356 420
#     4  12  25  48  74 104 145 192 227 296 362 416
#     4  11  24  47  74 101 139 189 239 289 353 427
#
# _framework density 23.355535
#
# number of rings (size 3 to 8) (size 9 to 14) (size 15 to 20)
#    0.000    0.857    4.286    2.143    2.000    2.286 
#    2.571    4.286    3.143    0.000    0.000    0.000 
#    0.000    0.000    0.000    0.000    0.000    0.000 
#
# Total GULP energy -78195.640355 kJ/mol
# GULP energy per Si atom -5585.402882 kJ/mol
# Density = 2.330238 g / cm^3
# Si number density = 23.355535 Si / 1000 Ang^3
#
#
#
# Elastic Constant Matrix: (Units=GPa)
#
#
# Indices 1 2 3 4 5 6 
#
# 1 182.5407 64.0908 56.6600 -4.2724 -8.3740 5.9935
# 2 64.0908 80.5765 49.7624 -12.5591 13.1861 14.6887
# 3 56.6600 49.7624 177.4111 -4.8349 -6.6457 6.5328
# 4 -4.2724 -12.5591 -4.8349 18.0486 -1.9456 0.2916
# 5 -8.3740 13.1861 -6.6457 -1.9456 41.3390 4.8444
# 6 5.9935 14.6887 6.5328 0.2916 4.8444 23.7441
#
#
#
# Elastic Compliance Matrix: (Units=1/GPa)
#
#
# Indices 1 2 3 4 5 6 
#
# 1 0.008441 -0.007928 -0.000502 -0.003284 0.003747 0.002188
# 2 -0.007928 0.027733 -0.004718 0.015378 -0.009057 -0.012198
# 3 -0.000502 -0.004718 0.007155 -0.001233 0.002426 0.000597
# 4 -0.003284 0.015378 -0.001233 0.064960 -0.001680 -0.008800
# 5 0.003747 -0.009057 0.002426 -0.001680 0.028357 -0.001775
# 6 0.002188 -0.012198 0.000597 -0.008800 -0.001775 0.049416
#
#
# Mechanical properties :
#
#
# Convention : Reuss Voigt Hill
#
# Bulk Modulus (GPa) = 58.70593 86.83940 72.77267
# Shear Modulus (GPa) = 22.93216 34.62734 28.77975
#
# Velocity S-wave (km/s) = 3.13688 3.85466 3.51414
# Velocity P-wave (km/s) = 6.18954 7.55469 6.90593
#
# Compressibility (1/GPa) = 0.01703405
#
# Stress axis : x y z
#
# Youngs Moduli (GPa) = 118.47487 36.05850 139.75284
#
# Poissons Ratio (x) = 0.28586 0.07012
# Poissons Ratio (y) = 0.93923 0.65935
# Poissons Ratio (z) = 0.05944 0.17012
#
# Static dielectric constant tensor:
#      x y z
#    x 1.901040 0.035150 0.035900 
#    y 0.035150 1.944440 0.039630 
#    z 0.035900 0.039630 1.945480 
# 
# From -- ./inp_files/540346.got.cif
#   From: 2010.05.17/outbox.cif.g08.bks.cpg/sg2_271_cif.got.tgz:540346.got - 2010.06.03 11:33:40.
