data_PCOD9060864
_publ_section_title
;
Structure prediction by ZEFSAII (Michael W. Deem and Ramdas Pophale) SiO2 
 PCOD9060864
Probable space group: P -1
;
_chemical_formula_sum "Si O2"
_cell_formula_units_Z 12
_cell_length_a 17.319440
_cell_length_b 5.337311
_cell_length_c 5.090834
_cell_angle_alpha 90.255674
_cell_angle_beta 100.681748
_cell_angle_gamma 80.298930
_cell_volume 455.651479
_symmetry_space_group_name_H-M "P -1"
_symmetry_group_IT_number 2
_symmetry_cell_setting 'triclinic'
loop_
_space_group_symop_operation_xyz
x,y,z
-x,-y,-z
loop_
_atom_site_type_symbol
_atom_site_label
_atom_site_fract_x
_atom_site_fract_y
_atom_site_fract_z
Si Si1 0.051826 0.391148 0.783921
Si Si2 0.172510 0.502610 0.486652
Si Si3 0.491215 0.673217 0.244558
Si Si4 0.146361 0.992765 0.139749
Si Si5 0.335042 0.240497 0.715411
Si Si6 0.316770 0.980134 0.200901
O O1 0.134693 0.480213 0.751041
O O2 0.000000 0.500000 0.500000
O O3 0.080568 0.094224 0.878266
O O4 0.000000 0.500000 0.000000
O O5 0.153811 0.251997 0.313025
O O6 0.268752 0.472051 0.570485
O O7 0.134203 0.762971 0.320050
O O8 0.500000 0.500000 0.500000
O O9 0.570786 0.795820 0.284113
O O10 0.402274 0.822589 0.188923
O O11 0.500000 0.500000 0.000000
O O12 0.233581 0.902390 0.068209
O O13 0.313063 0.020127 0.511423
O O14 0.320593 0.222487 0.015804
#
# Coordination Sequence:
#
# PCOD9060864 Si02
#       6
#     2   2   2   2   2   2
#     4  12  26  52  78 115 152 197 250 318 382 458
#     4  11  26  50  77 113 152 201 252 311 378 453
#     4  12  24  40  64 106 144 196 249 307 366 435
#     4  11  26  50  77 113 152 201 252 311 378 453
#     4  11  23  44  69 101 145 198 249 306 367 441
#     4  11  23  44  69 101 145 198 249 306 367 441
#
# _framework density 26.335919000000001
#
# number of rings (size 3 to 8) (size 9 to 14) (size 15 to 20)
#    0.000    0.667    3.333    4.000    0.000    5.333 
#    0.000    0.000    0.000    0.000    0.000    0.000 
#    0.000    0.000    0.000    0.000    0.000    0.000 
#
# Total GULP energy -67050.152129 kJ/mol
# GULP energy per Si atom -5587.512677 kJ/mol
# Density = 2.627598 g / cm^3
# Si number density = 26.335919 Si / 1000 Ang^3
#
#
#
# Elastic Constant Matrix: (Units=GPa)
#
#
# Indices 1 2 3 4 5 6 
#
# 1 150.5799 37.2118 35.6505 -11.3969 -0.8702 -40.6041
# 2 37.2118 122.7028 62.6225 -30.7152 6.7612 -12.8077
# 3 35.6505 62.6225 156.2062 -23.2533 -14.0256 -21.2834
# 4 -11.3969 -30.7152 -23.2533 51.8753 -2.9299 5.7907
# 5 -0.8702 6.7612 -14.0256 -2.9299 55.5279 -18.6440
# 6 -40.6041 -12.8077 -21.2834 5.7907 -18.6440 39.1830
#
#
#
# Elastic Compliance Matrix: (Units=1/GPa)
#
#
# Indices 1 2 3 4 5 6 
#
# 1 0.010620 -0.002561 0.000836 0.000024 0.005066 0.013030
# 2 -0.002561 0.012218 -0.004369 0.004897 -0.003526 -0.003435
# 3 0.000836 -0.004369 0.009618 0.001429 0.005409 0.007025
# 4 0.000024 0.004897 0.001429 0.022935 0.000766 -0.000623
# 5 0.005066 -0.003526 0.005409 0.000766 0.026478 0.019520
# 6 0.013030 -0.003435 0.007025 -0.000623 0.019520 0.051097
#
#
# Mechanical properties :
#
#
# Convention : Reuss Voigt Hill
#
# Bulk Modulus (GPa) = 49.33655 77.82874 63.58265
# Shear Modulus (GPa) = 32.91404 48.91751 40.91577
#
# Velocity S-wave (km/s) = 3.53905 4.31448 3.94586
# Velocity P-wave (km/s) = 5.95601 7.37809 6.70486
#
# Compressibility (1/GPa) = 0.02026895
#
# Stress axis : x y z
#
# Youngs Moduli (GPa) = 94.15933 81.84653 103.96970
#
# Poissons Ratio (x) = 0.20960 -0.08696
# Poissons Ratio (y) = 0.24113 0.45428
# Poissons Ratio (z) = -0.07876 0.35761
#
# Static dielectric constant tensor:
#      x y z
#    x 2.340500 0.111720 0.201490 
#    y 0.111720 2.173760 0.091980 
#    z 0.201490 0.091980 2.158600 
# 
# From -- ./inp_files/102816.got.cif
#   From: 2010.05.17/outbox.cif.g08.bks.cpg/sg2_52_cif.got.tgz:102816.got - 2010.06.03 11:33:40.
