data_PCOD9060173
_publ_section_title
;
Structure prediction by ZEFSAII (Michael W. Deem and Ramdas Pophale) SiO2 
 PCOD9060173
Probable space group: P -1
;
_chemical_formula_sum "Si O2"
_cell_formula_units_Z 16
_cell_length_a 19.693136
_cell_length_b 23.189747
_cell_length_c 12.473222
_cell_angle_alpha 28.860349
_cell_angle_beta 144.573496
_cell_angle_gamma 162.692688
_cell_volume 808.915704
_symmetry_space_group_name_H-M "P -1"
_symmetry_group_IT_number 2
_symmetry_cell_setting 'triclinic'
loop_
_space_group_symop_operation_xyz
x,y,z
-x,-y,-z
loop_
_atom_site_type_symbol
_atom_site_label
_atom_site_fract_x
_atom_site_fract_y
_atom_site_fract_z
Si Si1 0.331873 0.753494 0.729115
Si Si2 0.997729 0.906616 0.859481
Si Si3 0.921502 0.303514 0.339593
Si Si4 0.881019 0.013375 0.876059
Si Si5 0.443660 0.179522 0.893912
Si Si6 0.334308 0.517858 0.022309
Si Si7 0.261024 0.362520 0.417066
Si Si8 0.378898 0.844792 0.990037
O O1 0.147692 0.663529 0.708566
O O2 0.500000 0.000000 0.500000
O O3 0.484603 0.813096 0.912470
O O4 0.260943 0.593573 0.809181
O O5 0.771202 0.658134 0.917701
O O6 0.205348 0.036782 0.840797
O O7 0.052231 0.096293 0.619583
O O8 0.010490 0.872433 0.052664
O O9 0.906906 0.155485 0.605827
O O10 0.745408 0.172492 0.225832
O O11 0.174294 0.572226 0.197304
O O12 0.610000 0.754893 0.975507
O O13 0.000000 0.000000 0.000000
O O14 0.661974 0.459857 0.698504
O O15 0.433592 0.066796 0.978613
O O16 0.238857 0.384358 0.230356
O O17 0.500000 0.500000 0.500000
O O18 0.500000 0.000000 0.000000
#
# Coordination Sequence:
#
# PCOD9060173 Si02
#       8
#     2   2   2   2   2   2   2   2
#     4  10  17  38  65  87 125 160 202 260 315 373
#     4  11  22  39  63  94 121 163 217 258 311 373
#     4  10  23  43  63  93 129 172 206 256 327 376
#     4  12  26  44  64  87 135 174 207 259 321 380
#     4   9  19  36  63  89 121 162 202 257 319 373
#     4  11  22  38  64  97 118 161 219 264 313 371
#     4   9  17  37  62  84 123 160 206 256 306 359
#     4  10  23  41  66  97 128 158 212 264 322 378
#
# _framework density 19.779565000000002
#
# number of rings (size 3 to 8) (size 9 to 14) (size 15 to 20)
#    0.000    1.750    5.000    0.375    3.500    1.500 
#    0.000    3.750    0.000    0.000    0.000    0.000 
#    0.000    0.000    0.000    0.000    0.000    0.000 
#
# Total GULP energy -89139.653404 kJ/mol
# GULP energy per Si atom -5571.228338 kJ/mol
# Density = 1.973455 g / cm^3
# Si number density = 19.779565 Si / 1000 Ang^3
#
#
#
# Elastic Constant Matrix: (Units=GPa)
#
#
# Indices 1 2 3 4 5 6 
#
# 1 98.0942 35.3435 16.4533 3.4988 7.7526 -12.8425
# 2 35.3435 41.3281 19.4474 3.4578 11.1377 -19.1131
# 3 16.4533 19.4474 114.0517 5.5531 3.1289 -11.0938
# 4 3.4988 3.4578 5.5531 11.2766 -1.6221 0.6378
# 5 7.7526 11.1377 3.1289 -1.6221 23.9004 -3.3433
# 6 -12.8425 -19.1131 -11.0938 0.6378 -3.3433 38.5308
#
#
#
# Elastic Compliance Matrix: (Units=1/GPa)
#
#
# Indices 1 2 3 4 5 6 
#
# 1 0.014866 -0.013950 0.000018 -0.000036 0.001417 -0.001836
# 2 -0.013950 0.052728 -0.003980 -0.013514 -0.017779 0.019041
# 3 0.000018 -0.003980 0.009693 -0.003543 0.000468 0.000922
# 4 -0.000036 -0.013514 -0.003543 0.096801 0.012185 -0.008281
# 5 0.001417 -0.017779 0.000468 0.012185 0.049859 -0.004087
# 6 -0.001836 0.019041 0.000922 -0.008281 -0.004087 0.034834
#
#
# Mechanical properties :
#
#
# Convention : Reuss Voigt Hill
#
# Bulk Modulus (GPa) = 24.11813 43.99583 34.05698
# Shear Modulus (GPa) = 16.21127 26.89021 21.55074
#
# Velocity S-wave (km/s) = 2.86597 3.69113 3.30441
# Velocity P-wave (km/s) = 4.81369 6.36061 5.64043
#
# Compressibility (1/GPa) = 0.04146258
#
# Stress axis : x y z
#
# Youngs Moduli (GPa) = 67.26558 18.96541 103.16330
#
# Poissons Ratio (x) = 0.26457 -0.00189
# Poissons Ratio (y) = 0.93837 0.41064
# Poissons Ratio (z) = -0.00123 0.07549
#
# Static dielectric constant tensor:
#      x y z
#    x 1.446920 -0.076880 -0.245540 
#    y -0.076880 1.654960 -0.083270 
#    z -0.245540 -0.083270 1.511390 
# 
# From -- ./inp_files/427362.got.cif
#   From: 2010.05.17/outbox.cif.g08.bks.cpg/sg2_214_cif.got.tgz:427362.got - 2010.06.03 11:33:40.
