data_PCOD9060879
_publ_section_title
;
Structure prediction by ZEFSAII (Michael W. Deem and Ramdas Pophale) SiO2 
 PCOD9060879
Probable space group: P -1
;
_chemical_formula_sum "Si O2"
_cell_formula_units_Z 15
_cell_length_a 8.880654
_cell_length_b 12.598046
_cell_length_c 10.219304
_cell_angle_alpha 65.846042
_cell_angle_beta 59.018230
_cell_angle_gamma 113.203146
_cell_volume 567.498684
_symmetry_space_group_name_H-M "P -1"
_symmetry_group_IT_number 2
_symmetry_cell_setting 'triclinic'
loop_
_space_group_symop_operation_xyz
x,y,z
-x,-y,-z
loop_
_atom_site_type_symbol
_atom_site_label
_atom_site_fract_x
_atom_site_fract_y
_atom_site_fract_z
Si Si1 0.792011 0.785713 0.327194
Si Si2 0.000000 0.500000 0.000000
Si Si3 0.697099 0.306488 0.780603
Si Si4 0.619532 0.524250 0.738749
Si Si5 0.621961 0.921082 0.209530
Si Si6 0.916146 0.664579 0.792431
Si Si7 0.160820 0.034085 0.536514
Si Si8 0.305262 0.801187 0.879601
O O1 0.677310 0.608712 0.529104
O O2 0.589928 0.775599 0.355556
O O3 0.892204 0.909604 0.347239
O O4 0.051478 0.897961 0.061127
O O5 0.968039 0.402333 0.194792
O O6 0.972681 0.365742 0.990252
O O7 0.538619 0.347689 0.856101
O O8 0.546716 0.159959 0.807511
O O9 0.000000 0.500000 0.500000
O O10 0.708033 0.239848 0.942471
O O11 0.878191 0.660636 0.654824
O O12 0.390619 0.485197 0.932080
O O13 0.570571 0.005976 0.280842
O O14 0.062518 0.852450 0.689534
O O15 0.490916 0.188815 0.286752
O O16 0.000000 0.000000 0.500000
#
# Coordination Sequence:
#
# PCOD9060879 Si02
#       8
#     2   1   2   2   2   2   2   2
#     4  11  24  46  74 103 142 190 243 300 354 429
#     4  12  26  46  70 110 148 176 238 308 360 412
#     4  12  27  44  70 103 147 194 240 290 358 436
#     4  11  23  44  69 104 139 190 235 286 359 422
#     4  11  27  48  71 105 146 192 245 289 361 431
#     4  11  24  41  71 104 147 180 231 296 361 425
#     4  12  24  43  76 105 141 191 241 299 358 428
#     4  12  27  46  74 106 146 190 239 302 365 428
#
# _framework density 26.431778999999999
#
# number of rings (size 3 to 8) (size 9 to 14) (size 15 to 20)
#    0.000    0.533    2.667    5.200    1.867    6.933 
#    0.000    0.000    0.000    0.000    0.000    0.000 
#    0.000    0.000    0.000    0.000    0.000    0.000 
#
# Total GULP energy -83890.790423 kJ/mol
# GULP energy per Si atom -5592.719362 kJ/mol
# Density = 2.637162 g / cm^3
# Si number density = 26.431779 Si / 1000 Ang^3
#
#
#
# Elastic Constant Matrix: (Units=GPa)
#
#
# Indices 1 2 3 4 5 6 
#
# 1 100.5606 9.2656 33.2223 3.9863 27.0021 -11.6185
# 2 9.2656 126.1370 -26.2573 3.0985 9.6936 -11.0006
# 3 33.2223 -26.2573 55.3786 -7.8185 9.3109 -13.8789
# 4 3.9863 3.0985 -7.8185 35.2705 -13.0294 13.3655
# 5 27.0021 9.6936 9.3109 -13.0294 49.4754 11.1951
# 6 -11.6185 -11.0006 -13.8789 13.3655 11.1951 46.4475
#
#
#
# Elastic Compliance Matrix: (Units=1/GPa)
#
#
# Indices 1 2 3 4 5 6 
#
# 1 0.017655 -0.001170 -0.008677 -0.011439 -0.012566 0.007867
# 2 -0.001170 0.010830 0.008026 -0.003808 -0.005607 0.007118
# 3 -0.008677 0.008026 0.030351 0.001993 -0.004109 0.009216
# 4 -0.011439 -0.003808 0.001993 0.048153 0.024483 -0.022925
# 5 -0.012566 -0.005607 -0.004109 0.024483 0.040481 -0.022501
# 6 0.007867 0.007118 0.009216 -0.022925 -0.022501 0.039957
#
#
# Mechanical properties :
#
#
# Convention : Reuss Voigt Hill
#
# Bulk Modulus (GPa) = 18.11870 34.94860 26.53365
# Shear Modulus (GPa) = 23.87001 43.96172 33.91587
#
# Velocity S-wave (km/s) = 3.00839 4.08268 3.58599
# Velocity P-wave (km/s) = 4.35166 5.95611 5.21595
#
# Compressibility (1/GPa) = 0.05519160
#
# Stress axis : x y z
#
# Youngs Moduli (GPa) = 56.64007 92.33821 32.94836
#
# Poissons Ratio (x) = 0.10808 0.28591
# Poissons Ratio (y) = 0.06630 -0.26444
# Poissons Ratio (z) = 0.49149 -0.74109
#
# Static dielectric constant tensor:
#      x y z
#    x 2.096240 -0.053260 0.003040 
#    y -0.053260 1.882160 0.065330 
#    z 0.003040 0.065330 2.064900 
# 
# From -- ./inp_files/185731.got.cif
#   From: 2010.05.17/outbox.cif.g08.bks.cpg/sg2_93_cif.got.tgz:185731.got - 2010.06.03 11:33:40.
