data_PCOD9060688
_publ_section_title
;
Structure prediction by ZEFSAII (Michael W. Deem and Ramdas Pophale) SiO2 
 PCOD9060688
Probable space group: P -1
;
_chemical_formula_sum "Si O2"
_cell_formula_units_Z 16
_cell_length_a 12.750462
_cell_length_b 9.832696
_cell_length_c 20.244093
_cell_angle_alpha 135.264747
_cell_angle_beta 153.549886
_cell_angle_gamma 46.404693
_cell_volume 783.976841
_symmetry_space_group_name_H-M "P -1"
_symmetry_group_IT_number 2
_symmetry_cell_setting 'triclinic'
loop_
_space_group_symop_operation_xyz
x,y,z
-x,-y,-z
loop_
_atom_site_type_symbol
_atom_site_label
_atom_site_fract_x
_atom_site_fract_y
_atom_site_fract_z
Si Si1 0.840355 0.273515 0.893181
Si Si2 0.656663 0.520367 0.531366
Si Si3 0.517349 0.390997 0.873332
Si Si4 0.796155 0.667872 0.207443
Si Si5 0.633842 0.044307 0.157443
Si Si6 0.733616 0.895871 0.634982
Si Si7 0.094315 0.662366 0.653505
Si Si8 0.336578 0.378744 0.189990
O O1 0.674304 0.273624 0.863813
O O2 0.723304 0.442986 0.834511
O O3 0.859847 0.065388 0.795989
O O4 0.095381 0.335445 0.073650
O O5 0.500000 0.500000 0.500000
O O6 0.666860 0.747685 0.601135
O O7 0.523958 0.437588 0.367056
O O8 0.924696 0.401639 0.646932
O O9 0.353558 0.285534 0.793003
O O10 0.331626 0.559893 0.790244
O O11 0.693348 0.489660 0.053029
O O12 0.741306 0.849585 0.189838
O O13 0.837852 0.167417 0.295256
O O14 0.447179 0.185140 0.145910
O O15 0.500000 0.000000 0.000000
O O16 0.903556 0.759790 0.632891
O O17 0.500000 0.000000 0.500000
O O18 0.000000 0.500000 0.500000
#
# Coordination Sequence:
#
# PCOD9060688 Si02
#       8
#     2   2   2   2   2   2   2   2
#     4  11  23  43  76 102 140 182 236 290 344 414
#     4  12  27  47  66 101 147 185 226 293 360 405
#     4  11  23  46  70 103 139 186 229 291 353 402
#     4  11  26  44  71  99 145 183 234 291 348 420
#     4  12  24  44  73 102 130 182 240 282 347 416
#     4  12  25  44  71 105 136 183 237 277 341 426
#     4  12  24  44  73 101 138 180 234 290 340 412
#     4  11  24  44  68 106 143 179 234 292 346 413
#
# _framework density 20.408767000000001
#
# number of rings (size 3 to 8) (size 9 to 14) (size 15 to 20)
#    0.000    0.500    5.000    3.000    1.750    3.500 
#    0.000    1.875    0.000    0.000    0.000    0.000 
#    0.000    0.000    0.000    0.000    0.000    0.000 
#
# Total GULP energy -89550.123387 kJ/mol
# GULP energy per Si atom -5596.882712 kJ/mol
# Density = 2.036232 g / cm^3
# Si number density = 20.408767 Si / 1000 Ang^3
#
#
#
# Elastic Constant Matrix: (Units=GPa)
#
#
# Indices 1 2 3 4 5 6 
#
# 1 116.8702 24.9298 34.4294 -0.9171 17.9283 8.4448
# 2 24.9298 90.6780 44.9532 -0.1993 6.0912 18.8795
# 3 34.4294 44.9532 138.0566 -5.0352 8.8854 -2.7595
# 4 -0.9171 -0.1993 -5.0352 28.2843 -0.8844 -3.8043
# 5 17.9283 6.0912 8.8854 -0.8844 28.6380 8.6124
# 6 8.4448 18.8795 -2.7595 -3.8043 8.6124 44.3467
#
#
#
# Elastic Compliance Matrix: (Units=1/GPa)
#
#
# Indices 1 2 3 4 5 6 
#
# 1 0.010251 -0.001520 -0.001726 -0.000206 -0.005454 -0.000371
# 2 -0.001520 0.015190 -0.004846 -0.001689 0.001236 -0.006864
# 3 -0.001726 -0.004846 0.009513 0.002019 -0.001835 0.003513
# 4 -0.000206 -0.001689 0.002019 0.036232 -0.000233 0.004038
# 5 -0.005454 0.001236 -0.001835 -0.000233 0.040907 -0.007566
# 6 -0.000371 -0.006864 0.003513 0.004038 -0.007566 0.027577
#
#
# Mechanical properties :
#
#
# Convention : Reuss Voigt Hill
#
# Bulk Modulus (GPa) = 53.26774 61.58107 57.42441
# Shear Modulus (GPa) = 30.84330 36.33998 33.59164
#
# Velocity S-wave (km/s) = 3.89173 4.22430 4.06142
# Velocity P-wave (km/s) = 6.80817 7.35067 7.08461
#
# Compressibility (1/GPa) = 0.01877309
#
# Stress axis : x y z
#
# Youngs Moduli (GPa) = 97.55359 65.83116 105.11438
#
# Poissons Ratio (x) = 0.10004 0.18138
# Poissons Ratio (y) = 0.14825 0.50934
# Poissons Ratio (z) = 0.16833 0.31899
#
# Static dielectric constant tensor:
#      x y z
#    x 1.758120 -0.003440 0.005860 
#    y -0.003440 1.702130 0.005120 
#    z 0.005860 0.005120 1.706570 
# 
# From -- ./inp_files/383381.got.cif
#   From: 2010.05.17/outbox.cif.g08.bks.cpg/sg2_192_cif.got.tgz:383381.got - 2010.06.03 11:33:40.
