data_PCOD9060731
_publ_section_title
;
Structure prediction by ZEFSAII (Michael W. Deem and Ramdas Pophale) SiO2 
 PCOD9060731
Probable space group: P -1
;
_chemical_formula_sum "Si O2"
_cell_formula_units_Z 14
_cell_length_a 6.897932
_cell_length_b 18.556091
_cell_length_c 7.989368
_cell_angle_alpha 125.331371
_cell_angle_beta 120.656323
_cell_angle_gamma 42.408990
_cell_volume 556.232076
_symmetry_space_group_name_H-M "P -1"
_symmetry_group_IT_number 2
_symmetry_cell_setting 'triclinic'
loop_
_space_group_symop_operation_xyz
x,y,z
-x,-y,-z
loop_
_atom_site_type_symbol
_atom_site_label
_atom_site_fract_x
_atom_site_fract_y
_atom_site_fract_z
Si Si1 0.918488 0.432215 0.967257
Si Si2 0.072916 0.772523 0.899426
Si Si3 0.227145 0.312184 0.472630
Si Si4 0.046942 0.971794 0.285721
Si Si5 0.670028 0.467026 0.250722
Si Si6 0.705127 0.793700 0.289023
Si Si7 0.777980 0.210287 0.379038
O O1 0.673647 0.441723 0.761546
O O2 0.181625 0.298646 0.930739
O O3 0.779538 0.486688 0.158305
O O4 0.000000 0.500000 0.000000
O O5 0.000221 0.880286 0.104180
O O6 0.796016 0.780804 0.743897
O O7 0.279141 0.651378 0.920457
O O8 0.225120 0.756542 0.767904
O O9 0.289831 0.274828 0.641429
O O10 0.481325 0.299483 0.470488
O O11 0.900155 0.428376 0.447079
O O12 0.379405 0.908085 0.291106
O O13 0.000000 0.000000 0.500000
O O14 0.846018 0.089373 0.255739
O O15 0.941833 0.811343 0.443532
#
# Coordination Sequence:
#
# PCOD9060731 Si02
#       7
#     2   2   2   2   2   2   2
#     4  11  24  42  71  97 127 169 215 269 334 385
#     4   9  23  43  66  92 132 170 220 258 325 386
#     4   9  22  43  65  94 132 172 212 266 318 388
#     4  12  24  41  66  98 133 176 218 272 316 377
#     4   9  23  43  65  99 126 166 215 264 325 390
#     4  11  25  43  65  99 133 168 220 271 322 386
#     4  11  23  44  65  93 135 177 216 262 328 379
#
# _framework density 25.169350000000001
#
# number of rings (size 3 to 8) (size 9 to 14) (size 15 to 20)
#    0.857    0.857    1.429    1.714    6.000    3.429 
#    2.571    1.429    0.000    0.000    0.000    0.000 
#    0.000    0.000    0.000    0.000    0.000    0.000 
#
# Total GULP energy -78343.750678 kJ/mol
# GULP energy per Si atom -5595.982191 kJ/mol
# Density = 2.511206 g / cm^3
# Si number density = 25.169350 Si / 1000 Ang^3
#
#
#
# Elastic Constant Matrix: (Units=GPa)
#
#
# Indices 1 2 3 4 5 6 
#
# 1 142.2387 20.1434 28.5996 -1.1598 -2.1226 -6.2776
# 2 20.1434 87.8562 -0.8165 3.0674 -7.0378 -9.2309
# 3 28.5996 -0.8165 61.1312 18.7956 5.1802 -1.4812
# 4 -1.1598 3.0674 18.7956 43.9953 7.3537 -0.2611
# 5 -2.1226 -7.0378 5.1802 7.3537 44.1401 -2.3533
# 6 -6.2776 -9.2309 -1.4812 -0.2611 -2.3533 55.2480
#
#
#
# Elastic Compliance Matrix: (Units=1/GPa)
#
#
# Indices 1 2 3 4 5 6 
#
# 1 0.008278 -0.001944 -0.004611 0.002281 0.000277 0.000515
# 2 -0.001944 0.012282 0.001527 -0.001900 0.002106 0.001953
# 3 -0.004611 0.001527 0.021462 -0.009237 -0.000946 0.000223
# 4 0.002281 -0.001900 -0.009237 0.027486 -0.003706 -0.000334
# 5 0.000277 0.002106 -0.000946 -0.003706 0.023805 0.001354
# 6 0.000515 0.001953 0.000223 -0.000334 0.001354 0.018547
#
#
# Mechanical properties :
#
#
# Convention : Reuss Voigt Hill
#
# Bulk Modulus (GPa) = 31.28393 43.00879 37.14636
# Shear Modulus (GPa) = 37.71512 44.89666 41.30589
#
# Velocity S-wave (km/s) = 3.87519 4.22807 4.05547
# Velocity P-wave (km/s) = 5.69905 6.40002 6.05968
#
# Compressibility (1/GPa) = 0.03196529
#
# Stress axis : x y z
#
# Youngs Moduli (GPa) = 120.79696 81.41683 46.59487
#
# Poissons Ratio (x) = 0.15830 0.21485
# Poissons Ratio (y) = 0.23486 -0.07114
# Poissons Ratio (z) = 0.55700 -0.12430
#
# Static dielectric constant tensor:
#      x y z
#    x 1.998410 -0.034840 0.034380 
#    y -0.034840 1.967190 0.035780 
#    z 0.034380 0.035780 2.045600 
# 
# From -- ./inp_files/136859.got.cif
#   From: 2010.05.17/outbox.cif.g08.bks.cpg/sg2_69_cif.got.tgz:136859.got - 2010.06.03 11:33:40.
