data_PCOD9060840
_publ_section_title
;
Structure prediction by ZEFSAII (Michael W. Deem and Ramdas Pophale) SiO2 
 PCOD9060840
Probable space group: P -1
;
_chemical_formula_sum "Si O2"
_cell_formula_units_Z 16
_cell_length_a 13.976987
_cell_length_b 9.192835
_cell_length_c 8.878111
_cell_angle_alpha 108.352409
_cell_angle_beta 97.403444
_cell_angle_gamma 41.604160
_cell_volume 708.543977
_symmetry_space_group_name_H-M "P -1"
_symmetry_group_IT_number 2
_symmetry_cell_setting 'triclinic'
loop_
_space_group_symop_operation_xyz
x,y,z
-x,-y,-z
loop_
_atom_site_type_symbol
_atom_site_label
_atom_site_fract_x
_atom_site_fract_y
_atom_site_fract_z
Si Si1 0.524710 0.353683 0.317458
Si Si2 0.314989 0.316563 0.167380
Si Si3 0.830547 0.973643 0.888150
Si Si4 0.910994 0.486805 0.273335
Si Si5 0.482089 0.672459 0.182691
Si Si6 0.793815 0.367382 0.002258
Si Si7 0.779828 0.846316 0.119023
Si Si8 0.351542 0.113705 0.431675
O O1 0.500000 0.500000 0.500000
O O2 0.416435 0.341360 0.248863
O O3 0.521502 0.473590 0.215527
O O4 0.676335 0.081791 0.269829
O O5 0.317536 0.219268 0.291808
O O6 0.193993 0.560408 0.131412
O O7 0.318120 0.170051 0.994188
O O8 0.924388 0.752826 0.722947
O O9 0.656661 0.177062 0.902735
O O10 0.856572 0.861629 0.016589
O O11 0.857193 0.121952 0.926411
O O12 0.865684 0.381359 0.151548
O O13 0.893057 0.632892 0.185661
O O14 0.789470 0.676043 0.430860
O O15 0.622372 0.567325 0.086443
O O16 0.406087 0.875403 0.352970
O O17 0.500000 0.000000 0.500000
#
# Coordination Sequence:
#
# PCOD9060840 Si02
#       8
#     2   2   2   2   2   2   2   2
#     4  12  24  39  66 103 138 173 228 282 337 392
#     4  11  24  39  67  97 133 175 226 276 331 395
#     4  12  23  43  69 100 134 173 225 279 337 402
#     4  11  26  43  69  99 136 176 223 277 341 403
#     4  12  23  40  69  98 131 173 221 279 335 390
#     4  11  23  44  69  99 130 177 227 274 333 403
#     4  11  23  44  68  98 132 179 228 277 333 405
#     4  12  24  43  65  98 135 177 222 277 336 398
#
# _framework density 22.581520000000001
#
# number of rings (size 3 to 8) (size 9 to 14) (size 15 to 20)
#    0.000    0.500    5.000    4.500    1.750    0.500 
#    0.000    0.625    0.000    0.000    0.000    0.000 
#    0.000    0.000    0.000    0.000    0.000    0.000 
#
# Total GULP energy -89106.037428 kJ/mol
# GULP energy per Si atom -5569.127339 kJ/mol
# Density = 2.253012 g / cm^3
# Si number density = 22.581520 Si / 1000 Ang^3
#
#
#
# Elastic Constant Matrix: (Units=GPa)
#
#
# Indices 1 2 3 4 5 6 
#
# 1 50.9884 32.6488 22.4207 1.2577 14.4516 16.4136
# 2 32.6488 152.8138 61.9085 17.6310 5.7947 19.0493
# 3 22.4207 61.9085 118.7866 26.2925 3.7382 5.6993
# 4 1.2577 17.6310 26.2925 42.0458 11.2018 3.0312
# 5 14.4516 5.7947 3.7382 11.2018 20.9491 5.9831
# 6 16.4136 19.0493 5.6993 3.0312 5.9831 45.8577
#
#
#
# Elastic Compliance Matrix: (Units=1/GPa)
#
#
# Indices 1 2 3 4 5 6 
#
# 1 0.034197 -0.004565 -0.005511 0.011656 -0.025551 -0.007096
# 2 -0.004565 0.009341 -0.003508 -0.002230 0.002969 -0.002050
# 3 -0.005511 -0.003508 0.012828 -0.008211 0.006434 0.001539
# 4 0.011656 -0.002230 -0.008211 0.036251 -0.024953 -0.001366
# 5 -0.025551 0.002969 0.006434 -0.024953 0.077105 -0.001298
# 6 -0.007096 -0.002050 0.001539 -0.001366 -0.001298 0.025266
#
#
# Mechanical properties :
#
#
# Convention : Reuss Voigt Hill
#
# Bulk Modulus (GPa) = 34.24906 61.83832 48.04369
# Shear Modulus (GPa) = 21.56203 35.47791 28.51997
#
# Velocity S-wave (km/s) = 3.09342 3.96802 3.55770
# Velocity P-wave (km/s) = 5.28761 6.95970 6.18046
#
# Compressibility (1/GPa) = 0.02919789
#
# Stress axis : x y z
#
# Youngs Moduli (GPa) = 29.24216 107.05885 77.95428
#
# Poissons Ratio (x) = 0.48873 0.42960
# Poissons Ratio (y) = 0.13349 0.27346
# Poissons Ratio (z) = 0.16115 0.37556
#
# Static dielectric constant tensor:
#      x y z
#    x 1.937320 -0.054890 0.005050 
#    y -0.054890 1.836220 -0.029000 
#    z 0.005050 -0.029000 1.793000 
# 
# From -- ./inp_files/299229.got.cif
#   From: 2010.05.17/outbox.cif.g08.bks.cpg/sg2_150_cif.got.tgz:299229.got - 2010.06.03 11:33:40.
