data_PCOD9060217
_publ_section_title
;
Structure prediction by ZEFSAII (Michael W. Deem and Ramdas Pophale) SiO2 
 PCOD9060217
Probable space group: P -1
;
_chemical_formula_sum "Si O2"
_cell_formula_units_Z 15
_cell_length_a 14.149895
_cell_length_b 6.403391
_cell_length_c 20.155333
_cell_angle_alpha 103.008650
_cell_angle_beta 158.689239
_cell_angle_gamma 78.391059
_cell_volume 646.478077
_symmetry_space_group_name_H-M "P -1"
_symmetry_group_IT_number 2
_symmetry_cell_setting 'triclinic'
loop_
_space_group_symop_operation_xyz
x,y,z
-x,-y,-z
loop_
_atom_site_type_symbol
_atom_site_label
_atom_site_fract_x
_atom_site_fract_y
_atom_site_fract_z
Si Si1 0.500000 0.500000 0.500000
Si Si2 0.270662 0.654086 0.116670
Si Si3 0.870753 0.381018 0.654043
Si Si4 0.887583 0.265765 0.838228
Si Si5 0.327424 0.052468 0.954861
Si Si6 0.979963 0.183183 0.163477
Si Si7 0.169285 0.822481 0.634454
Si Si8 0.148711 0.432729 0.490973
O O1 0.604920 0.288240 0.503199
O O2 0.657441 0.394760 0.662763
O O3 0.134693 0.754816 0.098620
O O4 0.570216 0.665563 0.331038
O O5 0.219086 0.763625 0.020867
O O6 0.149521 0.413797 0.011429
O O7 0.892853 0.457615 0.599154
O O8 0.123998 0.243679 0.824539
O O9 0.835846 0.603127 0.693117
O O10 0.899834 0.037154 0.794930
O O11 0.159429 0.853104 0.859834
O O12 0.536940 0.106696 0.152817
O O13 0.500000 0.000000 0.000000
O O14 0.158878 0.622429 0.564592
O O15 0.050283 0.744259 0.621785
O O16 0.000000 0.000000 0.500000
#
# Coordination Sequence:
#
# PCOD9060217 Si02
#       8
#     1   2   2   2   2   2   2   2
#     4  12  22  50  66 100 144 172 226 280 338 398
#     4  11  23  43  67  99 135 175 225 278 342 403
#     4  12  26  45  68 102 137 181 223 286 335 406
#     4  11  24  44  69 100 136 179 222 283 337 402
#     4  12  26  46  70 100 139 179 231 282 342 398
#     4  12  23  43  68  98 133 180 224 274 346 397
#     4  11  24  44  67  97 132 174 227 284 332 402
#     4  11  24  42  67  95 132 177 223 276 342 400
#
# _framework density 23.202645
#
# number of rings (size 3 to 8) (size 9 to 14) (size 15 to 20)
#    0.000    0.533    4.000    4.400    0.000    4.800 
#    0.000    0.000    0.000    0.000    0.000    0.000 
#    0.000    0.000    0.000    0.000    0.000    0.000 
#
# Total GULP energy -83671.765752 kJ/mol
# GULP energy per Si atom -5578.117717 kJ/mol
# Density = 2.314983 g / cm^3
# Si number density = 23.202645 Si / 1000 Ang^3
#
#
#
# Elastic Constant Matrix: (Units=GPa)
#
#
# Indices 1 2 3 4 5 6 
#
# 1 166.4382 36.4701 16.9950 -8.2400 -6.5678 12.4825
# 2 36.4701 60.3634 16.1432 -6.2752 5.8688 -2.1024
# 3 16.9950 16.1432 86.1478 -16.2457 -1.3053 8.7275
# 4 -8.2400 -6.2752 -16.2457 35.4042 2.0363 -1.0852
# 5 -6.5678 5.8688 -1.3053 2.0363 42.3248 -9.2938
# 6 12.4825 -2.1024 8.7275 -1.0852 -9.2938 37.5833
#
#
#
# Elastic Compliance Matrix: (Units=1/GPa)
#
#
# Indices 1 2 3 4 5 6 
#
# 1 0.007259 -0.004454 -0.000223 0.000658 0.001202 -0.002292
# 2 -0.004454 0.020615 -0.003013 0.001495 -0.003144 0.002598
# 3 -0.000223 -0.003013 0.013579 0.005558 -0.000152 -0.003125
# 4 0.000658 0.001495 0.005558 0.031280 -0.001643 -0.000929
# 5 0.001202 -0.003144 -0.000152 -0.001643 0.025584 0.005739
# 6 -0.002292 0.002598 -0.003125 -0.000929 0.005739 0.029632
#
#
# Mechanical properties :
#
#
# Convention : Reuss Voigt Hill
#
# Bulk Modulus (GPa) = 38.35506 50.24066 44.29786
# Shear Modulus (GPa) = 32.89041 39.28522 36.08782
#
# Velocity S-wave (km/s) = 3.76909 4.11924 3.94805
# Velocity P-wave (km/s) = 5.95884 6.65764 6.31791
#
# Compressibility (1/GPa) = 0.02607218
#
# Stress axis : x y z
#
# Youngs Moduli (GPa) = 137.76068 48.50844 73.64354
#
# Poissons Ratio (x) = 0.21608 0.01640
# Poissons Ratio (y) = 0.61364 0.22190
# Poissons Ratio (z) = 0.03069 0.14617
#
# Static dielectric constant tensor:
#      x y z
#    x 2.546870 0.092530 0.675960 
#    y 0.092530 1.907610 0.137940 
#    z 0.675960 0.137940 2.552480 
# 
# From -- ./inp_files/26771.got.cif
#   From: 2010.05.17/outbox.cif.g08.bks.cpg/sg2_14_cif.got.tgz:26771.got - 2010.06.03 11:33:40.
