data_PCOD9060441
_publ_section_title
;
Structure prediction by ZEFSAII (Michael W. Deem and Ramdas Pophale) SiO2 
 PCOD9060441
Probable space group: P -1
;
_chemical_formula_sum "Si O2"
_cell_formula_units_Z 12
_cell_length_a 13.816267
_cell_length_b 7.643008
_cell_length_c 7.385073
_cell_angle_alpha 141.654413
_cell_angle_beta 81.348207
_cell_angle_gamma 109.635684
_cell_volume 447.064664
_symmetry_space_group_name_H-M "P -1"
_symmetry_group_IT_number 2
_symmetry_cell_setting 'triclinic'
loop_
_space_group_symop_operation_xyz
x,y,z
-x,-y,-z
loop_
_atom_site_type_symbol
_atom_site_label
_atom_site_fract_x
_atom_site_fract_y
_atom_site_fract_z
Si Si1 0.738309 0.585366 0.124654
Si Si2 0.536970 0.309301 0.128880
Si Si3 0.886282 0.121016 0.065907
Si Si4 0.336909 0.364150 0.309784
Si Si5 0.070746 0.245116 0.539100
Si Si6 0.776960 0.235741 0.512494
O O1 0.624261 0.330382 0.973284
O O2 0.810865 0.667881 0.347939
O O3 0.725590 0.894449 0.317124
O O4 0.800823 0.462956 0.859798
O O5 0.431563 0.363993 0.151846
O O6 0.605604 0.566059 0.457603
O O7 0.500000 0.000000 0.000000
O O8 0.939830 0.431282 0.197321
O O9 0.874472 0.215727 0.352448
O O10 0.761301 0.946583 0.919974
O O11 0.932989 0.889871 0.772170
O O12 0.293451 0.624839 0.474933
O O13 0.000000 0.000000 0.500000
#
# Coordination Sequence:
#
# PCOD9060441 Si02
#       6
#     2   2   2   2   2   2
#     4  12  26  44  70 104 143 175 240 294 339 415
#     4  11  25  42  71 103 139 191 243 279 338 409
#     4  12  22  50  72  99 144 185 224 290 350 418
#     4  11  23  43  71 100 139 196 228 272 357 416
#     4  12  26  47  79 104 131 184 242 288 343 420
#     4  12  25  44  70 102 147 187 217 289 366 399
#
# _framework density 26.841753000000001
#
# number of rings (size 3 to 8) (size 9 to 14) (size 15 to 20)
#    0.000    0.333    5.000    3.500    4.667    1.333 
#    0.000    5.000    0.000    0.000    0.000    0.000 
#    0.000    0.000    0.000    0.000    0.000    0.000 
#
# Total GULP energy -67185.815616 kJ/mol
# GULP energy per Si atom -5598.817968 kJ/mol
# Density = 2.678066 g / cm^3
# Si number density = 26.841753 Si / 1000 Ang^3
#
#
#
# Elastic Constant Matrix: (Units=GPa)
#
#
# Indices 1 2 3 4 5 6 
#
# 1 129.0433 18.6934 48.3396 3.3768 -15.9061 27.2249
# 2 18.6934 94.8863 42.6112 21.9217 -14.7455 15.9833
# 3 48.3396 42.6112 168.5333 5.9568 -19.5128 -0.6124
# 4 3.3768 21.9217 5.9568 67.7953 0.3543 0.8562
# 5 -15.9061 -14.7455 -19.5128 0.3543 48.3634 -6.2810
# 6 27.2249 15.9833 -0.6124 0.8562 -6.2810 43.9994
#
#
#
# Elastic Compliance Matrix: (Units=1/GPa)
#
#
# Indices 1 2 3 4 5 6 
#
# 1 0.010326 0.000731 -0.002972 -0.000416 0.001584 -0.006462
# 2 0.000731 0.014164 -0.003363 -0.004269 0.002559 -0.005196
# 3 -0.002972 -0.003363 0.007815 0.000498 0.001586 0.003386
# 4 -0.000416 -0.004269 0.000498 0.016097 -0.001182 0.001333
# 5 0.001584 0.002559 0.001586 -0.001182 0.022807 0.001391
# 6 -0.006462 -0.005196 0.003386 0.001333 0.001391 0.028833
#
#
# Mechanical properties :
#
#
# Convention : Reuss Voigt Hill
#
# Bulk Modulus (GPa) = 47.39844 67.97236 57.68540
# Shear Modulus (GPa) = 42.27179 50.88620 46.57899
#
# Velocity S-wave (km/s) = 3.97275 4.35879 4.17023
# Velocity P-wave (km/s) = 6.22418 7.12112 6.68770
#
# Compressibility (1/GPa) = 0.02109774
#
# Stress axis : x y z
#
# Youngs Moduli (GPa) = 96.84066 70.60118 127.96580
#
# Poissons Ratio (x) = -0.05162 0.38033
# Poissons Ratio (y) = -0.07081 0.43030
# Poissons Ratio (z) = 0.28782 0.23741
#
# Static dielectric constant tensor:
#      x y z
#    x 2.118320 0.034090 -0.004170 
#    y 0.034090 2.184930 -0.123460 
#    z -0.004170 -0.123460 2.052350 
# 
# From -- ./inp_files/202353.got.cif
#   From: 2010.05.17/outbox.cif.g08.bks.cpg/sg2_102_cif.got.tgz:202353.got - 2010.06.03 11:33:40.
