data_PCOD9060038
_publ_section_title
;
Structure prediction by ZEFSAII (Michael W. Deem and Ramdas Pophale) SiO2 
 PCOD9060038
Probable space group: P -1
;
_chemical_formula_sum "Si O2"
_cell_formula_units_Z 14
_cell_length_a 11.657020
_cell_length_b 9.537432
_cell_length_c 14.652889
_cell_angle_alpha 118.632229
_cell_angle_beta 28.896558
_cell_angle_gamma 130.607199
_cell_volume 579.118076
_symmetry_space_group_name_H-M "P -1"
_symmetry_group_IT_number 2
_symmetry_cell_setting 'triclinic'
loop_
_space_group_symop_operation_xyz
x,y,z
-x,-y,-z
loop_
_atom_site_type_symbol
_atom_site_label
_atom_site_fract_x
_atom_site_fract_y
_atom_site_fract_z
Si Si1 0.376652 0.133273 0.130912
Si Si2 0.173688 0.531086 0.979277
Si Si3 0.742061 0.021433 0.543204
Si Si4 0.370372 0.618069 0.595397
Si Si5 0.819208 0.286919 0.404897
Si Si6 0.658996 0.294388 0.795031
Si Si7 0.153753 0.211471 0.995836
O O1 0.040633 0.036929 0.338517
O O2 0.525124 0.277236 0.157009
O O3 0.493385 0.254648 0.993468
O O4 0.500000 0.000000 0.000000
O O5 0.193922 0.353171 0.931933
O O6 0.965639 0.524502 0.200454
O O7 0.000000 0.500000 0.000000
O O8 0.728355 0.139506 0.504109
O O9 0.715598 0.128446 0.681906
O O10 0.494591 0.802847 0.631145
O O11 0.500000 0.500000 0.500000
O O12 0.408705 0.695285 0.489527
O O13 0.055724 0.498379 0.340190
O O14 0.960887 0.223237 0.211076
O O15 0.449318 0.280825 0.859034
O O16 0.000000 0.000000 0.000000
#
# Coordination Sequence:
#
# PCOD9060038 Si02
#       7
#     2   2   2   2   2   2   2
#     4  12  27  48  76 106 150 192 239 307 363 429
#     4  11  26  47  70 102 148 193 236 292 373 427
#     4  12  27  44  78 111 140 192 247 296 367 431
#     4  11  25  46  69 104 150 188 236 305 358 429
#     4  11  23  47  71 102 148 191 242 304 361 426
#     4  12  24  47  77 107 147 188 251 299 360 432
#     4  11  23  42  74 104 143 193 240 298 359 431
#
# _framework density 24.174689000000001
#
# number of rings (size 3 to 8) (size 9 to 14) (size 15 to 20)
#    0.000    0.571    4.286    4.714    4.000    4.000 
#    0.000    0.000    0.000    0.000    0.000    0.000 
#    0.000    0.000    0.000    0.000    0.000    0.000 
#
# Total GULP energy -78446.470287 kJ/mol
# GULP energy per Si atom -5603.319306 kJ/mol
# Density = 2.411967 g / cm^3
# Si number density = 24.174689 Si / 1000 Ang^3
#
#
#
# Elastic Constant Matrix: (Units=GPa)
#
#
# Indices 1 2 3 4 5 6 
#
# 1 159.0417 54.4725 16.2830 4.0790 -21.0524 -3.1959
# 2 54.4725 148.0327 1.9945 7.1601 -14.0825 13.8522
# 3 16.2830 1.9945 80.5452 14.4769 -11.4347 0.1660
# 4 4.0790 7.1601 14.4769 35.2710 0.8178 -6.2106
# 5 -21.0524 -14.0825 -11.4347 0.8178 39.4005 5.6900
# 6 -3.1959 13.8522 0.1660 -6.2106 5.6900 45.6026
#
#
#
# Elastic Compliance Matrix: (Units=1/GPa)
#
#
# Indices 1 2 3 4 5 6 
#
# 1 0.007688 -0.002672 -0.001158 0.000253 0.002659 0.001057
# 2 -0.002672 0.008394 0.001138 -0.002516 0.002445 -0.003389
# 3 -0.001158 0.001138 0.014405 -0.006447 0.004377 -0.001904
# 4 0.000253 -0.002516 -0.006447 0.032590 -0.004143 0.005761
# 5 0.002659 0.002445 0.004377 -0.004143 0.029731 -0.004846
# 6 0.001057 -0.003389 -0.001904 0.005761 -0.004846 0.024428
#
#
# Mechanical properties :
#
#
# Convention : Reuss Voigt Hill
#
# Bulk Modulus (GPa) = 39.83268 59.23548 49.53408
# Shear Modulus (GPa) = 38.17141 45.04612 41.60876
#
# Velocity S-wave (km/s) = 3.97795 4.32135 4.15320
# Velocity P-wave (km/s) = 6.13283 7.03243 6.59798
#
# Compressibility (1/GPa) = 0.02510501
#
# Stress axis : x y z
#
# Youngs Moduli (GPa) = 130.07295 119.12681 69.41843
#
# Poissons Ratio (x) = 0.31826 0.08040
# Poissons Ratio (y) = 0.34751 -0.07903
# Poissons Ratio (z) = 0.15066 -0.13563
#
# Static dielectric constant tensor:
#      x y z
#    x 1.913560 -0.068300 0.070700 
#    y -0.068300 1.849150 0.022170 
#    z 0.070700 0.022170 1.959140 
# 
# From -- ./inp_files/218997.got.cif
#   From: 2010.05.17/outbox.cif.g08.bks.cpg/sg2_110_cif.got.tgz:218997.got - 2010.06.03 11:33:40.
