data_PCOD9060475
_publ_section_title
;
Structure prediction by ZEFSAII (Michael W. Deem and Ramdas Pophale) SiO2 
 PCOD9060475
Probable space group: P -1
;
_chemical_formula_sum "Si O2"
_cell_formula_units_Z 16
_cell_length_a 9.839781
_cell_length_b 11.701817
_cell_length_c 9.355970
_cell_angle_alpha 126.701053
_cell_angle_beta 121.241078
_cell_angle_gamma 78.949311
_cell_volume 727.400349
_symmetry_space_group_name_H-M "P -1"
_symmetry_group_IT_number 2
_symmetry_cell_setting 'triclinic'
loop_
_space_group_symop_operation_xyz
x,y,z
-x,-y,-z
loop_
_atom_site_type_symbol
_atom_site_label
_atom_site_fract_x
_atom_site_fract_y
_atom_site_fract_z
Si Si1 0.727614 0.702645 0.176535
Si Si2 0.587951 0.256738 0.064258
Si Si3 0.961400 0.349687 0.279852
Si Si4 0.147733 0.114303 0.341401
Si Si5 0.005836 0.533772 0.193044
Si Si6 0.537098 0.959612 0.652548
Si Si7 0.891933 0.950696 0.264321
Si Si8 0.699247 0.207560 0.390152
O O1 0.759723 0.809571 0.410751
O O2 0.798631 0.794505 0.142972
O O3 0.836137 0.582465 0.174477
O O4 0.540003 0.652727 0.003361
O O5 0.769955 0.302827 0.145752
O O6 0.595146 0.253905 0.237624
O O7 0.531420 0.096087 0.852523
O O8 0.000000 0.500000 0.500000
O O9 0.048173 0.228642 0.305940
O O10 0.023488 0.394050 0.189432
O O11 0.283009 0.075887 0.280985
O O12 0.018777 0.976989 0.223314
O O13 0.148557 0.666685 0.405081
O O14 0.000000 0.500000 0.000000
O O15 0.406043 0.833468 0.555882
O O16 0.500000 0.000000 0.500000
O O17 0.771797 0.066645 0.272568
O O18 0.000000 0.000000 0.500000
#
# Coordination Sequence:
#
# PCOD9060475 Si02
#       8
#     2   2   2   2   2   2   2   2
#     4  11  22  41  72 103 135 188 229 282 362 416
#     4  12  25  43  75 103 140 184 224 299 354 415
#     4  12  24  50  70  94 141 192 241 276 340 423
#     4  11  22  43  71 103 142 186 223 292 349 417
#     4  12  28  47  71 100 138 196 243 281 333 422
#     4  12  26  41  69 116 142 167 236 298 357 405
#     4  10  17  38  72  95 133 183 223 273 361 417
#     4  12  23  47  69  99 148 180 226 295 353 413
#
# _framework density 21.99614
#
# number of rings (size 3 to 8) (size 9 to 14) (size 15 to 20)
#    0.000    0.500    8.750    1.125    1.750    2.000 
#    2.250    1.250    0.000    0.000    0.000    0.000 
#    0.000    0.000    0.000    0.000    0.000    0.000 
#
# Total GULP energy -89513.124690 kJ/mol
# GULP energy per Si atom -5594.570293 kJ/mol
# Density = 2.194608 g / cm^3
# Si number density = 21.996140 Si / 1000 Ang^3
#
#
#
# Elastic Constant Matrix: (Units=GPa)
#
#
# Indices 1 2 3 4 5 6 
#
# 1 119.7433 36.9884 15.4832 -19.1469 19.6689 4.8560
# 2 36.9884 93.7722 28.0978 -20.5523 13.9330 17.0463
# 3 15.4832 28.0978 87.4094 -27.1979 11.5200 -1.8586
# 4 -19.1469 -20.5523 -27.1979 25.2198 -1.4429 -6.7174
# 5 19.6689 13.9330 11.5200 -1.4429 39.5637 -6.3642
# 6 4.8560 17.0463 -1.8586 -6.7174 -6.3642 37.0864
#
#
#
# Elastic Compliance Matrix: (Units=1/GPa)
#
#
# Indices 1 2 3 4 5 6 
#
# 1 0.010966 -0.002493 0.002136 0.008463 -0.004803 0.000526
# 2 -0.002493 0.015545 -0.002066 0.006564 -0.004439 -0.006495
# 3 0.002136 -0.002066 0.019115 0.021580 -0.004342 0.004792
# 4 0.008463 0.006564 0.021580 0.076714 -0.008493 0.009394
# 5 -0.004803 -0.004439 -0.004342 -0.008493 0.031189 0.006265
# 6 0.000526 -0.006495 0.004792 0.009394 0.006265 0.032898
#
#
# Mechanical properties :
#
#
# Convention : Reuss Voigt Hill
#
# Bulk Modulus (GPa) = 24.52131 51.34044 37.93087
# Shear Modulus (GPa) = 24.40612 35.06433 29.73523
#
# Velocity S-wave (km/s) = 3.33463 3.99697 3.68072
# Velocity P-wave (km/s) = 5.09887 6.68523 5.94520
#
# Compressibility (1/GPa) = 0.04078086
#
# Stress axis : x y z
#
# Youngs Moduli (GPa) = 91.19337 64.32761 52.31427
#
# Poissons Ratio (x) = 0.16035 -0.11176
# Poissons Ratio (y) = 0.22732 0.10810
# Poissons Ratio (z) = -0.19481 0.13292
#
# Static dielectric constant tensor:
#      x y z
#    x 1.831130 0.010060 -0.007760 
#    y 0.010060 1.849090 -0.017190 
#    z -0.007760 -0.017190 1.811770 
# 
# From -- ./inp_files/190399.got.cif
#   From: 2010.05.17/outbox.cif.g08.bks.cpg/sg2_96_cif.got.tgz:190399.got - 2010.06.03 11:33:40.
