data_PCOD9060594
_publ_section_title
;
Structure prediction by ZEFSAII (Michael W. Deem and Ramdas Pophale) SiO2 
 PCOD9060594
Probable space group: P -1
;
_chemical_formula_sum "Si O2"
_cell_formula_units_Z 14
_cell_length_a 9.540547
_cell_length_b 8.199030
_cell_length_c 25.789804
_cell_angle_alpha 148.059457
_cell_angle_beta 143.085851
_cell_angle_gamma 48.761792
_cell_volume 639.834257
_symmetry_space_group_name_H-M "P -1"
_symmetry_group_IT_number 2
_symmetry_cell_setting 'triclinic'
loop_
_space_group_symop_operation_xyz
x,y,z
-x,-y,-z
loop_
_atom_site_type_symbol
_atom_site_label
_atom_site_fract_x
_atom_site_fract_y
_atom_site_fract_z
Si Si1 0.298738 0.413770 0.813378
Si Si2 0.505181 0.146164 0.597334
Si Si3 0.795861 0.225363 0.012212
Si Si4 0.184459 0.373612 0.979009
Si Si5 0.889249 0.261746 0.571357
Si Si6 0.359216 0.841082 0.743794
Si Si7 0.064901 0.107956 0.292427
O O1 0.206993 0.582421 0.883586
O O2 0.543384 0.583523 0.911414
O O3 0.091267 0.385891 0.703855
O O4 0.349191 0.062058 0.750351
O O5 0.433267 0.495939 0.665098
O O6 0.500000 0.000000 0.500000
O O7 0.323097 0.923183 0.514109
O O8 0.749857 0.122983 0.693305
O O9 0.801385 0.442987 0.022132
O O10 0.553889 0.019467 0.885074
O O11 0.000000 0.000000 0.000000
O O12 0.000000 0.500000 0.000000
O O13 0.076767 0.042127 0.838878
O O14 0.818846 0.560140 0.599380
O O15 0.000000 0.000000 0.500000
O O16 0.114960 0.835081 0.699410
#
# Coordination Sequence:
#
# PCOD9060594 Si02
#       7
#     2   2   2   2   2   2   2
#     4  11  25  47  74 106 145 192 239 291 371 427
#     4  12  29  47  76 104 136 198 246 288 356 430
#     4  11  23  43  73 108 144 183 241 298 356 435
#     4  11  25  43  72 108 142 183 234 303 362 419
#     4  12  29  46  69 105 147 191 235 295 353 426
#     4  11  23  47  76 102 141 186 240 303 351 423
#     4  12  25  49  73 102 147 183 241 298 358 423
#
# _framework density 21.880666000000002
#
# number of rings (size 3 to 8) (size 9 to 14) (size 15 to 20)
#    0.000    0.571    4.286    3.000    8.000    4.000 
#    0.000    0.000    0.000    0.000    0.000    0.000 
#    0.000    0.000    0.000    0.000    0.000    0.000 
#
# Total GULP energy -78308.559073 kJ/mol
# GULP energy per Si atom -5593.468505 kJ/mol
# Density = 2.183086 g / cm^3
# Si number density = 21.880666 Si / 1000 Ang^3
#
#
#
# Elastic Constant Matrix: (Units=GPa)
#
#
# Indices 1 2 3 4 5 6 
#
# 1 121.4678 21.5971 40.3748 10.0363 4.2730 -18.6919
# 2 21.5971 102.4774 40.6590 12.5488 11.6655 -23.4429
# 3 40.3748 40.6590 104.7741 11.8290 4.4355 -3.1632
# 4 10.0363 12.5488 11.8290 48.5884 2.8299 4.1592
# 5 4.2730 11.6655 4.4355 2.8299 28.6868 3.2524
# 6 -18.6919 -23.4429 -3.1632 4.1592 3.2524 25.6287
#
#
#
# Elastic Compliance Matrix: (Units=1/GPa)
#
#
# Indices 1 2 3 4 5 6 
#
# 1 0.011296 0.002593 -0.004607 -0.002635 -0.002995 0.010849
# 2 0.002593 0.017604 -0.006379 -0.004676 -0.008253 0.019013
# 3 -0.004607 -0.006379 0.013488 -0.000141 0.002090 -0.007773
# 4 -0.002635 -0.004676 -0.000141 0.023165 0.001179 -0.010126
# 5 -0.002995 -0.008253 0.002090 0.001179 0.039892 -0.014729
# 6 0.010849 0.019013 -0.007773 -0.010126 -0.014729 0.066876
#
#
# Mechanical properties :
#
#
# Convention : Reuss Voigt Hill
#
# Bulk Modulus (GPa) = 39.06162 59.33124 49.19643
# Shear Modulus (GPa) = 25.29829 35.65334 30.47581
#
# Velocity S-wave (km/s) = 3.40397 4.04102 3.73610
# Velocity P-wave (km/s) = 5.77410 6.99627 6.41436
#
# Compressibility (1/GPa) = 0.02560057
#
# Stress axis : x y z
#
# Youngs Moduli (GPa) = 88.53028 56.80404 74.13958
#
# Poissons Ratio (x) = -0.14728 0.34157
# Poissons Ratio (y) = -0.22954 0.47297
# Poissons Ratio (z) = 0.40787 0.36238
#
# Static dielectric constant tensor:
#      x y z
#    x 1.753520 -0.006090 0.015530 
#    y -0.006090 1.884130 0.005600 
#    z 0.015530 0.005600 1.801120 
# 
# From -- ./inp_files/356546.got.cif
#   From: 2010.05.17/outbox.cif.g08.bks.cpg/sg2_179_cif.got.tgz:356546.got - 2010.06.03 11:33:40.
