data_PCOD9060224
_publ_section_title
;
Structure prediction by ZEFSAII (Michael W. Deem and Ramdas Pophale) SiO2 
 PCOD9060224
Probable space group: P -1
;
_chemical_formula_sum "Si O2"
_cell_formula_units_Z 16
_cell_length_a 9.110899
_cell_length_b 16.653138
_cell_length_c 11.440461
_cell_angle_alpha 150.337472
_cell_angle_beta 119.422145
_cell_angle_gamma 52.879218
_cell_volume 682.538616
_symmetry_space_group_name_H-M "P -1"
_symmetry_group_IT_number 2
_symmetry_cell_setting 'triclinic'
loop_
_space_group_symop_operation_xyz
x,y,z
-x,-y,-z
loop_
_atom_site_type_symbol
_atom_site_label
_atom_site_fract_x
_atom_site_fract_y
_atom_site_fract_z
Si Si1 0.405659 0.920873 0.269511
Si Si2 0.364673 0.589020 0.954623
Si Si3 0.691745 0.018904 0.101944
Si Si4 0.892233 0.882160 0.771403
Si Si5 0.862408 0.487495 0.532313
Si Si6 0.527520 0.428793 0.594770
Si Si7 0.287536 0.307085 0.050021
Si Si8 0.965374 0.853537 0.221475
O O1 0.400347 0.747674 0.107771
O O2 0.500000 0.000000 0.500000
O O3 0.210941 0.049045 0.303565
O O4 0.528105 0.860479 0.123718
O O5 0.152023 0.694548 0.043224
O O6 0.500000 0.500000 0.000000
O O7 0.442571 0.426730 0.687312
O O8 0.632329 0.232006 0.337034
O O9 0.828510 0.958080 0.192218
O O10 0.500000 0.000000 0.000000
O O11 0.783103 0.905636 0.879543
O O12 0.012268 0.674859 0.544554
O O13 0.000000 0.000000 0.000000
O O14 0.675754 0.456371 0.394846
O O15 0.773240 0.658246 0.795365
O O16 0.000000 0.500000 0.500000
O O17 0.663216 0.530267 0.767291
O O18 0.129919 0.249782 0.867222
O O19 0.000000 0.000000 0.500000
#
# Coordination Sequence:
#
# PCOD9060224 Si02
#       8
#     2   2   2   2   2   2   2   2
#     4  11  25  46  69  98 137 187 238 294 364 432
#     4  11  25  46  69  98 138 185 238 301 365 433
#     4  12  25  44  71 105 142 187 236 293 361 431
#     4  12  24  42  67  98 138 182 232 291 350 422
#     4  12  24  41  69 107 145 187 238 296 358 430
#     4  11  23  43  68 101 144 188 235 294 362 432
#     4  11  24  43  68  99 139 184 232 291 356 428
#     4  12  25  45  72 106 144 188 243 302 363 438
#
# _framework density 23.441897999999998
#
# number of rings (size 3 to 8) (size 9 to 14) (size 15 to 20)
#    0.000    0.500    0.000   10.125    0.000    3.000 
#    0.000    8.750    0.000    0.000    0.000    0.000 
#    0.000    0.000    0.000    0.000    0.000    0.000 
#
# Total GULP energy -89200.067792 kJ/mol
# GULP energy per Si atom -5575.004237 kJ/mol
# Density = 2.338854 g / cm^3
# Si number density = 23.441898 Si / 1000 Ang^3
#
#
#
# Elastic Constant Matrix: (Units=GPa)
#
#
# Indices 1 2 3 4 5 6 
#
# 1 127.8369 30.2941 24.2512 14.7720 11.7614 -17.9020
# 2 30.2941 174.3801 32.3338 -5.1420 -1.4037 -3.4725
# 3 24.2512 32.3338 86.8995 -2.5655 12.4260 -3.2495
# 4 14.7720 -5.1420 -2.5655 33.0218 -5.6672 0.6910
# 5 11.7614 -1.4037 12.4260 -5.6672 46.8545 -2.6522
# 6 -17.9020 -3.4725 -3.2495 0.6910 -2.6522 20.9137
#
#
#
# Elastic Compliance Matrix: (Units=1/GPa)
#
#
# Indices 1 2 3 4 5 6 
#
# 1 0.010602 -0.001509 -0.001906 -0.005717 -0.002416 0.008411
# 2 -0.001509 0.006445 -0.002131 0.001750 0.001324 -0.000443
# 3 -0.001906 -0.002131 0.013280 0.001045 -0.003000 -0.000337
# 4 -0.005717 0.001750 0.001045 0.034166 0.005064 -0.004927
# 5 -0.002416 0.001324 -0.003000 0.005064 0.023425 0.000489
# 6 0.008411 -0.000443 -0.000337 -0.004927 0.000489 0.055115
#
#
# Mechanical properties :
#
#
# Convention : Reuss Voigt Hill
#
# Bulk Modulus (GPa) = 51.98905 62.54164 57.26534
# Shear Modulus (GPa) = 31.14546 40.30715 35.72631
#
# Velocity S-wave (km/s) = 3.64898 4.15112 3.90813
# Velocity P-wave (km/s) = 6.32293 7.05075 6.69674
#
# Compressibility (1/GPa) = 0.01923482
#
# Stress axis : x y z
#
# Youngs Moduli (GPa) = 94.31781 155.15035 75.30295
#
# Poissons Ratio (x) = 0.23412 0.14353
# Poissons Ratio (y) = 0.14233 0.16049
# Poissons Ratio (z) = 0.17978 0.33067
#
# Static dielectric constant tensor:
#      x y z
#    x 1.916130 0.010430 0.007660 
#    y 0.010430 1.975380 -0.127770 
#    z 0.007660 -0.127770 2.010190 
# 
# From -- ./inp_files/403594.got.cif
#   From: 2010.05.17/outbox.cif.g08.bks.cpg/sg2_202_cif.got.tgz:403594.got - 2010.06.03 11:33:40.
