data_PCOD9060808
_publ_section_title
;
Structure prediction by ZEFSAII (Michael W. Deem and Ramdas Pophale) SiO2 
 PCOD9060808
Probable space group: P -1
;
_chemical_formula_sum "Si O2"
_cell_formula_units_Z 16
_cell_length_a 13.590986
_cell_length_b 14.051506
_cell_length_c 10.642407
_cell_angle_alpha 69.442224
_cell_angle_beta 47.101167
_cell_angle_gamma 33.983096
_cell_volume 710.375213
_symmetry_space_group_name_H-M "P -1"
_symmetry_group_IT_number 2
_symmetry_cell_setting 'triclinic'
loop_
_space_group_symop_operation_xyz
x,y,z
-x,-y,-z
loop_
_atom_site_type_symbol
_atom_site_label
_atom_site_fract_x
_atom_site_fract_y
_atom_site_fract_z
Si Si1 0.239086 0.064171 0.020179
Si Si2 0.368273 0.855532 0.510125
Si Si3 0.148105 0.330098 0.350167
Si Si4 0.266440 0.891382 0.307158
Si Si5 0.979069 0.442874 0.167362
Si Si6 0.071769 0.721561 0.314319
Si Si7 0.125211 0.837178 0.871818
Si Si8 0.525075 0.549843 0.118735
O O1 0.539551 0.884951 0.797667
O O2 0.095278 0.259056 0.105208
O O3 0.075230 0.115014 0.030051
O O4 0.246959 0.980637 0.168085
O O5 0.338318 0.899692 0.368894
O O6 0.670717 0.648293 0.377643
O O7 0.239199 0.830863 0.663001
O O8 0.182217 0.064171 0.633147
O O9 0.000000 0.500000 0.500000
O O10 0.120476 0.379781 0.204858
O O11 0.012263 0.308867 0.500206
O O12 0.489144 0.662533 0.195265
O O13 0.000000 0.000000 0.500000
O O14 0.000000 0.500000 0.000000
O O15 0.244115 0.700810 0.234166
O O16 0.276407 0.543505 0.118547
O O17 0.355289 0.627912 0.840215
O O18 0.000000 0.000000 0.000000
#
# Coordination Sequence:
#
# PCOD9060808 Si02
#       8
#     2   2   2   2   2   2   2   2
#     4  12  27  49  73 104 151 192 242 301 366 438
#     4  12  24  43  74 101 142 182 243 294 362 430
#     4  12  28  46  76 104 142 195 252 296 363 439
#     4  12  23  42  69 107 136 186 239 287 360 437
#     4  12  28  51  74 105 150 197 243 302 364 436
#     4  11  23  44  68 102 136 194 234 297 354 431
#     4  12  26  43  71 114 145 184 235 313 366 426
#     4  11  24  41  71 100 150 179 237 297 364 417
#
# _framework density 22.523309999999999
#
# number of rings (size 3 to 8) (size 9 to 14) (size 15 to 20)
#    0.000    0.250    3.750    4.875    7.000    2.000 
#    0.000    1.875    0.000    0.000    0.000    0.000 
#    0.000    0.000    0.000    0.000    0.000    0.000 
#
# Total GULP energy -89528.071438 kJ/mol
# GULP energy per Si atom -5595.504465 kJ/mol
# Density = 2.247205 g / cm^3
# Si number density = 22.523310 Si / 1000 Ang^3
#
#
#
# Elastic Constant Matrix: (Units=GPa)
#
#
# Indices 1 2 3 4 5 6 
#
# 1 85.0337 18.1050 21.9019 20.1150 12.7141 2.9683
# 2 18.1050 121.7111 33.9030 13.1531 4.8992 12.7492
# 3 21.9019 33.9030 109.7448 9.2936 -8.2189 4.0224
# 4 20.1150 13.1531 9.2936 51.0670 -6.6887 -0.0901
# 5 12.7141 4.8992 -8.2189 -6.6887 32.6652 7.1700
# 6 2.9683 12.7492 4.0224 -0.0901 7.1700 35.1988
#
#
#
# Elastic Compliance Matrix: (Units=1/GPa)
#
#
# Indices 1 2 3 4 5 6 
#
# 1 0.015357 -0.000515 -0.003004 -0.006438 -0.008168 0.000882
# 2 -0.000515 0.009632 -0.002730 -0.002013 -0.001732 -0.002786
# 3 -0.003004 -0.002730 0.010893 0.000509 0.004631 -0.000945
# 4 -0.006438 -0.002013 0.000509 0.023569 0.007832 -0.000321
# 5 -0.008168 -0.001732 0.004631 0.007832 0.038360 -0.007007
# 6 0.000882 -0.002786 -0.000945 -0.000321 -0.007007 0.030879
#
#
# Mechanical properties :
#
#
# Convention : Reuss Voigt Hill
#
# Bulk Modulus (GPa) = 42.76605 51.58993 47.17799
# Shear Modulus (GPa) = 33.56059 39.95820 36.75940
#
# Velocity S-wave (km/s) = 3.86429 4.21655 4.04426
# Velocity P-wave (km/s) = 6.24011 6.83086 6.54216
#
# Compressibility (1/GPa) = 0.02338303
#
# Stress axis : x y z
#
# Youngs Moduli (GPa) = 65.11712 103.81721 91.79908
#
# Poissons Ratio (x) = 0.05351 0.27580
# Poissons Ratio (y) = 0.03356 0.25060
# Poissons Ratio (z) = 0.19564 0.28341
#
# Static dielectric constant tensor:
#      x y z
#    x 1.823610 -0.014790 0.023710 
#    y -0.014790 1.800120 0.022470 
#    z 0.023710 0.022470 1.906310 
# 
# From -- ./inp_files/455623.got.cif
#   From: 2010.05.17/outbox.cif.g08.bks.cpg/sg2_228_cif.got.tgz:455623.got - 2010.06.03 11:33:40.
