data_PCOD9060148
_publ_section_title
;
Structure prediction by ZEFSAII (Michael W. Deem and Ramdas Pophale) SiO2 
 PCOD9060148
Probable space group: P -1
;
_chemical_formula_sum "Si O2"
_cell_formula_units_Z 16
_cell_length_a 9.921159
_cell_length_b 17.917072
_cell_length_c 6.596701
_cell_angle_alpha 71.115675
_cell_angle_beta 112.825156
_cell_angle_gamma 133.239456
_cell_volume 784.420256
_symmetry_space_group_name_H-M "P -1"
_symmetry_group_IT_number 2
_symmetry_cell_setting 'triclinic'
loop_
_space_group_symop_operation_xyz
x,y,z
-x,-y,-z
loop_
_atom_site_type_symbol
_atom_site_label
_atom_site_fract_x
_atom_site_fract_y
_atom_site_fract_z
Si Si1 0.242609 0.235272 0.395099
Si Si2 0.280818 0.400117 0.981386
Si Si3 0.028090 0.223895 0.672690
Si Si4 0.030959 0.939089 0.916339
Si Si5 0.277457 0.770285 0.709675
Si Si6 0.542873 0.922832 0.068899
Si Si7 0.618140 0.270941 0.585801
Si Si8 0.032444 0.592789 0.049633
O O1 0.261279 0.321582 0.198904
O O2 0.123882 0.213995 0.545728
O O3 0.450291 0.273607 0.533725
O O4 0.133361 0.133148 0.281649
O O5 0.500000 0.500000 0.000000
O O6 0.181606 0.334077 0.775175
O O7 0.157070 0.430945 0.960246
O O8 0.845217 0.209243 0.505264
O O9 0.965324 0.138352 0.876807
O O10 0.232920 0.016474 0.855139
O O11 0.000000 0.000000 0.000000
O O12 0.353572 0.731140 0.634132
O O13 0.452932 0.866726 0.850705
O O14 0.134283 0.685501 0.866551
O O15 0.443050 0.833846 0.258041
O O16 0.500000 0.000000 0.000000
O O17 0.816775 0.364800 0.718387
O O18 0.000000 0.500000 0.000000
#
# Coordination Sequence:
#
# PCOD9060148 Si02
#       8
#     2   2   2   2   2   2   2   2
#     4  11  25  43  67  96 135 172 216 267 322 385
#     4  11  26  45  68  98 129 167 216 267 328 389
#     4  11  23  43  68  91 134 175 212 268 323 383
#     4  11  24  41  63  96 134 172 218 267 316 375
#     4  11  23  43  66  93 133 171 212 265 325 381
#     4  11  24  39  65  96 130 170 221 264 313 382
#     4  11  25  43  65  98 132 170 216 265 321 384
#     4  11  26  45  68  97 131 165 215 271 323 391
#
# _framework density 20.39723
#
# number of rings (size 3 to 8) (size 9 to 14) (size 15 to 20)
#    0.000    1.000    2.500    3.000    7.000   10.000 
#    0.000    0.000    0.000    0.000    0.000    0.000 
#    0.000    0.000    0.000    0.000    0.000    0.000 
#
# Total GULP energy -89528.732490 kJ/mol
# GULP energy per Si atom -5595.545781 kJ/mol
# Density = 2.035081 g / cm^3
# Si number density = 20.397230 Si / 1000 Ang^3
#
#
#
# Elastic Constant Matrix: (Units=GPa)
#
#
# Indices 1 2 3 4 5 6 
#
# 1 112.0859 33.8242 -1.3764 10.8951 -4.5255 3.3479
# 2 33.8242 100.0246 14.8334 28.8462 -2.2222 5.5421
# 3 -1.3764 14.8334 59.4379 13.6472 -4.4214 1.1274
# 4 10.8951 28.8462 13.6472 16.0141 -2.4116 -4.8444
# 5 -4.5255 -2.2222 -4.4214 -2.4116 41.4464 2.7189
# 6 3.3479 5.5421 1.1274 -4.8444 2.7189 37.3195
#
#
#
# Elastic Compliance Matrix: (Units=1/GPa)
#
#
# Indices 1 2 3 4 5 6 
#
# 1 0.010176 -0.002245 0.002009 -0.004846 0.001011 -0.001343
# 2 -0.002245 0.025880 0.005924 -0.053475 -0.000634 -0.010716
# 3 0.002009 0.005924 0.023332 -0.033583 0.001481 -0.006232
# 4 -0.004846 -0.053475 -0.033583 0.201764 0.002438 0.035404
# 5 0.001011 -0.000634 0.001481 0.002438 0.024603 -0.001517
# 6 -0.001343 -0.010716 -0.006232 0.035404 -0.001517 0.033402
#
#
# Mechanical properties :
#
#
# Convention : Reuss Voigt Hill
#
# Bulk Modulus (GPa) = 14.13155 40.67899 27.40527
# Shear Modulus (GPa) = 15.08900 33.90714 24.49807
#
# Velocity S-wave (km/s) = 2.72280 4.08160 3.46937
# Velocity P-wave (km/s) = 4.10220 6.49610 5.43265
#
# Compressibility (1/GPa) = 0.07076366
#
# Stress axis : x y z
#
# Youngs Moduli (GPa) = 98.27310 38.64049 42.86042
#
# Poissons Ratio (x) = 0.08673 -0.08611
# Poissons Ratio (y) = 0.22057 -0.25389
# Poissons Ratio (z) = -0.19745 -0.22890
#
# Static dielectric constant tensor:
#      x y z
#    x 1.685540 -0.013490 0.007870 
#    y -0.013490 1.713070 -0.001330 
#    z 0.007870 -0.001330 1.709460 
# 
# From -- ./inp_files/46227.got.cif
#   From: 2010.05.17/outbox.cif.g08.bks.cpg/sg2_24_cif.got.tgz:46227.got - 2010.06.03 11:33:40.
