data_PCOD9060809
_publ_section_title
;
Structure prediction by ZEFSAII (Michael W. Deem and Ramdas Pophale) SiO2 
 PCOD9060809
Probable space group: P -1
;
_chemical_formula_sum "Si O2"
_cell_formula_units_Z 16
_cell_length_a 9.400348
_cell_length_b 9.808479
_cell_length_c 15.034559
_cell_angle_alpha 115.662470
_cell_angle_beta 142.558849
_cell_angle_gamma 64.491653
_cell_volume 750.037350
_symmetry_space_group_name_H-M "P -1"
_symmetry_group_IT_number 2
_symmetry_cell_setting 'triclinic'
loop_
_space_group_symop_operation_xyz
x,y,z
-x,-y,-z
loop_
_atom_site_type_symbol
_atom_site_label
_atom_site_fract_x
_atom_site_fract_y
_atom_site_fract_z
Si Si1 0.751920 0.251986 0.855860
Si Si2 0.910515 0.316509 0.237658
Si Si3 0.757106 0.460219 0.570950
Si Si4 0.223611 0.002650 0.354434
Si Si5 0.595529 0.121532 0.922345
Si Si6 0.071362 0.175940 0.733476
Si Si7 0.385309 0.551969 0.707662
Si Si8 0.766529 0.773671 0.972945
O O1 0.691731 0.156015 0.883399
O O2 0.550700 0.395330 0.776626
O O3 0.783594 0.133381 0.757049
O O4 0.012757 0.299490 0.999882
O O5 0.815397 0.399824 0.304713
O O6 0.052357 0.426657 0.283174
O O7 0.099532 0.165696 0.305494
O O8 0.688782 0.253572 0.064602
O O9 0.500000 0.500000 0.500000
O O10 0.712912 0.465021 0.444504
O O11 0.885189 0.298587 0.625017
O O12 0.500000 0.000000 0.500000
O O13 0.069252 0.962189 0.350117
O O14 0.312880 0.134255 0.786989
O O15 0.697812 0.953609 0.964075
O O16 0.160456 0.236492 0.889499
O O17 0.548203 0.684979 0.824266
#
# Coordination Sequence:
#
# PCOD9060809 Si02
#       8
#     2   2   2   2   2   2   2   2
#     4  11  25  42  69 105 138 179 236 282 343 410
#     4  12  25  45  73  96 145 180 231 286 346 407
#     4  12  28  45  68 103 143 184 230 283 350 415
#     4  11  24  46  71  97 142 190 227 281 347 413
#     4  12  24  43  73 106 134 181 235 290 342 404
#     4  11  23  44  68 102 137 179 230 281 343 409
#     4  12  26  46  70 103 140 183 228 287 347 411
#     4  11  23  44  71 101 141 178 230 283 343 409
#
# _framework density 21.332272
#
# number of rings (size 3 to 8) (size 9 to 14) (size 15 to 20)
#    0.000    0.500    3.750    6.000    3.500    3.000 
#    0.000    1.875    0.000    0.000    0.000    0.000 
#    0.000    0.000    0.000    0.000    0.000    0.000 
#
# Total GULP energy -89464.672181 kJ/mol
# GULP energy per Si atom -5591.542011 kJ/mol
# Density = 2.128372 g / cm^3
# Si number density = 21.332272 Si / 1000 Ang^3
#
#
#
# Elastic Constant Matrix: (Units=GPa)
#
#
# Indices 1 2 3 4 5 6 
#
# 1 137.5025 16.5031 11.6716 -17.7052 34.8147 -25.8989
# 2 16.5031 17.2496 -8.4828 -13.8829 -37.8414 -8.0056
# 3 11.6716 -8.4828 57.4045 2.3708 23.4669 6.2243
# 4 -17.7052 -13.8829 2.3708 43.9209 -6.1408 27.3450
# 5 34.8147 -37.8414 23.4669 -6.1408 7.8088 0.7766
# 6 -25.8989 -8.0056 6.2243 27.3450 0.7766 54.6140
#
#
#
# Elastic Compliance Matrix: (Units=1/GPa)
#
#
# Indices 1 2 3 4 5 6 
#
# 1 0.006808 0.004898 -0.002713 0.003468 0.004017 0.002462
# 2 0.004898 0.005786 0.009237 -0.002225 -0.023662 0.003569
# 3 -0.002713 0.009237 0.020336 0.002712 -0.001768 -0.003583
# 4 0.003468 -0.002225 0.002712 0.031134 -0.008473 -0.014459
# 5 0.004017 -0.023662 -0.001768 -0.008473 -0.006157 0.002968
# 6 0.002462 0.003569 -0.003583 -0.014459 0.002968 0.027607
#
#
# Mechanical properties :
#
#
# Convention : Reuss Voigt Hill
#
# Bulk Modulus (GPa) = 17.92916 27.94893 22.93904
# Shear Modulus (GPa) = 61.53021 34.09972 47.81496
#
# Velocity S-wave (km/s) = 5.37646 4.00247 4.73952
# Velocity P-wave (km/s) = 6.85308 5.87280 6.38179
#
# Compressibility (1/GPa) = 0.05577507
#
# Stress axis : x y z
#
# Youngs Moduli (GPa) = 146.88074 172.82441 49.17377
#
# Poissons Ratio (x) = -0.84651 0.13340
# Poissons Ratio (y) = -0.71944 -0.45421
# Poissons Ratio (z) = 0.39845 -1.59637
#
# Static dielectric constant tensor:
#      x y z
#    x 1.797640 0.015070 0.047590 
#    y 0.015070 1.729800 0.057430 
#    z 0.047590 0.057430 1.967450 
# 
# From -- ./inp_files/209216.got.cif
#   From: 2010.05.17/outbox.cif.g08.bks.cpg/sg2_105_cif.got.tgz:209216.got - 2010.06.03 11:33:40.
