data_PCOD9060623
_publ_section_title
;
Structure prediction by ZEFSAII (Michael W. Deem and Ramdas Pophale) SiO2 
 PCOD9060623
Probable space group: P -1
;
_chemical_formula_sum "Si O2"
_cell_formula_units_Z 12
_cell_length_a 9.740740
_cell_length_b 5.673294
_cell_length_c 10.918020
_cell_angle_alpha 76.455606
_cell_angle_beta 116.500493
_cell_angle_gamma 94.707089
_cell_volume 524.767044
_symmetry_space_group_name_H-M "P -1"
_symmetry_group_IT_number 2
_symmetry_cell_setting 'triclinic'
loop_
_space_group_symop_operation_xyz
x,y,z
-x,-y,-z
loop_
_atom_site_type_symbol
_atom_site_label
_atom_site_fract_x
_atom_site_fract_y
_atom_site_fract_z
Si Si1 0.238446 0.349349 0.108362
Si Si2 0.944171 0.167144 0.101428
Si Si3 0.031950 0.240495 0.405747
Si Si4 0.251884 0.476635 0.631379
Si Si5 0.347248 0.161931 0.928097
Si Si6 0.491837 0.281007 0.422809
O O1 0.345617 0.332481 0.271285
O O2 0.103264 0.149049 0.088503
O O3 0.150082 0.606292 0.023518
O O4 0.342360 0.312095 0.033755
O O5 0.016626 0.218979 0.257902
O O6 0.813380 0.978421 0.107710
O O7 0.192961 0.333821 0.506985
O O8 0.898748 0.430926 0.368834
O O9 0.000000 0.000000 0.500000
O O10 0.342825 0.313046 0.783716
O O11 0.356079 0.689458 0.602351
O O12 0.500000 0.000000 0.000000
O O13 0.500000 0.500000 0.500000
O O14 0.500000 0.000000 0.500000
#
# Coordination Sequence:
#
# PCOD9060623 Si02
#       6
#     2   2   2   2   2   2
#     4  11  27  47  72 107 148 200 252 309 384 451
#     4  11  24  46  74 102 150 191 255 311 380 446
#     4  11  23  43  74 105 143 194 246 323 371 446
#     4  11  26  44  72 108 145 193 260 307 382 449
#     4  12  26  44  75 108 150 196 249 314 377 456
#     4  12  31  51  76 110 154 202 253 316 385 461
#
# _framework density 22.867290000000001
#
# number of rings (size 3 to 8) (size 9 to 14) (size 15 to 20)
#    0.000    0.667    3.333    2.500   11.667    1.333 
#    0.000    0.000    0.000    0.000    0.000    0.000 
#    0.000    0.000    0.000    0.000    0.000    0.000 
#
# Total GULP energy -67074.548212 kJ/mol
# GULP energy per Si atom -5589.545684 kJ/mol
# Density = 2.281524 g / cm^3
# Si number density = 22.867290 Si / 1000 Ang^3
#
#
#
# Elastic Constant Matrix: (Units=GPa)
#
#
# Indices 1 2 3 4 5 6 
#
# 1 100.6907 17.3300 33.2694 4.3412 -1.8591 12.7770
# 2 17.3300 76.1136 52.8741 -13.5245 7.1008 26.6643
# 3 33.2694 52.8741 190.2391 -12.5827 10.0502 6.2729
# 4 4.3412 -13.5245 -12.5827 36.5251 5.3540 -0.2548
# 5 -1.8591 7.1008 10.0502 5.3540 23.3843 -7.9661
# 6 12.7770 26.6643 6.2729 -0.2548 -7.9661 52.9671
#
#
#
# Elastic Compliance Matrix: (Units=1/GPa)
#
#
# Indices 1 2 3 4 5 6 
#
# 1 0.011124 -0.001538 -0.001784 -0.002854 0.002306 -0.001365
# 2 -0.001538 0.024036 -0.004758 0.009091 -0.011853 -0.012904
# 3 -0.001784 -0.004758 0.006971 0.001058 -0.001320 0.001807
# 4 -0.002854 0.009091 0.001058 0.033321 -0.013052 -0.005816
# 5 0.002306 -0.011853 -0.001320 -0.013052 0.054784 0.013743
# 6 -0.001365 -0.012904 0.001807 -0.005816 0.013743 0.027530
#
#
# Mechanical properties :
#
#
# Convention : Reuss Voigt Hill
#
# Bulk Modulus (GPa) = 38.50412 63.77670 51.14041
# Shear Modulus (GPa) = 27.38485 40.14664 33.76574
#
# Velocity S-wave (km/s) = 3.46433 4.19458 3.84682
# Velocity P-wave (km/s) = 5.73382 7.17006 6.49178
#
# Compressibility (1/GPa) = 0.02597124
#
# Stress axis : x y z
#
# Youngs Moduli (GPa) = 89.89398 41.60463 143.44975
#
# Poissons Ratio (x) = 0.06398 0.25585
# Poissons Ratio (y) = 0.13825 0.68260
# Poissons Ratio (z) = 0.16033 0.19797
#
# Static dielectric constant tensor:
#      x y z
#    x 1.681600 0.025610 0.040210 
#    y 0.025610 1.903840 0.086820 
#    z 0.040210 0.086820 1.722000 
# 
# From -- ./inp_files/28689.got.cif
#   From: 2010.05.17/outbox.cif.g08.bks.cpg/sg2_15_cif.got.tgz:28689.got - 2010.06.03 11:33:40.
