data_PCOD9060269
_publ_section_title
;
Structure prediction by ZEFSAII (Michael W. Deem and Ramdas Pophale) SiO2 
 PCOD9060269
Probable space group: P -1
;
_chemical_formula_sum "Si O2"
_cell_formula_units_Z 16
_cell_length_a 9.119355
_cell_length_b 8.272404
_cell_length_c 15.659014
_cell_angle_alpha 78.178742
_cell_angle_beta 60.455437
_cell_angle_gamma 115.388179
_cell_volume 787.527882
_symmetry_space_group_name_H-M "P -1"
_symmetry_group_IT_number 2
_symmetry_cell_setting 'triclinic'
loop_
_space_group_symop_operation_xyz
x,y,z
-x,-y,-z
loop_
_atom_site_type_symbol
_atom_site_label
_atom_site_fract_x
_atom_site_fract_y
_atom_site_fract_z
Si Si1 0.085892 0.133705 0.374669
Si Si2 0.040887 0.584153 0.193755
Si Si3 0.829483 0.037990 0.790358
Si Si4 0.953096 0.651854 0.033319
Si Si5 0.820697 0.961123 0.204493
Si Si6 0.274351 0.880343 0.624898
Si Si7 0.458794 0.414309 0.802837
Si Si8 0.461442 0.657145 0.033481
O O1 0.301032 0.372603 0.302228
O O2 0.901687 0.133721 0.382817
O O3 0.149334 0.027002 0.301831
O O4 0.000000 0.000000 0.500000
O O5 0.111429 0.735475 0.237800
O O6 0.211494 0.547491 0.123250
O O7 0.036336 0.701481 0.100991
O O8 0.819193 0.356523 0.299037
O O9 0.996077 0.032045 0.800332
O O10 0.593433 0.863680 0.915541
O O11 0.700385 0.536314 0.126685
O O12 0.000000 0.500000 0.000000
O O13 0.064511 0.855318 0.919631
O O14 0.649719 0.740124 0.229903
O O15 0.712751 0.008580 0.302984
O O16 0.500000 0.000000 0.500000
O O17 0.458797 0.292967 0.897469
O O18 0.500000 0.500000 0.000000
#
# Coordination Sequence:
#
# PCOD9060269 Si02
#       8
#     2   2   2   2   2   2   2   2
#     4  11  27  47  69  93 125 179 228 270 327 383
#     4  12  24  42  65 105 132 171 219 265 332 395
#     4  11  23  43  69  96 137 175 211 267 333 394
#     4  12  23  38  69 105 137 169 216 262 328 405
#     4  11  23  43  68  99 135 175 210 267 336 389
#     4  11  26  49  67  91 132 174 223 277 325 384
#     4  12  23  43  69  98 136 172 215 270 326 397
#     4  12  21  42  68  98 140 174 205 268 341 388
#
# _framework density 20.316741
#
# number of rings (size 3 to 8) (size 9 to 14) (size 15 to 20)
#    0.000    0.500    6.250    3.000    1.750    1.000 
#    2.250    3.750    0.000    0.000    0.000    0.000 
#    0.000    0.000    0.000    0.000    0.000    0.000 
#
# Total GULP energy -89498.118228 kJ/mol
# GULP energy per Si atom -5593.632389 kJ/mol
# Density = 2.027050 g / cm^3
# Si number density = 20.316741 Si / 1000 Ang^3
#
#
#
# Elastic Constant Matrix: (Units=GPa)
#
#
# Indices 1 2 3 4 5 6 
#
# 1 57.3712 10.6601 38.1487 -4.0609 -3.0944 8.1330
# 2 10.6601 136.9449 70.1047 -7.9268 -2.9268 5.1897
# 3 38.1487 70.1047 161.6080 -9.1547 -7.6948 6.4873
# 4 -4.0609 -7.9268 -9.1547 11.8428 12.1809 0.0674
# 5 -3.0944 -2.9268 -7.6948 12.1809 39.1455 4.5830
# 6 8.1330 5.1897 6.4873 0.0674 4.5830 31.3819
#
#
#
# Elastic Compliance Matrix: (Units=1/GPa)
#
#
# Indices 1 2 3 4 5 6 
#
# 1 0.021675 0.001466 -0.005316 0.004349 -0.000017 -0.004768
# 2 0.001466 0.009688 -0.004289 0.005256 -0.001535 -0.000883
# 3 -0.005316 -0.004289 0.009443 0.002157 0.000436 0.000066
# 4 0.004349 0.005256 0.002157 0.132789 -0.040533 0.003192
# 5 -0.000017 -0.001535 0.000436 -0.040533 0.038761 -0.005406
# 6 -0.004768 -0.000883 0.000066 0.003192 -0.005406 0.034016
#
#
# Mechanical properties :
#
#
# Convention : Reuss Voigt Hill
#
# Bulk Modulus (GPa) = 40.76570 65.97234 53.36902
# Shear Modulus (GPa) = 18.46201 32.27475 25.36838
#
# Velocity S-wave (km/s) = 3.01775 3.99002 3.53745
# Velocity P-wave (km/s) = 5.67900 7.33276 6.55822
#
# Compressibility (1/GPa) = 0.02453042
#
# Stress axis : x y z
#
# Youngs Moduli (GPa) = 46.13531 103.21542 105.89454
#
# Poissons Ratio (x) = -0.15131 0.56289
# Poissons Ratio (y) = -0.06763 0.45416
# Poissons Ratio (z) = 0.24524 0.44267
#
# Static dielectric constant tensor:
#      x y z
#    x 1.772430 0.009160 0.012470 
#    y 0.009160 1.729500 0.012700 
#    z 0.012470 0.012700 1.679950 
# 
# From -- ./inp_files/199747.got.cif
#   From: 2010.05.17/outbox.cif.g08.bks.cpg/sg2_100_cif.got.tgz:199747.got - 2010.06.03 11:33:40.
