data_PCOD9060603
_publ_section_title
;
Structure prediction by ZEFSAII (Michael W. Deem and Ramdas Pophale) SiO2 
 PCOD9060603
Probable space group: P -1
;
_chemical_formula_sum "Si O2"
_cell_formula_units_Z 16
_cell_length_a 12.939731
_cell_length_b 8.796603
_cell_length_c 9.095864
_cell_angle_alpha 114.189111
_cell_angle_beta 63.016803
_cell_angle_gamma 123.340715
_cell_volume 752.688559
_symmetry_space_group_name_H-M "P -1"
_symmetry_group_IT_number 2
_symmetry_cell_setting 'triclinic'
loop_
_space_group_symop_operation_xyz
x,y,z
-x,-y,-z
loop_
_atom_site_type_symbol
_atom_site_label
_atom_site_fract_x
_atom_site_fract_y
_atom_site_fract_z
Si Si1 0.525450 0.207581 0.606489
Si Si2 0.127677 0.095740 0.355574
Si Si3 0.916786 0.390126 0.151712
Si Si4 0.925094 0.801122 0.890383
Si Si5 0.285284 0.902765 0.041350
Si Si6 0.269206 0.458664 0.582154
Si Si7 0.662117 0.624628 0.172089
Si Si8 0.554193 0.257221 0.941588
O O1 0.617522 0.359946 0.491617
O O2 0.392812 0.227236 0.707700
O O3 0.586310 0.265956 0.752596
O O4 0.500000 0.000000 0.500000
O O5 0.090969 0.165423 0.255986
O O6 0.236984 0.272229 0.438885
O O7 0.187846 0.956445 0.217066
O O8 0.000000 0.000000 0.500000
O O9 0.860960 0.514387 0.319142
O O10 0.998775 0.319570 0.171908
O O11 0.792662 0.213864 0.094957
O O12 0.000000 0.500000 0.000000
O O13 0.786412 0.703021 0.019269
O O14 0.000000 0.000000 0.000000
O O15 0.341869 0.786227 0.052885
O O16 0.411323 0.089038 0.987768
O O17 0.304832 0.433995 0.715581
O O18 0.558339 0.442432 0.083126
#
# Coordination Sequence:
#
# PCOD9060603 Si02
#       8
#     2   2   2   2   2   2   2   2
#     4  12  28  42  68 107 143 176 230 295 352 405
#     4  12  26  44  69 108 143 178 228 295 355 405
#     4  12  23  46  71 103 137 183 238 280 338 419
#     4  12  25  44  77  99 134 188 235 280 339 423
#     4  11  23  43  73  99 137 181 238 279 338 419
#     4  12  26  44  70 103 145 180 226 297 353 403
#     4  12  25  48  72  99 140 188 235 278 351 422
#     4  11  24  45  72  98 133 189 232 282 340 416
#
# _framework density 21.257131000000001
#
# number of rings (size 3 to 8) (size 9 to 14) (size 15 to 20)
#    0.000    0.250    3.750    5.250    5.250    1.500 
#    0.000    0.000    0.000    0.000    0.000    0.000 
#    0.000    0.000    0.000    0.000    0.000    0.000 
#
# Total GULP energy -89638.750382 kJ/mol
# GULP energy per Si atom -5602.421899 kJ/mol
# Density = 2.120875 g / cm^3
# Si number density = 21.257131 Si / 1000 Ang^3
#
#
#
# Elastic Constant Matrix: (Units=GPa)
#
#
# Indices 1 2 3 4 5 6 
#
# 1 108.8773 26.7983 43.8116 -14.8850 -2.3134 -20.1230
# 2 26.7983 90.2543 29.9354 0.0621 15.5973 -1.1038
# 3 43.8116 29.9354 104.5418 -9.6846 15.7413 -16.7418
# 4 -14.8850 0.0621 -9.6846 48.5164 -10.0718 -1.4383
# 5 -2.3134 15.5973 15.7413 -10.0718 44.0944 6.6243
# 6 -20.1230 -1.1038 -16.7418 -1.4383 6.6243 34.1831
#
#
#
# Elastic Compliance Matrix: (Units=1/GPa)
#
#
# Indices 1 2 3 4 5 6 
#
# 1 0.013116 -0.003120 -0.003885 0.004099 0.003326 0.005246
# 2 -0.003120 0.013547 -0.002435 -0.002421 -0.004361 -0.001848
# 3 -0.003885 -0.002435 0.013509 0.000667 -0.004795 0.005208
# 4 0.004099 -0.002421 0.000667 0.023278 0.005771 0.002522
# 5 0.003326 -0.004361 -0.004795 0.005771 0.028293 -0.005771
# 6 0.005246 -0.001848 0.005208 0.002522 -0.005771 0.036058
#
#
# Mechanical properties :
#
#
# Convention : Reuss Voigt Hill
#
# Bulk Modulus (GPa) = 46.96468 56.08488 51.52478
# Shear Modulus (GPa) = 32.51476 38.90068 35.70772
#
# Velocity S-wave (km/s) = 3.91524 4.28250 4.10298
# Velocity P-wave (km/s) = 6.52537 7.13403 6.83648
#
# Compressibility (1/GPa) = 0.02129260
#
# Stress axis : x y z
#
# Youngs Moduli (GPa) = 76.24175 73.81958 74.02681
#
# Poissons Ratio (x) = 0.23028 0.28756
# Poissons Ratio (y) = 0.23784 0.18027
# Poissons Ratio (z) = 0.29617 0.17977
#
# Static dielectric constant tensor:
#      x y z
#    x 1.756210 -0.006230 -0.002940 
#    y -0.006230 1.714730 0.014700 
#    z -0.002940 0.014700 1.718820 
# 
# From -- ./inp_files/189930.got.cif
#   From: 2010.05.17/outbox.cif.g08.bks.cpg/sg2_95_cif.got.tgz:189930.got - 2010.06.03 11:33:40.
