data_PCOD9060366
_publ_section_title
;
Structure prediction by ZEFSAII (Michael W. Deem and Ramdas Pophale) SiO2 
 PCOD9060366
Probable space group: P -1
;
_chemical_formula_sum "Si O2"
_cell_formula_units_Z 14
_cell_length_a 9.333599
_cell_length_b 9.427524
_cell_length_c 15.013735
_cell_angle_alpha 101.328414
_cell_angle_beta 141.284155
_cell_angle_gamma 58.595122
_cell_volume 648.303478
_symmetry_space_group_name_H-M "P -1"
_symmetry_group_IT_number 2
_symmetry_cell_setting 'triclinic'
loop_
_space_group_symop_operation_xyz
x,y,z
-x,-y,-z
loop_
_atom_site_type_symbol
_atom_site_label
_atom_site_fract_x
_atom_site_fract_y
_atom_site_fract_z
Si Si1 0.481597 0.901602 0.126371
Si Si2 0.678213 0.568924 0.056939
Si Si3 0.259649 0.290231 0.587945
Si Si4 0.520174 0.217436 0.187697
Si Si5 0.873168 0.950039 0.598193
Si Si6 0.129998 0.979607 0.188109
Si Si7 0.288318 0.248111 0.269181
O O1 0.599464 0.741799 0.093867
O O2 0.674825 0.810298 0.297405
O O3 0.481922 0.067207 0.117748
O O4 0.151166 0.979974 0.986680
O O5 0.017279 0.419259 0.206416
O O6 0.500000 0.500000 0.000000
O O7 0.595571 0.625837 0.921131
O O8 0.180605 0.199506 0.464785
O O9 0.578771 0.223902 0.707435
O O10 0.000000 0.500000 0.500000
O O11 0.360975 0.286468 0.213031
O O12 0.860759 0.110818 0.342465
O O13 0.935045 0.966183 0.732221
O O14 0.581082 0.139064 0.452654
O O15 0.202321 0.111606 0.201787
#
# Coordination Sequence:
#
# PCOD9060366 Si02
#       7
#     2   2   2   2   2   2   2
#     4  12  25  45  70 103 143 179 235 282 349 404
#     4  12  26  44  72 104 137 182 238 287 341 419
#     4  11  26  41  71 106 139 176 239 290 336 407
#     4  12  25  47  69 100 143 188 227 285 353 413
#     4  11  24  46  70  97 143 190 226 276 358 412
#     4  11  23  45  73  97 140 190 232 276 350 414
#     4  11  23  43  70 101 138 184 233 285 344 411
#
# _framework density 21.594823999999999
#
# number of rings (size 3 to 8) (size 9 to 14) (size 15 to 20)
#    0.000    0.571    5.714    3.429    6.000    0.000 
#    2.571    0.714    0.000    0.000    0.000    0.000 
#    0.000    0.000    0.000    0.000    0.000    0.000 
#
# Total GULP energy -78288.394218 kJ/mol
# GULP energy per Si atom -5592.028158 kJ/mol
# Density = 2.154567 g / cm^3
# Si number density = 21.594824 Si / 1000 Ang^3
#
#
#
# Elastic Constant Matrix: (Units=GPa)
#
#
# Indices 1 2 3 4 5 6 
#
# 1 111.9923 17.7886 27.8961 -14.7992 4.3482 0.4327
# 2 17.7886 47.7582 20.2548 -23.1803 4.7731 -15.9122
# 3 27.8961 20.2548 93.8558 -15.9572 15.9518 2.1452
# 4 -14.7992 -23.1803 -15.9572 32.6057 -14.0822 6.1300
# 5 4.3482 4.7731 15.9518 -14.0822 52.6344 -9.6856
# 6 0.4327 -15.9122 2.1452 6.1300 -9.6856 41.6235
#
#
#
# Elastic Compliance Matrix: (Units=1/GPa)
#
#
# Indices 1 2 3 4 5 6 
#
# 1 0.010112 -0.002010 -0.002211 0.002483 0.000495 -0.001010
# 2 -0.002010 0.040242 -0.005293 0.025796 0.007531 0.013631
# 3 -0.002211 -0.005293 0.013326 0.000790 -0.003845 -0.003698
# 4 0.002483 0.025796 0.000790 0.055192 0.012839 0.004654
# 5 0.000495 0.007531 -0.003845 0.012839 0.024126 0.006795
# 6 -0.001010 0.013631 -0.003698 0.004654 0.006795 0.030333
#
#
# Mechanical properties :
#
#
# Convention : Reuss Voigt Hill
#
# Bulk Modulus (GPa) = 22.39474 42.83169 32.61321
# Shear Modulus (GPa) = 24.12638 37.88383 31.00511
#
# Velocity S-wave (km/s) = 3.34613 4.19298 3.79326
# Velocity P-wave (km/s) = 5.03206 6.58170 5.85835
#
# Compressibility (1/GPa) = 0.04465335
#
# Stress axis : x y z
#
# Youngs Moduli (GPa) = 98.89414 24.84985 75.03905
#
# Poissons Ratio (x) = 0.04994 0.16589
# Poissons Ratio (y) = 0.19875 0.39717
# Poissons Ratio (z) = 0.21863 0.13153
#
# Static dielectric constant tensor:
#      x y z
#    x 1.831340 -0.037150 -0.011750 
#    y -0.037150 1.797570 -0.026270 
#    z -0.011750 -0.026270 1.783360 
# 
# From -- ./inp_files/207616.got.cif
#   From: 2010.05.17/outbox.cif.g08.bks.cpg/sg2_104_cif.got.tgz:207616.got - 2010.06.03 11:33:40.
