data_PCOD9060310
_publ_section_title
;
Structure prediction by ZEFSAII (Michael W. Deem and Ramdas Pophale) SiO2 
 PCOD9060310
Probable space group: P -1
;
_chemical_formula_sum "Si O2"
_cell_formula_units_Z 14
_cell_length_a 18.850295
_cell_length_b 5.117070
_cell_length_c 13.671820
_cell_angle_alpha 98.372890
_cell_angle_beta 32.351642
_cell_angle_gamma 80.362913
_cell_volume 583.738569
_symmetry_space_group_name_H-M "P -1"
_symmetry_group_IT_number 2
_symmetry_cell_setting 'triclinic'
loop_
_space_group_symop_operation_xyz
x,y,z
-x,-y,-z
loop_
_atom_site_type_symbol
_atom_site_label
_atom_site_fract_x
_atom_site_fract_y
_atom_site_fract_z
Si Si1 0.183851 0.323353 0.298490
Si Si2 0.874592 0.142648 0.895322
Si Si3 0.074604 0.401360 0.635085
Si Si4 0.104906 0.648979 0.903193
Si Si5 0.346409 0.187288 0.450554
Si Si6 0.507210 0.239553 0.075218
Si Si7 0.387105 0.480942 0.934677
O O1 0.179738 0.395490 0.421761
O O2 0.000000 0.500000 0.500000
O O3 0.300214 0.943354 0.136747
O O4 0.265784 0.428750 0.133762
O O5 0.996646 0.200872 0.696109
O O6 0.859764 0.318707 0.023575
O O7 0.718781 0.285252 0.019001
O O8 0.946781 0.775340 0.815162
O O9 0.190722 0.239447 0.581802
O O10 0.270240 0.432467 0.640966
O O11 0.000000 0.500000 0.000000
O O12 0.000000 0.000000 0.000000
O O13 0.481533 0.830333 0.297133
O O14 0.428179 0.268101 0.273641
O O15 0.489156 0.572287 0.117331
O O16 0.500000 0.000000 0.000000
#
# Coordination Sequence:
#
# PCOD9060310 Si02
#       7
#     2   2   2   2   2   2   2
#     4  11  23  43  69 105 145 192 246 297 369 436
#     4  12  26  48  74 111 145 193 250 310 374 434
#     4  12  25  43  77 104 145 196 249 305 361 443
#     4  12  25  48  79 110 141 192 255 311 368 445
#     4  11  26  46  71 109 146 190 250 305 373 437
#     4  11  25  44  66 104 149 195 241 301 368 443
#     4  11  28  44  73 107 157 192 246 309 379 439
#
# _framework density 23.983338
#
# number of rings (size 3 to 8) (size 9 to 14) (size 15 to 20)
#    0.000    0.571    5.714    0.857    8.000    4.000 
#    0.000    0.714    0.000    0.000    0.000    0.000 
#    0.000    0.000    0.000    0.000    0.000    0.000 
#
# Total GULP energy -77942.483923 kJ/mol
# GULP energy per Si atom -5567.320280 kJ/mol
# Density = 2.392875 g / cm^3
# Si number density = 23.983338 Si / 1000 Ang^3
#
#
#
# Elastic Constant Matrix: (Units=GPa)
#
#
# Indices 1 2 3 4 5 6 
#
# 1 123.0068 37.0178 56.7478 48.8923 13.3579 -5.4665
# 2 37.0178 45.2150 -50.0337 -76.9324 -19.7501 28.1509
# 3 56.7478 -50.0337 75.2167 -75.3955 4.2809 22.5224
# 4 48.8923 -76.9324 -75.3955 -107.6858 -15.1862 32.0963
# 5 13.3579 -19.7501 4.2809 -15.1862 47.1605 9.6470
# 6 -5.4665 28.1509 22.5224 32.0963 9.6470 19.3414
#
#
#
# Elastic Compliance Matrix: (Units=1/GPa)
#
#
# Indices 1 2 3 4 5 6 
#
# 1 0.007232 -0.000020 -0.001230 0.003549 -0.000350 -0.002210
# 2 -0.000020 0.010324 -0.000569 -0.007980 0.002273 -0.002260
# 3 -0.001230 -0.000569 0.008344 -0.005355 -0.002562 0.000930
# 4 0.003549 -0.007980 -0.005355 0.005788 -0.004332 0.011410
# 5 -0.000350 0.002273 -0.002562 -0.004332 0.021949 -0.004184
# 6 -0.002210 -0.002260 0.000930 0.011410 -0.004184 0.036437
#
#
# Mechanical properties :
#
#
# Convention : Reuss Voigt Hill
#
# Bulk Modulus (GPa) = 44.91935 36.76692 40.84314
# Shear Modulus (GPa) = 49.44043 5.07701 27.25872
#
# Velocity S-wave (km/s) = 4.54524 1.45653 3.37496
# Velocity P-wave (km/s) = 6.80557 4.26522 5.67925
#
# Compressibility (1/GPa) = 0.02226212
#
# Stress axis : x y z
#
# Youngs Moduli (GPa) = 138.27448 96.85852 119.85033
#
# Poissons Ratio (x) = 0.00190 0.14740
# Poissons Ratio (y) = 0.00272 0.06825
# Poissons Ratio (z) = 0.17006 0.05516
#
# Static dielectric constant tensor:
#      x y z
#    x 2.070330 -0.150390 -0.043670 
#    y -0.150390 1.722000 -0.078680 
#    z -0.043670 -0.078680 1.963630 
# 
# From -- ./inp_files/539738.got.cif
#   From: 2010.05.17/outbox.cif.g08.bks.cpg/sg2_270_cif.got.tgz:539738.got - 2010.06.03 11:33:40.
