data_PCOD9060855
_publ_section_title
;
Structure prediction by ZEFSAII (Michael W. Deem and Ramdas Pophale) SiO2 
 PCOD9060855
Probable space group: P -1
;
_chemical_formula_sum "Si O2"
_cell_formula_units_Z 16
_cell_length_a 14.258127
_cell_length_b 13.982648
_cell_length_c 14.391511
_cell_angle_alpha 147.885335
_cell_angle_beta 146.960747
_cell_angle_gamma 31.040918
_cell_volume 717.106768
_symmetry_space_group_name_H-M "P -1"
_symmetry_group_IT_number 2
_symmetry_cell_setting 'triclinic'
loop_
_space_group_symop_operation_xyz
x,y,z
-x,-y,-z
loop_
_atom_site_type_symbol
_atom_site_label
_atom_site_fract_x
_atom_site_fract_y
_atom_site_fract_z
Si Si1 0.516415 0.877645 0.506562
Si Si2 0.352130 0.489479 0.295633
Si Si3 0.138206 0.201134 0.580273
Si Si4 0.012452 0.932418 0.349478
Si Si5 0.425266 0.223493 0.957484
Si Si6 0.042470 0.337842 0.218827
Si Si7 0.603829 0.442264 0.938518
Si Si8 0.776353 0.779300 0.925049
O O1 0.739455 0.798082 0.665608
O O2 0.470489 0.694198 0.291251
O O3 0.500000 0.000000 0.500000
O O4 0.337346 0.036682 0.556099
O O5 0.500000 0.500000 0.500000
O O6 0.219374 0.717958 0.331198
O O7 0.232704 0.411406 0.195340
O O8 0.437840 0.329271 0.149733
O O9 0.212869 0.246142 0.776915
O O10 0.025174 0.421979 0.617325
O O11 0.002857 0.103247 0.411402
O O12 0.000000 0.000000 0.500000
O O13 0.846482 0.876536 0.142666
O O14 0.571968 0.976242 0.882195
O O15 0.451468 0.352031 0.000137
O O16 0.080170 0.294784 0.104899
O O17 0.844301 0.322773 0.059159
O O18 0.500000 0.500000 0.000000
#
# Coordination Sequence:
#
# PCOD9060855 Si02
#       8
#     2   2   2   2   2   2   2   2
#     4  12  26  47  76 106 142 189 243 303 369 432
#     4  12  25  41  67  99 142 190 236 292 359 428
#     4  11  23  45  70 102 143 184 237 299 360 428
#     4  12  24  41  66 101 140 187 242 292 359 434
#     4  11  23  44  69 100 142 185 237 298 357 428
#     4  11  26  47  74 107 146 190 243 299 365 436
#     4  11  27  49  75 107 148 189 243 305 364 434
#     4  12  24  42  68 103 141 189 239 294 360 431
#
# _framework density 22.311879000000001
#
# number of rings (size 3 to 8) (size 9 to 14) (size 15 to 20)
#    0.000    0.500    1.250    8.250    3.500    2.500 
#    0.000    0.000    0.000    0.000    0.000    0.000 
#    0.000    0.000    0.000    0.000    0.000    0.000 
#
# Total GULP energy -89466.041905 kJ/mol
# GULP energy per Si atom -5591.627619 kJ/mol
# Density = 2.226110 g / cm^3
# Si number density = 22.311879 Si / 1000 Ang^3
#
#
#
# Elastic Constant Matrix: (Units=GPa)
#
#
# Indices 1 2 3 4 5 6 
#
# 1 112.9658 2.1385 28.4532 -4.2375 -6.4816 -9.7490
# 2 2.1385 66.4311 -5.5257 -7.2237 -12.3864 -11.7721
# 3 28.4532 -5.5257 105.1630 -5.7948 -0.0559 3.5523
# 4 -4.2375 -7.2237 -5.7948 35.2028 -0.3397 -2.0301
# 5 -6.4816 -12.3864 -0.0559 -0.3397 38.4610 7.6831
# 6 -9.7490 -11.7721 3.5523 -2.0301 7.6831 32.8231
#
#
#
# Elastic Compliance Matrix: (Units=1/GPa)
#
#
# Indices 1 2 3 4 5 6 
#
# 1 0.009905 0.000338 -0.002712 0.001008 0.001154 0.003149
# 2 0.000338 0.017380 0.000868 0.004107 0.004610 0.005415
# 3 -0.002712 0.000868 0.010423 0.001478 0.000164 -0.001569
# 4 0.001008 0.004107 0.001478 0.029809 0.001120 0.003194
# 5 0.001154 0.004610 0.000164 0.001120 0.028619 -0.004651
# 6 0.003149 0.005415 -0.001569 0.003194 -0.004651 0.034800
#
#
# Mechanical properties :
#
#
# Convention : Reuss Voigt Hill
#
# Bulk Modulus (GPa) = 28.82247 37.18798 33.00522
# Shear Modulus (GPa) = 34.36096 38.59695 36.47896
#
# Velocity S-wave (km/s) = 3.92858 4.16370 4.04785
# Velocity P-wave (km/s) = 5.79002 6.31021 6.05570
#
# Compressibility (1/GPa) = 0.03469515
#
# Stress axis : x y z
#
# Youngs Moduli (GPa) = 100.96137 57.53682 95.94124
#
# Poissons Ratio (x) = -0.01947 0.26022
# Poissons Ratio (y) = -0.03416 -0.08323
# Poissons Ratio (z) = 0.27384 -0.04991
#
# Static dielectric constant tensor:
#      x y z
#    x 1.815050 0.006370 -0.012810 
#    y 0.006370 1.850520 0.038120 
#    z -0.012810 0.038120 1.799250 
# 
# From -- ./inp_files/534634.got.cif
#   From: 2010.05.17/outbox.cif.g08.bks.cpg/sg2_268_cif.got.tgz:534634.got - 2010.06.03 11:33:40.
