data_PCOD9060797
_publ_section_title
;
Structure prediction by ZEFSAII (Michael W. Deem and Ramdas Pophale) SiO2 
 PCOD9060797
Probable space group: P -1
;
_chemical_formula_sum "Si O2"
_cell_formula_units_Z 16
_cell_length_a 21.964640
_cell_length_b 18.258051
_cell_length_c 12.330864
_cell_angle_alpha 160.208516
_cell_angle_beta 32.865445
_cell_angle_gamma 155.461796
_cell_volume 690.856042
_symmetry_space_group_name_H-M "P -1"
_symmetry_group_IT_number 2
_symmetry_cell_setting 'triclinic'
loop_
_space_group_symop_operation_xyz
x,y,z
-x,-y,-z
loop_
_atom_site_type_symbol
_atom_site_label
_atom_site_fract_x
_atom_site_fract_y
_atom_site_fract_z
Si Si1 0.901130 0.347762 0.116329
Si Si2 0.342112 0.798909 0.167577
Si Si3 0.054832 0.139252 0.301696
Si Si4 0.287294 0.135076 0.571572
Si Si5 0.396759 0.164665 0.212686
Si Si6 0.352410 0.698650 0.263123
Si Si7 0.038608 0.403677 0.409142
Si Si8 0.892248 0.732556 0.365762
O O1 0.987920 0.492098 0.299016
O O2 0.859853 0.539767 0.413969
O O3 0.014438 0.371883 0.900465
O O4 0.752825 0.024116 0.896511
O O5 0.310441 0.718246 0.229911
O O6 0.313452 0.001007 0.443598
O O7 0.509863 0.931778 0.085922
O O8 0.249724 0.519154 0.838863
O O9 0.117239 0.160702 0.356634
O O10 0.883236 0.001135 0.372510
O O11 0.051555 0.932534 0.937467
O O12 0.339674 0.094300 0.323717
O O13 0.375571 0.470078 0.914215
O O14 0.500000 0.500000 0.500000
O O15 0.212778 0.572630 0.373267
O O16 0.500000 0.000000 0.500000
O O17 0.000000 0.500000 0.500000
O O18 0.000000 0.000000 0.500000
#
# Coordination Sequence:
#
# PCOD9060797 Si02
#       8
#     2   2   2   2   2   2   2   2
#     4  12  23  43  69  95 135 179 218 276 343 397
#     4  12  24  42  70 100 133 177 230 279 333 408
#     4  11  23  44  68 100 139 172 221 283 341 395
#     4  11  23  44  70 100 135 178 224 284 335 404
#     4  12  24  42  67 101 140 171 225 284 340 393
#     4  11  25  48  67  92 141 183 224 275 343 404
#     4  11  25  43  66 100 133 173 226 279 333 401
#     4  12  22  40  71  99 130 177 225 271 340 406
#
# _framework density 23.159673000000002
#
# number of rings (size 3 to 8) (size 9 to 14) (size 15 to 20)
#    0.000    0.500    3.750    6.375    0.000    0.500 
#    2.250    0.000    0.000    0.000    0.000    0.000 
#    0.000    0.000    0.000    0.000    0.000    0.000 
#
# Total GULP energy -89536.212996 kJ/mol
# GULP energy per Si atom -5596.013312 kJ/mol
# Density = 2.310696 g / cm^3
# Si number density = 23.159673 Si / 1000 Ang^3
#
#
#
# Elastic Constant Matrix: (Units=GPa)
#
#
# Indices 1 2 3 4 5 6 
#
# 1 107.3551 4.0303 28.0544 17.0471 2.3538 -12.9096
# 2 4.0303 58.1461 13.9664 6.5604 9.5129 6.4470
# 3 28.0544 13.9664 109.2725 23.6903 9.1409 -3.0351
# 4 17.0471 6.5604 23.6903 40.8776 1.9084 -1.0442
# 5 2.3538 9.5129 9.1409 1.9084 39.4528 8.5307
# 6 -12.9096 6.4470 -3.0351 -1.0442 8.5307 37.3825
#
#
#
# Elastic Compliance Matrix: (Units=1/GPa)
#
#
# Indices 1 2 3 4 5 6 
#
# 1 0.010790 -0.000212 -0.001868 -0.003251 -0.000803 0.003704
# 2 -0.000212 0.018693 -0.001730 -0.001819 -0.003421 -0.002708
# 3 -0.001868 -0.001730 0.011196 -0.005316 -0.001996 0.000869
# 4 -0.003251 -0.001819 -0.005316 0.029151 0.000575 -0.000558
# 5 -0.000803 -0.003421 -0.001996 0.000575 0.028000 -0.006223
# 6 0.003704 -0.002708 0.000869 -0.000558 -0.006223 0.029972
#
#
# Mechanical properties :
#
#
# Convention : Reuss Voigt Hill
#
# Bulk Modulus (GPa) = 30.24774 40.76399 35.50587
# Shear Modulus (GPa) = 34.14348 38.79074 36.46711
#
# Velocity S-wave (km/s) = 3.84378 4.09703 3.97242
# Velocity P-wave (km/s) = 5.72612 6.32616 6.03360
#
# Compressibility (1/GPa) = 0.03306032
#
# Stress axis : x y z
#
# Youngs Moduli (GPa) = 92.67595 53.49540 89.31837
#
# Poissons Ratio (x) = 0.01132 0.16688
# Poissons Ratio (y) = 0.01961 0.15449
# Poissons Ratio (z) = 0.17315 0.09253
#
# Static dielectric constant tensor:
#      x y z
#    x 1.903670 -0.015720 -0.005980 
#    y -0.015720 1.854420 -0.006290 
#    z -0.005980 -0.006290 1.918480 
# 
# From -- ./inp_files/261822.got.cif
#   From: 2010.05.17/outbox.cif.g08.bks.cpg/sg2_131_cif.got.tgz:261822.got - 2010.06.03 11:33:40.
