data_PCOD9060295
_publ_section_title
;
Structure prediction by ZEFSAII (Michael W. Deem and Ramdas Pophale) SiO2 
 PCOD9060295
Probable space group: P -1
;
_chemical_formula_sum "Si O2"
_cell_formula_units_Z 16
_cell_length_a 9.209051
_cell_length_b 9.867077
_cell_length_c 10.812037
_cell_angle_alpha 87.453204
_cell_angle_beta 92.666222
_cell_angle_gamma 136.426068
_cell_volume 676.378388
_symmetry_space_group_name_H-M "P -1"
_symmetry_group_IT_number 2
_symmetry_cell_setting 'triclinic'
loop_
_space_group_symop_operation_xyz
x,y,z
-x,-y,-z
loop_
_atom_site_type_symbol
_atom_site_label
_atom_site_fract_x
_atom_site_fract_y
_atom_site_fract_z
Si Si1 0.026065 0.857810 0.238011
Si Si2 0.444121 0.803015 0.521474
Si Si3 0.568225 0.650116 0.204983
Si Si4 0.017978 0.564833 0.138890
Si Si5 0.485128 0.275931 0.200192
Si Si6 0.433956 0.803680 0.036280
Si Si7 0.108836 0.930405 0.513298
Si Si8 0.150456 0.465627 0.341540
O O1 0.971933 0.688934 0.162119
O O2 0.092161 0.856363 0.377901
O O3 0.814478 0.803630 0.246370
O O4 0.236109 0.071546 0.184704
O O5 0.449419 0.739510 0.661673
O O6 0.235491 0.618364 0.448987
O O7 0.500000 0.000000 0.500000
O O8 0.648011 0.879513 0.457132
O O9 0.514895 0.456728 0.178411
O O10 0.568241 0.768518 0.096090
O O11 0.364184 0.549809 0.284530
O O12 0.275846 0.729615 0.144800
O O13 0.984409 0.432249 0.248881
O O14 0.000000 0.500000 0.000000
O O15 0.622962 0.294047 0.098865
O O16 0.500000 0.000000 0.000000
O O17 0.982763 0.749635 0.605244
O O18 0.000000 0.000000 0.500000
#
# Coordination Sequence:
#
# PCOD9060295 Si02
#       8
#     2   2   2   2   2   2   2   2
#     4  11  23  43  69 102 141 177 230 286 341 409
#     4  11  25  41  72 104 137 184 233 280 349 415
#     4  11  25  42  71 100 135 186 231 278 350 411
#     4  11  25  46  68 100 138 180 235 283 345 412
#     4  11  23  44  70 101 142 177 232 289 341 411
#     4  11  24  47  69  95 137 183 226 284 344 406
#     4  11  24  43  68 103 138 181 230 279 348 417
#     4  11  24  46  68  99 143 180 226 291 343 405
#
# _framework density 23.655398999999999
#
# number of rings (size 3 to 8) (size 9 to 14) (size 15 to 20)
#    0.000    1.000    1.250    5.625    1.750    7.000 
#    6.750    0.000    0.000    0.000    0.000    0.000 
#    0.000    0.000    0.000    0.000    0.000    0.000 
#
# Total GULP energy -89233.338936 kJ/mol
# GULP energy per Si atom -5577.083683 kJ/mol
# Density = 2.360156 g / cm^3
# Si number density = 23.655399 Si / 1000 Ang^3
#
#
#
# Elastic Constant Matrix: (Units=GPa)
#
#
# Indices 1 2 3 4 5 6 
#
# 1 105.3270 15.7409 33.7029 -7.2048 -0.4719 -14.2923
# 2 15.7409 102.7606 43.0171 -10.6088 14.5141 -31.3208
# 3 33.7029 43.0171 94.1950 -5.7155 16.7763 -13.1941
# 4 -7.2048 -10.6088 -5.7155 41.1043 -4.1194 3.5703
# 5 -0.4719 14.5141 16.7763 -4.1194 44.6273 -11.0324
# 6 -14.2923 -31.3208 -13.1941 3.5703 -11.0324 44.7623
#
#
#
# Elastic Compliance Matrix: (Units=1/GPa)
#
#
# Indices 1 2 3 4 5 6 
#
# 1 0.011333 0.000964 -0.004347 0.001573 0.002448 0.003490
# 2 0.000964 0.014971 -0.005746 0.002438 -0.000293 0.008823
# 3 -0.004347 -0.005746 0.015288 -0.000394 -0.004447 -0.001967
# 4 0.001573 0.002438 -0.000394 0.025317 0.001839 0.000526
# 5 0.002448 -0.000293 -0.004447 0.001839 0.025720 0.005459
# 6 0.003490 0.008823 -0.001967 0.000526 0.005459 0.030352
#
#
# Mechanical properties :
#
#
# Convention : Reuss Voigt Hill
#
# Bulk Modulus (GPa) = 42.85470 54.13383 48.49427
# Shear Modulus (GPa) = 33.55288 40.08689 36.81989
#
# Velocity S-wave (km/s) = 3.77025 4.12104 3.94954
# Velocity P-wave (km/s) = 6.09169 6.75115 6.42988
#
# Compressibility (1/GPa) = 0.02333466
#
# Stress axis : x y z
#
# Youngs Moduli (GPa) = 88.23566 66.79402 65.40909
#
# Poissons Ratio (x) = -0.06439 0.28434
# Poissons Ratio (y) = -0.08506 0.37585
# Poissons Ratio (z) = 0.38357 0.38381
#
# Static dielectric constant tensor:
#      x y z
#    x 2.681830 0.195610 0.786680 
#    y 0.195610 1.981160 0.093530 
#    z 0.786680 0.093530 2.709270 
# 
# From -- ./inp_files/207168.got.cif
#   From: 2010.05.17/outbox.cif.g08.bks.cpg/sg2_104_cif.got.tgz:207168.got - 2010.06.03 11:33:40.
