data_PCOD9060738
_publ_section_title
;
Structure prediction by ZEFSAII (Michael W. Deem and Ramdas Pophale) SiO2 
 PCOD9060738
Probable space group: P -1
;
_chemical_formula_sum "Si O2"
_cell_formula_units_Z 16
_cell_length_a 9.103372
_cell_length_b 15.889210
_cell_length_c 5.347346
_cell_angle_alpha 69.069792
_cell_angle_beta 82.656940
_cell_angle_gamma 83.147246
_cell_volume 714.238881
_symmetry_space_group_name_H-M "P -1"
_symmetry_group_IT_number 2
_symmetry_cell_setting 'triclinic'
loop_
_space_group_symop_operation_xyz
x,y,z
-x,-y,-z
loop_
_atom_site_type_symbol
_atom_site_label
_atom_site_fract_x
_atom_site_fract_y
_atom_site_fract_z
Si Si1 0.137520 0.555904 0.337884
Si Si2 0.284370 0.838146 0.317308
Si Si3 0.567397 0.568793 0.602214
Si Si4 0.030372 0.728370 0.392445
Si Si5 0.144973 0.221274 0.107110
Si Si6 0.460855 0.257598 0.882467
Si Si7 0.094306 0.016111 0.215742
Si Si8 0.315794 0.667615 0.862849
O O1 0.271674 0.480671 0.335754
O O2 0.000000 0.500000 0.500000
O O3 0.128518 0.631810 0.479661
O O4 0.168305 0.622851 0.029070
O O5 0.446327 0.827720 0.169265
O O6 0.290437 0.761029 0.614801
O O7 0.146660 0.802942 0.226386
O O8 0.232580 0.940559 0.280017
O O9 0.500000 0.500000 0.500000
O O10 0.592447 0.667714 0.387632
O O11 0.433302 0.592500 0.797099
O O12 0.944542 0.755825 0.639636
O O13 0.920260 0.725149 0.182106
O O14 0.138280 0.117838 0.129937
O O15 0.317335 0.238598 0.090984
O O16 0.589745 0.304358 0.949362
O O17 0.000000 0.000000 0.500000
O O18 0.000000 0.000000 0.000000
#
# Coordination Sequence:
#
# PCOD9060738 Si02
#       8
#     2   2   2   2   2   2   2   2
#     4  12  25  41  71 105 138 188 254 305 348 423
#     4  11  24  45  77 101 141 190 238 291 374 430
#     4  11  23  44  65  99 136 195 244 295 367 426
#     4  12  25  48  70 105 148 186 244 297 367 425
#     4  12  27  47  74 108 144 193 237 301 367 428
#     4  11  26  44  72  98 147 189 239 296 364 438
#     4  12  25  47  77 111 145 183 243 300 362 441
#     4  11  24  45  70  98 148 192 237 297 374 433
#
# _framework density 22.401467
#
# number of rings (size 3 to 8) (size 9 to 14) (size 15 to 20)
#    0.000    0.500    5.000    2.625    7.000    0.500 
#    0.000    4.375    0.000    0.000    0.000    0.000 
#    0.000    0.000    0.000    0.000    0.000    0.000 
#
# Total GULP energy -89215.544935 kJ/mol
# GULP energy per Si atom -5575.971558 kJ/mol
# Density = 2.235048 g / cm^3
# Si number density = 22.401467 Si / 1000 Ang^3
#
#
#
# Elastic Constant Matrix: (Units=GPa)
#
#
# Indices 1 2 3 4 5 6 
#
# 1 94.3201 39.6396 48.9302 -2.3922 -31.3910 -31.5755
# 2 39.6396 152.5778 44.7662 12.0977 -12.8361 -49.3563
# 3 48.9302 44.7662 91.1298 17.3631 -11.9662 -20.5163
# 4 -2.3922 12.0977 17.3631 31.4974 -6.5694 -3.8022
# 5 -31.3910 -12.8361 -11.9662 -6.5694 41.3049 -0.9223
# 6 -31.5755 -49.3563 -20.5163 -3.8022 -0.9223 48.7798
#
#
#
# Elastic Compliance Matrix: (Units=1/GPa)
#
#
# Indices 1 2 3 4 5 6 
#
# 1 0.031156 0.002758 -0.013822 0.016105 0.023513 0.018845
# 2 0.002758 0.011021 -0.003769 0.000431 0.004754 0.011475
# 3 -0.013822 -0.003769 0.020525 -0.013216 -0.007950 -0.005309
# 4 0.016105 0.000431 -0.013216 0.044486 0.015823 0.009070
# 5 0.023513 0.004754 -0.007950 0.015823 0.044189 0.018755
# 6 0.018845 0.011475 -0.005309 0.009070 0.018755 0.043138
#
#
# Mechanical properties :
#
#
# Convention : Reuss Voigt Hill
#
# Bulk Modulus (GPa) = 30.26995 67.18885 48.72940
# Shear Modulus (GPa) = 21.25900 37.96254 29.61077
#
# Velocity S-wave (km/s) = 3.08393 4.12107 3.63963
# Velocity P-wave (km/s) = 5.12080 7.25965 6.28192
#
# Compressibility (1/GPa) = 0.03303606
#
# Stress axis : x y z
#
# Youngs Moduli (GPa) = 32.09649 90.73549 48.72031
#
# Poissons Ratio (x) = -0.25026 0.67341
# Poissons Ratio (y) = -0.08853 0.18365
# Poissons Ratio (z) = 0.44364 0.34202
#
# Static dielectric constant tensor:
#      x y z
#    x 1.462390 0.175880 0.200440 
#    y 0.175880 1.774440 -0.067150 
#    z 0.200440 -0.067150 1.854250 
# 
# From -- ./inp_files/37255.got.cif
#   From: 2010.05.17/outbox.cif.g08.bks.cpg/sg2_19_cif.got.tgz:37255.got - 2010.06.03 11:33:40.
