data_PCOD9060459
_publ_section_title
;
Structure prediction by ZEFSAII (Michael W. Deem and Ramdas Pophale) SiO2 
 PCOD9060459
Probable space group: P -1
;
_chemical_formula_sum "Si O2"
_cell_formula_units_Z 14
_cell_length_a 12.196965
_cell_length_b 9.255048
_cell_length_c 11.903933
_cell_angle_alpha 47.208257
_cell_angle_beta 104.642431
_cell_angle_gamma 134.485675
_cell_volume 636.332359
_symmetry_space_group_name_H-M "P -1"
_symmetry_group_IT_number 2
_symmetry_cell_setting 'triclinic'
loop_
_space_group_symop_operation_xyz
x,y,z
-x,-y,-z
loop_
_atom_site_type_symbol
_atom_site_label
_atom_site_fract_x
_atom_site_fract_y
_atom_site_fract_z
Si Si1 0.425650 0.845757 0.436817
Si Si2 0.418213 0.208101 0.076231
Si Si3 0.997618 0.258584 0.331592
Si Si4 0.763060 0.288296 0.192152
Si Si5 0.852983 0.843095 0.958749
Si Si6 0.661538 0.312548 0.926628
Si Si7 0.919961 0.814072 0.382188
O O1 0.252745 0.493289 0.559704
O O2 0.500000 0.000000 0.500000
O O3 0.394286 0.994629 0.267735
O O4 0.592566 0.961914 0.363966
O O5 0.239391 0.075455 0.069671
O O6 0.500000 0.500000 0.000000
O O7 0.559765 0.351573 0.942638
O O8 0.193932 0.466545 0.242857
O O9 0.993863 0.216647 0.485979
O O10 0.926837 0.382598 0.223242
O O11 0.897900 0.982449 0.365270
O O12 0.755371 0.506248 0.115852
O O13 0.751918 0.294467 0.052707
O O14 0.939110 0.969498 0.791610
O O15 0.000000 0.000000 0.000000
O O16 0.500000 0.000000 0.000000
#
# Coordination Sequence:
#
# PCOD9060459 Si02
#       7
#     2   2   2   2   2   2   2
#     4  11  25  46  66 104 144 187 234 294 363 425
#     4  11  23  46  71  98 140 184 239 290 349 427
#     4  11  24  46  72 102 147 188 239 299 358 432
#     4  11  24  45  69 103 140 186 247 286 349 433
#     4  12  26  44  71 107 136 187 241 293 357 424
#     4  11  23  43  71 103 139 187 238 292 353 423
#     4  11  26  45  68 105 146 187 237 295 374 417
#
# _framework density 22.001080000000002
#
# number of rings (size 3 to 8) (size 9 to 14) (size 15 to 20)
#    0.000    0.857    4.286    3.000    6.000    1.143 
#    0.000    0.000    0.000    0.000    0.000    0.000 
#    0.000    0.000    0.000    0.000    0.000    0.000 
#
# Total GULP energy -77959.519350 kJ/mol
# GULP energy per Si atom -5568.537096 kJ/mol
# Density = 2.195100 g / cm^3
# Si number density = 22.001080 Si / 1000 Ang^3
#
#
#
# Elastic Constant Matrix: (Units=GPa)
#
#
# Indices 1 2 3 4 5 6 
#
# 1 137.5238 26.3662 42.6844 5.5914 2.7837 17.6892
# 2 26.3662 100.8900 15.8537 -12.0558 2.5468 17.7524
# 3 42.6844 15.8537 82.9053 3.1869 -15.9105 12.9269
# 4 5.5914 -12.0558 3.1869 48.8257 4.3174 2.3534
# 5 2.7837 2.5468 -15.9105 4.3174 26.3051 0.6639
# 6 17.6892 17.7524 12.9269 2.3534 0.6639 27.8662
#
#
#
# Elastic Compliance Matrix: (Units=1/GPa)
#
#
# Indices 1 2 3 4 5 6 
#
# 1 0.009484 -0.001185 -0.004894 -0.000596 -0.003679 -0.002857
# 2 -0.001185 0.012084 -0.001239 0.003718 -0.002236 -0.006632
# 3 -0.004894 -0.001239 0.017864 -0.001740 0.011843 -0.004526
# 4 -0.000596 0.003718 -0.001740 0.022157 -0.004912 -0.002937
# 5 -0.003679 -0.002236 0.011843 -0.004912 0.046652 -0.002430
# 6 -0.002857 -0.006632 -0.004526 -0.002937 -0.002430 0.044330
#
#
# Mechanical properties :
#
#
# Convention : Reuss Voigt Hill
#
# Bulk Modulus (GPa) = 40.32858 54.56976 47.44917
# Shear Modulus (GPa) = 28.49481 36.36036 32.42759
#
# Velocity S-wave (km/s) = 3.60273 4.06971 3.84332
# Velocity P-wave (km/s) = 5.97296 6.85131 6.42716
#
# Compressibility (1/GPa) = 0.02479631
#
# Stress axis : x y z
#
# Youngs Moduli (GPa) = 105.44274 82.75567 55.97898
#
# Poissons Ratio (x) = 0.09808 0.27395
# Poissons Ratio (y) = 0.12496 0.06934
# Poissons Ratio (z) = 0.51602 0.10250
#
# Static dielectric constant tensor:
#      x y z
#    x 1.912130 0.063940 -0.005480 
#    y 0.063940 1.889940 -0.024650 
#    z -0.005480 -0.024650 1.826230 
# 
# From -- ./inp_files/416340.got.cif
#   From: 2010.05.17/outbox.cif.g08.bks.cpg/sg2_209_cif.got.tgz:416340.got - 2010.06.03 11:33:40.
