data_PCOD9060825
_publ_section_title
;
Structure prediction by ZEFSAII (Michael W. Deem and Ramdas Pophale) SiO2 
 PCOD9060825
Probable space group: P -1
;
_chemical_formula_sum "Si O2"
_cell_formula_units_Z 13
_cell_length_a 12.030209
_cell_length_b 8.959059
_cell_length_c 9.998825
_cell_angle_alpha 71.624253
_cell_angle_beta 109.178676
_cell_angle_gamma 51.885082
_cell_volume 574.168431
_symmetry_space_group_name_H-M "P -1"
_symmetry_group_IT_number 2
_symmetry_cell_setting 'triclinic'
loop_
_space_group_symop_operation_xyz
x,y,z
-x,-y,-z
loop_
_atom_site_type_symbol
_atom_site_label
_atom_site_fract_x
_atom_site_fract_y
_atom_site_fract_z
Si Si1 0.383603 0.270345 0.945740
Si Si2 0.140886 0.958091 0.884384
Si Si3 0.015591 0.311908 0.494141
Si Si4 0.671681 0.025902 0.527416
Si Si5 0.736773 0.636965 0.827272
Si Si6 0.139092 0.009567 0.155397
Si Si7 0.500000 0.500000 0.000000
O O1 0.186447 0.512582 0.711944
O O2 0.318353 0.277780 0.064100
O O3 0.501639 0.309063 0.997871
O O4 0.500000 0.000000 0.000000
O O5 0.952160 0.062126 0.830809
O O6 0.299466 0.678551 0.952500
O O7 0.059570 0.157261 0.681738
O O8 0.228094 0.929905 0.065546
O O9 0.000000 0.500000 0.500000
O O10 0.192926 0.104477 0.514460
O O11 0.727296 0.803322 0.686212
O O12 0.719116 0.104216 0.634102
O O13 0.442738 0.273821 0.327603
O O14 0.951295 0.329287 0.992778
#
# Coordination Sequence:
#
# PCOD9060825 Si02
#       7
#     2   2   2   2   2   2   1
#     4  12  27  45  75 110 151 195 255 306 383 442
#     4  11  26  45  73 104 149 191 251 298 386 436
#     4  12  25  45  72 109 145 202 248 314 369 457
#     4  11  24  41  74  98 145 192 247 305 374 432
#     4  11  23  44  68 108 143 192 249 308 360 452
#     4  11  24  48  69 105 145 201 235 314 370 446
#     4  12  24  48  74 108 148 194 242 322 354 454
#
# _framework density 22.641441
#
# number of rings (size 3 to 8) (size 9 to 14) (size 15 to 20)
#    0.000    0.615    3.077    4.154    4.308    4.923 
#    0.000    1.538    0.000    0.000    0.000    0.000 
#    0.000    0.000    0.000    0.000    0.000    0.000 
#
# Total GULP energy -72504.089274 kJ/mol
# GULP energy per Si atom -5577.237636 kJ/mol
# Density = 2.258991 g / cm^3
# Si number density = 22.641441 Si / 1000 Ang^3
#
#
#
# Elastic Constant Matrix: (Units=GPa)
#
#
# Indices 1 2 3 4 5 6 
#
# 1 89.9624 22.6685 53.4684 11.9993 -21.0323 2.7971
# 2 22.6685 113.4972 37.8509 26.0643 -11.4719 -14.7971
# 3 53.4684 37.8509 127.2542 35.5496 -11.5356 -6.3742
# 4 11.9993 26.0643 35.5496 31.6921 -7.6481 -0.8425
# 5 -21.0323 -11.4719 -11.5356 -7.6481 52.8952 8.8999
# 6 2.7971 -14.7971 -6.3742 -0.8425 8.8999 38.2976
#
#
#
# Elastic Compliance Matrix: (Units=1/GPa)
#
#
# Indices 1 2 3 4 5 6 
#
# 1 0.017113 -0.002019 -0.007715 0.005212 0.006219 -0.004645
# 2 -0.002019 0.011827 0.000034 -0.008950 -0.000298 0.004595
# 3 -0.007715 0.000034 0.015099 -0.014541 -0.002431 0.003335
# 4 0.005212 -0.008950 -0.014541 0.054511 0.005925 -0.006437
# 5 0.006219 -0.000298 -0.002431 0.005925 0.022668 -0.006111
# 6 -0.004645 0.004595 0.003335 -0.006437 -0.006111 0.030060
#
#
# Mechanical properties :
#
#
# Convention : Reuss Voigt Hill
#
# Bulk Modulus (GPa) = 40.58618 62.07660 51.33139
# Shear Modulus (GPa) = 27.95011 39.02537 33.48774
#
# Velocity S-wave (km/s) = 3.51731 4.15616 3.85001
# Velocity P-wave (km/s) = 5.87025 7.10692 6.51798
#
# Compressibility (1/GPa) = 0.02463893
#
# Stress axis : x y z
#
# Youngs Moduli (GPa) = 58.43554 84.55164 66.23122
#
# Poissons Ratio (x) = 0.17071 0.51096
# Poissons Ratio (y) = 0.11798 -0.00225
# Poissons Ratio (z) = 0.45082 -0.00287
#
# Static dielectric constant tensor:
#      x y z
#    x 1.920960 -0.006050 0.046780 
#    y -0.006050 1.891880 0.028240 
#    z 0.046780 0.028240 1.830760 
# 
# From -- ./inp_files/182000.got.cif
#   From: 2010.05.17/outbox.cif.g08.bks.cpg/sg2_91_cif.got.tgz:182000.got - 2010.06.03 11:33:40.
