data_PCOD9060506
_publ_section_title
;
Structure prediction by ZEFSAII (Michael W. Deem and Ramdas Pophale) SiO2 
 PCOD9060506
Probable space group: P -1
;
_chemical_formula_sum "Si O2"
_cell_formula_units_Z 15
_cell_length_a 16.378474
_cell_length_b 8.605858
_cell_length_c 11.108706
_cell_angle_alpha 52.876295
_cell_angle_beta 148.384621
_cell_angle_gamma 120.065434
_cell_volume 654.140711
_symmetry_space_group_name_H-M "P -1"
_symmetry_group_IT_number 2
_symmetry_cell_setting 'triclinic'
loop_
_space_group_symop_operation_xyz
x,y,z
-x,-y,-z
loop_
_atom_site_type_symbol
_atom_site_label
_atom_site_fract_x
_atom_site_fract_y
_atom_site_fract_z
Si Si1 0.252496 0.915027 0.998074
Si Si2 0.548682 0.081037 0.390586
Si Si3 0.384825 0.288976 0.751184
Si Si4 0.003435 0.114523 0.749590
Si Si5 0.500000 0.500000 0.000000
Si Si6 0.183852 0.511940 0.201871
Si Si7 0.726396 0.149805 0.210993
Si Si8 0.150035 0.185995 0.139137
O O1 0.236799 0.727295 0.147763
O O2 0.430132 0.978817 0.196722
O O3 0.203850 0.846798 0.836365
O O4 0.137126 0.076266 0.836641
O O5 0.539905 0.309694 0.236885
O O6 0.500000 0.000000 0.500000
O O7 0.719923 0.984956 0.634862
O O8 0.282528 0.423043 0.474971
O O9 0.329672 0.072924 0.751206
O O10 0.372293 0.367137 0.834010
O O11 0.572748 0.286848 0.969785
O O12 0.849485 0.188763 0.451717
O O13 0.963088 0.910053 0.859891
O O14 0.065827 0.234084 0.884995
O O15 0.219769 0.376906 0.194177
O O16 0.000000 0.500000 0.000000
#
# Coordination Sequence:
#
# PCOD9060506 Si02
#       8
#     2   2   2   2   1   2   2   2
#     4  12  24  44  72 106 144 189 248 311 365 452
#     4  12  25  46  74 112 150 192 256 310 369 453
#     4  11  24  43  70 102 142 189 244 298 374 449
#     4  11  23  43  72 100 143 197 241 301 382 438
#     4  12  26  44  76 106 152 198 244 314 380 436
#     4  12  25  45  71 109 142 193 245 305 377 449
#     4  11  23  45  68 100 143 191 238 302 376 438
#     4  11  24  44  74 104 149 194 243 309 375 444
#
# _framework density 22.930845000000001
#
# number of rings (size 3 to 8) (size 9 to 14) (size 15 to 20)
#    0.000    0.533    5.333    2.800    0.000    4.267 
#    0.000    0.667    0.000    0.000    0.000    0.000 
#    0.000    0.000    0.000    0.000    0.000    0.000 
#
# Total GULP energy -83584.792708 kJ/mol
# GULP energy per Si atom -5572.319514 kJ/mol
# Density = 2.287865 g / cm^3
# Si number density = 22.930845 Si / 1000 Ang^3
#
#
#
# Elastic Constant Matrix: (Units=GPa)
#
#
# Indices 1 2 3 4 5 6 
#
# 1 -100.3424 -9.4384 72.3952 -85.7368 13.6479 79.6637
# 2 -9.4384 67.5364 43.8034 0.0981 -6.9161 5.9032
# 3 72.3952 43.8034 187.5600 31.7512 -27.6078 -21.5910
# 4 -85.7368 0.0981 31.7512 3.4074 7.6761 22.9157
# 5 13.6479 -6.9161 -27.6078 7.6761 26.4877 -1.1367
# 6 79.6637 5.9032 -21.5910 22.9157 -1.1367 -11.0356
#
#
#
# Elastic Compliance Matrix: (Units=1/GPa)
#
#
# Indices 1 2 3 4 5 6 
#
# 1 0.003114 -0.001105 0.001149 -0.004411 0.001028 0.010377
# 2 -0.001105 0.016766 -0.002596 -0.003331 0.003157 -0.001172
# 3 0.001149 -0.002596 0.005611 -0.000187 0.004422 -0.004919
# 4 -0.004411 -0.003331 -0.000187 0.027867 -0.005786 0.025202
# 5 0.001028 0.003157 0.004422 -0.005786 0.043645 -0.016054
# 6 0.010377 -0.001172 -0.004919 0.025202 -0.016054 0.047275
#
#
# Mechanical properties :
#
#
# Convention : Reuss Voigt Hill
#
# Bulk Modulus (GPa) = 49.04969 40.91937 44.98453
# Shear Modulus (GPa) = 32.01478 6.97150 19.49314
#
# Velocity S-wave (km/s) = 3.74056 1.74552 2.91878
# Velocity P-wave (km/s) = 6.33185 4.68464 5.56948
#
# Compressibility (1/GPa) = 0.02038749
#
# Stress axis : x y z
#
# Youngs Moduli (GPa) = 321.09587 59.64295 178.22774
#
# Poissons Ratio (x) = 0.06591 -0.20472
# Poissons Ratio (y) = 0.35485 0.46260
# Poissons Ratio (z) = -0.36882 0.15481
#
# Static dielectric constant tensor:
#      x y z
#    x 1.966770 -0.012020 0.001150 
#    y -0.012020 1.900250 -0.033730 
#    z 0.001150 -0.033730 1.861770 
# 
# From -- ./inp_files/419871.got.cif
#   From: 2010.05.17/outbox.cif.g08.bks.cpg/sg2_210_cif.got.tgz:419871.got - 2010.06.03 11:33:40.
