data_PCOD9060051
_publ_section_title
;
Structure prediction by ZEFSAII (Michael W. Deem and Ramdas Pophale) SiO2 
 PCOD9060051
Probable space group: P -1
;
_chemical_formula_sum "Si O2"
_cell_formula_units_Z 14
_cell_length_a 7.977974
_cell_length_b 10.867838
_cell_length_c 11.898126
_cell_angle_alpha 84.596598
_cell_angle_beta 99.527909
_cell_angle_gamma 144.953458
_cell_volume 582.660559
_symmetry_space_group_name_H-M "P -1"
_symmetry_group_IT_number 2
_symmetry_cell_setting 'triclinic'
loop_
_space_group_symop_operation_xyz
x,y,z
-x,-y,-z
loop_
_atom_site_type_symbol
_atom_site_label
_atom_site_fract_x
_atom_site_fract_y
_atom_site_fract_z
Si Si1 0.004321 0.242046 0.178025
Si Si2 0.041840 0.884758 0.057434
Si Si3 0.263776 0.061569 0.644862
Si Si4 0.333832 0.457883 0.771602
Si Si5 0.354351 0.746662 0.779365
Si Si6 0.322775 0.760646 0.512581
Si Si7 0.193019 0.293644 0.544811
O O1 0.910501 0.319587 0.208777
O O2 0.331528 0.385624 0.232725
O O3 0.764340 0.005790 0.227845
O O4 0.991901 0.223347 0.044566
O O5 0.800559 0.717044 0.140640
O O6 0.354869 0.044957 0.136688
O O7 0.000000 0.000000 0.000000
O O8 0.555547 0.228943 0.589612
O O9 0.160497 0.140301 0.611866
O O10 0.039339 0.840690 0.568973
O O11 0.306999 0.574935 0.814545
O O12 0.160900 0.362269 0.642020
O O13 0.421713 0.790542 0.649628
O O14 0.000000 0.500000 0.500000
O O15 0.500000 0.000000 0.500000
O O16 0.500000 0.500000 0.500000
#
# Coordination Sequence:
#
# PCOD9060051 Si02
#       7
#     2   2   2   2   2   2   2
#     4  12  26  50  76 111 152 207 265 322 403 477
#     4  12  27  54  78 109 156 205 270 334 398 475
#     4  11  25  45  72 110 155 206 263 324 399 486
#     4  12  27  48  78 111 155 205 263 335 403 474
#     4  12  29  50  78 115 155 208 264 328 408 480
#     4  12  29  50  77 120 170 208 263 339 408 490
#     4  11  23  42  74 108 150 201 262 322 398 479
#
# _framework density 24.027711
#
# number of rings (size 3 to 8) (size 9 to 14) (size 15 to 20)
#    0.000    0.286    4.286    3.429   10.000    0.571 
#    2.571    0.000    0.000    0.000    0.000    0.000 
#    0.000    0.000    0.000    0.000    0.000    0.000 
#
# Total GULP energy -78173.668011 kJ/mol
# GULP energy per Si atom -5583.833429 kJ/mol
# Density = 2.397302 g / cm^3
# Si number density = 24.027711 Si / 1000 Ang^3
#
#
#
# Elastic Constant Matrix: (Units=GPa)
#
#
# Indices 1 2 3 4 5 6 
#
# 1 131.2378 32.5653 6.1771 -16.0490 -6.0585 -10.2497
# 2 32.5653 109.3527 36.8350 -6.2441 0.5565 6.9942
# 3 6.1771 36.8350 121.7299 -16.6421 -9.9292 -5.5547
# 4 -16.0490 -6.2441 -16.6421 45.0211 0.2816 -5.7893
# 5 -6.0585 0.5565 -9.9292 0.2816 36.3108 -9.8483
# 6 -10.2497 6.9942 -5.5547 -5.7893 -9.8483 20.0640
#
#
#
# Elastic Compliance Matrix: (Units=1/GPa)
#
#
# Indices 1 2 3 4 5 6 
#
# 1 0.010513 -0.004498 0.002620 0.005615 0.005784 0.012123
# 2 -0.004498 0.012789 -0.005062 -0.003180 -0.005499 -0.011774
# 3 0.002620 -0.005062 0.011473 0.005877 0.006656 0.011242
# 4 0.005615 -0.003180 0.005877 0.028108 0.007030 0.017165
# 5 0.005784 -0.005499 0.006656 0.007030 0.037752 0.027273
# 6 0.012123 -0.011774 0.011242 0.017165 0.027273 0.081590
#
#
# Mechanical properties :
#
#
# Convention : Reuss Voigt Hill
#
# Bulk Modulus (GPa) = 47.85748 57.05279 52.45514
# Shear Modulus (GPa) = 24.62211 39.39539 32.00875
#
# Velocity S-wave (km/s) = 3.20463 4.05357 3.65384
# Velocity P-wave (km/s) = 5.80118 6.76052 6.29914
#
# Compressibility (1/GPa) = 0.02089537
#
# Stress axis : x y z
#
# Youngs Moduli (GPa) = 95.12115 78.19370 87.16030
#
# Poissons Ratio (x) = 0.35168 -0.22837
# Poissons Ratio (y) = 0.42781 0.44123
# Poissons Ratio (z) = -0.24922 0.39584
#
# Static dielectric constant tensor:
#      x y z
#    x 2.050900 0.011360 0.000480 
#    y 0.011360 2.028240 0.090160 
#    z 0.000480 0.090160 1.894580 
# 
# From -- ./inp_files/72593.got.cif
#   From: 2010.05.17/outbox.cif.g08.bks.cpg/sg2_37_cif.got.tgz:72593.got - 2010.06.03 11:33:40.
