data_PCOD9060334
_publ_section_title
;
Structure prediction by ZEFSAII (Michael W. Deem and Ramdas Pophale) SiO2 
 PCOD9060334
Probable space group: P -1
;
_chemical_formula_sum "Si O2"
_cell_formula_units_Z 14
_cell_length_a 8.641477
_cell_length_b 14.912106
_cell_length_c 10.805037
_cell_angle_alpha 147.909995
_cell_angle_beta 122.290855
_cell_angle_gamma 65.447822
_cell_volume 623.164726
_symmetry_space_group_name_H-M "P -1"
_symmetry_group_IT_number 2
_symmetry_cell_setting 'triclinic'
loop_
_space_group_symop_operation_xyz
x,y,z
-x,-y,-z
loop_
_atom_site_type_symbol
_atom_site_label
_atom_site_fract_x
_atom_site_fract_y
_atom_site_fract_z
Si Si1 0.530925 0.110469 0.515222
Si Si2 0.230846 0.218275 0.921148
Si Si3 0.898232 0.005680 0.185476
Si Si4 0.088413 0.683266 0.788844
Si Si5 0.859499 0.358520 0.960607
Si Si6 0.769540 0.726102 0.300001
Si Si7 0.391165 0.853781 0.942989
O O1 0.402246 0.259355 0.666505
O O2 0.500000 0.000000 0.500000
O O3 0.453612 0.003678 0.240938
O O4 0.732520 0.195570 0.670161
O O5 0.134841 0.055588 0.760144
O O6 0.263713 0.209541 0.778568
O O7 0.426076 0.246055 0.107432
O O8 0.077238 0.349050 0.026992
O O9 0.062619 0.153239 0.429531
O O10 0.961411 0.840714 0.944427
O O11 0.711521 0.070827 0.128530
O O12 0.182448 0.653317 0.925287
O O13 0.000000 0.500000 0.500000
O O14 0.233674 0.740750 0.814370
O O15 0.811185 0.532495 0.084989
#
# Coordination Sequence:
#
# PCOD9060334 Si02
#       7
#     2   2   2   2   2   2   2
#     4  12  22  42  70 101 131 173 229 281 329 390
#     4  11  25  45  67  98 138 182 221 272 332 403
#     4  11  25  44  68  99 133 179 228 270 340 393
#     4  11  23  43  69  97 135 174 221 283 335 391
#     4  11  25  42  66 104 135 176 224 274 334 394
#     4  12  23  44  71  98 134 176 228 277 330 397
#     4  12  24  43  70 100 135 175 224 276 336 399
#
# _framework density 22.465969000000001
#
# number of rings (size 3 to 8) (size 9 to 14) (size 15 to 20)
#    0.000    0.571    4.286    3.857    4.000    0.000 
#    0.000    6.429    0.000    0.000    0.000    0.000 
#    0.000    0.000    0.000    0.000    0.000    0.000 
#
# Total GULP energy -78240.420727 kJ/mol
# GULP energy per Si atom -5588.601481 kJ/mol
# Density = 2.241484 g / cm^3
# Si number density = 22.465969 Si / 1000 Ang^3
#
#
#
# Elastic Constant Matrix: (Units=GPa)
#
#
# Indices 1 2 3 4 5 6 
#
# 1 80.9360 31.2660 0.3031 22.4570 9.9492 -21.4068
# 2 31.2660 118.2446 33.0544 -0.4207 7.9291 -18.5757
# 3 0.3031 33.0544 98.6619 15.6440 15.3206 -7.7181
# 4 22.4570 -0.4207 15.6440 29.0911 0.3252 2.8694
# 5 9.9492 7.9291 15.3206 0.3252 19.0270 -10.2414
# 6 -21.4068 -18.5757 -7.7181 2.8694 -10.2414 30.5250
#
#
#
# Elastic Compliance Matrix: (Units=1/GPa)
#
#
# Indices 1 2 3 4 5 6 
#
# 1 0.029485 -0.007167 0.010076 -0.029970 -0.010205 0.018257
# 2 -0.007167 0.011964 -0.005895 0.008701 0.004065 0.001310
# 3 0.010076 -0.005895 0.017401 -0.017545 -0.013907 0.004862
# 4 -0.029970 0.008701 -0.017545 0.069125 0.012988 -0.022299
# 5 -0.010205 0.004065 -0.013907 0.012988 0.075792 0.016009
# 6 0.018257 0.001310 0.004862 -0.022299 0.016009 0.055057
#
#
# Mechanical properties :
#
#
# Convention : Reuss Voigt Hill
#
# Bulk Modulus (GPa) = 18.91140 47.45439 33.18290
# Shear Modulus (GPa) = 17.70392 31.27656 24.49024
#
# Velocity S-wave (km/s) = 2.81024 3.73523 3.30525
# Velocity P-wave (km/s) = 4.35500 6.30645 5.41928
#
# Compressibility (1/GPa) = 0.05287814
#
# Stress axis : x y z
#
# Youngs Moduli (GPa) = 33.91516 83.58308 57.46694
#
# Poissons Ratio (x) = 0.59906 -0.57901
# Poissons Ratio (y) = 0.24308 0.33875
# Poissons Ratio (z) = -0.34171 0.49269
#
# Static dielectric constant tensor:
#      x y z
#    x 1.882180 -0.057740 -0.001430 
#    y -0.057740 1.858880 0.003720 
#    z -0.001430 0.003720 1.976950 
# 
# From -- ./inp_files/186587.got.cif
#   From: 2010.05.17/outbox.cif.g08.bks.cpg/sg2_94_cif.got.tgz:186587.got - 2010.06.03 11:33:40.
