data_PCOD9060946
_publ_section_title
;
Structure prediction by ZEFSAII (Michael W. Deem and Ramdas Pophale) SiO2 
 PCOD9060946
Probable space group: P -1
;
_chemical_formula_sum "Si O2"
_cell_formula_units_Z 16
_cell_length_a 11.982777
_cell_length_b 10.819562
_cell_length_c 11.552153
_cell_angle_alpha 72.419950
_cell_angle_beta 145.801467
_cell_angle_gamma 115.472796
_cell_volume 755.713248
_symmetry_space_group_name_H-M "P -1"
_symmetry_group_IT_number 2
_symmetry_cell_setting 'triclinic'
loop_
_space_group_symop_operation_xyz
x,y,z
-x,-y,-z
loop_
_atom_site_type_symbol
_atom_site_label
_atom_site_fract_x
_atom_site_fract_y
_atom_site_fract_z
Si Si1 0.793122 0.342580 0.754706
Si Si2 0.442989 0.789703 0.629455
Si Si3 0.242099 0.579391 0.047214
Si Si4 0.023673 0.751982 0.405385
Si Si5 0.627027 0.585909 0.976796
Si Si6 0.172692 0.953884 0.093328
Si Si7 0.266260 0.801698 0.816676
Si Si8 0.757027 0.950117 0.138210
O O1 0.633248 0.304960 0.521607
O O2 0.696271 0.376566 0.780834
O O3 0.853924 0.204510 0.863933
O O4 0.004317 0.470851 0.876007
O O5 0.546147 0.707671 0.829245
O O6 0.238738 0.813997 0.501419
O O7 0.610130 0.937539 0.705370
O O8 0.380500 0.507966 0.114353
O O9 0.255589 0.712007 0.946170
O O10 0.897899 0.854014 0.300282
O O11 0.107800 0.711154 0.609406
O O12 0.863794 0.643247 0.214440
O O13 0.500000 0.500000 0.000000
O O14 0.184097 0.982100 0.957264
O O15 0.000000 0.000000 0.000000
O O16 0.203107 0.932304 0.764151
O O17 0.507287 0.862721 0.960572
#
# Coordination Sequence:
#
# PCOD9060946 Si02
#       8
#     2   2   2   2   2   2   2   2
#     4  11  25  44  70  99 138 189 231 281 351 413
#     4  12  25  46  72 102 136 184 239 290 348 412
#     4  11  24  46  69  98 145 184 229 287 343 424
#     4  12  22  43  71 105 136 178 235 290 353 410
#     4  12  26  43  69 106 140 181 234 290 348 418
#     4  12  23  46  72 102 140 180 237 294 344 413
#     4  11  24  44  73 101 145 181 228 292 358 418
#     4  11  23  44  70 108 139 178 232 295 356 407
#
# _framework density 21.172051
#
# number of rings (size 3 to 8) (size 9 to 14) (size 15 to 20)
#    0.000    0.500    5.000    3.750    1.750    1.500 
#    0.000    2.500    0.000    0.000    0.000    0.000 
#    0.000    0.000    0.000    0.000    0.000    0.000 
#
# Total GULP energy -89439.219497 kJ/mol
# GULP energy per Si atom -5589.951219 kJ/mol
# Density = 2.112386 g / cm^3
# Si number density = 21.172051 Si / 1000 Ang^3
#
#
#
# Elastic Constant Matrix: (Units=GPa)
#
#
# Indices 1 2 3 4 5 6 
#
# 1 154.7303 20.1490 33.8556 2.5894 1.5169 -13.0302
# 2 20.1490 46.6757 -7.7539 0.1057 9.4123 -7.1000
# 3 33.8556 -7.7539 74.7880 8.4065 -3.7077 1.1900
# 4 2.5894 0.1057 8.4065 26.2962 -0.5598 -2.0738
# 5 1.5169 9.4123 -3.7077 -0.5598 42.3392 1.2558
# 6 -13.0302 -7.1000 1.1900 -2.0738 1.2558 44.8868
#
#
#
# Elastic Compliance Matrix: (Units=1/GPa)
#
#
# Indices 1 2 3 4 5 6 
#
# 1 0.008018 -0.003903 -0.004133 0.000697 0.000173 0.001847
# 2 -0.003903 0.025294 0.004191 -0.000943 -0.005213 0.002859
# 3 -0.004133 0.004191 0.016277 -0.004896 0.000613 -0.001212
# 4 0.000697 -0.000943 -0.004896 0.039692 0.000221 0.002011
# 5 0.000173 -0.005213 0.000613 0.000221 0.024872 -0.001476
# 6 0.001847 0.002859 -0.001212 0.002011 -0.001476 0.023433
#
#
# Mechanical properties :
#
#
# Convention : Reuss Voigt Hill
#
# Bulk Modulus (GPa) = 23.86743 40.96617 32.41680
# Shear Modulus (GPa) = 31.39882 38.03399 34.71640
#
# Velocity S-wave (km/s) = 3.85519 4.24302 4.05375
# Velocity P-wave (km/s) = 5.57801 6.58753 6.10368
#
# Compressibility (1/GPa) = 0.04189810
#
# Stress axis : x y z
#
# Youngs Moduli (GPa) = 124.72386 39.53508 61.43725
#
# Poissons Ratio (x) = 0.15431 0.25394
# Poissons Ratio (y) = 0.48683 -0.25751
# Poissons Ratio (z) = 0.51553 -0.16571
#
# Static dielectric constant tensor:
#      x y z
#    x 1.818050 -0.005620 0.007050 
#    y -0.005620 1.783940 0.007960 
#    z 0.007050 0.007960 1.768370 
# 
# From -- ./inp_files/427767.got.cif
#   From: 2010.05.17/outbox.cif.g08.bks.cpg/sg2_214_cif.got.tgz:427767.got - 2010.06.03 11:33:40.
