data_PCOD9060230
_publ_section_title
;
Structure prediction by ZEFSAII (Michael W. Deem and Ramdas Pophale) SiO2 
 PCOD9060230
Probable space group: P -1
;
_chemical_formula_sum "Si O2"
_cell_formula_units_Z 16
_cell_length_a 14.478450
_cell_length_b 14.155909
_cell_length_c 9.093854
_cell_angle_alpha 95.962983
_cell_angle_beta 47.490680
_cell_angle_gamma 134.582708
_cell_volume 693.522442
_symmetry_space_group_name_H-M "P -1"
_symmetry_group_IT_number 2
_symmetry_cell_setting 'triclinic'
loop_
_space_group_symop_operation_xyz
x,y,z
-x,-y,-z
loop_
_atom_site_type_symbol
_atom_site_label
_atom_site_fract_x
_atom_site_fract_y
_atom_site_fract_z
Si Si1 0.412190 0.391893 0.289415
Si Si2 0.645108 0.382819 0.211696
Si Si3 0.269698 0.227730 0.120183
Si Si4 0.105345 0.292905 0.843542
Si Si5 0.802359 0.311470 0.866394
Si Si6 0.652907 0.307525 0.719435
Si Si7 0.580914 0.009419 0.257110
Si Si8 0.914790 0.022185 0.213194
O O1 0.588872 0.419690 0.145379
O O2 0.557171 0.578670 0.108639
O O3 0.276682 0.334171 0.574499
O O4 0.234354 0.242149 0.325632
O O5 0.759544 0.519938 0.240550
O O6 0.378919 0.166527 0.503012
O O7 0.813701 0.408111 0.980524
O O8 0.426531 0.233363 0.952239
O O9 0.026926 0.067731 0.256321
O O10 0.851274 0.141448 0.008902
O O11 0.031794 0.196758 0.060938
O O12 0.687093 0.276388 0.833719
O O13 0.086645 0.468926 0.555291
O O14 0.628560 0.120334 0.099335
O O15 0.598335 0.189959 0.639833
O O16 0.500000 0.000000 0.500000
O O17 0.000000 0.000000 0.000000
#
# Coordination Sequence:
#
# PCOD9060230 Si02
#       8
#     2   2   2   2   2   2   2   2
#     4  11  23  43  68 102 142 178 226 279 347 408
#     4  12  24  44  71 100 142 182 225 282 344 408
#     4  11  24  44  71 106 137 181 229 282 344 416
#     4  12  25  45  69 101 143 184 224 285 344 413
#     4  11  26  48  74 101 136 187 235 289 346 406
#     4  11  25  49  74  99 139 183 235 289 346 409
#     4  12  27  47  72 104 137 182 240 289 342 413
#     4  12  24  40  68 100 140 180 224 273 347 411
#
# _framework density 23.070629
#
# number of rings (size 3 to 8) (size 9 to 14) (size 15 to 20)
#    0.000    0.500    3.750    4.500    0.000    5.500 
#    0.000    0.000    0.000    0.000    0.000    0.000 
#    0.000    0.000    0.000    0.000    0.000    0.000 
#
# Total GULP energy -89616.445653 kJ/mol
# GULP energy per Si atom -5601.027853 kJ/mol
# Density = 2.301812 g / cm^3
# Si number density = 23.070629 Si / 1000 Ang^3
#
#
#
# Elastic Constant Matrix: (Units=GPa)
#
#
# Indices 1 2 3 4 5 6 
#
# 1 47.7540 -10.2244 16.4869 -8.1948 13.2610 -5.1262
# 2 -10.2244 97.1996 17.3380 -3.6777 9.0438 6.4351
# 3 16.4869 17.3380 80.8965 -15.8152 12.6166 -1.2019
# 4 -8.1948 -3.6777 -15.8152 26.3540 -3.4159 -3.0869
# 5 13.2610 9.0438 12.6166 -3.4159 40.5791 0.4347
# 6 -5.1262 6.4351 -1.2019 -3.0869 0.4347 28.7450
#
#
#
# Elastic Compliance Matrix: (Units=1/GPa)
#
#
# Indices 1 2 3 4 5 6 
#
# 1 0.026954 0.004213 -0.003873 0.006123 -0.008076 0.004482
# 2 0.004213 0.011658 -0.002783 0.000655 -0.003034 -0.001859
# 3 -0.003873 -0.002783 0.015631 0.007652 -0.002345 0.001443
# 4 0.006123 0.000655 0.007652 0.045147 -0.000792 0.006125
# 5 -0.008076 -0.003034 -0.002345 -0.000792 0.028636 -0.001377
# 6 0.004482 -0.001859 0.001443 0.006125 -0.001377 0.036743
#
#
# Mechanical properties :
#
#
# Convention : Reuss Voigt Hill
#
# Bulk Modulus (GPa) = 20.26139 30.33901 25.30020
# Shear Modulus (GPa) = 26.86612 32.61892 29.74252
#
# Velocity S-wave (km/s) = 3.41620 3.76423 3.59443
# Velocity P-wave (km/s) = 4.93579 5.66318 5.31195
#
# Compressibility (1/GPa) = 0.04935495
#
# Stress axis : x y z
#
# Youngs Moduli (GPa) = 37.10006 85.77900 63.97739
#
# Poissons Ratio (x) = -0.36134 0.24778
# Poissons Ratio (y) = -0.15628 0.17807
# Poissons Ratio (z) = 0.14369 0.23875
#
# Static dielectric constant tensor:
#      x y z
#    x 1.883890 -0.010020 0.039850 
#    y -0.010020 1.842620 -0.007070 
#    z 0.039850 -0.007070 1.847980 
# 
# From -- ./inp_files/315389.got.cif
#   From: 2010.05.17/outbox.cif.g08.bks.cpg/sg2_158_cif.got.tgz:315389.got - 2010.06.03 11:33:40.
