data_PCOD9060297
_publ_section_title
;
Structure prediction by ZEFSAII (Michael W. Deem and Ramdas Pophale) SiO2 
 PCOD9060297
Probable space group: P -1
;
_chemical_formula_sum "Si O2"
_cell_formula_units_Z 16
_cell_length_a 11.027873
_cell_length_b 5.941562
_cell_length_c 11.593936
_cell_angle_alpha 92.769830
_cell_angle_beta 80.293153
_cell_angle_gamma 63.603285
_cell_volume 664.149291
_symmetry_space_group_name_H-M "P -1"
_symmetry_group_IT_number 2
_symmetry_cell_setting 'triclinic'
loop_
_space_group_symop_operation_xyz
x,y,z
-x,-y,-z
loop_
_atom_site_type_symbol
_atom_site_label
_atom_site_fract_x
_atom_site_fract_y
_atom_site_fract_z
Si Si1 0.285824 0.063905 0.285526
Si Si2 0.089113 0.559786 0.256970
Si Si3 0.328564 0.737632 0.901019
Si Si4 0.430614 0.248734 0.439537
Si Si5 0.053053 0.203062 0.946104
Si Si6 0.894739 0.907601 0.464986
Si Si7 0.310413 0.656367 0.646993
Si Si8 0.641189 0.428849 0.854590
O O1 0.163786 0.255455 0.225701
O O2 0.378431 0.179866 0.329864
O O3 0.209772 0.049237 0.413616
O O4 0.376917 0.808277 0.197125
O O5 0.225152 0.602839 0.239058
O O6 0.998843 0.737175 0.174651
O O7 0.993686 0.635221 0.386951
O O8 0.294370 0.630565 0.785437
O O9 0.490821 0.668471 0.875246
O O10 0.218888 0.034403 0.926689
O O11 0.314089 0.611943 0.019465
O O12 0.315834 0.448607 0.549111
O O13 0.541182 0.345340 0.390027
O O14 0.500000 0.000000 0.500000
O O15 0.000000 0.500000 0.000000
O O16 0.000000 0.000000 0.000000
O O17 0.804144 0.082799 0.379607
O O18 0.000000 0.000000 0.500000
#
# Coordination Sequence:
#
# PCOD9060297 Si02
#       8
#     2   2   2   2   2   2   2   2
#     4  12  25  45  72 109 147 201 260 314 394 463
#     4  12  25  46  72 106 149 200 251 319 386 460
#     4  11  24  49  75 111 146 202 254 314 391 466
#     4  11  23  43  69 102 148 197 240 314 383 457
#     4  12  27  53  79 110 154 207 261 323 389 471
#     4  12  24  43  70 104 147 195 248 317 385 461
#     4  11  24  44  68 105 150 190 253 309 384 466
#     4  11  25  48  74 106 154 195 257 322 384 465
#
# _framework density 24.090969000000001
#
# number of rings (size 3 to 8) (size 9 to 14) (size 15 to 20)
#    0.000    0.500    5.000    3.375    1.750    0.000 
#    9.000    3.750    0.000    0.000    0.000    0.000 
#    0.000    0.000    0.000    0.000    0.000    0.000 
#
# Total GULP energy -89304.766706 kJ/mol
# GULP energy per Si atom -5581.547919 kJ/mol
# Density = 2.403614 g / cm^3
# Si number density = 24.090969 Si / 1000 Ang^3
#
#
#
# Elastic Constant Matrix: (Units=GPa)
#
#
# Indices 1 2 3 4 5 6 
#
# 1 74.9033 31.8423 24.9164 5.5673 0.3216 -23.1188
# 2 31.8423 133.8896 52.1673 9.5449 -1.9847 -36.8680
# 3 24.9164 52.1673 120.6282 -6.4781 -0.1626 -4.4887
# 4 5.5673 9.5449 -6.4781 47.5947 -13.9292 5.4683
# 5 0.3216 -1.9847 -0.1626 -13.9292 24.2198 -1.6817
# 6 -23.1188 -36.8680 -4.4887 5.4683 -1.6817 45.9831
#
#
#
# Elastic Compliance Matrix: (Units=1/GPa)
#
#
# Indices 1 2 3 4 5 6 
#
# 1 0.017598 -0.000147 -0.003467 -0.004103 -0.002017 0.008805
# 2 -0.000147 0.012682 -0.005333 -0.004704 -0.000999 0.010097
# 3 -0.003467 -0.005333 0.011337 0.004125 0.001687 -0.005341
# 4 -0.004103 -0.004704 0.004125 0.028481 0.015504 -0.008252
# 5 -0.002017 -0.000999 0.001687 0.015504 0.050046 -0.001664
# 6 0.008805 0.010097 -0.005341 -0.008252 -0.001664 0.034668
#
#
# Mechanical properties :
#
#
# Convention : Reuss Voigt Hill
#
# Bulk Modulus (GPa) = 42.15075 60.80811 51.47943
# Shear Modulus (GPa) = 27.68346 38.25919 32.97133
#
# Velocity S-wave (km/s) = 3.39355 3.98944 3.70350
# Velocity P-wave (km/s) = 5.73492 6.82031 6.30103
#
# Compressibility (1/GPa) = 0.02372437
#
# Stress axis : x y z
#
# Youngs Moduli (GPa) = 56.82592 78.84946 88.20527
#
# Poissons Ratio (x) = 0.01161 0.30577
# Poissons Ratio (y) = 0.00837 0.47036
# Poissons Ratio (z) = 0.19699 0.42047
#
# Static dielectric constant tensor:
#      x y z
#    x 1.995050 0.044160 -0.051130 
#    y 0.044160 2.013770 -0.018980 
#    z -0.051130 -0.018980 2.003760 
# 
# From -- ./inp_files/410508.got.cif
#   From: 2010.05.17/outbox.cif.g08.bks.cpg/sg2_206_cif.got.tgz:410508.got - 2010.06.03 11:33:40.
