data_PCOD9060123
_publ_section_title
;
Structure prediction by ZEFSAII (Michael W. Deem and Ramdas Pophale) SiO2 
 PCOD9060123
Probable space group: P -1
;
_chemical_formula_sum "Si O2"
_cell_formula_units_Z 16
_cell_length_a 11.308318
_cell_length_b 9.432707
_cell_length_c 8.704069
_cell_angle_alpha 128.887568
_cell_angle_beta 87.038001
_cell_angle_gamma 95.018313
_cell_volume 719.906792
_symmetry_space_group_name_H-M "P -1"
_symmetry_group_IT_number 2
_symmetry_cell_setting 'triclinic'
loop_
_space_group_symop_operation_xyz
x,y,z
-x,-y,-z
loop_
_atom_site_type_symbol
_atom_site_label
_atom_site_fract_x
_atom_site_fract_y
_atom_site_fract_z
Si Si1 0.464248 0.841911 0.267644
Si Si2 0.266279 0.966180 0.145838
Si Si3 0.030664 0.536834 0.201421
Si Si4 0.696161 0.385405 0.679535
Si Si5 0.885872 0.875720 0.482680
Si Si6 0.062632 0.812891 0.849814
Si Si7 0.345418 0.209183 0.049160
Si Si8 0.207829 0.943512 0.676204
O O1 0.418111 0.660363 0.237493
O O2 0.500000 0.000000 0.500000
O O3 0.345750 0.883683 0.212829
O O4 0.559812 0.808195 0.105721
O O5 0.171093 0.077738 0.320402
O O6 0.357601 0.090065 0.119265
O O7 0.185487 0.827141 0.950578
O O8 0.170220 0.610272 0.252691
O O9 0.930858 0.675584 0.343418
O O10 0.000000 0.500000 0.000000
O O11 0.011781 0.361209 0.194145
O O12 0.679472 0.587965 0.761598
O O13 0.697169 0.208851 0.448540
O O14 0.797474 0.940758 0.400539
O O15 0.000000 0.000000 0.500000
O O16 0.097255 0.818934 0.671343
O O17 0.000000 0.000000 0.000000
O O18 0.231059 0.102610 0.906806
#
# Coordination Sequence:
#
# PCOD9060123 Si02
#       8
#     2   2   2   2   2   2   2   2
#     4  12  23  47  74  95 130 183 228 290 347 392
#     4  11  24  43  68 101 136 176 223 281 341 403
#     4  12  24  38  67 101 137 179 226 272 344 412
#     4  12  24  42  69  98 133 175 233 274 338 410
#     4  12  21  39  62  93 135 179 219 274 330 400
#     4  11  24  42  66  99 145 180 220 273 343 409
#     4  11  25  44  70  95 134 174 229 284 346 395
#     4  11  23  43  65  96 140 178 225 279 335 409
#
# _framework density 22.225100999999999
#
# number of rings (size 3 to 8) (size 9 to 14) (size 15 to 20)
#    0.000    0.500    3.750    6.000    1.750    0.500 
#    0.000    1.875    0.000    0.000    0.000    0.000 
#    0.000    0.000    0.000    0.000    0.000    0.000 
#
# Total GULP energy -89190.265455 kJ/mol
# GULP energy per Si atom -5574.391591 kJ/mol
# Density = 2.217452 g / cm^3
# Si number density = 22.225101 Si / 1000 Ang^3
#
#
#
# Elastic Constant Matrix: (Units=GPa)
#
#
# Indices 1 2 3 4 5 6 
#
# 1 61.4264 3.9421 6.9268 1.4212 -9.5647 15.7566
# 2 3.9421 112.2452 21.3909 11.3834 -4.6907 23.9437
# 3 6.9268 21.3909 62.8113 1.9832 -17.3269 1.0407
# 4 1.4212 11.3834 1.9832 41.1425 1.8989 -9.4145
# 5 -9.5647 -4.6907 -17.3269 1.8989 44.8492 -11.4165
# 6 15.7566 23.9437 1.0407 -9.4145 -11.4165 38.4607
#
#
#
# Elastic Compliance Matrix: (Units=1/GPa)
#
#
# Indices 1 2 3 4 5 6 
#
# 1 0.019127 0.002221 -0.002291 -0.003428 0.001111 -0.009666
# 2 0.002221 0.012505 -0.004861 -0.005634 -0.002584 -0.010710
# 3 -0.002291 -0.004861 0.019949 0.001510 0.008234 0.006239
# 4 -0.003428 -0.005634 0.001510 0.028655 0.001163 0.012230
# 5 0.001111 -0.002584 0.008234 0.001163 0.027806 0.009469
# 6 -0.009666 -0.010710 0.006239 0.012230 0.009469 0.042264
#
#
# Mechanical properties :
#
#
# Convention : Reuss Voigt Hill
#
# Bulk Modulus (GPa) = 23.96971 33.44472 28.70722
# Shear Modulus (GPa) = 28.72315 38.50535 33.61425
#
# Velocity S-wave (km/s) = 3.59886 4.16687 3.89324
# Velocity P-wave (km/s) = 5.29882 6.18314 5.75798
#
# Compressibility (1/GPa) = 0.04171931
#
# Stress axis : x y z
#
# Youngs Moduli (GPa) = 52.28162 79.96558 50.12698
#
# Poissons Ratio (x) = -0.17758 0.11483
# Poissons Ratio (y) = -0.11610 0.24368
# Poissons Ratio (z) = 0.11977 0.38873
#
# Static dielectric constant tensor:
#      x y z
#    x 1.961590 0.057860 -0.009420 
#    y 0.057860 1.930160 -0.076070 
#    z -0.009420 -0.076070 1.874310 
# 
# From -- ./inp_files/188001.got.cif
#   From: 2010.05.17/outbox.cif.g08.bks.cpg/sg2_95_cif.got.tgz:188001.got - 2010.06.03 11:33:40.
