data_PCOD9060650
_publ_section_title
;
Structure prediction by ZEFSAII (Michael W. Deem and Ramdas Pophale) SiO2 
 PCOD9060650
Probable space group: P -1
;
_chemical_formula_sum "Si O2"
_cell_formula_units_Z 14
_cell_length_a 15.730226
_cell_length_b 10.960642
_cell_length_c 8.135870
_cell_angle_alpha 122.083106
_cell_angle_beta 144.194148
_cell_angle_gamma 47.755444
_cell_volume 607.195096
_symmetry_space_group_name_H-M "P -1"
_symmetry_group_IT_number 2
_symmetry_cell_setting 'triclinic'
loop_
_space_group_symop_operation_xyz
x,y,z
-x,-y,-z
loop_
_atom_site_type_symbol
_atom_site_label
_atom_site_fract_x
_atom_site_fract_y
_atom_site_fract_z
Si Si1 0.833895 0.179089 0.901643
Si Si2 0.685848 0.804634 0.606303
Si Si3 0.247858 0.283971 0.836310
Si Si4 0.528402 0.379869 0.798505
Si Si5 0.395200 0.969896 0.057298
Si Si6 0.419593 0.703952 0.695654
Si Si7 0.999174 0.397307 0.219199
O O1 0.717354 0.250289 0.936561
O O2 0.702077 0.197944 0.570867
O O3 0.894210 0.309541 0.043341
O O4 0.000000 0.000000 0.000000
O O5 0.579844 0.713545 0.422327
O O6 0.676223 0.934771 0.817573
O O7 0.877374 0.683060 0.793740
O O8 0.591155 0.898209 0.355510
O O9 0.129540 0.350793 0.540808
O O10 0.123569 0.411614 0.866648
O O11 0.322169 0.100337 0.889210
O O12 0.401555 0.314782 0.072689
O O13 0.444538 0.523207 0.631879
O O14 0.500000 0.500000 0.000000
O O15 0.362349 0.820847 0.851828
#
# Coordination Sequence:
#
# PCOD9060650 Si02
#       7
#     2   2   2   2   2   2   2
#     4  12  29  46  76 110 150 187 251 311 359 424
#     4  11  26  45  73 105 147 194 240 296 372 434
#     4  11  23  43  75 100 142 188 249 287 359 436
#     4  12  25  49  75 108 151 197 237 300 376 442
#     4  11  24  43  71 104 139 195 241 290 354 448
#     4  12  24  49  74 107 141 202 243 291 371 442
#     4  11  25  46  69 110 139 187 246 304 350 428
#
# _framework density 23.056839
#
# number of rings (size 3 to 8) (size 9 to 14) (size 15 to 20)
#    0.000    0.571    4.286    2.571   10.000    0.571 
#    0.000    1.429    0.000    0.000    0.000    0.000 
#    0.000    0.000    0.000    0.000    0.000    0.000 
#
# Total GULP energy -78122.006357 kJ/mol
# GULP energy per Si atom -5580.143311 kJ/mol
# Density = 2.300436 g / cm^3
# Si number density = 23.056839 Si / 1000 Ang^3
#
#
#
# Elastic Constant Matrix: (Units=GPa)
#
#
# Indices 1 2 3 4 5 6 
#
# 1 97.3715 57.3768 32.0352 -1.4698 18.8844 -24.6350
# 2 57.3768 164.9570 24.4769 -1.7660 7.6994 -13.7287
# 3 32.0352 24.4769 123.6045 -22.1951 2.4187 -18.2151
# 4 -1.4698 -1.7660 -22.1951 76.3929 -5.9098 9.8065
# 5 18.8844 7.6994 2.4187 -5.9098 40.4321 -5.0607
# 6 -24.6350 -13.7287 -18.2151 9.8065 -5.0607 63.5749
#
#
#
# Elastic Compliance Matrix: (Units=1/GPa)
#
#
# Indices 1 2 3 4 5 6 
#
# 1 0.016141 -0.004571 -0.002830 -0.001639 -0.006211 0.004215
# 2 -0.004571 0.007660 -0.000361 0.000060 0.000685 -0.000175
# 3 -0.002830 -0.000361 0.009529 0.002650 0.001365 0.001256
# 4 -0.001639 0.000060 0.002650 0.014259 0.002446 -0.001868
# 5 -0.006211 0.000685 0.001365 0.002446 0.027775 -0.000034
# 6 0.004215 -0.000175 0.001256 -0.001868 -0.000034 0.017970
#
#
# Mechanical properties :
#
#
# Convention : Reuss Voigt Hill
#
# Bulk Modulus (GPa) = 56.15766 68.19009 62.17388
# Shear Modulus (GPa) = 43.55689 54.21626 48.88658
#
# Velocity S-wave (km/s) = 4.35110 4.85440 4.60963
# Velocity P-wave (km/s) = 7.04641 7.81404 7.44013
#
# Compressibility (1/GPa) = 0.01780701
#
# Stress axis : x y z
#
# Youngs Moduli (GPa) = 61.95504 130.55215 104.93901
#
# Poissons Ratio (x) = 0.59678 0.29694
# Poissons Ratio (y) = 0.28321 0.03784
# Poissons Ratio (z) = 0.17531 0.04707
#
# Static dielectric constant tensor:
#      x y z
#    x 2.007230 -0.116830 -0.087320 
#    y -0.116830 1.972200 0.000680 
#    z -0.087320 0.000680 1.729820 
# 
# From -- ./inp_files/218585.got.cif
#   From: 2010.05.17/outbox.cif.g08.bks.cpg/sg2_110_cif.got.tgz:218585.got - 2010.06.03 11:33:40.
