data_PCOD9060010
_publ_section_title
;
Structure prediction by ZEFSAII (Michael W. Deem and Ramdas Pophale) SiO2 
 PCOD9060010
Probable space group: P -1
;
_chemical_formula_sum "Si O2"
_cell_formula_units_Z 16
_cell_length_a 19.760032
_cell_length_b 6.445749
_cell_length_c 17.070542
_cell_angle_alpha 131.004393
_cell_angle_beta 31.525939
_cell_angle_gamma 139.082108
_cell_volume 744.172022
_symmetry_space_group_name_H-M "P -1"
_symmetry_group_IT_number 2
_symmetry_cell_setting 'triclinic'
loop_
_space_group_symop_operation_xyz
x,y,z
-x,-y,-z
loop_
_atom_site_type_symbol
_atom_site_label
_atom_site_fract_x
_atom_site_fract_y
_atom_site_fract_z
Si Si1 0.658660 0.249585 0.445239
Si Si2 0.087290 0.370139 0.831169
Si Si3 0.946770 0.242817 0.567265
Si Si4 0.659028 0.689338 0.348429
Si Si5 0.858211 0.662204 0.845361
Si Si6 0.412761 0.346699 0.967539
Si Si7 0.620327 0.714351 0.710558
Si Si8 0.649923 0.334893 0.114130
O O1 0.797706 0.385064 0.283698
O O2 0.643819 0.517776 0.570358
O O3 0.500000 0.000000 0.500000
O O4 0.694390 0.042691 0.416916
O O5 0.202697 0.332235 0.762209
O O6 0.971740 0.035328 0.824679
O O7 0.000000 0.500000 0.000000
O O8 0.941844 0.469665 0.694824
O O9 0.000000 0.500000 0.500000
O O10 0.779054 0.991840 0.647309
O O11 0.000000 0.000000 0.500000
O O12 0.500000 0.500000 0.500000
O O13 0.642390 0.555279 0.243858
O O14 0.721162 0.582009 0.901266
O O15 0.780522 0.552433 0.979452
O O16 0.532927 0.491039 0.814814
O O17 0.338752 0.965786 0.943290
O O18 0.500000 0.500000 0.000000
O O19 0.506653 0.820232 0.816161
#
# Coordination Sequence:
#
# PCOD9060010 Si02
#       8
#     2   2   2   2   2   2   2   2
#     4  12  24  45  72 101 148 191 251 309 378 472
#     4  12  27  45  72 109 152 197 248 319 394 459
#     4  12  30  50  75 107 154 204 262 326 397 469
#     4  12  24  42  72 104 143 196 250 304 385 471
#     4  11  27  47  70 106 151 192 254 322 395 461
#     4  11  24  43  77 102 141 192 254 316 384 463
#     4  11  25  45  72 106 141 197 253 314 389 461
#     4  11  23  42  73 103 142 188 250 315 386 468
#
# _framework density 21.500402999999999
#
# number of rings (size 3 to 8) (size 9 to 14) (size 15 to 20)
#    0.000    0.500    2.500    4.500    8.750    5.000 
#    0.000    0.000    0.000    0.000    0.000    0.000 
#    0.000    0.000    0.000    0.000    0.000    0.000 
#
# Total GULP energy -89212.505989 kJ/mol
# GULP energy per Si atom -5575.781624 kJ/mol
# Density = 2.145147 g / cm^3
# Si number density = 21.500403 Si / 1000 Ang^3
#
#
#
# Elastic Constant Matrix: (Units=GPa)
#
#
# Indices 1 2 3 4 5 6 
#
# 1 46.4166 -4.4316 19.1956 -14.8764 -11.1025 -2.7468
# 2 -4.4316 91.5052 33.9124 -9.6906 -14.6040 -0.7115
# 3 19.1956 33.9124 133.1574 -4.4248 -6.0738 -5.7570
# 4 -14.8764 -9.6906 -4.4248 47.5992 2.0074 -5.3034
# 5 -11.1025 -14.6040 -6.0738 2.0074 33.7795 3.9583
# 6 -2.7468 -0.7115 -5.7570 -5.3034 3.9583 41.8830
#
#
#
# Elastic Compliance Matrix: (Units=1/GPa)
#
#
# Indices 1 2 3 4 5 6 
#
# 1 0.030047 0.006094 -0.004991 0.009891 0.010836 0.001616
# 2 0.006094 0.014319 -0.004062 0.004129 0.007227 -0.000076
# 3 -0.004991 -0.004062 0.009175 -0.001364 -0.001766 0.000859
# 4 0.009891 0.004129 -0.001364 0.025074 0.002898 0.003432
# 5 0.010836 0.007227 -0.001766 0.002898 0.036087 -0.002453
# 6 0.001616 -0.000076 0.000859 0.003432 -0.002453 0.024765
#
#
# Mechanical properties :
#
#
# Convention : Reuss Voigt Hill
#
# Bulk Modulus (GPa) = 20.99746 40.93688 30.96717
# Shear Modulus (GPa) = 31.00601 39.47919 35.24260
#
# Velocity S-wave (km/s) = 3.80164 4.28975 4.05305
# Velocity P-wave (km/s) = 5.39047 6.60434 6.02804
#
# Compressibility (1/GPa) = 0.04762480
#
# Stress axis : x y z
#
# Youngs Moduli (GPa) = 33.28083 69.83814 108.99113
#
# Poissons Ratio (x) = -0.42561 0.54395
# Poissons Ratio (y) = -0.20282 0.44268
# Poissons Ratio (z) = 0.16610 0.28366
#
# Static dielectric constant tensor:
#      x y z
#    x 1.866190 -0.068930 -0.002580 
#    y -0.068930 1.783270 0.015440 
#    z -0.002580 0.015440 1.741500 
# 
# From -- ./inp_files/576845.got.cif
#   From: 2010.05.17/outbox.cif.g08.bks.cpg/sg2_289_cif.got.tgz:576845.got - 2010.06.03 11:33:40.
