data_PCOD9060765
_publ_section_title
;
Structure prediction by ZEFSAII (Michael W. Deem and Ramdas Pophale) SiO2 
 PCOD9060765
Probable space group: P -1
;
_chemical_formula_sum "Si O2"
_cell_formula_units_Z 13
_cell_length_a 9.073019
_cell_length_b 11.907473
_cell_length_c 11.292854
_cell_angle_alpha 117.190832
_cell_angle_beta 129.398254
_cell_angle_gamma 102.364764
_cell_volume 570.000133
_symmetry_space_group_name_H-M "P -1"
_symmetry_group_IT_number 2
_symmetry_cell_setting 'triclinic'
loop_
_space_group_symop_operation_xyz
x,y,z
-x,-y,-z
loop_
_atom_site_type_symbol
_atom_site_label
_atom_site_fract_x
_atom_site_fract_y
_atom_site_fract_z
Si Si1 0.986809 0.432015 0.677275
Si Si2 0.290664 0.603578 0.262623
Si Si3 0.595398 0.136341 0.935173
Si Si4 0.500000 0.500000 0.000000
Si Si5 0.483408 0.153500 0.144319
Si Si6 0.695848 0.670658 0.926476
Si Si7 0.669118 0.972009 0.505557
O O1 0.741188 0.340675 0.602941
O O2 0.815398 0.301305 0.413490
O O3 0.150451 0.642912 0.844828
O O4 0.207861 0.439035 0.843999
O O5 0.544010 0.780916 0.399678
O O6 0.306220 0.461329 0.208554
O O7 0.000000 0.500000 0.000000
O O8 0.400052 0.054166 0.681120
O O9 0.672598 0.027781 0.944633
O O10 0.436426 0.099338 0.956102
O O11 0.514764 0.565768 0.903292
O O12 0.406905 0.261724 0.170676
O O13 0.009098 0.855934 0.217233
O O14 0.500000 0.000000 0.500000
#
# Coordination Sequence:
#
# PCOD9060765 Si02
#       7
#     2   2   2   1   2   2   2
#     4  12  24  48  73 101 144 181 233 294 346 417
#     4  12  23  45  74 104 137 186 236 290 353 405
#     4  11  23  44  67 100 140 185 223 279 359 407
#     4  12  22  42  74 104 132 182 234 290 340 406
#     4  11  27  45  66 103 148 183 223 293 353 423
#     4  12  26  44  70 108 140 181 240 286 353 412
#     4  12  23  45  74 101 140 185 235 291 337 415
#
# _framework density 22.807009999999998
#
# number of rings (size 3 to 8) (size 9 to 14) (size 15 to 20)
#    0.000    0.308    6.154    2.308    0.000    2.462 
#    8.308    5.385    0.000    0.000    0.000    0.000 
#    0.000    0.000    0.000    0.000    0.000    0.000 
#
# Total GULP energy -72515.549502 kJ/mol
# GULP energy per Si atom -5578.119192 kJ/mol
# Density = 2.275510 g / cm^3
# Si number density = 22.807010 Si / 1000 Ang^3
#
#
#
# Elastic Constant Matrix: (Units=GPa)
#
#
# Indices 1 2 3 4 5 6 
#
# 1 62.4781 36.8346 22.1221 -7.3477 -2.0693 -13.3781
# 2 36.8346 158.9392 39.4667 3.1702 2.9192 -28.8318
# 3 22.1221 39.4667 82.5057 2.5194 -14.8180 -2.6984
# 4 -7.3477 3.1702 2.5194 32.7746 2.8619 -4.4296
# 5 -2.0693 2.9192 -14.8180 2.8619 23.0130 3.5795
# 6 -13.3781 -28.8318 -2.6984 -4.4296 3.5795 42.7939
#
#
#
# Elastic Compliance Matrix: (Units=1/GPa)
#
#
# Indices 1 2 3 4 5 6 
#
# 1 0.021158 -0.002851 -0.004762 0.006304 -0.002402 0.005247
# 2 -0.002851 0.009091 -0.004309 -0.000022 -0.005018 0.005379
# 3 -0.004762 -0.004309 0.017703 -0.003761 0.012721 -0.004729
# 4 0.006304 -0.000022 -0.003761 0.033602 -0.006930 0.005776
# 5 -0.002402 -0.005018 0.012721 -0.006930 0.054262 -0.008586
# 6 0.005247 0.005379 -0.004729 0.005776 -0.008586 0.029650
#
#
# Mechanical properties :
#
#
# Convention : Reuss Voigt Hill
#
# Bulk Modulus (GPa) = 41.47819 55.64107 48.55963
# Shear Modulus (GPa) = 25.33645 33.41628 29.37637
#
# Velocity S-wave (km/s) = 3.33664 3.83191 3.59282
# Velocity P-wave (km/s) = 5.75068 6.63532 6.20878
#
# Compressibility (1/GPa) = 0.02410906
#
# Stress axis : x y z
#
# Youngs Moduli (GPa) = 47.26439 110.00208 56.48760
#
# Poissons Ratio (x) = 0.31360 0.26897
# Poissons Ratio (y) = 0.13474 0.24339
# Poissons Ratio (z) = 0.22505 0.47397
#
# Static dielectric constant tensor:
#      x y z
#    x 1.885740 0.002520 -0.036160 
#    y 0.002520 1.883410 0.025860 
#    z -0.036160 0.025860 1.822840 
# 
# From -- ./inp_files/257927.got.cif
#   From: 2010.05.17/outbox.cif.g08.bks.cpg/sg2_129_cif.got.tgz:257927.got - 2010.06.03 11:33:40.
