data_PCOD9060271
_publ_section_title
;
Structure prediction by ZEFSAII (Michael W. Deem and Ramdas Pophale) SiO2 
 PCOD9060271
Probable space group: P -1
;
_chemical_formula_sum "Si O2"
_cell_formula_units_Z 16
_cell_length_a 9.842090
_cell_length_b 9.248621
_cell_length_c 21.034521
_cell_angle_alpha 61.092202
_cell_angle_beta 130.932350
_cell_angle_gamma 78.724753
_cell_volume 800.974187
_symmetry_space_group_name_H-M "P -1"
_symmetry_group_IT_number 2
_symmetry_cell_setting 'triclinic'
loop_
_space_group_symop_operation_xyz
x,y,z
-x,-y,-z
loop_
_atom_site_type_symbol
_atom_site_label
_atom_site_fract_x
_atom_site_fract_y
_atom_site_fract_z
Si Si1 0.531436 0.710983 0.246194
Si Si2 0.752107 0.408281 0.759789
Si Si3 0.368766 0.931130 0.008205
Si Si4 0.992132 0.486375 0.101868
Si Si5 0.902632 0.882019 0.487115
Si Si6 0.587850 0.914548 0.779090
Si Si7 0.698213 0.467187 0.114375
Si Si8 0.300897 0.987138 0.462744
O O1 0.332196 0.700706 0.208326
O O2 0.436390 0.864897 0.118336
O O3 0.836831 0.416210 0.389664
O O4 0.531971 0.837102 0.278018
O O5 0.839636 0.478004 0.825954
O O6 0.490720 0.685427 0.585384
O O7 0.026421 0.184616 0.847058
O O8 0.508789 0.674887 0.069655
O O9 0.500000 0.000000 0.000000
O O10 0.812621 0.537039 0.092417
O O11 0.212977 0.203365 0.196706
O O12 0.781751 0.693986 0.938671
O O13 0.785100 0.911723 0.512872
O O14 0.658271 0.034021 0.328211
O O15 0.000000 0.000000 0.500000
O O16 0.998667 0.179686 0.293087
O O17 0.500000 0.500000 0.000000
O O18 0.500000 0.000000 0.500000
#
# Coordination Sequence:
#
# PCOD9060271 Si02
#       8
#     2   2   2   2   2   2   2   2
#     4  12  25  41  71 103 139 179 232 296 348 416
#     4  12  24  44  70 104 136 186 235 280 359 418
#     4  12  24  46  68 102 139 183 228 288 355 418
#     4  11  23  43  68  99 136 186 229 290 344 425
#     4  12  24  44  69  99 136 185 231 291 349 422
#     4  11  24  41  68 101 140 171 234 293 351 406
#     4  12  27  43  72 103 136 183 239 289 349 416
#     4  12  23  47  73  98 138 188 233 279 353 425
#
# _framework density 19.975673
#
# number of rings (size 3 to 8) (size 9 to 14) (size 15 to 20)
#    0.000    0.250    7.500    0.750    3.500    1.000 
#    0.000    0.625    0.000    0.000    0.000    0.000 
#    0.000    0.000    0.000    0.000    0.000    0.000 
#
# Total GULP energy -89392.868832 kJ/mol
# GULP energy per Si atom -5587.054302 kJ/mol
# Density = 1.993021 g / cm^3
# Si number density = 19.975673 Si / 1000 Ang^3
#
#
#
# Elastic Constant Matrix: (Units=GPa)
#
#
# Indices 1 2 3 4 5 6 
#
# 1 119.0394 41.7915 25.2040 -2.1870 13.4574 -2.7644
# 2 41.7915 132.0190 48.0078 0.3400 18.8757 -5.7313
# 3 25.2040 48.0078 141.1161 -1.4066 15.6609 0.8927
# 4 -2.1870 0.3400 -1.4066 46.1758 -8.0398 13.5922
# 5 13.4574 18.8757 15.6609 -8.0398 28.3958 -8.1031
# 6 -2.7644 -5.7313 0.8927 13.5922 -8.1031 33.7733
#
#
#
# Elastic Compliance Matrix: (Units=1/GPa)
#
#
# Indices 1 2 3 4 5 6 
#
# 1 0.009695 -0.002485 -0.000586 0.000078 -0.002679 -0.000287
# 2 -0.002485 0.009902 -0.002491 -0.001297 -0.004089 0.001084
# 3 -0.000586 -0.002491 0.008391 0.000149 -0.003077 -0.001491
# 4 0.000078 -0.001297 0.000149 0.025282 0.005299 -0.009121
# 5 -0.002679 -0.004089 -0.003077 0.005299 0.044610 0.007739
# 6 -0.000287 0.001084 -0.001491 -0.009121 0.007739 0.035337
#
#
# Mechanical properties :
#
#
# Convention : Reuss Voigt Hill
#
# Bulk Modulus (GPa) = 59.30081 69.13125 64.21603
# Shear Modulus (GPa) = 33.34175 40.14705 36.74440
#
# Velocity S-wave (km/s) = 4.08992 4.48794 4.29354
# Velocity P-wave (km/s) = 7.21486 7.84464 7.53633
#
# Compressibility (1/GPa) = 0.01686318
#
# Stress axis : x y z
#
# Youngs Moduli (GPa) = 103.14720 100.98729 119.17691
#
# Poissons Ratio (x) = 0.25100 0.06985
# Poissons Ratio (y) = 0.25637 0.29685
# Poissons Ratio (z) = 0.06045 0.25155
#
# Static dielectric constant tensor:
#      x y z
#    x 1.720940 0.000420 -0.009790 
#    y 0.000420 1.698180 -0.020360 
#    z -0.009790 -0.020360 1.748400 
# 
# From -- ./inp_files/262777.got.cif
#   From: 2010.05.17/outbox.cif.g08.bks.cpg/sg2_132_cif.got.tgz:262777.got - 2010.06.03 11:33:40.
