data_PCOD9060880
_publ_section_title
;
Structure prediction by ZEFSAII (Michael W. Deem and Ramdas Pophale) SiO2 
 PCOD9060880
Probable space group: P -1
;
_chemical_formula_sum "Si O2"
_cell_formula_units_Z 16
_cell_length_a 6.559613
_cell_length_b 12.485065
_cell_length_c 11.093086
_cell_angle_alpha 69.060986
_cell_angle_beta 112.367846
_cell_angle_gamma 121.388106
_cell_volume 702.461371
_symmetry_space_group_name_H-M "P -1"
_symmetry_group_IT_number 2
_symmetry_cell_setting 'triclinic'
loop_
_space_group_symop_operation_xyz
x,y,z
-x,-y,-z
loop_
_atom_site_type_symbol
_atom_site_label
_atom_site_fract_x
_atom_site_fract_y
_atom_site_fract_z
Si Si1 0.859020 0.337843 0.751534
Si Si2 0.491661 0.371632 0.491238
Si Si3 0.979020 0.119831 0.510326
Si Si4 0.197155 0.501608 0.136273
Si Si5 0.598069 0.435860 0.211306
Si Si6 0.950695 0.100351 0.798341
Si Si7 0.773935 0.250593 0.227868
Si Si8 0.416139 0.091077 0.020594
O O1 0.129998 0.451575 0.778726
O O2 0.720769 0.350651 0.598065
O O3 0.716711 0.372230 0.812893
O O4 0.890522 0.210158 0.799245
O O5 0.500000 0.500000 0.500000
O O6 0.243166 0.245631 0.516750
O O7 0.532288 0.398037 0.349797
O O8 0.911874 0.093457 0.647688
O O9 0.799008 0.156834 0.371507
O O10 0.000000 0.000000 0.500000
O O11 0.407848 0.489839 0.112365
O O12 0.044692 0.371029 0.230137
O O13 0.000000 0.500000 0.000000
O O14 0.593592 0.312279 0.198275
O O15 0.756607 0.975151 0.874892
O O16 0.229935 0.124716 0.883732
O O17 0.672002 0.190373 0.099322
O O18 0.500000 0.000000 0.000000
#
# Coordination Sequence:
#
# PCOD9060880 Si02
#       8
#     2   2   2   2   2   2   2   2
#     4  11  25  41  71 105 134 185 243 294 357 435
#     4  12  22  44  74 101 145 189 234 299 366 429
#     4  12  27  47  76 110 150 195 246 307 374 433
#     4  11  26  42  71 105 145 187 235 298 369 433
#     4  11  23  44  69 104 143 183 232 299 363 431
#     4  11  28  47  72 107 140 190 249 298 359 441
#     4  11  26  46  73 105 144 189 241 299 367 439
#     4  11  28  49  73  99 144 193 242 300 364 435
#
# _framework density 22.777051
#
# number of rings (size 3 to 8) (size 9 to 14) (size 15 to 20)
#    0.000    0.750    2.500    3.375   10.500    2.500 
#    0.000    0.000    0.000    0.000    0.000    0.000 
#    0.000    0.000    0.000    0.000    0.000    0.000 
#
# Total GULP energy -89449.893776 kJ/mol
# GULP energy per Si atom -5590.618361 kJ/mol
# Density = 2.272521 g / cm^3
# Si number density = 22.777051 Si / 1000 Ang^3
#
#
#
# Elastic Constant Matrix: (Units=GPa)
#
#
# Indices 1 2 3 4 5 6 
#
# 1 106.9382 39.5745 26.3498 -2.3796 19.8415 -25.9739
# 2 39.5745 124.9590 23.4075 11.3888 0.8575 -28.9030
# 3 26.3498 23.4075 115.4663 -3.7554 13.1682 -16.1489
# 4 -2.3796 11.3888 -3.7554 33.0246 -5.6647 -5.4810
# 5 19.8415 0.8575 13.1682 -5.6647 62.9426 -4.6749
# 6 -25.9739 -28.9030 -16.1489 -5.4810 -4.6749 46.6951
#
#
#
# Elastic Compliance Matrix: (Units=1/GPa)
#
#
# Indices 1 2 3 4 5 6 
#
# 1 0.012439 -0.002786 -0.001198 0.001968 -0.003106 0.004700
# 2 -0.002786 0.010331 -0.001081 -0.003014 0.001006 0.004218
# 3 -0.001198 -0.001081 0.009640 0.001492 -0.001339 0.002039
# 4 0.001968 -0.003014 0.001492 0.032664 0.002331 0.003812
# 5 -0.003106 0.001006 -0.001339 0.002331 0.017376 0.000445
# 6 0.004700 0.004218 0.002039 0.003812 0.000445 0.027838
#
#
# Mechanical properties :
#
#
# Convention : Reuss Voigt Hill
#
# Bulk Modulus (GPa) = 44.88604 58.44744 51.66674
# Shear Modulus (GPa) = 39.10997 45.73458 42.42228
#
# Velocity S-wave (km/s) = 4.14826 4.48585 4.32035
# Velocity P-wave (km/s) = 6.53403 7.24892 6.90074
#
# Compressibility (1/GPa) = 0.02227864
#
# Stress axis : x y z
#
# Youngs Moduli (GPa) = 80.39065 96.79757 103.73964
#
# Poissons Ratio (x) = 0.26967 0.12431
# Poissons Ratio (y) = 0.22396 0.11218
# Poissons Ratio (z) = 0.09633 0.10467
#
# Static dielectric constant tensor:
#      x y z
#    x 1.842350 0.055610 -0.012240 
#    y 0.055610 1.781460 -0.016020 
#    z -0.012240 -0.016020 1.889760 
# 
# From -- ./inp_files/364151.got.cif
#   From: 2010.05.17/outbox.cif.g08.bks.cpg/sg2_183_cif.got.tgz:364151.got - 2010.06.03 11:33:40.
