data_PCOD9060689
_publ_section_title
;
Structure prediction by ZEFSAII (Michael W. Deem and Ramdas Pophale) SiO2 
 PCOD9060689
Probable space group: P -1
;
_chemical_formula_sum "Si O2"
_cell_formula_units_Z 14
_cell_length_a 8.061099
_cell_length_b 17.015444
_cell_length_c 8.749866
_cell_angle_alpha 50.367634
_cell_angle_beta 69.810043
_cell_angle_gamma 107.979385
_cell_volume 591.413025
_symmetry_space_group_name_H-M "P -1"
_symmetry_group_IT_number 2
_symmetry_cell_setting 'triclinic'
loop_
_space_group_symop_operation_xyz
x,y,z
-x,-y,-z
loop_
_atom_site_type_symbol
_atom_site_label
_atom_site_fract_x
_atom_site_fract_y
_atom_site_fract_z
Si Si1 0.415749 0.189630 0.191164
Si Si2 0.104163 0.039024 0.185492
Si Si3 0.237920 0.542490 0.448457
Si Si4 0.843624 0.717193 0.270618
Si Si5 0.662682 0.013193 0.059354
Si Si6 0.255364 0.732198 0.747987
Si Si7 0.305395 0.555755 0.749553
O O1 0.283705 0.081645 0.219082
O O2 0.647133 0.229643 0.155543
O O3 0.533137 0.339721 0.890266
O O4 0.187472 0.108845 0.485980
O O5 0.121283 0.167548 0.988446
O O6 0.194537 0.021244 0.026162
O O7 0.203268 0.407724 0.645367
O O8 0.285489 0.603148 0.529782
O O9 0.000000 0.500000 0.500000
O O10 0.588181 0.625793 0.568664
O O11 0.108133 0.821645 0.151313
O O12 0.458257 0.888885 0.403011
O O13 0.500000 0.000000 0.000000
O O14 0.289160 0.631854 0.793976
O O15 0.952187 0.623712 0.944107
#
# Coordination Sequence:
#
# PCOD9060689 Si02
#       7
#     2   2   2   2   2   2   2
#     4  11  23  43  76 103 141 185 232 295 351 408
#     4  11  24  47  73 104 141 182 240 290 348 420
#     4  12  26  45  71 103 143 186 235 289 351 418
#     4  12  25  44  77  98 142 189 234 286 353 412
#     4  12  27  46  72 104 141 190 232 289 351 421
#     4  11  23  44  73 103 144 184 231 292 348 412
#     4  11  24  43  72 100 141 185 228 289 348 414
#
# _framework density 23.67212
#
# number of rings (size 3 to 8) (size 9 to 14) (size 15 to 20)
#    0.000    0.571    5.714    1.714    4.000    1.143 
#    2.571    4.286    0.000    0.000    0.000    0.000 
#    0.000    0.000    0.000    0.000    0.000    0.000 
#
# Total GULP energy -78310.277532 kJ/mol
# GULP energy per Si atom -5593.591252 kJ/mol
# Density = 2.361824 g / cm^3
# Si number density = 23.672120 Si / 1000 Ang^3
#
#
#
# Elastic Constant Matrix: (Units=GPa)
#
#
# Indices 1 2 3 4 5 6 
#
# 1 61.3175 20.9503 28.4181 -5.3032 -17.4905 14.1547
# 2 20.9503 51.4721 24.0414 -2.7356 -3.8335 14.2201
# 3 28.4181 24.0414 154.9024 6.6846 -32.0299 -6.5505
# 4 -5.3032 -2.7356 6.6846 31.5321 11.6336 -6.5305
# 5 -17.4905 -3.8335 -32.0299 11.6336 42.9970 -7.1386
# 6 14.1547 14.2201 -6.5505 -6.5305 -7.1386 45.1101
#
#
#
# Elastic Compliance Matrix: (Units=1/GPa)
#
#
# Indices 1 2 3 4 5 6 
#
# 1 0.022201 -0.006469 -0.001994 0.000461 0.006151 -0.004177
# 2 -0.006469 0.025837 -0.004379 0.002611 -0.005499 -0.007243
# 3 -0.001994 -0.004379 0.009491 -0.004799 0.007819 0.003927
# 4 0.000461 0.002611 -0.004799 0.038281 -0.013216 0.001786
# 5 0.006151 -0.005499 0.007819 -0.013216 0.035439 0.004634
# 6 -0.004177 -0.007243 0.003927 0.001786 0.004634 0.027324
#
#
# Mechanical properties :
#
#
# Convention : Reuss Voigt Hill
#
# Bulk Modulus (GPa) = 31.40142 46.05683 38.72913
# Shear Modulus (GPa) = 25.65801 36.87999 31.26900
#
# Velocity S-wave (km/s) = 3.29582 3.95137 3.63839
# Velocity P-wave (km/s) = 5.27041 6.34950 5.83495
#
# Compressibility (1/GPa) = 0.03184569
#
# Stress axis : x y z
#
# Youngs Moduli (GPa) = 45.04242 38.70489 105.36251
#
# Poissons Ratio (x) = 0.25037 0.21005
# Poissons Ratio (y) = 0.29137 0.46140
# Poissons Ratio (z) = 0.08980 0.16949
#
# Static dielectric constant tensor:
#      x y z
#    x 1.897480 0.012190 -0.052520 
#    y 0.012190 1.876900 -0.002580 
#    z -0.052520 -0.002580 1.926900 
# 
# From -- ./inp_files/216702.got.cif
#   From: 2010.05.17/outbox.cif.g08.bks.cpg/sg2_109_cif.got.tgz:216702.got - 2010.06.03 11:33:40.
