data_PCOD9060043
_publ_section_title
;
Structure prediction by ZEFSAII (Michael W. Deem and Ramdas Pophale) SiO2 
 PCOD9060043
Probable space group: P -1
;
_chemical_formula_sum "Si O2"
_cell_formula_units_Z 8
_cell_length_a 7.198097
_cell_length_b 7.108464
_cell_length_c 10.021669
_cell_angle_alpha 135.843229
_cell_angle_beta 72.409773
_cell_angle_gamma 119.593852
_cell_volume 309.466242
_symmetry_space_group_name_H-M "P -1"
_symmetry_group_IT_number 2
_symmetry_cell_setting 'triclinic'
loop_
_space_group_symop_operation_xyz
x,y,z
-x,-y,-z
loop_
_atom_site_type_symbol
_atom_site_label
_atom_site_fract_x
_atom_site_fract_y
_atom_site_fract_z
Si Si1 0.814296 0.689369 0.426861
Si Si2 0.716768 0.463971 0.904266
Si Si3 0.177793 0.832993 0.024882
Si Si4 0.658520 0.511508 0.655763
O O1 0.809005 0.605964 0.541560
O O2 0.580802 0.679324 0.438650
O O3 0.817194 0.415111 0.202184
O O4 0.000000 0.000000 0.500000
O O5 0.748930 0.235346 0.882372
O O6 0.717553 0.378030 0.705531
O O7 0.500000 0.500000 0.000000
O O8 0.926561 0.767238 0.045000
O O9 0.321872 0.169869 0.130377
#
# Coordination Sequence:
#
# PCOD9060043 Si02
#       4
#     2   2   2   2
#     4  11  24  45  71 105 142 177 237 289 335 419
#     4  11  23  42  74 107 136 181 235 285 341 415
#     4  11  24  47  73 100 141 185 229 285 348 410
#     4  11  25  46  73 102 141 185 229 288 346 407
#
# _framework density 25.850963
#
# number of rings (size 3 to 8) (size 9 to 14) (size 15 to 20)
#    0.000    1.000    2.500    4.500    0.000    1.000 
#    0.000   13.750    0.000    0.000    0.000    0.000 
#    0.000    0.000    0.000    0.000    0.000    0.000 
#
# Total GULP energy -44861.586089 kJ/mol
# GULP energy per Si atom -5607.698261 kJ/mol
# Density = 2.579213 g / cm^3
# Si number density = 25.850963 Si / 1000 Ang^3
#
#
#
# Elastic Constant Matrix: (Units=GPa)
#
#
# Indices 1 2 3 4 5 6 
#
# 1 167.7543 73.0966 33.7849 -23.3551 32.2513 5.7007
# 2 73.0966 174.2749 80.5636 -16.3871 15.1229 7.2718
# 3 33.7849 80.5636 153.7939 -11.6648 17.2855 -12.7507
# 4 -23.3551 -16.3871 -11.6648 61.8051 -6.4575 20.2187
# 5 32.2513 15.1229 17.2855 -6.4575 27.2584 -9.9872
# 6 5.7007 7.2718 -12.7507 20.2187 -9.9872 56.7781
#
#
#
# Elastic Compliance Matrix: (Units=1/GPa)
#
#
# Indices 1 2 3 4 5 6 
#
# 1 0.009763 -0.003003 0.000585 0.002997 -0.010803 -0.003432
# 2 -0.003003 0.009123 -0.004283 0.001254 0.000717 -0.002149
# 3 0.000585 -0.004283 0.009154 -0.000204 -0.003432 0.002015
# 4 0.002997 0.001254 -0.000204 0.019992 -0.002320 -0.008035
# 5 -0.010803 0.000717 -0.003432 -0.002320 0.054600 0.010652
# 6 -0.003432 -0.002149 0.002015 -0.008035 0.010652 0.023420
#
#
# Mechanical properties :
#
#
# Convention : Reuss Voigt Hill
#
# Bulk Modulus (GPa) = 68.31014 96.74594 82.52804
# Shear Modulus (GPa) = 34.64238 49.72686 42.18462
#
# Velocity S-wave (km/s) = 3.66468 4.39064 4.04399
# Velocity P-wave (km/s) = 6.66247 7.95043 7.33478
#
# Compressibility (1/GPa) = 0.01463911
#
# Stress axis : x y z
#
# Youngs Moduli (GPa) = 102.43236 109.61554 109.23669
#
# Poissons Ratio (x) = 0.32916 -0.06396
# Poissons Ratio (y) = 0.30759 0.46785
# Poissons Ratio (z) = -0.05997 0.46947
#
# Static dielectric constant tensor:
#      x y z
#    x 2.039430 0.026800 -0.052990 
#    y 0.026800 2.002460 -0.058140 
#    z -0.052990 -0.058140 2.062290 
# 
# From -- ./inp_files/144221.got.cif
#   From: 2010.05.17/outbox.cif.g08.bks.cpg/sg2_73_cif.got.tgz:144221.got - 2010.06.03 11:33:40.
