data_PCOD9060545
_publ_section_title
;
Structure prediction by ZEFSAII (Michael W. Deem and Ramdas Pophale) SiO2 
 PCOD9060545
Probable space group: P -1
;
_chemical_formula_sum "Si O2"
_cell_formula_units_Z 14
_cell_length_a 14.558811
_cell_length_b 8.675156
_cell_length_c 14.350832
_cell_angle_alpha 147.910799
_cell_angle_beta 142.142843
_cell_angle_gamma 39.731227
_cell_volume 562.350063
_symmetry_space_group_name_H-M "P -1"
_symmetry_group_IT_number 2
_symmetry_cell_setting 'triclinic'
loop_
_space_group_symop_operation_xyz
x,y,z
-x,-y,-z
loop_
_atom_site_type_symbol
_atom_site_label
_atom_site_fract_x
_atom_site_fract_y
_atom_site_fract_z
Si Si1 0.857741 0.396691 0.608308
Si Si2 0.278586 0.348437 0.686973
Si Si3 0.539916 0.845353 0.555194
Si Si4 0.659593 0.561361 0.861435
Si Si5 0.129264 0.664318 0.919049
Si Si6 0.098575 0.885450 0.301938
Si Si7 0.241722 0.877038 0.795562
O O1 0.722582 0.723456 0.663382
O O2 0.848238 0.221951 0.605820
O O3 0.823624 0.215144 0.399831
O O4 0.025843 0.448245 0.757571
O O5 0.203231 0.548665 0.818440
O O6 0.315176 0.570229 0.753810
O O7 0.438561 0.062415 0.666037
O O8 0.149847 0.182090 0.468709
O O9 0.482170 0.544945 0.346055
O O10 0.500000 0.000000 0.500000
O O11 0.809032 0.381684 0.827208
O O12 0.717872 0.413637 0.932506
O O13 0.649774 0.911859 0.025300
O O14 0.000000 0.000000 0.000000
O O15 0.913790 0.951707 0.182755
#
# Coordination Sequence:
#
# PCOD9060545 Si02
#       7
#     2   2   2   2   2   2   2
#     4  12  25  44  76  99 146 183 238 290 356 423
#     4  11  25  43  75 101 146 189 235 283 362 424
#     4  11  25  52  70 102 144 195 228 288 361 431
#     4  11  26  43  72 103 147 177 240 292 350 418
#     4  12  25  44  73 111 136 186 243 299 341 417
#     4  11  23  43  72 107 135 187 239 292 350 414
#     4  12  22  42  70 109 136 183 235 298 345 413
#
# _framework density 24.895524000000002
#
# number of rings (size 3 to 8) (size 9 to 14) (size 15 to 20)
#    0.000    0.571    4.286    3.857    4.000    2.857 
#    0.000    4.286    0.000    0.000    0.000    0.000 
#    0.000    0.000    0.000    0.000    0.000    0.000 
#
# Total GULP energy -78414.348106 kJ/mol
# GULP energy per Si atom -5601.024865 kJ/mol
# Density = 2.483886 g / cm^3
# Si number density = 24.895524 Si / 1000 Ang^3
#
#
#
# Elastic Constant Matrix: (Units=GPa)
#
#
# Indices 1 2 3 4 5 6 
#
# 1 86.8906 30.1532 32.6565 13.1098 -6.8339 -19.3530
# 2 30.1532 75.8300 17.9715 6.5177 13.9832 -1.9665
# 3 32.6565 17.9715 96.1169 25.1618 -3.0204 9.5430
# 4 13.1098 6.5177 25.1618 33.1927 1.0490 13.1286
# 5 -6.8339 13.9832 -3.0204 1.0490 32.6252 0.1124
# 6 -19.3530 -1.9665 9.5430 13.1286 0.1124 37.7600
#
#
#
# Elastic Compliance Matrix: (Units=1/GPa)
#
#
# Indices 1 2 3 4 5 6 
#
# 1 0.021180 -0.007521 -0.004523 -0.009599 0.007498 0.014922
# 2 -0.007521 0.017973 -0.001308 0.002022 -0.009453 -0.003263
# 3 -0.004523 -0.001308 0.014577 -0.007703 0.001222 -0.003396
# 4 -0.009599 0.002022 -0.007703 0.047129 -0.005039 -0.019239
# 5 0.007498 -0.009453 0.001222 -0.005039 0.036533 0.004685
# 6 0.014922 -0.003263 -0.003396 -0.019239 0.004685 0.041494
#
#
# Mechanical properties :
#
#
# Convention : Reuss Voigt Hill
#
# Bulk Modulus (GPa) = 36.99994 46.71110 41.85552
# Shear Modulus (GPa) = 23.29947 32.58600 27.94274
#
# Velocity S-wave (km/s) = 3.06255 3.62181 3.35386
# Velocity P-wave (km/s) = 5.23450 6.02442 5.64330
#
# Compressibility (1/GPa) = 0.02702707
#
# Stress axis : x y z
#
# Youngs Moduli (GPa) = 47.21441 55.63999 68.60058
#
# Poissons Ratio (x) = 0.41846 0.31027
# Poissons Ratio (y) = 0.35509 0.08970
# Poissons Ratio (z) = 0.21355 0.07275
#
# Static dielectric constant tensor:
#      x y z
#    x 1.954630 0.012690 -0.014580 
#    y 0.012690 2.002080 0.024790 
#    z -0.014580 0.024790 1.965840 
# 
# From -- ./inp_files/189722.got.cif
#   From: 2010.05.17/outbox.cif.g08.bks.cpg/sg2_95_cif.got.tgz:189722.got - 2010.06.03 11:33:40.
