data_PCOD9060882
_publ_section_title
;
Structure prediction by ZEFSAII (Michael W. Deem and Ramdas Pophale) SiO2 
 PCOD9060882
Probable space group: P -1
;
_chemical_formula_sum "Si O2"
_cell_formula_units_Z 16
_cell_length_a 12.680699
_cell_length_b 5.461222
_cell_length_c 18.282418
_cell_angle_alpha 79.084988
_cell_angle_beta 140.989734
_cell_angle_gamma 116.947211
_cell_volume 679.877241
_symmetry_space_group_name_H-M "P -1"
_symmetry_group_IT_number 2
_symmetry_cell_setting 'triclinic'
loop_
_space_group_symop_operation_xyz
x,y,z
-x,-y,-z
loop_
_atom_site_type_symbol
_atom_site_label
_atom_site_fract_x
_atom_site_fract_y
_atom_site_fract_z
Si Si1 0.017005 0.358762 0.442484
Si Si2 0.299764 0.326285 0.362743
Si Si3 0.300658 0.277095 0.197322
Si Si4 0.394418 0.284134 0.888958
Si Si5 0.673301 0.726147 0.302183
Si Si6 0.909417 0.353013 0.693005
Si Si7 0.242713 0.774477 0.928358
Si Si8 0.886038 0.177496 0.984502
O O1 0.202146 0.322746 0.565353
O O2 0.059954 0.531232 0.380155
O O3 0.000000 0.500000 0.500000
O O4 0.812450 0.064411 0.343024
O O5 0.500000 0.500000 0.500000
O O6 0.355847 0.335323 0.307477
O O7 0.187432 0.495784 0.318315
O O8 0.197628 0.990133 0.346978
O O9 0.451941 0.570306 0.220404
O O10 0.068315 0.128009 0.090693
O O11 0.289162 0.030300 0.151112
O O12 0.338997 0.396783 0.780433
O O13 0.229488 0.997304 0.853136
O O14 0.500000 0.500000 0.000000
O O15 0.546942 0.186761 0.951115
O O16 0.109921 0.466444 0.837952
O O17 0.182907 0.823973 0.971732
O O18 0.000000 0.500000 0.000000
#
# Coordination Sequence:
#
# PCOD9060882 Si02
#       8
#     2   2   2   2   2   2   2   2
#     4  11  28  45  75 103 144 201 247 318 374 449
#     4  12  28  49  77 113 151 202 251 313 375 452
#     4  11  25  43  72 105 147 197 243 309 373 455
#     4  11  25  42  71 102 148 192 247 311 380 449
#     4  11  25  47  68 106 145 190 256 304 384 449
#     4  12  27  50  80 109 154 196 259 312 377 454
#     4  11  24  42  69 111 143 196 248 312 379 452
#     4  11  23  44  69 104 145 192 246 304 380 445
#
# _framework density 23.533660999999999
#
# number of rings (size 3 to 8) (size 9 to 14) (size 15 to 20)
#    0.000    0.750    2.500    3.375    8.750    4.000 
#    0.000    0.000    0.000    0.000    0.000    0.000 
#    0.000    0.000    0.000    0.000    0.000    0.000 
#
# Total GULP energy -89234.561154 kJ/mol
# GULP energy per Si atom -5577.160072 kJ/mol
# Density = 2.348010 g / cm^3
# Si number density = 23.533661 Si / 1000 Ang^3
#
#
#
# Elastic Constant Matrix: (Units=GPa)
#
#
# Indices 1 2 3 4 5 6 
#
# 1 134.3507 49.0746 45.1124 1.6197 -27.1586 28.9042
# 2 49.0746 80.9761 16.8737 15.9318 -17.0666 13.2544
# 3 45.1124 16.8737 128.5432 19.8347 -40.0407 6.5915
# 4 1.6197 15.9318 19.8347 38.2670 2.7193 -7.9614
# 5 -27.1586 -17.0666 -40.0407 2.7193 50.5058 -8.5740
# 6 28.9042 13.2544 6.5915 -7.9614 -8.5740 34.4090
#
#
#
# Elastic Compliance Matrix: (Units=1/GPa)
#
#
# Indices 1 2 3 4 5 6 
#
# 1 0.012286 -0.005946 -0.003307 0.002224 0.000718 -0.006703
# 2 -0.005946 0.019264 0.003202 -0.010685 0.005733 -0.004083
# 3 -0.003307 0.003202 0.013012 -0.008748 0.010009 -0.000478
# 4 0.002224 -0.010685 -0.008748 0.037844 -0.009643 0.010277
# 5 0.000718 0.005733 0.010009 -0.009643 0.030694 0.000688
# 6 -0.006703 -0.004083 -0.000478 0.010277 0.000688 0.038907
#
#
# Mechanical properties :
#
#
# Convention : Reuss Voigt Hill
#
# Bulk Modulus (GPa) = 30.80674 62.88793 46.84733
# Shear Modulus (GPa) = 28.58289 40.15699 34.36994
#
# Velocity S-wave (km/s) = 3.48883 4.13530 3.82574
# Velocity P-wave (km/s) = 5.41739 7.04141 6.28210
#
# Compressibility (1/GPa) = 0.03246043
#
# Stress axis : x y z
#
# Youngs Moduli (GPa) = 81.39453 51.90937 76.85160
#
# Poissons Ratio (x) = 0.30863 0.25415
# Poissons Ratio (y) = 0.48394 -0.24606
# Poissons Ratio (z) = 0.26918 -0.16620
#
# Static dielectric constant tensor:
#      x y z
#    x 1.536300 0.093730 -0.020370 
#    y 0.093730 1.880640 0.052810 
#    z -0.020370 0.052810 1.942780 
# 
# From -- ./inp_files/364217.got.cif
#   From: 2010.05.17/outbox.cif.g08.bks.cpg/sg2_183_cif.got.tgz:364217.got - 2010.06.03 11:33:40.
