data_PCOD9060421
_publ_section_title
;
Structure prediction by ZEFSAII (Michael W. Deem and Ramdas Pophale) SiO2 
 PCOD9060421
Probable space group: P -1
;
_chemical_formula_sum "Si O2"
_cell_formula_units_Z 16
_cell_length_a 9.863371
_cell_length_b 13.531429
_cell_length_c 11.411945
_cell_angle_alpha 110.870207
_cell_angle_beta 38.352185
_cell_angle_gamma 90.119232
_cell_volume 775.518788
_symmetry_space_group_name_H-M "P -1"
_symmetry_group_IT_number 2
_symmetry_cell_setting 'triclinic'
loop_
_space_group_symop_operation_xyz
x,y,z
-x,-y,-z
loop_
_atom_site_type_symbol
_atom_site_label
_atom_site_fract_x
_atom_site_fract_y
_atom_site_fract_z
Si Si1 0.977566 0.788205 0.521746
Si Si2 0.686990 0.551308 0.421292
Si Si3 0.521183 0.971796 0.775004
Si Si4 0.441470 0.202792 0.524934
Si Si5 0.974246 0.154300 0.221831
Si Si6 0.456113 0.782258 0.115229
Si Si7 0.844445 0.696335 0.004505
Si Si8 0.193207 0.387129 0.394792
O O1 0.700454 0.892128 0.723668
O O2 0.967068 0.666427 0.455944
O O3 0.050368 0.791646 0.608638
O O4 0.181847 0.798402 0.309145
O O5 0.500000 0.500000 0.500000
O O6 0.625519 0.672601 0.444440
O O7 0.675107 0.577728 0.578842
O O8 0.958267 0.441186 0.163987
O O9 0.595806 0.887604 0.574395
O O10 0.558267 0.089189 0.797043
O O11 0.223838 0.025876 0.008462
O O12 0.728988 0.148761 0.347505
O O13 0.271929 0.233174 0.767604
O O14 0.029781 0.237656 0.128621
O O15 0.622245 0.702470 0.077225
O O16 0.610432 0.715361 0.867258
O O17 0.000000 0.500000 0.500000
#
# Coordination Sequence:
#
# PCOD9060421 Si02
#       8
#     2   2   2   2   2   2   2   2
#     4  12  23  46  70 101 138 181 230 286 344 398
#     4  12  25  46  73 102 139 181 228 286 345 413
#     4  11  25  45  69 104 139 179 236 286 336 412
#     4  12  25  45  69 101 142 185 226 282 351 405
#     4  11  23  43  70  97 137 187 222 282 345 406
#     4  11  25  44  73 102 139 183 229 285 343 407
#     4  11  23  45  66  99 139 179 228 281 339 408
#     4  12  25  47  73 103 140 178 232 284 341 412
#
# _framework density 20.631349
#
# number of rings (size 3 to 8) (size 9 to 14) (size 15 to 20)
#    0.000    0.500    7.500    1.500    0.000    3.500 
#    4.500    0.000    0.000    0.000    0.000    0.000 
#    0.000    0.000    0.000    0.000    0.000    0.000 
#
# Total GULP energy -89436.379095 kJ/mol
# GULP energy per Si atom -5589.773693 kJ/mol
# Density = 2.058439 g / cm^3
# Si number density = 20.631349 Si / 1000 Ang^3
#
#
#
# Elastic Constant Matrix: (Units=GPa)
#
#
# Indices 1 2 3 4 5 6 
#
# 1 136.0373 55.4731 46.8654 2.6405 7.2900 12.7088
# 2 55.4731 85.5950 53.1059 10.3345 -12.4094 10.4833
# 3 46.8654 53.1059 109.3831 3.8171 4.8855 5.9911
# 4 2.6405 10.3345 3.8171 17.5024 -7.5309 6.3297
# 5 7.2900 -12.4094 4.8855 -7.5309 41.9710 17.1377
# 6 12.7088 10.4833 5.9911 6.3297 17.1377 30.2017
#
#
#
# Elastic Compliance Matrix: (Units=1/GPa)
#
#
# Indices 1 2 3 4 5 6 
#
# 1 0.010725 -0.006873 -0.001138 0.001285 -0.003443 -0.000218
# 2 -0.006873 0.025858 -0.009547 -0.001402 0.014694 -0.012234
# 3 -0.001138 -0.009547 0.014357 -0.002180 -0.006846 0.005286
# 4 0.001285 -0.001402 -0.002180 0.081789 0.027510 -0.032374
# 5 -0.003443 0.014694 -0.006846 0.027510 0.049190 -0.035972
# 6 -0.000218 -0.012234 0.005286 -0.032374 -0.035972 0.063597
#
#
# Mechanical properties :
#
#
# Convention : Reuss Voigt Hill
#
# Bulk Modulus (GPa) = 63.18785 71.32268 67.25527
# Shear Modulus (GPa) = 17.48820 29.63976 23.56398
#
# Velocity S-wave (km/s) = 2.91460 3.79441 3.38323
# Velocity P-wave (km/s) = 6.48230 7.33770 6.92322
#
# Compressibility (1/GPa) = 0.01582583
#
# Stress axis : x y z
#
# Youngs Moduli (GPa) = 93.23725 38.67219 69.65251
#
# Poissons Ratio (x) = 0.26579 0.07924
# Poissons Ratio (y) = 0.64080 0.66497
# Poissons Ratio (z) = 0.10607 0.36920
#
# Static dielectric constant tensor:
#      x y z
#    x 1.800980 0.006490 -0.061790 
#    y 0.006490 1.745360 -0.009850 
#    z -0.061790 -0.009850 1.796390 
# 
# From -- ./inp_files/399378.got.cif
#   From: 2010.05.17/outbox.cif.g08.bks.cpg/sg2_200_cif.got.tgz:399378.got - 2010.06.03 11:33:40.
