data_PCOD9060137
_publ_section_title
;
Structure prediction by ZEFSAII (Michael W. Deem and Ramdas Pophale) SiO2 
 PCOD9060137
Probable space group: P -1
;
_chemical_formula_sum "Si O2"
_cell_formula_units_Z 12
_cell_length_a 18.418667
_cell_length_b 5.265656
_cell_length_c 5.024105
_cell_angle_alpha 88.544167
_cell_angle_beta 79.566778
_cell_angle_gamma 93.376714
_cell_volume 478.058458
_symmetry_space_group_name_H-M "P -1"
_symmetry_group_IT_number 2
_symmetry_cell_setting 'triclinic'
loop_
_space_group_symop_operation_xyz
x,y,z
-x,-y,-z
loop_
_atom_site_type_symbol
_atom_site_label
_atom_site_fract_x
_atom_site_fract_y
_atom_site_fract_z
Si Si1 0.579779 0.119428 0.377177
Si Si2 0.417722 0.576267 0.129753
Si Si3 0.734126 0.017595 0.331091
Si Si4 0.739935 0.553503 0.980545
Si Si5 0.155930 0.745441 0.369370
Si Si6 0.949810 0.237945 0.056727
O O1 0.586934 0.368417 0.555680
O O2 0.500000 0.000000 0.500000
O O3 0.413935 0.829190 0.941734
O O4 0.646867 0.959602 0.428979
O O5 0.342265 0.424802 0.086188
O O6 0.500000 0.500000 0.000000
O O7 0.778032 0.062092 0.573088
O O8 0.762123 0.790932 0.144801
O O9 0.738494 0.290607 0.164454
O O10 0.800774 0.505690 0.717162
O O11 0.110352 0.794358 0.135444
O O12 0.096132 0.743093 0.642659
O O13 0.000000 0.500000 0.000000
O O14 0.000000 0.000000 0.000000
#
# Coordination Sequence:
#
# PCOD9060137 Si02
#       6
#     2   2   2   2   2   2
#     4  11  23  43  66 104 147 199 253 311 366 430
#     4  11  23  43  66 104 147 199 253 311 366 430
#     4  11  26  47  75 112 150 200 254 307 370 436
#     4  11  26  47  75 112 150 200 254 307 370 436
#     4  12  26  54  80 114 155 194 249 310 366 460
#     4  12  30  52  82 114 151 194 241 304 386 456
#
# _framework density 25.101534000000001
#
# number of rings (size 3 to 8) (size 9 to 14) (size 15 to 20)
#    0.000    0.667    3.333    3.000    2.333    6.667 
#    0.000    0.000    0.000    0.000    0.000    0.000 
#    0.000    0.000    0.000    0.000    0.000    0.000 
#
# Total GULP energy -67213.701900 kJ/mol
# GULP energy per Si atom -5601.141825 kJ/mol
# Density = 2.504440 g / cm^3
# Si number density = 25.101534 Si / 1000 Ang^3
#
#
#
# Elastic Constant Matrix: (Units=GPa)
#
#
# Indices 1 2 3 4 5 6 
#
# 1 192.5202 52.3180 44.0763 24.4609 -5.9860 -10.6696
# 2 52.3180 125.3282 41.4709 28.6640 9.1278 -13.8258
# 3 44.0763 41.4709 125.1684 34.2446 -16.6079 -22.0472
# 4 24.4609 28.6640 34.2446 53.9624 -0.1938 -5.1592
# 5 -5.9860 9.1278 -16.6079 -0.1938 57.3515 9.9490
# 6 -10.6696 -13.8258 -22.0472 -5.1592 9.9490 27.9472
#
#
#
# Elastic Compliance Matrix: (Units=1/GPa)
#
#
# Indices 1 2 3 4 5 6 
#
# 1 0.006147 -0.002001 -0.001138 -0.000994 0.000617 0.000056
# 2 -0.002001 0.010785 -0.001693 -0.003405 -0.003069 0.003700
# 3 -0.001138 -0.001693 0.011885 -0.005526 0.002499 0.006195
# 4 -0.000994 -0.003405 -0.005526 0.024133 -0.000788 -0.001688
# 5 0.000617 -0.003069 0.002499 -0.000788 0.019841 -0.006520
# 6 0.000056 0.003700 0.006195 -0.001688 -0.006520 0.044530
#
#
# Mechanical properties :
#
#
# Convention : Reuss Voigt Hill
#
# Bulk Modulus (GPa) = 52.20750 79.86078 66.03414
# Shear Modulus (GPa) = 37.48976 48.19566 42.84271
#
# Velocity S-wave (km/s) = 3.86881 4.38657 4.13580
# Velocity P-wave (km/s) = 6.38753 7.58552 7.01216
#
# Compressibility (1/GPa) = 0.01915433
#
# Stress axis : x y z
#
# Youngs Moduli (GPa) = 162.67685 92.72241 84.13690
#
# Poissons Ratio (x) = 0.18554 0.09574
# Poissons Ratio (y) = 0.32553 0.14240
# Poissons Ratio (z) = 0.18512 0.15693
#
# Static dielectric constant tensor:
#      x y z
#    x 1.976810 -0.007040 -0.023930 
#    y -0.007040 2.050370 -0.044780 
#    z -0.023930 -0.044780 1.994250 
# 
# From -- ./inp_files/102621.got.cif
#   From: 2010.05.17/outbox.cif.g08.bks.cpg/sg2_52_cif.got.tgz:102621.got - 2010.06.03 11:33:40.
