data_PCOD9060724
_publ_section_title
;
Structure prediction by ZEFSAII (Michael W. Deem and Ramdas Pophale) SiO2 
 PCOD9060724
Probable space group: P -1
;
_chemical_formula_sum "Si O2"
_cell_formula_units_Z 16
_cell_length_a 10.934128
_cell_length_b 24.612326
_cell_length_c 5.419667
_cell_angle_alpha 115.761467
_cell_angle_beta 54.436694
_cell_angle_gamma 145.668646
_cell_volume 665.815320
_symmetry_space_group_name_H-M "P -1"
_symmetry_group_IT_number 2
_symmetry_cell_setting 'triclinic'
loop_
_space_group_symop_operation_xyz
x,y,z
-x,-y,-z
loop_
_atom_site_type_symbol
_atom_site_label
_atom_site_fract_x
_atom_site_fract_y
_atom_site_fract_z
Si Si1 0.964467 0.213608 0.818369
Si Si2 0.985094 0.548543 0.297321
Si Si3 0.363967 0.395677 0.042689
Si Si4 0.105175 0.710504 0.321090
Si Si5 0.733611 0.849945 0.439863
Si Si6 0.012595 0.903981 0.709430
Si Si7 0.521426 0.114861 0.408206
Si Si8 0.388911 0.630404 0.331383
O O1 0.894617 0.255400 0.864944
O O2 0.996480 0.169923 0.499225
O O3 0.213511 0.307236 0.847465
O O4 0.721973 0.129429 0.102102
O O5 0.083673 0.633468 0.188074
O O6 0.167831 0.596548 0.402639
O O7 0.717316 0.455629 0.534638
O O8 0.000000 0.500000 0.000000
O O9 0.494745 0.382507 0.016842
O O10 0.500000 0.500000 0.000000
O O11 0.143653 0.350414 0.374653
O O12 0.329762 0.801560 0.398094
O O13 0.594145 0.869448 0.602838
O O14 0.556416 0.736383 0.440526
O O15 0.885945 0.896956 0.607799
O O16 0.888567 0.883726 0.074147
O O17 0.292134 0.009983 0.587689
#
# Coordination Sequence:
#
# PCOD9060724 Si02
#       8
#     2   2   2   2   2   2   2   2
#     4  11  27  44  73 102 145 196 245 302 369 437
#     4  11  26  40  68 103 139 191 238 294 365 433
#     4  11  23  44  64  98 139 185 238 293 357 430
#     4  11  25  44  67 103 140 190 242 298 363 433
#     4  12  27  48  78 110 149 189 249 305 372 434
#     4  12  28  50  76 111 145 196 248 305 375 434
#     4  11  27  47  74 104 148 190 245 310 364 440
#     4  11  24  44  68  97 142 182 240 292 361 428
#
# _framework density 24.030688999999999
#
# number of rings (size 3 to 8) (size 9 to 14) (size 15 to 20)
#    0.000    0.750    3.750    1.875   10.500    2.000 
#    0.000    0.000    0.000    0.000    0.000    0.000 
#    0.000    0.000    0.000    0.000    0.000    0.000 
#
# Total GULP energy -89284.258207 kJ/mol
# GULP energy per Si atom -5580.266138 kJ/mol
# Density = 2.397599 g / cm^3
# Si number density = 24.030689 Si / 1000 Ang^3
#
#
#
# Elastic Constant Matrix: (Units=GPa)
#
#
# Indices 1 2 3 4 5 6 
#
# 1 40.6235 -13.8275 7.2346 -18.5769 -4.3056 -6.3361
# 2 -13.8275 83.7389 41.3542 -31.9169 -11.6044 2.9845
# 3 7.2346 41.3542 56.9811 -2.0854 -1.9251 2.6882
# 4 -18.5769 -31.9169 -2.0854 30.0994 -4.3851 -15.0359
# 5 -4.3056 -11.6044 -1.9251 -4.3851 30.5530 3.5008
# 6 -6.3361 2.9845 2.6882 -15.0359 3.5008 29.0422
#
#
#
# Elastic Compliance Matrix: (Units=1/GPa)
#
#
# Indices 1 2 3 4 5 6 
#
# 1 -0.002967 -0.020666 0.014581 -0.031753 -0.010177 -0.015086
# 2 -0.020666 -0.006451 0.006880 -0.029616 -0.007006 -0.018971
# 3 0.014581 0.006880 0.011232 0.024849 0.007406 0.013406
# 4 -0.031753 -0.029616 0.024849 -0.027669 -0.016000 -0.018581
# 5 -0.010177 -0.007006 0.007406 -0.016000 0.028397 -0.013892
# 6 -0.015086 -0.018971 0.013406 -0.018581 -0.013892 0.023905
#
#
# Mechanical properties :
#
#
# Convention : Reuss Voigt Hill
#
# Bulk Modulus (GPa) = 293.70692 27.87401 160.79046
# Shear Modulus (GPa) = 192.36543 27.71106 110.03825
#
# Velocity S-wave (km/s) = 8.95677 3.39949 6.77422
# Velocity P-wave (km/s) = 15.14767 5.19935 11.32442
#
# Compressibility (1/GPa) = 0.00340475
#
# Stress axis : x y z
#
# Youngs Moduli (GPa) = -337.08402 -155.01462 89.02855
#
# Poissons Ratio (x) = -3.20349 -1.29809
# Poissons Ratio (y) = -6.96608 -0.61252
# Poissons Ratio (z) = 4.91490 1.06651
#
# Static dielectric constant tensor:
#      x y z
#    x 2.594670 -0.045500 0.053800 
#    y -0.045500 1.740380 0.055660 
#    z 0.053800 0.055660 1.699430 
# 
# From -- ./inp_files/47486.got.cif
#   From: 2010.05.17/outbox.cif.g08.bks.cpg/sg2_24_cif.got.tgz:47486.got - 2010.06.03 11:33:40.
