data_PCOD9060412
_publ_section_title
;
Structure prediction by ZEFSAII (Michael W. Deem and Ramdas Pophale) SiO2 
 PCOD9060412
Probable space group: P -1
;
_chemical_formula_sum "Si O2"
_cell_formula_units_Z 15
_cell_length_a 26.806727
_cell_length_b 11.843743
_cell_length_c 6.836648
_cell_angle_alpha 54.499319
_cell_angle_beta 45.185889
_cell_angle_gamma 27.758635
_cell_volume 711.065217
_symmetry_space_group_name_H-M "P -1"
_symmetry_group_IT_number 2
_symmetry_cell_setting 'triclinic'
loop_
_space_group_symop_operation_xyz
x,y,z
-x,-y,-z
loop_
_atom_site_type_symbol
_atom_site_label
_atom_site_fract_x
_atom_site_fract_y
_atom_site_fract_z
Si Si1 0.562408 0.528497 0.686926
Si Si2 0.702605 0.945861 0.649299
Si Si3 0.170285 0.370955 0.763354
Si Si4 0.842252 0.143499 0.339515
Si Si5 0.500000 0.500000 0.500000
Si Si6 0.008124 0.891338 0.777450
Si Si7 0.604662 0.944294 0.276911
Si Si8 0.115107 0.231585 0.363207
O O1 0.696713 0.356829 0.562863
O O2 0.571044 0.474715 0.492629
O O3 0.464245 0.807847 0.706230
O O4 0.500000 0.500000 0.000000
O O5 0.791228 0.733248 0.455928
O O6 0.777510 0.923149 0.615820
O O7 0.593620 0.211853 0.584186
O O8 0.654180 0.901648 0.967901
O O9 0.055169 0.662223 0.816371
O O10 0.283123 0.262975 0.675233
O O11 0.150720 0.257889 0.045016
O O12 0.894755 0.189603 0.264237
O O13 0.906324 0.895815 0.482261
O O14 0.882996 0.089697 0.053766
O O15 0.000000 0.000000 0.500000
O O16 0.500000 0.000000 0.500000
O O17 0.000000 0.500000 0.500000
#
# Coordination Sequence:
#
# PCOD9060412 Si02
#       8
#     2   2   2   2   1   2   2   2
#     4  12  23  44  70 100 138 174 226 283 343 405
#     4  11  25  41  70  99 137 174 225 283 336 408
#     4  11  24  44  67  99 133 174 223 281 334 401
#     4  11  25  46  68 100 136 183 223 284 340 411
#     4  12  22  42  66 104 134 172 228 280 344 406
#     4  11  27  46  68  98 139 183 230 276 343 412
#     4  11  24  43  66  95 134 180 218 272 337 401
#     4  11  23  43  70  96 129 172 225 278 340 394
#
# _framework density 21.095109999999998
#
# number of rings (size 3 to 8) (size 9 to 14) (size 15 to 20)
#    0.000    0.800    5.333    1.600    1.867    5.333 
#    2.400    0.000    0.000    0.000    0.000    0.000 
#    0.000    0.000    0.000    0.000    0.000    0.000 
#
# Total GULP energy -83569.610739 kJ/mol
# GULP energy per Si atom -5571.307383 kJ/mol
# Density = 2.104710 g / cm^3
# Si number density = 21.095110 Si / 1000 Ang^3
#
#
#
# Elastic Constant Matrix: (Units=GPa)
#
#
# Indices 1 2 3 4 5 6 
#
# 1 37.8031 -4.1356 27.3092 -0.5138 1.2946 15.9919
# 2 -4.1356 67.3610 4.5081 -0.7724 13.0174 3.5708
# 3 27.3092 4.5081 95.2775 11.4644 7.4971 8.3944
# 4 -0.5138 -0.7724 11.4644 30.3255 1.8489 -3.5475
# 5 1.2946 13.0174 7.4971 1.8489 34.3014 9.0192
# 6 15.9919 3.5708 8.3944 -3.5475 9.0192 34.4661
#
#
#
# Elastic Compliance Matrix: (Units=1/GPa)
#
#
# Indices 1 2 3 4 5 6 
#
# 1 0.042733 0.003582 -0.011475 0.002768 0.004175 -0.018212
# 2 0.003582 0.016353 -0.001368 0.001180 -0.005738 -0.001400
# 3 -0.011475 -0.001368 0.014505 -0.005325 -0.002465 0.002030
# 4 0.002768 0.001180 -0.005325 0.035704 -0.002417 0.004198
# 5 0.004175 -0.005738 -0.002465 -0.002417 0.034475 -0.010013
# 6 -0.018212 -0.001400 0.002030 0.004198 -0.010013 0.040167
#
#
# Mechanical properties :
#
#
# Convention : Reuss Voigt Hill
#
# Bulk Modulus (GPa) = 18.15863 28.42278 23.29070
# Shear Modulus (GPa) = 22.64325 31.33593 26.98959
#
# Velocity S-wave (km/s) = 3.27982 3.85835 3.58078
# Velocity P-wave (km/s) = 4.79266 5.77512 5.30667
#
# Compressibility (1/GPa) = 0.05507023
#
# Stress axis : x y z
#
# Youngs Moduli (GPa) = 23.40100 61.14935 68.94025
#
# Poissons Ratio (x) = -0.21903 0.79110
# Poissons Ratio (y) = -0.08382 0.09428
# Poissons Ratio (z) = 0.26853 0.08363
#
# Static dielectric constant tensor:
#      x y z
#    x 1.715650 -0.018400 -0.000220 
#    y -0.018400 1.777210 0.009580 
#    z -0.000220 0.009580 1.770160 
# 
# From -- ./inp_files/126848.got.cif
#   From: 2010.05.17/outbox.cif.g08.bks.cpg/sg2_64_cif.got.tgz:126848.got - 2010.06.03 11:33:40.
