data_PCOD9060471
_publ_section_title
;
Structure prediction by ZEFSAII (Michael W. Deem and Ramdas Pophale) SiO2 
 PCOD9060471
Probable space group: P -1
;
_chemical_formula_sum "Si O2"
_cell_formula_units_Z 16
_cell_length_a 17.475790
_cell_length_b 11.903836
_cell_length_c 9.284579
_cell_angle_alpha 79.919390
_cell_angle_beta 41.029639
_cell_angle_gamma 47.801306
_cell_volume 686.923684
_symmetry_space_group_name_H-M "P -1"
_symmetry_group_IT_number 2
_symmetry_cell_setting 'triclinic'
loop_
_space_group_symop_operation_xyz
x,y,z
-x,-y,-z
loop_
_atom_site_type_symbol
_atom_site_label
_atom_site_fract_x
_atom_site_fract_y
_atom_site_fract_z
Si Si1 0.270758 0.314098 0.305312
Si Si2 0.406657 0.665898 0.708728
Si Si3 0.050473 0.229262 0.314243
Si Si4 0.624854 0.050171 0.348759
Si Si5 0.673550 0.395039 0.663668
Si Si6 0.756329 0.716485 0.333481
Si Si7 0.738764 0.949928 0.648512
Si Si8 0.043312 0.024920 0.779494
O O1 0.065232 0.559439 0.519227
O O2 0.309898 0.292717 0.425793
O O3 0.236077 0.207658 0.355227
O O4 0.484720 0.177759 0.951179
O O5 0.500000 0.500000 0.500000
O O6 0.373978 0.817354 0.652537
O O7 0.558204 0.551337 0.657834
O O8 0.172204 0.811589 0.042976
O O9 0.860694 0.310845 0.495662
O O10 0.170641 0.084298 0.316304
O O11 0.223379 0.098418 0.971213
O O12 0.386773 0.211920 0.608444
O O13 0.701310 0.894885 0.389280
O O14 0.775357 0.198073 0.499144
O O15 0.500000 0.500000 0.000000
O O16 0.000000 0.500000 0.000000
O O17 0.876599 0.911121 0.350110
O O18 0.000000 0.000000 0.000000
#
# Coordination Sequence:
#
# PCOD9060471 Si02
#       8
#     2   2   2   2   2   2   2   2
#     4  11  24  45  72 105 147 190 241 302 382 434
#     4  12  27  48  72 107 151 191 248 309 375 446
#     4  12  23  45  71 104 149 189 247 303 369 444
#     4  11  25  41  70 107 142 187 247 300 367 446
#     4  12  27  44  77 108 145 196 252 310 374 445
#     4  11  23  43  71 105 141 187 238 306 365 439
#     4  11  27  45  72 105 149 190 246 306 369 456
#     4  12  27  50  74 107 149 198 250 311 380 448
#
# _framework density 23.292254
#
# number of rings (size 3 to 8) (size 9 to 14) (size 15 to 20)
#    0.000    0.500    5.000    2.625    3.500    2.000 
#    0.000    0.000    0.000    0.000    0.000    0.000 
#    0.000    0.000    0.000    0.000    0.000    0.000 
#
# Total GULP energy -89543.055771 kJ/mol
# GULP energy per Si atom -5596.440986 kJ/mol
# Density = 2.323924 g / cm^3
# Si number density = 23.292254 Si / 1000 Ang^3
#
#
#
# Elastic Constant Matrix: (Units=GPa)
#
#
# Indices 1 2 3 4 5 6 
#
# 1 107.0589 27.1565 29.1410 -1.7893 -27.3739 3.5698
# 2 27.1565 92.2742 31.6984 9.3328 -16.6960 8.4257
# 3 29.1410 31.6984 113.1790 10.6743 -24.4644 8.6958
# 4 -1.7893 9.3328 10.6743 43.2863 2.7448 -0.1261
# 5 -27.3739 -16.6960 -24.4644 2.7448 41.2147 -3.1940
# 6 3.5698 8.4257 8.6958 -0.1261 -3.1940 44.2214
#
#
#
# Elastic Compliance Matrix: (Units=1/GPa)
#
#
# Indices 1 2 3 4 5 6 
#
# 1 0.011789 -0.002019 -0.001206 0.000824 0.006251 0.000124
# 2 -0.002019 0.013085 -0.002191 -0.002540 0.002696 -0.001712
# 3 -0.001206 -0.002191 0.011201 -0.002663 0.005035 -0.001332
# 4 0.000824 -0.002540 -0.002663 0.024573 -0.003641 0.000748
# 5 0.006251 0.002696 0.005035 -0.003641 0.032765 0.000348
# 6 0.000124 -0.001712 -0.001332 0.000748 0.000348 0.023219
#
#
# Mechanical properties :
#
#
# Convention : Reuss Voigt Hill
#
# Bulk Modulus (GPa) = 39.61403 54.27821 46.94612
# Shear Modulus (GPa) = 36.79736 40.71223 38.75480
#
# Velocity S-wave (km/s) = 3.97900 4.18531 4.08346
# Velocity P-wave (km/s) = 6.17691 6.83443 6.51397
#
# Compressibility (1/GPa) = 0.02524358
#
# Stress axis : x y z
#
# Youngs Moduli (GPa) = 84.82503 76.42247 89.27397
#
# Poissons Ratio (x) = 0.15428 0.10766
# Poissons Ratio (y) = 0.17125 0.19562
# Poissons Ratio (z) = 0.10230 0.16746
#
# Static dielectric constant tensor:
#      x y z
#    x 1.927840 -0.009460 0.011360 
#    y -0.009460 1.914680 -0.002740 
#    z 0.011360 -0.002740 1.843490 
# 
# From -- ./inp_files/333197.got.cif
#   From: 2010.05.17/outbox.cif.g08.bks.cpg/sg2_167_cif.got.tgz:333197.got - 2010.06.03 11:33:40.
