data_PCOD9060429
_publ_section_title
;
Structure prediction by ZEFSAII (Michael W. Deem and Ramdas Pophale) SiO2 
 PCOD9060429
Probable space group: P -1
;
_chemical_formula_sum "Si O2"
_cell_formula_units_Z 14
_cell_length_a 13.828382
_cell_length_b 21.344049
_cell_length_c 7.007666
_cell_angle_alpha 93.983234
_cell_angle_beta 80.062445
_cell_angle_gamma 23.522907
_cell_volume 662.845647
_symmetry_space_group_name_H-M "P -1"
_symmetry_group_IT_number 2
_symmetry_cell_setting 'triclinic'
loop_
_space_group_symop_operation_xyz
x,y,z
-x,-y,-z
loop_
_atom_site_type_symbol
_atom_site_label
_atom_site_fract_x
_atom_site_fract_y
_atom_site_fract_z
Si Si1 0.500146 0.602438 0.945738
Si Si2 0.474848 0.310058 0.717204
Si Si3 0.996595 0.195262 0.718635
Si Si4 0.453226 0.995700 0.718154
Si Si5 0.848080 0.142445 0.220602
Si Si6 0.330576 0.934941 0.207315
Si Si7 0.830353 0.727554 0.855192
O O1 0.779140 0.386912 0.825315
O O2 0.430421 0.661989 0.764036
O O3 0.538889 0.638588 0.077644
O O4 0.207137 0.741028 0.146113
O O5 0.733073 0.180044 0.461675
O O6 0.539120 0.200568 0.737393
O O7 0.163186 0.505820 0.750552
O O8 0.252090 0.056284 0.756352
O O9 0.152098 0.089286 0.441138
O O10 0.500000 0.000000 0.500000
O O11 0.760531 0.791876 0.677501
O O12 0.269974 0.153824 0.950210
O O13 0.091048 0.048236 0.171084
O O14 0.000000 0.000000 0.000000
O O15 0.598612 0.811180 0.993762
#
# Coordination Sequence:
#
# PCOD9060429 Si02
#       7
#     2   2   2   2   2   2   2
#     4  11  24  43  69 102 136 174 228 286 335 396
#     4  12  25  45  69 101 140 175 228 280 333 404
#     4  11  23  43  70  99 136 177 222 288 334 391
#     4  11  23  44  69  95 142 175 223 278 337 398
#     4  12  25  44  72  97 135 182 226 276 346 394
#     4  12  24  46  70 100 140 180 227 274 337 412
#     4  11  26  42  70 103 133 183 223 274 341 401
#
# _framework density 21.121055999999999
#
# number of rings (size 3 to 8) (size 9 to 14) (size 15 to 20)
#    0.000    0.571    5.714    2.571    2.000    0.571 
#    0.000    1.429    0.000    0.000    0.000    0.000 
#    0.000    0.000    0.000    0.000    0.000    0.000 
#
# Total GULP energy -78370.438968 kJ/mol
# GULP energy per Si atom -5597.888498 kJ/mol
# Density = 2.107298 g / cm^3
# Si number density = 21.121056 Si / 1000 Ang^3
#
#
#
# Elastic Constant Matrix: (Units=GPa)
#
#
# Indices 1 2 3 4 5 6 
#
# 1 82.0950 11.3706 29.9626 -2.1937 1.5733 -27.8885
# 2 11.3706 109.2064 27.8040 -19.5653 5.2277 -23.9019
# 3 29.9626 27.8040 63.0594 -10.5342 0.4993 -6.1210
# 4 -2.1937 -19.5653 -10.5342 33.0736 2.3544 -1.4306
# 5 1.5733 5.2277 0.4993 2.3544 34.8481 -5.9545
# 6 -27.8885 -23.9019 -6.1210 -1.4306 -5.9545 36.7392
#
#
#
# Elastic Compliance Matrix: (Units=1/GPa)
#
#
# Indices 1 2 3 4 5 6 
#
# 1 0.021246 0.004403 -0.010096 0.001457 0.001434 0.017599
# 2 0.004403 0.014120 -0.005955 0.007306 -0.000726 0.011703
# 3 -0.010096 -0.005955 0.023015 0.002840 -0.000483 -0.007671
# 4 0.001457 0.007306 0.002840 0.036046 -0.002382 0.007350
# 5 0.001434 -0.000726 -0.000483 -0.002382 0.029809 0.005274
# 6 0.017599 0.011703 -0.007671 0.007350 0.005274 0.048055
#
#
# Mechanical properties :
#
#
# Convention : Reuss Voigt Hill
#
# Bulk Modulus (GPa) = 28.50380 43.62614 36.06497
# Shear Modulus (GPa) = 24.12174 33.28043 28.70108
#
# Velocity S-wave (km/s) = 3.38312 3.97381 3.69030
# Velocity P-wave (km/s) = 5.36520 6.46182 5.93887
#
# Compressibility (1/GPa) = 0.03508305
#
# Stress axis : x y z
#
# Youngs Moduli (GPa) = 47.06786 70.82240 43.45081
#
# Poissons Ratio (x) = -0.31180 0.43867
# Poissons Ratio (y) = -0.20722 0.25877
# Poissons Ratio (z) = 0.47519 0.42177
#
# Static dielectric constant tensor:
#      x y z
#    x 1.740680 -0.000010 -0.027870 
#    y -0.000010 1.768460 -0.015220 
#    z -0.027870 -0.015220 1.735830 
# 
# From -- ./inp_files/72074.got.cif
#   From: 2010.05.17/outbox.cif.g08.bks.cpg/sg2_37_cif.got.tgz:72074.got - 2010.06.03 11:33:40.
