data_PCOD9060954
_publ_section_title
;
Structure prediction by ZEFSAII (Michael W. Deem and Ramdas Pophale) SiO2 
 PCOD9060954
Probable space group: P -1
;
_chemical_formula_sum "Si O2"
_cell_formula_units_Z 12
_cell_length_a 14.362069
_cell_length_b 10.427908
_cell_length_c 9.024782
_cell_angle_alpha 111.506040
_cell_angle_beta 134.573999
_cell_angle_gamma 105.992803
_cell_volume 532.737604
_symmetry_space_group_name_H-M "P -1"
_symmetry_group_IT_number 2
_symmetry_cell_setting 'triclinic'
loop_
_space_group_symop_operation_xyz
x,y,z
-x,-y,-z
loop_
_atom_site_type_symbol
_atom_site_label
_atom_site_fract_x
_atom_site_fract_y
_atom_site_fract_z
Si Si1 0.470771 0.870011 0.277862
Si Si2 0.601684 0.774308 0.604199
Si Si3 0.090321 0.729600 0.240072
Si Si4 0.115868 0.690858 0.574719
Si Si5 0.037932 0.322181 0.322492
Si Si6 0.326179 0.487982 0.447398
O O1 0.443745 0.707251 0.275091
O O2 0.500000 0.000000 0.500000
O O3 0.703252 0.056695 0.536248
O O4 0.314182 0.801499 0.945545
O O5 0.511612 0.719849 0.649945
O O6 0.619054 0.626264 0.537547
O O7 0.839952 0.047319 0.962895
O O8 0.170853 0.804970 0.530527
O O9 0.000000 0.500000 0.000000
O O10 0.893322 0.666118 0.956984
O O11 0.991441 0.443867 0.283160
O O12 0.966801 0.662362 0.498448
O O13 0.250935 0.468478 0.521977
#
# Coordination Sequence:
#
# PCOD9060954 Si02
#       6
#     2   2   2   2   2   2
#     4  12  23  41  70  97 134 175 219 279 333 392
#     4  11  24  43  72  97 133 180 224 270 336 396
#     4  12  23  41  70  97 134 175 219 279 333 392
#     4  11  25  40  67 106 129 173 226 275 333 394
#     4  11  23  44  70  95 137 175 220 279 327 398
#     4  11  24  43  72  97 133 180 224 270 336 396
#
# _framework density 22.52516
#
# number of rings (size 3 to 8) (size 9 to 14) (size 15 to 20)
#    0.000    0.667    5.000    2.000    7.000    1.333 
#    0.000    4.167    0.000    0.000    0.000    0.000 
#    0.000    0.000    0.000    0.000    0.000    0.000 
#
# Total GULP energy -66869.027111 kJ/mol
# GULP energy per Si atom -5572.418926 kJ/mol
# Density = 2.247389 g / cm^3
# Si number density = 22.525160 Si / 1000 Ang^3
#
#
#
# Elastic Constant Matrix: (Units=GPa)
#
#
# Indices 1 2 3 4 5 6 
#
# 1 148.2871 70.2921 20.2459 -16.9008 -2.1183 39.2351
# 2 70.2921 140.1101 44.8869 -27.9292 -4.7683 23.7939
# 3 20.2459 44.8869 82.1686 -25.2083 -1.8552 -5.7503
# 4 -16.9008 -27.9292 -25.2083 38.5118 6.3082 9.7513
# 5 -2.1183 -4.7683 -1.8552 6.3082 29.2966 -4.4902
# 6 39.2351 23.7939 -5.7503 9.7513 -4.4902 51.8189
#
#
#
# Elastic Compliance Matrix: (Units=1/GPa)
#
#
# Indices 1 2 3 4 5 6 
#
# 1 0.010849 -0.003239 -0.000063 0.004659 -0.001942 -0.007779
# 2 -0.003239 0.012100 -0.004386 0.005760 -0.000506 -0.004718
# 3 -0.000063 -0.004386 0.017020 0.007448 -0.000865 0.002474
# 4 0.004659 0.005760 0.007448 0.042191 -0.009501 -0.014108
# 5 -0.001942 -0.000506 -0.000865 -0.009501 0.036912 0.006593
# 6 -0.007779 -0.004718 0.002474 -0.014108 0.006593 0.030855
#
#
# Mechanical properties :
#
#
# Convention : Reuss Voigt Hill
#
# Bulk Modulus (GPa) = 40.66261 71.26839 55.96550
# Shear Modulus (GPa) = 28.81830 39.60153 34.20992
#
# Velocity S-wave (km/s) = 3.58073 4.19752 3.90133
# Velocity P-wave (km/s) = 5.93184 7.42970 6.72262
#
# Compressibility (1/GPa) = 0.02459262
#
# Stress axis : x y z
#
# Youngs Moduli (GPa) = 92.17256 82.64743 58.75431
#
# Poissons Ratio (x) = 0.26771 0.00368
# Poissons Ratio (y) = 0.29857 0.25771
# Poissons Ratio (z) = 0.00577 0.36251
#
# Static dielectric constant tensor:
#      x y z
#    x 1.879630 0.022920 0.003110 
#    y 0.022920 1.936830 0.113120 
#    z 0.003110 0.113120 2.000120 
# 
# From -- ./inp_files/305610.got.cif
#   From: 2010.05.17/outbox.cif.g08.bks.cpg/sg2_153_cif.got.tgz:305610.got - 2010.06.03 11:33:40.
