data_PCOD9060403
_publ_section_title
;
Structure prediction by ZEFSAII (Michael W. Deem and Ramdas Pophale) SiO2 
 PCOD9060403
Probable space group: P -1
;
_chemical_formula_sum "Si O2"
_cell_formula_units_Z 16
_cell_length_a 22.244019
_cell_length_b 19.226409
_cell_length_c 13.126435
_cell_angle_alpha 152.465785
_cell_angle_beta 35.427506
_cell_angle_gamma 162.284175
_cell_volume 771.727930
_symmetry_space_group_name_H-M "P -1"
_symmetry_group_IT_number 2
_symmetry_cell_setting 'triclinic'
loop_
_space_group_symop_operation_xyz
x,y,z
-x,-y,-z
loop_
_atom_site_type_symbol
_atom_site_label
_atom_site_fract_x
_atom_site_fract_y
_atom_site_fract_z
Si Si1 0.040688 0.898508 0.751702
Si Si2 0.855498 0.644002 0.307636
Si Si3 0.323575 0.593518 0.537922
Si Si4 0.686925 0.270016 0.854715
Si Si5 0.283422 0.199846 0.356827
Si Si6 0.585013 0.871458 0.088427
Si Si7 0.511667 0.508683 0.119244
Si Si8 0.019740 0.481344 0.564158
O O1 0.051369 0.776349 0.657417
O O2 0.864115 0.636022 0.577750
O O3 0.255010 0.181433 0.769505
O O4 0.000000 0.000000 0.000000
O O5 0.756873 0.464324 0.314526
O O6 0.799738 0.751111 0.515904
O O7 0.755756 0.442547 0.085127
O O8 0.098359 0.924985 0.330360
O O9 0.396651 0.510918 0.323980
O O10 0.503359 0.927764 0.689537
O O11 0.611231 0.293483 0.903584
O O12 0.874742 0.407572 0.734128
O O13 0.500000 0.500000 0.500000
O O14 0.323002 0.122637 0.117638
O O15 0.555443 0.730827 0.046595
O O16 0.748945 0.203700 0.315629
O O17 0.500000 0.500000 0.000000
O O18 0.000000 0.500000 0.500000
#
# Coordination Sequence:
#
# PCOD9060403 Si02
#       8
#     2   2   2   2   2   2   2   2
#     4  12  27  47  72 105 141 185 241 286 358 432
#     4  11  25  43  72 103 144 186 238 290 354 423
#     4  12  26  45  70 105 146 188 234 297 356 418
#     4  12  26  48  71 103 144 187 241 292 357 423
#     4  11  23  43  70 108 139 181 237 291 349 422
#     4  12  26  45  75 104 142 190 234 290 357 422
#     4  12  26  45  71 104 144 185 236 292 352 426
#     4  12  28  47  72 104 141 185 238 297 354 423
#
# _framework density 20.732696000000001
#
# number of rings (size 3 to 8) (size 9 to 14) (size 15 to 20)
#    0.000    0.250    7.500    1.125    3.500    0.500 
#    0.000    1.250    0.000    0.000    0.000    0.000 
#    0.000    0.000    0.000    0.000    0.000    0.000 
#
# Total GULP energy -89501.366400 kJ/mol
# GULP energy per Si atom -5593.835400 kJ/mol
# Density = 2.068551 g / cm^3
# Si number density = 20.732696 Si / 1000 Ang^3
#
#
#
# Elastic Constant Matrix: (Units=GPa)
#
#
# Indices 1 2 3 4 5 6 
#
# 1 84.3740 33.7000 19.0856 -10.1323 -6.5417 -5.1878
# 2 33.7000 88.6220 -0.2199 16.7742 3.2015 -0.7607
# 3 19.0856 -0.2199 68.0064 -0.3315 -0.6705 -4.3661
# 4 -10.1323 16.7742 -0.3315 33.1192 2.7056 6.2487
# 5 -6.5417 3.2015 -0.6705 2.7056 43.0825 4.7958
# 6 -5.1878 -0.7607 -4.3661 6.2487 4.7958 35.5344
#
#
#
# Elastic Compliance Matrix: (Units=1/GPa)
#
#
# Indices 1 2 3 4 5 6 
#
# 1 0.017803 -0.008705 -0.004967 0.009634 0.002696 -0.000256
# 2 -0.008705 0.016828 0.002529 -0.011310 -0.002007 0.001660
# 3 -0.004967 0.002529 0.016210 -0.002945 -0.000720 0.001936
# 4 0.009634 -0.011310 -0.002945 0.039990 0.000446 -0.006290
# 5 0.002696 -0.002007 -0.000720 0.000446 0.024072 -0.003065
# 6 -0.000256 0.001660 0.001936 -0.006290 -0.003065 0.029898
#
#
# Mechanical properties :
#
#
# Convention : Reuss Voigt Hill
#
# Bulk Modulus (GPa) = 35.02181 38.45930 36.74056
# Shear Modulus (GPa) = 28.31186 34.90966 31.61076
#
# Velocity S-wave (km/s) = 3.69936 4.10786 3.90895
# Velocity P-wave (km/s) = 5.93092 6.41013 6.17517
#
# Compressibility (1/GPa) = 0.02855363
#
# Stress axis : x y z
#
# Youngs Moduli (GPa) = 56.17108 59.42498 61.69212
#
# Poissons Ratio (x) = 0.51730 0.30644
# Poissons Ratio (y) = 0.48898 -0.15603
# Poissons Ratio (z) = 0.27902 -0.15029
#
# Static dielectric constant tensor:
#      x y z
#    x 1.708220 0.009480 0.025560 
#    y 0.009480 1.742320 0.014930 
#    z 0.025560 0.014930 1.689600 
# 
# From -- ./inp_files/338105.got.cif
#   From: 2010.05.17/outbox.cif.g08.bks.cpg/sg2_170_cif.got.tgz:338105.got - 2010.06.03 11:33:40.
