data_PCOD9060934
_publ_section_title
;
Structure prediction by ZEFSAII (Michael W. Deem and Ramdas Pophale) SiO2 
 PCOD9060934
Probable space group: P -1
;
_chemical_formula_sum "Si O2"
_cell_formula_units_Z 14
_cell_length_a 19.102065
_cell_length_b 7.235855
_cell_length_c 11.602929
_cell_angle_alpha 58.481282
_cell_angle_beta 149.608335
_cell_angle_gamma 137.769930
_cell_volume 512.645486
_symmetry_space_group_name_H-M "P -1"
_symmetry_group_IT_number 2
_symmetry_cell_setting 'triclinic'
loop_
_space_group_symop_operation_xyz
x,y,z
-x,-y,-z
loop_
_atom_site_type_symbol
_atom_site_label
_atom_site_fract_x
_atom_site_fract_y
_atom_site_fract_z
Si Si1 0.365046 0.191547 0.345900
Si Si2 0.578884 0.601174 0.900384
Si Si3 0.516989 0.041677 0.248856
Si Si4 0.045976 0.340710 0.038047
Si Si5 0.834404 0.866722 0.546463
Si Si6 0.124925 0.526024 0.828951
Si Si7 0.148367 0.401655 0.567353
O O1 0.500000 0.500000 0.500000
O O2 0.367047 0.247495 0.196375
O O3 0.435606 0.031951 0.541051
O O4 0.152460 0.987047 0.153661
O O5 0.377037 0.271709 0.719893
O O6 0.543752 0.776667 0.871598
O O7 0.737310 0.621146 0.173735
O O8 0.709094 0.259475 0.381556
O O9 0.342653 0.745675 0.034941
O O10 0.174625 0.318029 0.302162
O O11 0.000000 0.500000 0.000000
O O12 0.122680 0.496008 0.974192
O O13 0.887168 0.784118 0.534692
O O14 0.990135 0.204002 0.690373
O O15 0.034966 0.665730 0.630142
#
# Coordination Sequence:
#
# PCOD9060934 Si02
#       7
#     2   2   2   2   2   2   2
#     4  12  24  43  71 108 138 182 240 293 349 421
#     4  11  25  47  70 101 145 190 229 295 358 419
#     4  11  23  47  74 102 139 189 239 287 356 424
#     4  12  21  41  71 104 142 183 237 299 346 413
#     4  11  23  44  70 103 141 187 238 294 351 419
#     4  12  24  44  74 107 141 189 235 297 356 413
#     4  11  26  51  69 103 151 185 236 292 355 432
#
# _framework density 27.309318999999999
#
# number of rings (size 3 to 8) (size 9 to 14) (size 15 to 20)
#    0.000    0.571    2.857    6.857    0.000    1.143 
#    5.143    2.857    0.000    0.000    0.000    0.000 
#    0.000    0.000    0.000    0.000    0.000    0.000 
#
# Total GULP energy -78747.752036 kJ/mol
# GULP energy per Si atom -5624.839431 kJ/mol
# Density = 2.724716 g / cm^3
# Si number density = 27.309319 Si / 1000 Ang^3
#
#
#
# Elastic Constant Matrix: (Units=GPa)
#
#
# Indices 1 2 3 4 5 6 
#
# 1 88.9197 25.5777 33.4489 -4.9526 -15.5585 -2.3479
# 2 25.5777 100.3159 53.4358 10.6966 -21.4758 -6.0831
# 3 33.4489 53.4358 175.0311 -8.1119 -8.1289 -0.2675
# 4 -4.9526 10.6966 -8.1119 70.7588 11.2907 -0.7892
# 5 -15.5585 -21.4758 -8.1289 11.2907 39.1327 0.0507
# 6 -2.3479 -6.0831 -0.2675 -0.7892 0.0507 40.9023
#
#
#
# Elastic Compliance Matrix: (Units=1/GPa)
#
#
# Indices 1 2 3 4 5 6 
#
# 1 0.013089 -0.001529 -0.001838 0.000321 0.003890 0.000513
# 2 -0.001529 0.014717 -0.004022 -0.004013 0.007789 0.001988
# 3 -0.001838 -0.004022 0.007278 0.001608 -0.001890 -0.000623
# 4 0.000321 -0.004013 0.001608 0.015956 -0.006344 -0.000252
# 5 0.003890 0.007789 -0.001890 -0.006344 0.032811 0.001206
# 6 0.000513 0.001988 -0.000623 -0.000252 0.001206 0.024763
#
#
# Mechanical properties :
#
#
# Convention : Reuss Voigt Hill
#
# Bulk Modulus (GPa) = 49.24559 65.46573 57.35566
# Shear Modulus (GPa) = 38.41396 46.94570 42.67983
#
# Velocity S-wave (km/s) = 3.75457 4.15062 3.95755
# Velocity P-wave (km/s) = 6.07185 6.85523 6.47540
#
# Compressibility (1/GPa) = 0.02030639
#
# Stress axis : x y z
#
# Youngs Moduli (GPa) = 76.39738 67.95086 137.39433
#
# Poissons Ratio (x) = 0.10386 0.25259
# Poissons Ratio (y) = 0.11677 0.55260
# Poissons Ratio (z) = 0.14045 0.27330
#
# Static dielectric constant tensor:
#      x y z
#    x 2.104210 0.001600 -0.005170 
#    y 0.001600 2.153130 0.016400 
#    z -0.005170 0.016400 2.080290 
# 
# From -- ./inp_files/291466.got.cif
#   From: 2010.05.17/outbox.cif.g08.bks.cpg/sg2_146_cif.got.tgz:291466.got - 2010.06.03 11:33:40.
