data_PCOD9060220
_publ_section_title
;
Structure prediction by ZEFSAII (Michael W. Deem and Ramdas Pophale) SiO2 
 PCOD9060220
Probable space group: P -1
;
_chemical_formula_sum "Si O2"
_cell_formula_units_Z 16
_cell_length_a 11.195897
_cell_length_b 11.388321
_cell_length_c 8.554964
_cell_angle_alpha 141.753450
_cell_angle_beta 75.272751
_cell_angle_gamma 96.806034
_cell_volume 647.033777
_symmetry_space_group_name_H-M "P -1"
_symmetry_group_IT_number 2
_symmetry_cell_setting 'triclinic'
loop_
_space_group_symop_operation_xyz
x,y,z
-x,-y,-z
loop_
_atom_site_type_symbol
_atom_site_label
_atom_site_fract_x
_atom_site_fract_y
_atom_site_fract_z
Si Si1 0.275020 0.159738 0.951560
Si Si2 0.079193 0.821753 0.197034
Si Si3 0.117157 0.437640 0.090155
Si Si4 0.757915 0.228394 0.623665
Si Si5 0.640606 0.997576 0.907937
Si Si6 0.251078 0.656612 0.741364
Si Si7 0.585246 0.496150 0.765756
Si Si8 0.684404 0.636913 0.330309
O O1 0.156816 0.312326 0.099868
O O2 0.260546 0.973249 0.656700
O O3 0.284830 0.084403 0.046914
O O4 0.391332 0.280880 0.003094
O O5 0.203650 0.791353 0.229309
O O6 0.997196 0.648019 0.039385
O O7 0.128781 0.808864 0.986893
O O8 0.000000 0.000000 0.500000
O O9 0.229520 0.390907 0.879025
O O10 0.124893 0.661096 0.357189
O O11 0.633578 0.370680 0.770212
O O12 0.671919 0.859084 0.608569
O O13 0.500000 0.000000 0.000000
O O14 0.646754 0.217009 0.103414
O O15 0.307762 0.588849 0.485354
O O16 0.247757 0.473726 0.659406
O O17 0.451468 0.434758 0.706059
#
# Coordination Sequence:
#
# PCOD9060220 Si02
#       8
#     2   2   2   2   2   2   2   2
#     4  11  23  43  68 100 144 176 229 286 343 414
#     4  12  25  49  74 100 137 184 244 292 336 413
#     4  11  26  46  72  98 135 191 236 283 346 404
#     4  11  23  45  70  98 144 181 229 289 349 410
#     4  12  23  42  69 102 144 183 224 280 346 419
#     4  12  24  43  73 103 136 187 232 283 350 407
#     4  11  24  45  69 107 142 178 229 284 355 421
#     4  12  24  45  72 104 144 184 231 284 346 424
#
# _framework density 24.72823
#
# number of rings (size 3 to 8) (size 9 to 14) (size 15 to 20)
#    0.000    0.500    6.250    2.250    0.000    2.000 
#    2.250    8.125    0.000    0.000    0.000    0.000 
#    0.000    0.000    0.000    0.000    0.000    0.000 
#
# Total GULP energy -89184.911628 kJ/mol
# GULP energy per Si atom -5574.056977 kJ/mol
# Density = 2.467195 g / cm^3
# Si number density = 24.728230 Si / 1000 Ang^3
#
#
#
# Elastic Constant Matrix: (Units=GPa)
#
#
# Indices 1 2 3 4 5 6 
#
# 1 81.9158 28.9567 40.9388 -10.7613 26.5413 7.3988
# 2 28.9567 76.7463 20.5682 1.9705 6.2089 -2.5834
# 3 40.9388 20.5682 150.3695 11.6709 24.0341 16.2800
# 4 -10.7613 1.9705 11.6709 50.3163 18.3683 5.5145
# 5 26.5413 6.2089 24.0341 18.3683 45.7471 5.6585
# 6 7.3988 -2.5834 16.2800 5.5145 5.6585 39.2507
#
#
#
# Elastic Compliance Matrix: (Units=1/GPa)
#
#
# Indices 1 2 3 4 5 6 
#
# 1 0.023109 -0.006953 -0.003555 0.011823 -0.014992 -0.002839
# 2 -0.006953 0.015781 -0.000830 -0.003440 0.003376 0.002690
# 3 -0.003555 -0.000830 0.008322 -0.001994 -0.001100 -0.002397
# 4 0.011823 -0.003440 -0.001994 0.029490 -0.016771 -0.003354
# 5 -0.014992 0.003376 -0.001100 -0.016771 0.037352 0.000476
# 6 -0.002839 0.002690 -0.002397 -0.003354 0.000476 0.027586
#
#
# Mechanical properties :
#
#
# Convention : Reuss Voigt Hill
#
# Bulk Modulus (GPa) = 40.75267 54.43991 47.59629
# Shear Modulus (GPa) = 28.98642 41.63401 35.31021
#
# Velocity S-wave (km/s) = 3.42745 4.10770 3.78290
# Velocity P-wave (km/s) = 5.67268 6.67538 6.19435
#
# Compressibility (1/GPa) = 0.02453827
#
# Stress axis : x y z
#
# Youngs Moduli (GPa) = 43.27278 63.36602 120.16886
#
# Poissons Ratio (x) = 0.44057 0.42715
# Poissons Ratio (y) = 0.30087 0.09969
# Poissons Ratio (z) = 0.15381 0.05257
#
# Static dielectric constant tensor:
#      x y z
#    x 1.947470 -0.080520 -0.065260 
#    y -0.080520 2.057740 -0.087950 
#    z -0.065260 -0.087950 1.996150 
# 
# From -- ./inp_files/260973.got.cif
#   From: 2010.05.17/outbox.cif.g08.bks.cpg/sg2_131_cif.got.tgz:260973.got - 2010.06.03 11:33:40.
