data_PCOD9060176
_publ_section_title
;
Structure prediction by ZEFSAII (Michael W. Deem and Ramdas Pophale) SiO2 
 PCOD9060176
Probable space group: P -1
;
_chemical_formula_sum "Si O2"
_cell_formula_units_Z 16
_cell_length_a 16.093749
_cell_length_b 14.868595
_cell_length_c 5.707656
_cell_angle_alpha 113.215634
_cell_angle_beta 57.284165
_cell_angle_gamma 140.455691
_cell_volume 730.968875
_symmetry_space_group_name_H-M "P -1"
_symmetry_group_IT_number 2
_symmetry_cell_setting 'triclinic'
loop_
_space_group_symop_operation_xyz
x,y,z
-x,-y,-z
loop_
_atom_site_type_symbol
_atom_site_label
_atom_site_fract_x
_atom_site_fract_y
_atom_site_fract_z
Si Si1 0.894560 0.953654 0.411381
Si Si2 0.142390 0.779044 0.658194
Si Si3 0.137351 0.657615 0.039988
Si Si4 0.371761 0.668939 0.636635
Si Si5 0.615231 0.495749 0.861602
Si Si6 0.078488 0.221015 0.114921
Si Si7 0.413226 0.205111 0.162183
Si Si8 0.429532 0.054141 0.647183
O O1 0.737022 0.851010 0.642849
O O2 0.895810 0.862359 0.143046
O O3 0.000000 0.000000 0.500000
O O4 0.959505 0.100446 0.360502
O O5 0.123594 0.704812 0.362297
O O6 0.003623 0.749778 0.861582
O O7 0.290743 0.945789 0.583418
O O8 0.165533 0.740840 0.839687
O O9 0.252198 0.653165 0.910246
O O10 0.000000 0.500000 0.000000
O O11 0.334329 0.533864 0.467983
O O12 0.509440 0.754244 0.671889
O O13 0.435945 0.782168 0.452896
O O14 0.764706 0.635922 0.889900
O O15 0.500000 0.500000 0.000000
O O16 0.522537 0.353530 0.009865
O O17 0.380305 0.074729 0.974519
O O18 0.500000 0.000000 0.500000
#
# Coordination Sequence:
#
# PCOD9060176 Si02
#       8
#     2   2   2   2   2   2   2   2
#     4  11  24  44  69 100 139 184 236 302 360 426
#     4  12  27  45  75 106 141 192 240 298 360 431
#     4  12  28  47  72 103 149 188 240 297 361 431
#     4  11  25  43  70  99 141 186 232 296 356 429
#     4  11  25  46  68 102 139 183 235 295 363 429
#     4  11  26  43  69 101 142 183 240 295 363 430
#     4  11  25  42  71 100 140 183 237 295 355 431
#     4  11  23  43  67 101 140 181 235 290 355 417
#
# _framework density 21.888756999999998
#
# number of rings (size 3 to 8) (size 9 to 14) (size 15 to 20)
#    0.000    0.750    1.250    4.875    8.750    8.000 
#    0.000    0.000    0.000    0.000    0.000    0.000 
#    0.000    0.000    0.000    0.000    0.000    0.000 
#
# Total GULP energy -89134.424165 kJ/mol
# GULP energy per Si atom -5570.901510 kJ/mol
# Density = 2.183894 g / cm^3
# Si number density = 21.888757 Si / 1000 Ang^3
#
#
#
# Elastic Constant Matrix: (Units=GPa)
#
#
# Indices 1 2 3 4 5 6 
#
# 1 89.1468 29.0306 15.5773 23.6600 -22.4288 15.0792
# 2 29.0306 129.8864 38.6825 22.5470 -10.8932 26.4977
# 3 15.5773 38.6825 70.1353 20.7068 -9.6572 -1.2576
# 4 23.6600 22.5470 20.7068 29.3016 1.6307 -0.9379
# 5 -22.4288 -10.8932 -9.6572 1.6307 35.3829 -4.2726
# 6 15.0792 26.4977 -1.2576 -0.9379 -4.2726 47.8522
#
#
#
# Elastic Compliance Matrix: (Units=1/GPa)
#
#
# Indices 1 2 3 4 5 6 
#
# 1 0.020294 0.000325 0.002950 -0.019680 0.013996 -0.005633
# 2 0.000325 0.011552 -0.004396 -0.006369 0.002065 -0.006555
# 3 0.002950 -0.004396 0.021327 -0.014398 0.007295 0.002434
# 4 -0.019680 -0.006369 -0.014398 0.066511 -0.020364 0.008836
# 5 0.013996 0.002065 0.007295 -0.020364 0.040440 -0.002150
# 6 -0.005633 -0.006555 0.002434 0.008836 -0.002150 0.026348
#
#
# Mechanical properties :
#
#
# Convention : Reuss Voigt Hill
#
# Bulk Modulus (GPa) = 19.63493 50.63881 35.13687
# Shear Modulus (GPa) = 24.30847 36.23255 30.27051
#
# Velocity S-wave (km/s) = 3.33610 4.07296 3.72280
# Velocity P-wave (km/s) = 4.88152 6.73079 5.87932
#
# Compressibility (1/GPa) = 0.05092964
#
# Stress axis : x y z
#
# Youngs Moduli (GPa) = 49.27671 86.56702 46.88950
#
# Poissons Ratio (x) = -0.02814 -0.13833
# Poissons Ratio (y) = -0.01602 0.20614
# Poissons Ratio (z) = -0.14537 0.38057
#
# Static dielectric constant tensor:
#      x y z
#    x 1.816950 -0.075320 0.036300 
#    y -0.075320 1.833930 -0.131150 
#    z 0.036300 -0.131150 1.964250 
# 
# From -- ./inp_files/98262.got.cif
#   From: 2010.05.17/outbox.cif.g08.bks.cpg/sg2_50_cif.got.tgz:98262.got - 2010.06.03 11:33:40.
