data_PCOD9060347
_publ_section_title
;
Structure prediction by ZEFSAII (Michael W. Deem and Ramdas Pophale) SiO2 
 PCOD9060347
Probable space group: P -1
;
_chemical_formula_sum "Si O2"
_cell_formula_units_Z 16
_cell_length_a 15.375191
_cell_length_b 12.063826
_cell_length_c 7.202393
_cell_angle_alpha 105.645276
_cell_angle_beta 110.970229
_cell_angle_gamma 131.019132
_cell_volume 656.864667
_symmetry_space_group_name_H-M "P -1"
_symmetry_group_IT_number 2
_symmetry_cell_setting 'triclinic'
loop_
_space_group_symop_operation_xyz
x,y,z
-x,-y,-z
loop_
_atom_site_type_symbol
_atom_site_label
_atom_site_fract_x
_atom_site_fract_y
_atom_site_fract_z
Si Si1 0.406884 0.512359 0.022147
Si Si2 0.787642 0.780844 0.902379
Si Si3 0.236079 0.705000 0.293810
Si Si4 0.112684 0.697673 0.548581
Si Si5 0.044253 0.265102 0.968823
Si Si6 0.962047 0.794652 0.484242
Si Si7 0.606450 0.025828 0.829835
Si Si8 0.671867 0.870370 0.621393
O O1 0.559699 0.757481 0.298120
O O2 0.500000 0.500000 0.000000
O O3 0.337625 0.399602 0.118908
O O4 0.241172 0.391676 0.737184
O O5 0.871439 0.753753 0.864479
O O6 0.697128 0.769942 0.681023
O O7 0.922617 0.999046 0.217772
O O8 0.123390 0.667539 0.329243
O O9 0.273615 0.791175 0.154727
O O10 0.423988 0.894279 0.612673
O O11 0.162297 0.498532 0.142984
O O12 0.000000 0.500000 0.500000
O O13 0.031500 0.738291 0.543573
O O14 0.299415 0.878017 0.860246
O O15 0.007449 0.167190 0.697546
O O16 0.863863 0.110871 0.844975
O O17 0.584999 0.869452 0.691713
#
# Coordination Sequence:
#
# PCOD9060347 Si02
#       8
#     2   2   2   2   2   2   2   2
#     4  11  24  43  67 103 140 184 236 287 359 422
#     4  11  23  43  69  99 140 179 231 292 356 423
#     4  11  26  46  74 105 142 192 236 304 357 426
#     4  12  25  45  71 105 144 190 244 290 358 431
#     4  11  23  43  71  99 138 183 234 283 363 428
#     4  11  23  44  68  99 139 186 233 289 350 427
#     4  11  24  47  72 105 145 183 245 298 361 422
#     4  12  23  42  69 102 138 181 228 298 357 421
#
# _framework density 24.358139000000001
#
# number of rings (size 3 to 8) (size 9 to 14) (size 15 to 20)
#    0.000    0.750    1.250    7.875    0.000    2.500 
#    2.250    0.000    0.000    0.000    0.000    0.000 
#    0.000    0.000    0.000    0.000    0.000    0.000 
#
# Total GULP energy -89545.905228 kJ/mol
# GULP energy per Si atom -5596.619077 kJ/mol
# Density = 2.430270 g / cm^3
# Si number density = 24.358139 Si / 1000 Ang^3
#
#
#
# Elastic Constant Matrix: (Units=GPa)
#
#
# Indices 1 2 3 4 5 6 
#
# 1 134.4485 43.7653 42.2791 6.5588 9.2668 -9.6288
# 2 43.7653 82.9095 23.4937 2.7505 9.1029 -29.4539
# 3 42.2791 23.4937 125.6598 -8.8098 8.3434 -9.3411
# 4 6.5588 2.7505 -8.8098 33.8757 -1.4992 -0.5762
# 5 9.2668 9.1029 8.3434 -1.4992 42.0178 0.6998
# 6 -9.6288 -29.4539 -9.3411 -0.5762 0.6998 42.1110
#
#
#
# Elastic Compliance Matrix: (Units=1/GPa)
#
#
# Indices 1 2 3 4 5 6 
#
# 1 0.009921 -0.004990 -0.002658 -0.002266 -0.000629 -0.001832
# 2 -0.004990 0.019798 -0.000932 -0.000814 -0.003241 0.012543
# 3 -0.002658 -0.000932 0.009367 0.002998 -0.000979 0.000875
# 4 -0.002266 -0.000814 0.002998 0.030856 0.001182 -0.000020
# 5 -0.000629 -0.003241 -0.000979 0.001182 0.024928 -0.003026
# 6 -0.001832 0.012543 0.000875 -0.000020 -0.003026 0.032345
#
#
# Mechanical properties :
#
#
# Convention : Reuss Voigt Hill
#
# Bulk Modulus (GPa) = 45.60975 62.45489 54.03232
# Shear Modulus (GPa) = 32.96333 39.16621 36.06477
#
# Velocity S-wave (km/s) = 3.68268 4.01425 3.85204
# Velocity P-wave (km/s) = 6.07027 6.86888 6.48189
#
# Compressibility (1/GPa) = 0.02192514
#
# Stress axis : x y z
#
# Youngs Moduli (GPa) = 100.79812 50.50932 106.75894
#
# Poissons Ratio (x) = 0.25205 0.28379
# Poissons Ratio (y) = 0.50301 0.09950
# Poissons Ratio (z) = 0.26794 0.04708
#
# Static dielectric constant tensor:
#      x y z
#    x 1.973490 -0.067040 0.098240 
#    y -0.067040 2.064520 -0.172690 
#    z 0.098240 -0.172690 2.225530 
# 
# From -- ./inp_files/308344.got.cif
#   From: 2010.05.17/outbox.cif.g08.bks.cpg/sg2_155_cif.got.tgz:308344.got - 2010.06.03 11:33:40.
