data_PCOD9060333
_publ_section_title
;
Structure prediction by ZEFSAII (Michael W. Deem and Ramdas Pophale) SiO2 
 PCOD9060333
Probable space group: P -1
;
_chemical_formula_sum "Si O2"
_cell_formula_units_Z 12
_cell_length_a 9.473865
_cell_length_b 10.897474
_cell_length_c 10.649141
_cell_angle_alpha 106.652302
_cell_angle_beta 74.723603
_cell_angle_gamma 43.256972
_cell_volume 501.519057
_symmetry_space_group_name_H-M "P -1"
_symmetry_group_IT_number 2
_symmetry_cell_setting 'triclinic'
loop_
_space_group_symop_operation_xyz
x,y,z
-x,-y,-z
loop_
_atom_site_type_symbol
_atom_site_label
_atom_site_fract_x
_atom_site_fract_y
_atom_site_fract_z
Si Si1 0.846850 0.976268 0.521584
Si Si2 0.143239 0.760478 0.135293
Si Si3 0.659116 0.535130 0.608598
Si Si4 0.754332 0.578215 0.065832
Si Si5 0.528868 0.128425 0.049249
Si Si6 0.164749 0.744287 0.748158
O O1 0.952065 0.855381 0.325469
O O2 0.018713 0.756721 0.514411
O O3 0.508379 0.221037 0.711193
O O4 0.000000 0.000000 0.500000
O O5 0.500000 0.500000 0.000000
O O6 0.113767 0.663731 0.022030
O O7 0.987051 0.012619 0.209146
O O8 0.604904 0.709166 0.743218
O O9 0.408138 0.626550 0.745967
O O10 0.660088 0.493979 0.449296
O O11 0.613382 0.700666 0.993975
O O12 0.000000 0.500000 0.000000
O O13 0.500000 0.000000 0.000000
O O14 0.873968 0.896735 0.905888
#
# Coordination Sequence:
#
# PCOD9060333 Si02
#       6
#     2   2   2   2   2   2
#     4  12  21  43  74  99 130 181 226 286 340 399
#     4  12  21  43  77 100 131 177 234 291 336 404
#     4  11  23  43  69  96 137 167 232 285 334 406
#     4  12  28  45  65 104 144 177 231 284 345 410
#     4  12  26  45  63  97 143 186 217 279 351 408
#     4  11  24  43  69 108 127 173 235 286 343 402
#
# _framework density 23.927303999999999
#
# number of rings (size 3 to 8) (size 9 to 14) (size 15 to 20)
#    0.000    0.333    8.333    0.500    2.333    2.667 
#    0.000    0.000    0.000    0.000    0.000    0.000 
#    0.000    0.000    0.000    0.000    0.000    0.000 
#
# Total GULP energy -67011.396819 kJ/mol
# GULP energy per Si atom -5584.283068 kJ/mol
# Density = 2.387284 g / cm^3
# Si number density = 23.927304 Si / 1000 Ang^3
#
#
#
# Elastic Constant Matrix: (Units=GPa)
#
#
# Indices 1 2 3 4 5 6 
#
# 1 155.5696 34.0049 78.3292 18.8506 11.9446 5.3428
# 2 34.0049 73.4286 34.5941 -0.7071 5.1037 -6.4427
# 3 78.3292 34.5941 180.2083 27.6998 5.1414 -4.7204
# 4 18.8506 -0.7071 27.6998 24.4968 1.4322 1.1355
# 5 11.9446 5.1037 5.1414 1.4322 46.3320 6.6646
# 6 5.3428 -6.4427 -4.7204 1.1355 6.6646 33.9552
#
#
#
# Elastic Compliance Matrix: (Units=1/GPa)
#
#
# Indices 1 2 3 4 5 6 
#
# 1 0.009138 -0.003021 -0.002832 -0.003747 -0.001302 -0.002024
# 2 -0.003021 0.016715 -0.002647 0.005728 -0.001430 0.003368
# 3 -0.002832 -0.002647 0.008482 -0.007558 0.000120 0.001352
# 4 -0.003747 0.005728 -0.007558 0.052483 -0.000294 -0.001072
# 5 -0.001302 -0.001430 0.000120 -0.000294 0.022720 -0.004499
# 6 -0.002024 0.003368 0.001352 -0.001072 -0.004499 0.031515
#
#
# Mechanical properties :
#
#
# Convention : Reuss Voigt Hill
#
# Bulk Modulus (GPa) = 57.68670 78.11811 67.90241
# Shear Modulus (GPa) = 30.51962 38.44200 34.48081
#
# Velocity S-wave (km/s) = 3.57531 4.01261 3.80026
# Velocity P-wave (km/s) = 6.41913 7.36118 6.90624
#
# Compressibility (1/GPa) = 0.01733502
#
# Stress axis : x y z
#
# Youngs Moduli (GPa) = 109.43900 59.82757 117.89843
#
# Poissons Ratio (x) = 0.18072 0.33387
# Poissons Ratio (y) = 0.33057 0.31209
# Poissons Ratio (z) = 0.30991 0.15837
#
# Static dielectric constant tensor:
#      x y z
#    x 1.929460 -0.059980 0.080710 
#    y -0.059980 2.088160 -0.198420 
#    z 0.080710 -0.198420 2.379300 
# 
# From -- ./inp_files/204638.got.cif
#   From: 2010.05.17/outbox.cif.g08.bks.cpg/sg2_103_cif.got.tgz:204638.got - 2010.06.03 11:33:40.
