data_PCOD9060235
_publ_section_title
;
Structure prediction by ZEFSAII (Michael W. Deem and Ramdas Pophale) SiO2 
 PCOD9060235
Probable space group: P -1
;
_chemical_formula_sum "Si O2"
_cell_formula_units_Z 12
_cell_length_a 10.640825
_cell_length_b 5.222342
_cell_length_c 10.989291
_cell_angle_alpha 94.639319
_cell_angle_beta 127.271743
_cell_angle_gamma 92.687082
_cell_volume 480.815442
_symmetry_space_group_name_H-M "P -1"
_symmetry_group_IT_number 2
_symmetry_cell_setting 'triclinic'
loop_
_space_group_symop_operation_xyz
x,y,z
-x,-y,-z
loop_
_atom_site_type_symbol
_atom_site_label
_atom_site_fract_x
_atom_site_fract_y
_atom_site_fract_z
Si Si1 0.571714 0.218364 0.141991
Si Si2 0.996470 0.619149 0.175087
Si Si3 0.198304 0.139931 0.268978
Si Si4 0.618530 0.874192 0.376845
Si Si5 0.669203 0.529397 0.855721
Si Si6 0.860138 0.588687 0.341143
O O1 0.435178 0.401509 0.087493
O O2 0.744021 0.348048 0.210049
O O3 0.599872 0.119169 0.291519
O O4 0.500000 0.000000 0.000000
O O5 0.939313 0.728976 0.274718
O O6 0.103750 0.388084 0.252345
O O7 0.843873 0.498900 0.004604
O O8 0.086072 0.872315 0.172481
O O9 0.306995 0.086270 0.445604
O O10 0.298757 0.240419 0.214151
O O11 0.446485 0.704847 0.278759
O O12 0.743716 0.732478 0.363112
O O13 0.000000 0.500000 0.500000
#
# Coordination Sequence:
#
# PCOD9060235 Si02
#       6
#     2   2   2   2   2   2
#     4  11  25  43  73 102 139 185 235 294 356 414
#     4  12  27  46  74 104 145 189 237 292 351 420
#     4  12  28  47  73 106 143 192 236 289 355 419
#     4  11  25  44  73 103 141 189 235 296 354 417
#     4  11  27  46  70 104 143 186 239 291 352 427
#     4  11  23  43  68 103 138 179 237 290 352 412
#
# _framework density 24.957598999999998
#
# number of rings (size 3 to 8) (size 9 to 14) (size 15 to 20)
#    0.000    0.667    1.667    4.500   11.667    4.667 
#    0.000    0.000    0.000    0.000    0.000    0.000 
#    0.000    0.000    0.000    0.000    0.000    0.000 
#
# Total GULP energy -67241.127149 kJ/mol
# GULP energy per Si atom -5603.427262 kJ/mol
# Density = 2.490079 g / cm^3
# Si number density = 24.957599 Si / 1000 Ang^3
#
#
#
# Elastic Constant Matrix: (Units=GPa)
#
#
# Indices 1 2 3 4 5 6 
#
# 1 101.6030 29.8102 29.9936 3.6470 5.8601 18.1748
# 2 29.8102 95.5152 26.5723 -6.5700 18.9422 20.4857
# 3 29.9936 26.5723 118.4901 -12.7513 9.8238 -0.4808
# 4 3.6470 -6.5700 -12.7513 42.8239 6.5073 -4.3644
# 5 5.8601 18.9422 9.8238 6.5073 40.8870 -4.8200
# 6 18.1748 20.4857 -0.4808 -4.3644 -4.8200 44.0029
#
#
#
# Elastic Compliance Matrix: (Units=1/GPa)
#
#
# Indices 1 2 3 4 5 6 
#
# 1 0.012228 -0.002253 -0.002887 -0.002671 -0.000098 -0.004309
# 2 -0.002253 0.014666 -0.001905 0.002300 -0.007143 -0.006472
# 3 -0.002887 -0.001905 0.010090 0.003411 -0.001391 0.002375
# 4 -0.002671 0.002300 0.003411 0.025977 -0.005395 0.002055
# 5 -0.000098 -0.007143 -0.001391 -0.005395 0.029689 0.006068
# 6 -0.004309 -0.006472 0.002375 0.002055 0.006068 0.028413
#
#
# Mechanical properties :
#
#
# Convention : Reuss Voigt Hill
#
# Bulk Modulus (GPa) = 43.68203 54.26228 48.97216
# Shear Modulus (GPa) = 35.01833 40.82489 37.92161
#
# Velocity S-wave (km/s) = 3.74988 4.04885 3.90223
# Velocity P-wave (km/s) = 6.02406 6.60656 6.32202
#
# Compressibility (1/GPa) = 0.02289271
#
# Stress axis : x y z
#
# Youngs Moduli (GPa) = 81.78098 68.18668 99.11293
#
# Poissons Ratio (x) = 0.15365 0.28611
# Poissons Ratio (y) = 0.18429 0.18881
# Poissons Ratio (z) = 0.23608 0.12989
#
# Static dielectric constant tensor:
#      x y z
#    x 2.003090 -0.060460 0.020210 
#    y -0.060460 2.011710 -0.059220 
#    z 0.020210 -0.059220 1.955580 
# 
# From -- ./inp_files/409391.got.cif
#   From: 2010.05.17/outbox.cif.g08.bks.cpg/sg2_205_cif.got.tgz:409391.got - 2010.06.03 11:33:40.
