data_PCOD9060437
_publ_section_title
;
Structure prediction by ZEFSAII (Michael W. Deem and Ramdas Pophale) SiO2 
 PCOD9060437
Probable space group: P -1
;
_chemical_formula_sum "Si O2"
_cell_formula_units_Z 16
_cell_length_a 11.421802
_cell_length_b 9.218936
_cell_length_c 9.373332
_cell_angle_alpha 132.838055
_cell_angle_beta 87.479524
_cell_angle_gamma 101.730606
_cell_volume 702.483687
_symmetry_space_group_name_H-M "P -1"
_symmetry_group_IT_number 2
_symmetry_cell_setting 'triclinic'
loop_
_space_group_symop_operation_xyz
x,y,z
-x,-y,-z
loop_
_atom_site_type_symbol
_atom_site_label
_atom_site_fract_x
_atom_site_fract_y
_atom_site_fract_z
Si Si1 0.261436 0.141433 0.899379
Si Si2 0.021612 0.967210 0.642755
Si Si3 0.728746 0.416495 0.860685
Si Si4 0.106965 0.482719 0.587486
Si Si5 0.457778 0.799403 0.467327
Si Si6 0.346294 0.782359 0.758970
Si Si7 0.918057 0.319763 0.975869
Si Si8 0.466716 0.609772 0.901017
O O1 0.164372 0.008493 0.703285
O O2 0.214869 0.352922 0.042585
O O3 0.275453 0.965578 0.894511
O O4 0.404868 0.252876 0.960732
O O5 0.000000 0.000000 0.500000
O O6 0.931167 0.753835 0.536488
O O7 0.972046 0.126580 0.845784
O O8 0.801231 0.286224 0.860917
O O9 0.623838 0.427330 0.986664
O O10 0.676740 0.292566 0.642843
O O11 0.241638 0.580445 0.592384
O O12 0.100287 0.597831 0.813520
O O13 0.000000 0.500000 0.500000
O O14 0.442843 0.833595 0.658561
O O15 0.521431 0.611836 0.307890
O O16 0.500000 0.000000 0.500000
O O17 0.412952 0.729487 0.860526
O O18 0.000000 0.500000 0.000000
#
# Coordination Sequence:
#
# PCOD9060437 Si02
#       8
#     2   2   2   2   2   2   2   2
#     4  11  23  43  70  99 141 190 235 295 364 436
#     4  12  26  46  79 108 145 197 252 306 364 446
#     4  11  23  45  71 100 139 187 247 301 359 447
#     4  12  27  48  70 109 150 191 247 311 367 430
#     4  11  25  44  72 105 140 189 239 295 370 448
#     4  12  25  45  70 105 151 183 240 308 371 431
#     4  12  25  47  75 104 145 196 252 298 373 436
#     4  11  24  46  71 103 143 188 239 305 368 435
#
# _framework density 22.776329
#
# number of rings (size 3 to 8) (size 9 to 14) (size 15 to 20)
#    0.000    0.500    5.000    3.750    3.500    1.500 
#    4.500    0.000    0.000    0.000    0.000    0.000 
#    0.000    0.000    0.000    0.000    0.000    0.000 
#
# Total GULP energy -89146.059821 kJ/mol
# GULP energy per Si atom -5571.628739 kJ/mol
# Density = 2.272449 g / cm^3
# Si number density = 22.776329 Si / 1000 Ang^3
#
#
#
# Elastic Constant Matrix: (Units=GPa)
#
#
# Indices 1 2 3 4 5 6 
#
# 1 89.0266 36.3407 18.9669 0.2805 19.3010 -16.8206
# 2 36.3407 165.8529 38.1859 14.1955 5.8560 -6.3652
# 3 18.9669 38.1859 65.6381 7.4573 -3.6600 -7.6552
# 4 0.2805 14.1955 7.4573 46.9153 -7.1693 12.2331
# 5 19.3010 5.8560 -3.6600 -7.1693 39.2141 -4.1043
# 6 -16.8206 -6.3652 -7.6552 12.2331 -4.1043 44.2266
#
#
#
# Elastic Compliance Matrix: (Units=1/GPa)
#
#
# Indices 1 2 3 4 5 6 
#
# 1 0.015139 -0.002118 -0.002850 -0.001304 -0.007152 0.004656
# 2 -0.002118 0.007503 -0.003576 -0.001825 -0.000736 0.000092
# 3 -0.002850 -0.003576 0.018867 -0.002018 0.003597 0.002559
# 4 -0.001304 -0.001825 -0.002018 0.024853 0.004478 -0.007567
# 5 -0.007152 -0.000736 0.003597 0.004478 0.030219 -0.000638
# 6 0.004656 0.000092 0.002559 -0.007567 -0.000638 0.026872
#
#
# Mechanical properties :
#
#
# Convention : Reuss Voigt Hill
#
# Bulk Modulus (GPa) = 40.94817 56.38940 48.66878
# Shear Modulus (GPa) = 33.62945 41.20616 37.41781
#
# Velocity S-wave (km/s) = 3.84671 4.25804 4.05759
# Velocity P-wave (km/s) = 6.14385 6.99902 6.58533
#
# Compressibility (1/GPa) = 0.02442112
#
# Stress axis : x y z
#
# Youngs Moduli (GPa) = 66.05536 133.28828 53.00280
#
# Poissons Ratio (x) = 0.28233 0.15105
# Poissons Ratio (y) = 0.13992 0.18951
# Poissons Ratio (z) = 0.18825 0.47658
#
# Static dielectric constant tensor:
#      x y z
#    x 2.432540 -0.373080 0.007910 
#    y -0.373080 2.144650 -0.005760 
#    z 0.007910 -0.005760 1.831100 
# 
# From -- ./inp_files/246014.got.cif
#   From: 2010.05.17/outbox.cif.g08.bks.cpg/sg2_124_cif.got.tgz:246014.got - 2010.06.03 11:33:40.
