data_PCOD9060114
_publ_section_title
;
Structure prediction by ZEFSAII (Michael W. Deem and Ramdas Pophale) SiO2 
 PCOD9060114
Probable space group: P -1
;
_chemical_formula_sum "Si O2"
_cell_formula_units_Z 14
_cell_length_a 6.680146
_cell_length_b 21.413913
_cell_length_c 9.056653
_cell_angle_alpha 39.074909
_cell_angle_beta 53.610809
_cell_angle_gamma 62.983513
_cell_volume 657.335440
_symmetry_space_group_name_H-M "P -1"
_symmetry_group_IT_number 2
_symmetry_cell_setting 'triclinic'
loop_
_space_group_symop_operation_xyz
x,y,z
-x,-y,-z
loop_
_atom_site_type_symbol
_atom_site_label
_atom_site_fract_x
_atom_site_fract_y
_atom_site_fract_z
Si Si1 0.648459 0.743927 0.554703
Si Si2 0.306677 0.916989 0.680168
Si Si3 0.747145 0.544141 0.728721
Si Si4 0.689735 0.759960 0.850384
Si Si5 0.789831 0.139896 0.507737
Si Si6 0.737823 0.556051 0.358165
Si Si7 0.149837 0.036831 0.008848
O O1 0.769089 0.657577 0.566555
O O2 0.695634 0.724381 0.742606
O O3 0.356890 0.756173 0.619453
O O4 0.734283 0.856967 0.278172
O O5 0.428899 0.816348 0.871083
O O6 0.274632 0.908037 0.534911
O O7 0.041356 0.938150 0.823986
O O8 0.500000 0.000000 0.500000
O O9 0.722699 0.542671 0.565294
O O10 0.005260 0.486026 0.744967
O O11 0.500000 0.500000 0.000000
O O12 0.920353 0.834657 0.642166
O O13 0.715549 0.670309 0.114662
O O14 0.712556 0.061311 0.812342
O O15 0.500000 0.500000 0.500000
O O16 0.000000 0.000000 0.000000
#
# Coordination Sequence:
#
# PCOD9060114 Si02
#       7
#     2   2   2   2   2   2   2
#     4  11  25  41  69  98 133 177 224 281 337 409
#     4  11  24  41  64  94 133 179 224 274 331 408
#     4  11  26  49  71 104 139 177 236 290 351 417
#     4  11  24  44  66  97 132 175 225 273 350 404
#     4  11  23  43  65  93 138 178 219 278 337 401
#     4  11  27  46  74 101 138 181 230 294 352 414
#     4  12  23  42  63  98 136 173 225 272 331 402
#
# _framework density 21.298106000000001
#
# number of rings (size 3 to 8) (size 9 to 14) (size 15 to 20)
#    0.000    0.857    2.857    3.429    4.000    6.857 
#    0.000    0.000    0.000    0.000    0.000    0.000 
#    0.000    0.000    0.000    0.000    0.000    0.000 
#
# Total GULP energy -78206.938927 kJ/mol
# GULP energy per Si atom -5586.209923 kJ/mol
# Density = 2.124963 g / cm^3
# Si number density = 21.298106 Si / 1000 Ang^3
#
#
#
# Elastic Constant Matrix: (Units=GPa)
#
#
# Indices 1 2 3 4 5 6 
#
# 1 94.8693 23.2978 24.4683 -9.2651 17.3435 -6.3837
# 2 23.2978 102.1473 8.6970 -3.7929 9.8674 -3.6616
# 3 24.4683 8.6970 91.7096 -3.8616 4.1000 -7.2716
# 4 -9.2651 -3.7929 -3.8616 30.7541 -0.9579 -1.4190
# 5 17.3435 9.8674 4.1000 -0.9579 35.8127 -4.6575
# 6 -6.3837 -3.6616 -7.2716 -1.4190 -4.6575 26.6727
#
#
#
# Elastic Compliance Matrix: (Units=1/GPa)
#
#
# Indices 1 2 3 4 5 6 
#
# 1 0.013143 -0.002085 -0.002832 0.003247 -0.005203 0.001351
# 2 -0.002085 0.010503 -0.000289 0.000603 -0.001758 0.000589
# 3 -0.002832 -0.000289 0.011908 0.000743 0.000452 0.002647
# 4 0.003247 0.000603 0.000743 0.033772 -0.000561 0.002761
# 5 -0.005203 -0.001758 0.000452 -0.000561 0.031392 0.004088
# 6 0.001351 0.000589 0.002647 0.002761 0.004088 0.039478
#
#
# Mechanical properties :
#
#
# Convention : Reuss Voigt Hill
#
# Bulk Modulus (GPa) = 39.77471 44.62804 42.20138
# Shear Modulus (GPa) = 31.44872 34.13213 32.79042
#
# Velocity S-wave (km/s) = 3.84682 4.00758 3.92802
# Velocity P-wave (km/s) = 6.20052 6.51258 6.35847
#
# Compressibility (1/GPa) = 0.02514160
#
# Stress axis : x y z
#
# Youngs Moduli (GPa) = 76.08866 95.20836 83.97714
#
# Poissons Ratio (x) = 0.19849 0.23785
# Poissons Ratio (y) = 0.15863 0.02428
# Poissons Ratio (z) = 0.21550 0.02752
#
# Static dielectric constant tensor:
#      x y z
#    x 1.793850 -0.034240 -0.061280 
#    y -0.034240 1.769900 0.041270 
#    z -0.061280 0.041270 1.827440 
# 
# From -- ./inp_files/46488.got.cif
#   From: 2010.05.17/outbox.cif.g08.bks.cpg/sg2_24_cif.got.tgz:46488.got - 2010.06.03 11:33:40.
