data_PCOD9060129
_publ_section_title
;
Structure prediction by ZEFSAII (Michael W. Deem and Ramdas Pophale) SiO2 
 PCOD9060129
Probable space group: P -1
;
_chemical_formula_sum "Si O2"
_cell_formula_units_Z 14
_cell_length_a 9.810767
_cell_length_b 8.390899
_cell_length_c 21.922085
_cell_angle_alpha 132.060112
_cell_angle_beta 30.617360
_cell_angle_gamma 130.935890
_cell_volume 667.445558
_symmetry_space_group_name_H-M "P -1"
_symmetry_group_IT_number 2
_symmetry_cell_setting 'triclinic'
loop_
_space_group_symop_operation_xyz
x,y,z
-x,-y,-z
loop_
_atom_site_type_symbol
_atom_site_label
_atom_site_fract_x
_atom_site_fract_y
_atom_site_fract_z
Si Si1 0.247097 0.609099 0.636258
Si Si2 0.653164 0.944164 0.365382
Si Si3 0.281999 0.452991 0.222369
Si Si4 0.297609 0.464082 0.357197
Si Si5 0.849387 0.777147 0.068312
Si Si6 0.820386 0.012661 0.888304
Si Si7 0.274960 0.753989 0.798266
O O1 0.500000 0.500000 0.500000
O O2 0.208899 0.629096 0.728208
O O3 0.987517 0.453784 0.662723
O O4 0.335292 0.851202 0.632724
O O5 0.487392 0.708539 0.346799
O O6 0.500000 0.000000 0.500000
O O7 0.974705 0.926664 0.233042
O O8 0.274220 0.374573 0.274664
O O9 0.577246 0.595799 0.135537
O O10 0.202490 0.244913 0.155189
O O11 0.445187 0.306966 0.300579
O O12 0.000000 0.500000 0.500000
O O13 0.739809 0.992347 0.143732
O O14 0.031860 0.843102 0.075728
O O15 0.043094 0.692319 0.923275
O O16 0.500000 0.000000 0.000000
#
# Coordination Sequence:
#
# PCOD9060129 Si02
#       7
#     2   2   2   2   2   2   2
#     4  11  23  46  69 100 142 181 229 291 352 417
#     4  11  23  43  66 100 139 178 236 289 338 423
#     4  11  23  43  69  97 135 182 231 282 344 415
#     4  12  24  41  69 103 137 184 238 286 350 418
#     4  11  24  46  69 101 142 182 237 287 347 426
#     4  11  23  43  70 102 139 178 234 292 348 412
#     4  11  24  44  67  99 146 178 227 295 346 417
#
# _framework density 20.975494000000001
#
# number of rings (size 3 to 8) (size 9 to 14) (size 15 to 20)
#    0.000    0.857    4.286    4.286    2.000    2.857 
#    0.000    5.714    0.000    0.000    0.000    0.000 
#    0.000    0.000    0.000    0.000    0.000    0.000 
#
# Total GULP energy -78041.313142 kJ/mol
# GULP energy per Si atom -5574.379510 kJ/mol
# Density = 2.092775 g / cm^3
# Si number density = 20.975494 Si / 1000 Ang^3
#
#
#
# Elastic Constant Matrix: (Units=GPa)
#
#
# Indices 1 2 3 4 5 6 
#
# 1 134.4416 22.6150 74.3069 -14.8367 -2.0450 17.4390
# 2 22.6150 78.7967 45.8850 -24.8291 -2.1355 28.9361
# 3 74.3069 45.8850 158.9664 -28.4240 -12.5988 8.6327
# 4 -14.8367 -24.8291 -28.4240 38.7373 6.4865 -9.1883
# 5 -2.0450 -2.1355 -12.5988 6.4865 47.6776 3.1170
# 6 17.4390 28.9361 8.6327 -9.1883 3.1170 31.4022
#
#
#
# Elastic Compliance Matrix: (Units=1/GPa)
#
#
# Indices 1 2 3 4 5 6 
#
# 1 0.010948 0.002680 -0.005496 0.000318 -0.000455 -0.006900
# 2 0.002680 0.025819 -0.006115 0.008060 -0.000053 -0.021235
# 3 -0.005496 -0.006115 0.010986 0.003322 0.001517 0.006488
# 4 0.000318 0.008060 0.003322 0.034607 -0.003584 0.001965
# 5 -0.000455 -0.000053 0.001517 -0.003584 0.022060 -0.003354
# 6 -0.006900 -0.021235 0.006488 0.001965 -0.003354 0.054368
#
#
# Mechanical properties :
#
#
# Convention : Reuss Voigt Hill
#
# Bulk Modulus (GPa) = 33.45358 73.09093 53.27225
# Shear Modulus (GPa) = 26.79324 38.85661 32.82493
#
# Velocity S-wave (km/s) = 3.57789 4.30871 3.96020
# Velocity P-wave (km/s) = 5.74908 7.72495 6.80907
#
# Compressibility (1/GPa) = 0.02989217
#
# Stress axis : x y z
#
# Youngs Moduli (GPa) = 91.34044 38.73119 91.02123
#
# Poissons Ratio (x) = -0.10379 0.50021
# Poissons Ratio (y) = -0.24478 0.55659
# Poissons Ratio (z) = 0.50196 0.23684
#
# Static dielectric constant tensor:
#      x y z
#    x 1.831440 -0.065700 -0.101700 
#    y -0.065700 1.730480 0.136300 
#    z -0.101700 0.136300 1.912140 
# 
# From -- ./inp_files/588100.got.cif
#   From: 2010.05.17/outbox.cif.g08.bks.cpg/sg2_295_cif.got.tgz:588100.got - 2010.06.03 11:33:40.
