data_PCOD9060960
_publ_section_title
;
Structure prediction by ZEFSAII (Michael W. Deem and Ramdas Pophale) SiO2 
 PCOD9060960
Probable space group: P -1
;
_chemical_formula_sum "Si O2"
_cell_formula_units_Z 13
_cell_length_a 8.423744
_cell_length_b 7.930247
_cell_length_c 11.989146
_cell_angle_alpha 134.087698
_cell_angle_beta 95.377607
_cell_angle_gamma 106.942227
_cell_volume 496.440918
_symmetry_space_group_name_H-M "P -1"
_symmetry_group_IT_number 2
_symmetry_cell_setting 'triclinic'
loop_
_space_group_symop_operation_xyz
x,y,z
-x,-y,-z
loop_
_atom_site_type_symbol
_atom_site_label
_atom_site_fract_x
_atom_site_fract_y
_atom_site_fract_z
Si Si1 0.612131 0.347058 0.454402
Si Si2 0.554369 0.503090 0.135514
Si Si3 0.300780 0.914443 0.859438
Si Si4 0.663414 0.221130 0.721862
Si Si5 0.950205 0.420969 0.640775
Si Si6 0.000000 0.500000 0.000000
Si Si7 0.916039 0.943721 0.276682
O O1 0.500000 0.500000 0.500000
O O2 0.634468 0.245474 0.289186
O O3 0.815416 0.488941 0.588733
O O4 0.487282 0.078198 0.394612
O O5 0.444408 0.624015 0.249445
O O6 0.768937 0.719231 0.249756
O O7 0.500000 0.500000 0.000000
O O8 0.476123 0.199920 0.035146
O O9 0.131878 0.691475 0.819467
O O10 0.191415 0.007947 0.809297
O O11 0.819026 0.266921 0.664655
O O12 0.782661 0.379798 0.910351
O O13 0.996814 0.222484 0.481404
O O14 0.028282 0.811854 0.170605
#
# Coordination Sequence:
#
# PCOD9060960 Si02
#       7
#     2   2   2   2   2   1   2
#     4  11  23  40  69  96 127 171 225 263 320 399
#     4  10  17  40  65  87 123 183 214 248 324 407
#     4  10  20  41  63  93 132 178 210 264 333 389
#     4  12  24  42  69  96 131 176 219 268 330 392
#     4  11  25  42  67 101 135 166 215 280 333 371
#     4  12  24  38  68  96 126 176 228 256 320 392
#     4  10  20  40  67  92 129 178 218 261 328 398
#
# _framework density 26.186399000000002
#
# number of rings (size 3 to 8) (size 9 to 14) (size 15 to 20)
#    0.000    1.231    7.692    2.308    4.308    1.231 
#    0.000    0.000    0.000    2.769    0.000    0.000 
#    0.000    0.000    0.000    0.000    0.000    0.000 
#
# Total GULP energy -72489.054134 kJ/mol
# GULP energy per Si atom -5576.081087 kJ/mol
# Density = 2.612680 g / cm^3
# Si number density = 26.186399 Si / 1000 Ang^3
#
#
#
# Elastic Constant Matrix: (Units=GPa)
#
#
# Indices 1 2 3 4 5 6 
#
# 1 116.7784 15.6072 42.2155 13.8111 -30.0267 -1.2298
# 2 15.6072 73.5157 25.3199 21.4181 10.8663 24.3410
# 3 42.2155 25.3199 80.3012 30.3088 -0.8788 10.6971
# 4 13.8111 21.4181 30.3088 45.8233 9.8186 8.0469
# 5 -30.0267 10.8663 -0.8788 9.8186 68.0421 14.8686
# 6 -1.2298 24.3410 10.6971 8.0469 14.8686 49.6030
#
#
#
# Elastic Compliance Matrix: (Units=1/GPa)
#
#
# Indices 1 2 3 4 5 6 
#
# 1 0.012383 -0.001536 -0.005904 -0.000426 0.005533 0.000745
# 2 -0.001536 0.018939 -0.002142 -0.005359 -0.001293 -0.007613
# 3 -0.005904 -0.002142 0.020378 -0.010361 -0.000117 -0.001774
# 4 -0.000426 -0.005359 -0.010361 0.032065 -0.004298 0.000940
# 5 0.005533 -0.001293 -0.000117 -0.004298 0.018873 -0.004163
# 6 0.000745 -0.007613 -0.001774 0.000940 -0.004163 0.025392
#
#
# Mechanical properties :
#
#
# Convention : Reuss Voigt Hill
#
# Bulk Modulus (GPa) = 30.73331 48.54227 39.63779
# Shear Modulus (GPa) = 31.63748 45.19053 38.41401
#
# Velocity S-wave (km/s) = 3.47964 4.15869 3.83423
# Velocity P-wave (km/s) = 5.28258 6.45268 5.89673
#
# Compressibility (1/GPa) = 0.03253799
#
# Stress axis : x y z
#
# Youngs Moduli (GPa) = 80.75270 52.80026 49.07257
#
# Poissons Ratio (x) = 0.08109 0.28972
# Poissons Ratio (y) = 0.12402 0.10510
# Poissons Ratio (z) = 0.47675 0.11308
#
# Static dielectric constant tensor:
#      x y z
#    x 2.162850 -0.029550 0.019090 
#    y -0.029550 2.173130 -0.094960 
#    z 0.019090 -0.094960 2.154850 
# 
# From -- ./inp_files/153928.got.cif
#   From: 2010.05.17/outbox.cif.g08.bks.cpg/sg2_77_cif.got.tgz:153928.got - 2010.06.03 11:33:40.
