data_PCOD9060330
_publ_section_title
;
Structure prediction by ZEFSAII (Michael W. Deem and Ramdas Pophale) SiO2 
 PCOD9060330
Probable space group: P -1
;
_chemical_formula_sum "Si O2"
_cell_formula_units_Z 16
_cell_length_a 17.577946
_cell_length_b 5.875525
_cell_length_c 10.473506
_cell_angle_alpha 65.554163
_cell_angle_beta 127.214967
_cell_angle_gamma 124.108438
_cell_volume 708.660154
_symmetry_space_group_name_H-M "P -1"
_symmetry_group_IT_number 2
_symmetry_cell_setting 'triclinic'
loop_
_space_group_symop_operation_xyz
x,y,z
-x,-y,-z
loop_
_atom_site_type_symbol
_atom_site_label
_atom_site_fract_x
_atom_site_fract_y
_atom_site_fract_z
Si Si1 0.956157 0.738880 0.411605
Si Si2 0.830394 0.319681 0.802197
Si Si3 0.767669 0.347664 0.465380
Si Si4 0.404530 0.463565 0.741189
Si Si5 0.372461 0.678488 0.281807
Si Si6 0.016790 0.915161 0.895689
Si Si7 0.431216 0.050965 0.028811
Si Si8 0.595238 0.777848 0.453171
O O1 0.837826 0.545667 0.382122
O O2 0.000000 0.500000 0.500000
O O3 0.000000 0.000000 0.500000
O O4 0.967522 0.876401 0.252666
O O5 0.831938 0.289645 0.657894
O O6 0.711641 0.253946 0.740313
O O7 0.910691 0.638628 0.827947
O O8 0.881555 0.152797 0.972631
O O9 0.696301 0.491454 0.414095
O O10 0.682181 0.045722 0.412505
O O11 0.488058 0.720080 0.845802
O O12 0.455783 0.421260 0.673246
O O13 0.369167 0.201588 0.860115
O O14 0.499137 0.824217 0.407149
O O15 0.352285 0.363383 0.365806
O O16 0.366379 0.778712 0.108726
O O17 0.000000 0.000000 0.000000
O O18 0.500000 0.000000 0.000000
#
# Coordination Sequence:
#
# PCOD9060330 Si02
#       8
#     2   2   2   2   2   2   2   2
#     4  12  29  52  85 113 151 206 263 326 404 473
#     4  11  26  46  77 101 151 190 256 314 396 453
#     4  12  25  47  75 106 145 197 247 319 379 472
#     4  11  23  43  69  94 149 189 243 306 370 444
#     4  11  24  44  70 103 145 194 244 296 377 456
#     4  11  27  54  73 112 148 197 257 337 391 468
#     4  11  23  45  63  97 147 194 239 309 361 447
#     4  11  25  44  68 109 146 191 252 306 368 465
#
# _framework density 22.577815999999999
#
# number of rings (size 3 to 8) (size 9 to 14) (size 15 to 20)
#    0.000    0.750    5.000    0.750    8.750    3.000 
#    4.500    0.000    0.000    0.000    0.000    0.000 
#    0.000    0.000    0.000    0.000    0.000    0.000 
#
# Total GULP energy -89264.063404 kJ/mol
# GULP energy per Si atom -5579.003963 kJ/mol
# Density = 2.252643 g / cm^3
# Si number density = 22.577816 Si / 1000 Ang^3
#
#
#
# Elastic Constant Matrix: (Units=GPa)
#
#
# Indices 1 2 3 4 5 6 
#
# 1 123.9828 54.5697 44.6640 -8.4885 -14.0310 10.6813
# 2 54.5697 107.3491 61.2921 -21.9644 -10.2928 4.1015
# 3 44.6640 61.2921 131.3037 -38.8629 -26.7650 6.6909
# 4 -8.4885 -21.9644 -38.8629 57.0292 5.1086 -10.3887
# 5 -14.0310 -10.2928 -26.7650 5.1086 37.1497 -2.6846
# 6 10.6813 4.1015 6.6909 -10.3887 -2.6846 27.5655
#
#
#
# Elastic Compliance Matrix: (Units=1/GPa)
#
#
# Indices 1 2 3 4 5 6 
#
# 1 0.011181 -0.004894 -0.001616 -0.002180 0.001723 -0.003866
# 2 -0.004894 0.014916 -0.005118 0.001942 -0.001562 0.001499
# 3 -0.001616 -0.005118 0.014006 0.006924 0.007205 0.001299
# 4 -0.002180 0.001942 0.006924 0.023975 0.001992 0.008105
# 5 0.001723 -0.001562 0.007205 0.001992 0.032176 0.001700
# 6 -0.003866 0.001499 0.001299 0.008105 0.001700 0.040457
#
#
# Mechanical properties :
#
#
# Convention : Reuss Voigt Hill
#
# Bulk Modulus (GPa) = 59.35731 75.96525 67.66128
# Shear Modulus (GPa) = 30.19666 37.82287 34.00977
#
# Velocity S-wave (km/s) = 3.66108 4.09739 3.88536
# Velocity P-wave (km/s) = 6.64970 7.49025 7.08245
#
# Compressibility (1/GPa) = 0.01684712
#
# Stress axis : x y z
#
# Youngs Moduli (GPa) = 89.44065 67.04353 71.39620
#
# Poissons Ratio (x) = 0.32813 0.11535
# Poissons Ratio (y) = 0.43775 0.36540
# Poissons Ratio (z) = 0.14450 0.34312
#
# Static dielectric constant tensor:
#      x y z
#    x 1.863640 0.016270 0.086700 
#    y 0.016270 1.726990 -0.211480 
#    z 0.086700 -0.211480 1.671550 
# 
# From -- ./inp_files/459447.got.cif
#   From: 2010.05.17/outbox.cif.g08.bks.cpg/sg2_230_cif.got.tgz:459447.got - 2010.06.03 11:33:40.
