data_PCOD9060288
_publ_section_title
;
Structure prediction by ZEFSAII (Michael W. Deem and Ramdas Pophale) SiO2 
 PCOD9060288
Probable space group: P -1
;
_chemical_formula_sum "Si O2"
_cell_formula_units_Z 14
_cell_length_a 9.503805
_cell_length_b 13.003350
_cell_length_c 7.013962
_cell_angle_alpha 61.350932
_cell_angle_beta 69.482779
_cell_angle_gamma 45.150379
_cell_volume 539.182027
_symmetry_space_group_name_H-M "P -1"
_symmetry_group_IT_number 2
_symmetry_cell_setting 'triclinic'
loop_
_space_group_symop_operation_xyz
x,y,z
-x,-y,-z
loop_
_atom_site_type_symbol
_atom_site_label
_atom_site_fract_x
_atom_site_fract_y
_atom_site_fract_z
Si Si1 0.190553 0.642578 0.406358
Si Si2 0.526250 0.062096 0.127042
Si Si3 0.836250 0.259240 0.103062
Si Si4 0.487644 0.320526 0.423015
Si Si5 0.211468 0.900560 0.247000
Si Si6 0.094385 0.336801 0.017622
Si Si7 0.203136 0.270508 0.570032
O O1 0.378733 0.461279 0.501624
O O2 0.187499 0.772772 0.383084
O O3 0.993819 0.666133 0.501732
O O4 0.188098 0.679693 0.151272
O O5 0.649567 0.915439 0.336196
O O6 0.663398 0.106257 0.980113
O O7 0.300660 0.208780 0.143156
O O8 0.500000 0.000000 0.000000
O O9 0.623991 0.325853 0.215866
O O10 0.000386 0.071781 0.196555
O O11 0.937985 0.310573 0.129491
O O12 0.640480 0.152526 0.599567
O O13 0.314597 0.331718 0.403439
O O14 0.147814 0.317132 0.781756
O O15 0.000000 0.500000 0.000000
#
# Coordination Sequence:
#
# PCOD9060288 Si02
#       7
#     2   2   2   2   2   2   2
#     4  11  25  42  66  94 131 171 212 259 328 376
#     4  10  17  38  67  91 121 169 218 252 316 375
#     4  11  24  43  63  97 131 170 211 264 320 380
#     4  12  24  41  66  95 134 164 212 271 319 365
#     4  12  22  42  71  94 124 172 221 259 308 390
#     4  10  20  36  64  96 125 162 216 262 309 376
#     4  10  21  44  65  89 128 176 210 256 320 387
#
# _framework density 25.965254000000002
#
# number of rings (size 3 to 8) (size 9 to 14) (size 15 to 20)
#    0.000    1.143    7.143    2.143    2.000    1.143 
#    0.000    0.714    0.000    0.000    0.000    0.000 
#    0.000    0.000    0.000    0.000    0.000    0.000 
#
# Total GULP energy -78471.387110 kJ/mol
# GULP energy per Si atom -5605.099079 kJ/mol
# Density = 2.590616 g / cm^3
# Si number density = 25.965254 Si / 1000 Ang^3
#
#
#
# Elastic Constant Matrix: (Units=GPa)
#
#
# Indices 1 2 3 4 5 6 
#
# 1 156.0146 44.3940 42.7877 11.2103 -54.1224 -11.6410
# 2 44.3940 107.9844 35.6882 -11.2399 -24.0983 -27.6255
# 3 42.7877 35.6882 76.0882 -2.7428 -26.5400 -4.3489
# 4 11.2103 -11.2399 -2.7428 36.4270 -5.5074 1.1698
# 5 -54.1224 -24.0983 -26.5400 -5.5074 62.3840 0.2859
# 6 -11.6410 -27.6255 -4.3489 1.1698 0.2859 44.0568
#
#
#
# Elastic Compliance Matrix: (Units=1/GPa)
#
#
# Indices 1 2 3 4 5 6 
#
# 1 0.010344 -0.001810 -0.002585 -0.002936 0.006910 0.001376
# 2 -0.001810 0.014582 -0.004261 0.004875 0.002643 0.008098
# 3 -0.002585 -0.004261 0.017901 0.001466 0.003864 -0.001652
# 4 -0.002936 0.004875 0.001466 0.030316 0.002629 0.001604
# 5 0.006910 0.002643 0.003864 0.002629 0.024905 0.003633
# 6 0.001376 0.008098 -0.001652 0.001604 0.003633 0.027910
#
#
# Mechanical properties :
#
#
# Convention : Reuss Voigt Hill
#
# Bulk Modulus (GPa) = 39.19216 65.09187 52.14202
# Shear Modulus (GPa) = 32.94320 43.05471 37.99895
#
# Velocity S-wave (km/s) = 3.56580 4.07648 3.82966
# Velocity P-wave (km/s) = 5.66393 6.87606 6.29922
#
# Compressibility (1/GPa) = 0.02551531
#
# Stress axis : x y z
#
# Youngs Moduli (GPa) = 96.67035 68.57799 55.86223
#
# Poissons Ratio (x) = 0.12411 0.14441
# Poissons Ratio (y) = 0.17495 0.23804
# Poissons Ratio (z) = 0.24991 0.29223
#
# Static dielectric constant tensor:
#      x y z
#    x 2.005720 0.031480 0.009680 
#    y 0.031480 2.041090 0.075070 
#    z 0.009680 0.075070 2.072860 
# 
# From -- ./inp_files/159288.got.cif
#   From: 2010.05.17/outbox.cif.g08.bks.cpg/sg2_80_cif.got.tgz:159288.got - 2010.06.03 11:33:40.
