data_PCOD9060407
_publ_section_title
;
Structure prediction by ZEFSAII (Michael W. Deem and Ramdas Pophale) SiO2 
 PCOD9060407
Probable space group: P -1
;
_chemical_formula_sum "Si O2"
_cell_formula_units_Z 16
_cell_length_a 5.424043
_cell_length_b 25.875245
_cell_length_c 12.378237
_cell_angle_alpha 150.594352
_cell_angle_beta 108.008256
_cell_angle_gamma 61.243627
_cell_volume 722.976347
_symmetry_space_group_name_H-M "P -1"
_symmetry_group_IT_number 2
_symmetry_cell_setting 'triclinic'
loop_
_space_group_symop_operation_xyz
x,y,z
-x,-y,-z
loop_
_atom_site_type_symbol
_atom_site_label
_atom_site_fract_x
_atom_site_fract_y
_atom_site_fract_z
Si Si1 0.387491 0.112685 0.609327
Si Si2 0.399267 0.342448 0.710014
Si Si3 0.516384 0.499319 0.849766
Si Si4 0.202642 0.897919 0.554978
Si Si5 0.160182 0.584665 0.599716
Si Si6 0.054232 0.688724 0.560643
Si Si7 0.042824 0.367956 0.109988
Si Si8 0.152985 0.046908 0.019095
O O1 0.617510 0.093630 0.509210
O O2 0.078786 0.120861 0.543558
O O3 0.500000 0.000000 0.500000
O O4 0.308859 0.242119 0.885828
O O5 0.562447 0.400946 0.767184
O O6 0.587082 0.213104 0.545256
O O7 0.161127 0.341426 0.595339
O O8 0.312938 0.427700 0.957942
O O9 0.635277 0.421907 0.618462
O O10 0.188769 0.592687 0.947710
O O11 0.114256 0.008284 0.823607
O O12 0.500000 0.500000 0.500000
O O13 0.018271 0.688617 0.682659
O O14 0.074466 0.648210 0.819591
O O15 0.067775 0.486704 0.361743
O O16 0.013608 0.812628 0.739507
O O17 0.500000 0.000000 0.000000
O O18 0.000000 0.000000 0.000000
#
# Coordination Sequence:
#
# PCOD9060407 Si02
#       8
#     2   2   2   2   2   2   2   2
#     4  12  30  52  79 104 149 196 259 306 372 439
#     4  11  24  41  73 106 150 182 243 294 381 440
#     4  11  23  43  70 112 145 187 241 305 374 452
#     4  12  27  50  77 111 144 200 249 313 370 443
#     4  11  25  44  70 106 142 193 243 307 372 447
#     4  12  25  41  75 103 149 192 246 299 381 444
#     4  11  25  46  72 104 147 191 249 306 374 438
#     4  12  27  49  75 107 154 197 248 305 370 452
#
# _framework density 22.130737
#
# number of rings (size 3 to 8) (size 9 to 14) (size 15 to 20)
#    0.000    0.500    5.000    2.250    7.000    1.000 
#    0.000    0.000    0.000    0.000    0.000    0.000 
#    0.000    0.000    0.000    0.000    0.000    0.000 
#
# Total GULP energy -89279.522206 kJ/mol
# GULP energy per Si atom -5579.970138 kJ/mol
# Density = 2.208037 g / cm^3
# Si number density = 22.130737 Si / 1000 Ang^3
#
#
#
# Elastic Constant Matrix: (Units=GPa)
#
#
# Indices 1 2 3 4 5 6 
#
# 1 84.0755 22.6493 16.4960 -12.3691 1.0476 5.1376
# 2 22.6493 114.0756 13.2209 3.2424 3.1454 0.3941
# 3 16.4960 13.2209 86.8350 -6.9138 -4.5731 7.3140
# 4 -12.3691 3.2424 -6.9138 36.4719 4.2504 -4.1084
# 5 1.0476 3.1454 -4.5731 4.2504 31.8627 -5.3908
# 6 5.1376 0.3941 7.3140 -4.1084 -5.3908 33.2189
#
#
#
# Elastic Compliance Matrix: (Units=1/GPa)
#
#
# Indices 1 2 3 4 5 6 
#
# 1 0.013715 -0.002603 -0.001802 0.004540 -0.001285 -0.001340
# 2 -0.002603 0.009488 -0.001152 -0.001836 -0.000738 0.000197
# 3 -0.001802 -0.001152 0.012394 0.001447 0.001416 -0.002028
# 4 0.004540 -0.001836 0.001447 0.030036 -0.003401 0.002164
# 5 -0.001285 -0.000738 0.001416 -0.003401 0.032973 0.004826
# 6 -0.001340 0.000197 -0.002028 0.002164 0.004826 0.031806
#
#
# Mechanical properties :
#
#
# Convention : Reuss Voigt Hill
#
# Bulk Modulus (GPa) = 40.84465 43.30205 42.07335
# Shear Modulus (GPa) = 33.40294 35.81869 34.61081
#
# Velocity S-wave (km/s) = 3.88924 4.02743 3.95894
# Velocity P-wave (km/s) = 6.21807 6.42152 6.32061
#
# Compressibility (1/GPa) = 0.02448301
#
# Stress axis : x y z
#
# Youngs Moduli (GPa) = 72.91415 105.39288 80.68130
#
# Poissons Ratio (x) = 0.27435 0.14542
# Poissons Ratio (y) = 0.18980 0.09293
# Poissons Ratio (z) = 0.13142 0.12139
#
# Static dielectric constant tensor:
#      x y z
#    x 1.967700 0.052060 0.013000 
#    y 0.052060 1.848910 -0.064580 
#    z 0.013000 -0.064580 1.867470 
# 
# From -- ./inp_files/371146.got.cif
#   From: 2010.05.17/outbox.cif.g08.bks.cpg/sg2_186_cif.got.tgz:371146.got - 2010.06.03 11:33:40.
