data_PCOD9060523
_publ_section_title
;
Structure prediction by ZEFSAII (Michael W. Deem and Ramdas Pophale) SiO2 
 PCOD9060523
Probable space group: P -1
;
_chemical_formula_sum "Si O2"
_cell_formula_units_Z 16
_cell_length_a 17.191512
_cell_length_b 6.063201
_cell_length_c 17.468984
_cell_angle_alpha 53.578225
_cell_angle_beta 32.512501
_cell_angle_gamma 48.957878
_cell_volume 734.555186
_symmetry_space_group_name_H-M "P -1"
_symmetry_group_IT_number 2
_symmetry_cell_setting 'triclinic'
loop_
_space_group_symop_operation_xyz
x,y,z
-x,-y,-z
loop_
_atom_site_type_symbol
_atom_site_label
_atom_site_fract_x
_atom_site_fract_y
_atom_site_fract_z
Si Si1 0.423025 0.695080 0.595570
Si Si2 0.752783 0.681145 0.380009
Si Si3 0.163229 0.260491 0.315909
Si Si4 0.825778 0.395372 0.532063
Si Si5 0.670140 0.632961 0.125251
Si Si6 0.397865 0.336676 0.997797
Si Si7 0.005224 0.340092 0.943437
Si Si8 0.418233 0.266126 0.225736
O O1 0.500000 0.500000 0.500000
O O2 0.578347 0.701673 0.505783
O O3 0.344937 0.569335 0.752017
O O4 0.285916 0.991905 0.621711
O O5 0.834353 0.433628 0.425944
O O6 0.846286 0.657043 0.228551
O O7 0.277247 0.289705 0.281263
O O8 0.978519 0.423187 0.437910
O O9 0.183040 0.916357 0.370748
O O10 0.231462 0.372260 0.162893
O O11 0.667619 0.638973 0.642044
O O12 0.617790 0.580892 0.095217
O O13 0.551810 0.951724 0.179919
O O14 0.851881 0.568750 0.983911
O O15 0.493489 0.519863 0.915737
O O16 0.500000 0.000000 0.000000
O O17 0.000000 0.500000 0.000000
O O18 0.000000 0.000000 0.000000
#
# Coordination Sequence:
#
# PCOD9060523 Si02
#       8
#     2   2   2   2   2   2   2   2
#     4  11  23  43  72 103 141 184 248 307 369 448
#     4  11  24  44  71 102 141 191 242 305 377 444
#     4  11  24  44  66 100 143 190 241 308 367 446
#     4  11  24  44  69 100 146 186 245 305 376 446
#     4  12  26  44  74 105 143 196 243 306 380 440
#     4  12  24  44  69 102 146 185 245 309 364 453
#     4  12  28  52  76 110 154 196 251 314 380 455
#     4  12  23  42  71 103 141 190 251 295 376 448
#
# _framework density 21.781889
#
# number of rings (size 3 to 8) (size 9 to 14) (size 15 to 20)
#    0.000    0.500    3.750    4.500    1.750    2.000 
#    0.000    0.000    0.000    0.000    0.000    0.000 
#    0.000    0.000    0.000    0.000    0.000    0.000 
#
# Total GULP energy -89206.616810 kJ/mol
# GULP energy per Si atom -5575.413551 kJ/mol
# Density = 2.173231 g / cm^3
# Si number density = 21.781889 Si / 1000 Ang^3
#
#
#
# Elastic Constant Matrix: (Units=GPa)
#
#
# Indices 1 2 3 4 5 6 
#
# 1 73.4679 23.3256 2.5323 -4.7955 -8.2252 -1.2368
# 2 23.3256 62.4639 39.5656 15.9414 -3.3265 -0.0136
# 3 2.5323 39.5656 100.1664 -3.9356 -2.9835 9.6973
# 4 -4.7955 15.9414 -3.9356 36.6463 1.0989 -0.7277
# 5 -8.2252 -3.3265 -2.9835 1.0989 46.9067 6.9091
# 6 -1.2368 -0.0136 9.6973 -0.7277 6.9091 26.2851
#
#
#
# Elastic Compliance Matrix: (Units=1/GPa)
#
#
# Indices 1 2 3 4 5 6 
#
# 1 0.017828 -0.011343 0.004536 0.007650 0.002625 -0.001319
# 2 -0.011343 0.033632 -0.014135 -0.017523 -0.000742 0.004408
# 3 0.004536 -0.014135 0.016408 0.008339 0.001528 -0.006018
# 4 0.007650 -0.017523 0.008339 0.036772 0.000020 -0.001713
# 5 0.002625 -0.000742 0.001528 0.000020 0.022770 -0.006425
# 6 -0.001319 0.004408 -0.006018 -0.001713 -0.006425 0.041846
#
#
# Mechanical properties :
#
#
# Convention : Reuss Voigt Hill
#
# Bulk Modulus (GPa) = 38.48678 40.77170 39.62924
# Shear Modulus (GPa) = 22.74780 33.34592 28.04686
#
# Velocity S-wave (km/s) = 3.23514 3.91692 3.59224
# Velocity P-wave (km/s) = 5.62693 6.26220 5.95304
#
# Compressibility (1/GPa) = 0.02598295
#
# Stress axis : x y z
#
# Youngs Moduli (GPa) = 56.09305 29.73345 60.94637
#
# Poissons Ratio (x) = 0.33728 -0.27648
# Poissons Ratio (y) = 0.63629 0.86149
# Poissons Ratio (z) = -0.25446 0.42029
#
# Static dielectric constant tensor:
#      x y z
#    x 1.732120 0.172140 -0.007290 
#    y 0.172140 1.839730 -0.064990 
#    z -0.007290 -0.064990 1.828090 
# 
# From -- ./inp_files/106721.got.cif
#   From: 2010.05.17/outbox.cif.g08.bks.cpg/sg2_54_cif.got.tgz:106721.got - 2010.06.03 11:33:40.
