data_PCOD9060793
_publ_section_title
;
Structure prediction by ZEFSAII (Michael W. Deem and Ramdas Pophale) SiO2 
 PCOD9060793
Probable space group: P -1
;
_chemical_formula_sum "Si O2"
_cell_formula_units_Z 16
_cell_length_a 12.066846
_cell_length_b 8.680148
_cell_length_c 13.104490
_cell_angle_alpha 105.515889
_cell_angle_beta 133.283623
_cell_angle_gamma 54.346746
_cell_volume 791.399539
_symmetry_space_group_name_H-M "P -1"
_symmetry_group_IT_number 2
_symmetry_cell_setting 'triclinic'
loop_
_space_group_symop_operation_xyz
x,y,z
-x,-y,-z
loop_
_atom_site_type_symbol
_atom_site_label
_atom_site_fract_x
_atom_site_fract_y
_atom_site_fract_z
Si Si1 0.695699 0.941407 0.570571
Si Si2 0.612447 0.532595 0.990103
Si Si3 0.664770 0.300219 0.519452
Si Si4 0.219795 0.347893 0.602008
Si Si5 0.273325 0.688780 0.678109
Si Si6 0.047015 0.879135 0.904807
Si Si7 0.068106 0.045747 0.748638
Si Si8 0.328663 0.157627 0.847369
O O1 0.759714 0.755560 0.509607
O O2 0.863243 0.900953 0.744856
O O3 0.500000 0.000000 0.500000
O O4 0.647274 0.124860 0.504166
O O5 0.449863 0.671336 0.834231
O O6 0.500000 0.500000 0.000000
O O7 0.779908 0.341057 0.008246
O O8 0.700648 0.639875 0.108261
O O9 0.500000 0.500000 0.500000
O O10 0.706520 0.299889 0.426874
O O11 0.862797 0.226134 0.677778
O O12 0.290560 0.488823 0.673893
O O13 0.320406 0.179093 0.722506
O O14 0.000000 0.500000 0.500000
O O15 0.098891 0.876891 0.659224
O O16 0.131598 0.942107 0.879756
O O17 0.000000 0.000000 0.000000
O O18 0.170235 0.131415 0.776768
O O19 0.500000 0.000000 0.000000
#
# Coordination Sequence:
#
# PCOD9060793 Si02
#       8
#     2   2   2   2   2   2   2   2
#     4  11  26  45  68 102 136 180 237 280 342 419
#     4  12  23  43  69 100 136 177 230 274 348 416
#     4  11  25  43  66  96 140 178 225 277 347 406
#     4  12  24  41  71  99 135 180 231 292 346 407
#     4  12  23  42  71  97 136 180 227 287 342 409
#     4  11  26  47  70  96 140 184 227 285 349 416
#     4  11  23  44  68 100 132 176 228 283 343 410
#     4  12  23  40  68 106 139 173 230 294 342 412
#
# _framework density 20.217348999999999
#
# number of rings (size 3 to 8) (size 9 to 14) (size 15 to 20)
#    0.000    0.500    3.750    4.875    5.250    1.000 
#    0.000    0.625    0.000    0.000    0.000    0.000 
#    0.000    0.000    0.000    0.000    0.000    0.000 
#
# Total GULP energy -89189.939754 kJ/mol
# GULP energy per Si atom -5574.371235 kJ/mol
# Density = 2.017133 g / cm^3
# Si number density = 20.217349 Si / 1000 Ang^3
#
#
#
# Elastic Constant Matrix: (Units=GPa)
#
#
# Indices 1 2 3 4 5 6 
#
# 1 107.7495 49.6138 9.7760 10.5969 1.6874 6.4236
# 2 49.6138 128.0581 24.4744 16.4987 7.4436 -32.3679
# 3 9.7760 24.4744 63.0216 8.8760 -4.3083 -9.4019
# 4 10.5969 16.4987 8.8760 44.1268 0.9889 2.7155
# 5 1.6874 7.4436 -4.3083 0.9889 33.4450 5.4503
# 6 6.4236 -32.3679 -9.4019 2.7155 5.4503 48.0592
#
#
#
# Elastic Compliance Matrix: (Units=1/GPa)
#
#
# Indices 1 2 3 4 5 6 
#
# 1 0.012692 -0.006564 -0.000214 -0.000201 0.001835 -0.006356
# 2 -0.006564 0.014378 -0.002754 -0.003801 -0.004869 0.010789
# 3 -0.000214 -0.002754 0.017752 -0.002643 0.002747 0.001485
# 4 -0.000201 -0.003801 -0.002643 0.024929 0.000515 -0.004517
# 5 0.001835 -0.004869 0.002747 0.000515 0.032319 -0.006682
# 6 -0.006356 0.010789 0.001485 -0.004517 -0.006682 0.030227
#
#
# Mechanical properties :
#
#
# Convention : Reuss Voigt Hill
#
# Bulk Modulus (GPa) = 38.82166 51.83971 45.33069
# Shear Modulus (GPa) = 31.26047 39.45719 35.35883
#
# Velocity S-wave (km/s) = 3.93647 4.42254 4.18656
# Velocity P-wave (km/s) = 6.31703 7.19551 6.77053
#
# Compressibility (1/GPa) = 0.02575881
#
# Stress axis : x y z
#
# Youngs Moduli (GPa) = 78.78680 69.55083 56.33292
#
# Poissons Ratio (x) = 0.45652 0.01207
# Poissons Ratio (y) = 0.51714 0.15511
# Poissons Ratio (z) = 0.01689 0.19151
#
# Static dielectric constant tensor:
#      x y z
#    x 1.782980 0.061550 -0.092680 
#    y 0.061550 1.715680 -0.078230 
#    z -0.092680 -0.078230 1.967410 
# 
# From -- ./inp_files/223425.got.cif
#   From: 2010.05.17/outbox.cif.g08.bks.cpg/sg2_112_cif.got.tgz:223425.got - 2010.06.03 11:33:40.
