data_PCOD9060761
_publ_section_title
;
Structure prediction by ZEFSAII (Michael W. Deem and Ramdas Pophale) SiO2 
 PCOD9060761
Probable space group: P -1
;
_chemical_formula_sum "Si O2"
_cell_formula_units_Z 16
_cell_length_a 13.857369
_cell_length_b 13.074840
_cell_length_c 8.984099
_cell_angle_alpha 124.119063
_cell_angle_beta 152.964226
_cell_angle_gamma 55.882022
_cell_volume 604.363554
_symmetry_space_group_name_H-M "P -1"
_symmetry_group_IT_number 2
_symmetry_cell_setting 'triclinic'
loop_
_space_group_symop_operation_xyz
x,y,z
-x,-y,-z
loop_
_atom_site_type_symbol
_atom_site_label
_atom_site_fract_x
_atom_site_fract_y
_atom_site_fract_z
Si Si1 0.758491 0.705298 0.007852
Si Si2 0.986691 0.512239 0.667978
Si Si3 0.756072 0.930142 0.718314
Si Si4 0.494817 0.932288 0.780864
Si Si5 0.412255 0.412850 0.617517
Si Si6 0.167129 0.739348 0.196488
Si Si7 0.356349 0.817491 0.118136
Si Si8 0.401737 0.696795 0.766364
O O1 0.733643 0.848274 0.031850
O O2 0.687096 0.627074 0.706279
O O3 0.600742 0.711027 0.941756
O O4 0.969857 0.621633 0.297781
O O5 0.000000 0.500000 0.500000
O O6 0.764848 0.584131 0.491847
O O7 0.166561 0.597191 0.029754
O O8 0.575347 0.869771 0.509781
O O9 0.634863 0.968405 0.428873
O O10 0.811768 0.059065 0.971176
O O11 0.960034 0.824039 0.912023
O O12 0.351826 0.821088 0.481439
O O13 0.500000 0.000000 0.000000
O O14 0.620674 0.313502 0.871092
O O15 0.448837 0.553758 0.765489
O O16 0.190482 0.725731 0.395671
O O17 0.366028 0.784553 0.931854
#
# Coordination Sequence:
#
# PCOD9060761 Si02
#       8
#     2   2   2   2   2   2   2   2
#     4  11  24  45  72 101 141 182 235 291 352 420
#     4  12  27  44  71 107 145 183 232 300 356 417
#     4  11  23  44  66  99 140 186 234 288 348 413
#     4  11  25  45  72 101 139 191 237 288 353 420
#     4  12  23  46  70 103 140 183 234 294 357 414
#     4  11  25  44  70 101 143 179 236 297 345 421
#     4  11  24  43  70  98 139 186 234 288 348 422
#     4  11  25  44  71 105 139 184 237 291 356 420
#
# _framework density 26.474129000000001
#
# number of rings (size 3 to 8) (size 9 to 14) (size 15 to 20)
#    0.000    0.750    3.750    3.750    3.500    1.500 
#    2.250    0.000    0.000    0.000    0.000    0.000 
#    0.000    0.000    0.000    0.000    0.000    0.000 
#
# Total GULP energy -89498.054993 kJ/mol
# GULP energy per Si atom -5593.628437 kJ/mol
# Density = 2.641387 g / cm^3
# Si number density = 26.474129 Si / 1000 Ang^3
#
#
#
# Elastic Constant Matrix: (Units=GPa)
#
#
# Indices 1 2 3 4 5 6 
#
# 1 96.2751 26.5387 38.6160 4.9201 -34.3826 3.4373
# 2 26.5387 172.5809 45.3995 -16.2085 -25.7748 6.8311
# 3 38.6160 45.3995 92.7038 -2.4485 -44.5211 -6.3772
# 4 4.9201 -16.2085 -2.4485 41.6888 -3.0445 -11.2259
# 5 -34.3826 -25.7748 -44.5211 -3.0445 62.3677 8.1017
# 6 3.4373 6.8311 -6.3772 -11.2259 8.1017 48.2743
#
#
#
# Elastic Compliance Matrix: (Units=1/GPa)
#
#
# Indices 1 2 3 4 5 6 
#
# 1 0.013999 -0.000624 -0.003169 -0.002440 0.005443 -0.002808
# 2 -0.000624 0.007007 -0.002784 0.002457 0.000799 -0.000878
# 3 -0.003169 -0.002784 0.018517 0.001588 0.010174 0.001727
# 4 -0.002440 0.002457 0.001588 0.027065 0.001332 0.006106
# 5 0.005443 0.000799 0.010174 0.001332 0.027134 -0.003401
# 6 -0.002808 -0.000878 0.001727 0.006106 -0.003401 0.023258
#
#
# Mechanical properties :
#
#
# Convention : Reuss Voigt Hill
#
# Bulk Modulus (GPa) = 37.92270 64.74091 51.33180
# Shear Modulus (GPa) = 35.99082 47.19988 41.59535
#
# Velocity S-wave (km/s) = 3.69110 4.22698 3.96810
# Velocity P-wave (km/s) = 5.70273 6.95203 6.35814
#
# Compressibility (1/GPa) = 0.02636943
#
# Stress axis : x y z
#
# Youngs Moduli (GPa) = 71.43463 142.70700 54.00349
#
# Poissons Ratio (x) = 0.08905 0.17116
# Poissons Ratio (y) = 0.04458 0.15033
# Poissons Ratio (z) = 0.22640 0.39724
#
# Static dielectric constant tensor:
#      x y z
#    x 2.177740 -0.005870 0.047310 
#    y -0.005870 2.090730 -0.054010 
#    z 0.047310 -0.054010 2.083490 
# 
# From -- ./inp_files/315998.got.cif
#   From: 2010.05.17/outbox.cif.g08.bks.cpg/sg2_158_cif.got.tgz:315998.got - 2010.06.03 11:33:40.
