data_PCOD9060888
_publ_section_title
;
Structure prediction by ZEFSAII (Michael W. Deem and Ramdas Pophale) SiO2 
 PCOD9060888
Probable space group: P -1
;
_chemical_formula_sum "Si O2"
_cell_formula_units_Z 14
_cell_length_a 21.790725
_cell_length_b 11.639295
_cell_length_c 21.898150
_cell_angle_alpha 28.403102
_cell_angle_beta 161.312284
_cell_angle_gamma 159.632682
_cell_volume 617.578583
_symmetry_space_group_name_H-M "P -1"
_symmetry_group_IT_number 2
_symmetry_cell_setting 'triclinic'
loop_
_space_group_symop_operation_xyz
x,y,z
-x,-y,-z
loop_
_atom_site_type_symbol
_atom_site_label
_atom_site_fract_x
_atom_site_fract_y
_atom_site_fract_z
Si Si1 0.617385 0.221670 0.240056
Si Si2 0.711086 0.687765 0.398484
Si Si3 0.747265 0.708054 0.936925
Si Si4 0.447200 0.914808 0.899752
Si Si5 0.877556 0.086678 0.006659
Si Si6 0.041440 0.326963 0.250823
Si Si7 0.892583 0.005491 0.637256
O O1 0.624750 0.197871 0.185617
O O2 0.659268 0.994895 0.415347
O O3 0.849467 0.601210 0.300998
O O4 0.343989 0.086382 0.069446
O O5 0.512010 0.430842 0.278596
O O6 0.758537 0.540773 0.566790
O O7 0.587917 0.833286 0.238656
O O8 0.000000 0.000000 0.500000
O O9 0.771693 0.846407 0.961859
O O10 0.727911 0.403467 0.072509
O O11 0.000000 0.000000 0.000000
O O12 0.743351 0.074373 0.112597
O O13 0.937796 0.403605 0.891168
O O14 0.114273 0.155641 0.231804
O O15 0.086517 0.150004 0.328361
#
# Coordination Sequence:
#
# PCOD9060888 Si02
#       7
#     2   2   2   2   2   2   2
#     4  11  24  42  75 105 140 186 236 304 362 427
#     4  12  28  48  75 105 145 196 246 290 356 436
#     4  12  28  50  75 104 149 195 243 296 353 434
#     4  12  24  49  75 103 144 191 243 297 364 423
#     4  12  26  44  71 106 145 185 237 300 363 424
#     4  12  26  45  73 107 145 191 236 302 364 427
#     4  11  23  44  69 108 142 183 239 295 369 427
#
# _framework density 22.669180000000001
#
# number of rings (size 3 to 8) (size 9 to 14) (size 15 to 20)
#    0.000    0.286    5.714    3.000    2.000    3.429 
#    0.000    0.000    0.000    0.000    0.000    0.000 
#    0.000    0.000    0.000    0.000    0.000    0.000 
#
# Total GULP energy -78446.267639 kJ/mol
# GULP energy per Si atom -5603.304831 kJ/mol
# Density = 2.261758 g / cm^3
# Si number density = 22.669180 Si / 1000 Ang^3
#
#
#
# Elastic Constant Matrix: (Units=GPa)
#
#
# Indices 1 2 3 4 5 6 
#
# 1 92.9404 9.3722 37.2115 -5.0545 -22.3319 -6.8797
# 2 9.3722 57.6419 22.7516 -17.5004 -0.8571 15.1536
# 3 37.2115 22.7516 138.7116 -23.5810 -25.9217 1.1189
# 4 -5.0545 -17.5004 -23.5810 45.9647 0.7546 -2.1373
# 5 -22.3319 -0.8571 -25.9217 0.7546 39.5253 -9.1023
# 6 -6.8797 15.1536 1.1189 -2.1373 -9.1023 32.5291
#
#
#
# Elastic Compliance Matrix: (Units=1/GPa)
#
#
# Indices 1 2 3 4 5 6 
#
# 1 0.014385 -0.003499 -0.001843 -0.000506 0.008482 0.007076
# 2 -0.003499 0.024701 -0.003083 0.006918 -0.006720 -0.013567
# 3 -0.001843 -0.003083 0.009934 0.003744 0.005937 0.002612
# 4 -0.000506 0.006918 0.003744 0.026169 0.001517 -0.001314
# 5 0.008482 -0.006720 0.005937 0.001517 0.037327 0.015265
# 6 0.007076 -0.013567 0.002612 -0.001314 0.015265 0.042653
#
#
# Mechanical properties :
#
#
# Convention : Reuss Voigt Hill
#
# Bulk Modulus (GPa) = 31.08538 47.55160 39.31849
# Shear Modulus (GPa) = 27.36087 38.26772 32.81430
#
# Velocity S-wave (km/s) = 3.47791 4.11310 3.80877
# Velocity P-wave (km/s) = 5.46536 6.60141 6.06007
#
# Compressibility (1/GPa) = 0.03216947
#
# Stress axis : x y z
#
# Youngs Moduli (GPa) = 69.51852 40.48377 100.66238
#
# Poissons Ratio (x) = 0.14166 0.18552
# Poissons Ratio (y) = 0.24325 0.31036
# Poissons Ratio (z) = 0.12813 0.12482
#
# Static dielectric constant tensor:
#      x y z
#    x 1.816320 0.010900 -0.026820 
#    y 0.010900 1.873080 -0.001620 
#    z -0.026820 -0.001620 1.842430 
# 
# From -- ./inp_files/256067.got.cif
#   From: 2010.05.17/outbox.cif.g08.bks.cpg/sg2_129_cif.got.tgz:256067.got - 2010.06.03 11:33:40.
