data_PCOD9060883
_publ_section_title
;
Structure prediction by ZEFSAII (Michael W. Deem and Ramdas Pophale) SiO2 
 PCOD9060883
Probable space group: P -1
;
_chemical_formula_sum "Si O2"
_cell_formula_units_Z 15
_cell_length_a 17.850345
_cell_length_b 6.414275
_cell_length_c 10.362207
_cell_angle_alpha 72.735893
_cell_angle_beta 143.672546
_cell_angle_gamma 117.377963
_cell_volume 617.966398
_symmetry_space_group_name_H-M "P -1"
_symmetry_group_IT_number 2
_symmetry_cell_setting 'triclinic'
loop_
_space_group_symop_operation_xyz
x,y,z
-x,-y,-z
loop_
_atom_site_type_symbol
_atom_site_label
_atom_site_fract_x
_atom_site_fract_y
_atom_site_fract_z
Si Si1 0.500000 0.000000 0.500000
Si Si2 0.036135 0.252264 0.937810
Si Si3 0.442296 0.196295 0.755107
Si Si4 0.337956 0.550062 0.400613
Si Si5 0.880819 0.520362 0.245105
Si Si6 0.249570 0.721032 0.481264
Si Si7 0.667384 0.040918 0.961820
Si Si8 0.327447 0.431975 0.842933
O O1 0.560714 0.275488 0.592420
O O2 0.612597 0.945406 0.761226
O O3 0.062685 0.268446 0.818298
O O4 0.905929 0.324994 0.760404
O O5 0.181390 0.420224 0.168263
O O6 0.000000 0.000000 0.000000
O O7 0.392685 0.366889 0.570168
O O8 0.554126 0.107843 0.867475
O O9 0.310052 0.946390 0.619350
O O10 0.522520 0.365037 0.953525
O O11 0.339240 0.761257 0.465227
O O12 0.770420 0.547166 0.182504
O O13 0.000000 0.500000 0.500000
O O14 0.806744 0.273745 0.110952
O O15 0.270134 0.503357 0.619794
O O16 0.683001 0.832402 0.105274
#
# Coordination Sequence:
#
# PCOD9060883 Si02
#       8
#     1   2   2   2   2   2   2   2
#     4  12  22  46  70 102 140 182 240 290 360 410
#     4  12  26  48  73 104 141 193 235 294 360 421
#     4  11  23  44  69 105 138 181 233 292 358 422
#     4  12  26  45  72 105 141 186 235 295 355 424
#     4  11  25  48  71 102 142 185 242 290 351 429
#     4  12  25  45  69 103 147 185 236 289 355 429
#     4  11  25  43  72 104 138 185 236 296 355 421
#     4  11  25  44  73 106 138 185 235 296 355 419
#
# _framework density 24.273164000000001
#
# number of rings (size 3 to 8) (size 9 to 14) (size 15 to 20)
#    0.000    0.533    6.667    0.800    0.000    8.533 
#    2.400    0.000    0.000    0.000    0.000    0.000 
#    0.000    0.000    0.000    0.000    0.000    0.000 
#
# Total GULP energy -83712.508855 kJ/mol
# GULP energy per Si atom -5580.833924 kJ/mol
# Density = 2.421792 g / cm^3
# Si number density = 24.273164 Si / 1000 Ang^3
#
#
#
# Elastic Constant Matrix: (Units=GPa)
#
#
# Indices 1 2 3 4 5 6 
#
# 1 48.5226 18.7714 8.3221 -2.9095 -4.3682 -4.8235
# 2 18.7714 158.5662 73.6376 -19.4171 5.8413 16.2510
# 3 8.3221 73.6376 182.7793 -7.0985 15.3785 -2.3596
# 4 -2.9095 -19.4171 -7.0985 55.1400 1.0527 -3.8636
# 5 -4.3682 5.8413 15.3785 1.0527 28.6148 -3.0596
# 6 -4.8235 16.2510 -2.3596 -3.8636 -3.0596 32.1260
#
#
#
# Elastic Compliance Matrix: (Units=1/GPa)
#
#
# Indices 1 2 3 4 5 6 
#
# 1 0.022955 -0.003452 0.000028 0.000306 0.004791 0.005688
# 2 -0.003452 0.009158 -0.003411 0.002259 -0.001207 -0.005245
# 3 0.000028 -0.003411 0.007110 -0.000091 -0.002907 0.001964
# 4 0.000306 0.002259 -0.000091 0.019030 -0.000949 0.001095
# 5 0.004791 -0.001207 -0.002907 -0.000949 0.038017 0.004623
# 6 0.005688 -0.005245 0.001964 0.001095 0.004623 0.035351
#
#
# Mechanical properties :
#
#
# Convention : Reuss Voigt Hill
#
# Bulk Modulus (GPa) = 39.13471 65.70338 52.41905
# Shear Modulus (GPa) = 32.50803 42.45195 37.47999
#
# Velocity S-wave (km/s) = 3.66356 4.18655 3.93376
# Velocity P-wave (km/s) = 5.83551 7.10610 6.50192
#
# Compressibility (1/GPa) = 0.02555276
#
# Stress axis : x y z
#
# Youngs Moduli (GPa) = 43.56384 109.19750 140.64087
#
# Poissons Ratio (x) = 0.37699 -0.00393
# Poissons Ratio (y) = 0.15040 0.47967
# Poissons Ratio (z) = -0.00122 0.37243
#
# Static dielectric constant tensor:
#      x y z
#    x 1.721100 -0.190250 -0.028400 
#    y -0.190250 1.822040 0.023830 
#    z -0.028400 0.023830 1.958720 
# 
# From -- ./inp_files/71051.got.cif
#   From: 2010.05.17/outbox.cif.g08.bks.cpg/sg2_36_cif.got.tgz:71051.got - 2010.06.03 11:33:40.
