data_PCOD9060979
_publ_section_title
;
Structure prediction by ZEFSAII (Michael W. Deem and Ramdas Pophale) SiO2 
 PCOD9060979
Probable space group: P -1
;
_chemical_formula_sum "Si O2"
_cell_formula_units_Z 16
_cell_length_a 11.982436
_cell_length_b 9.306665
_cell_length_c 8.018280
_cell_angle_alpha 46.713777
_cell_angle_beta 102.123786
_cell_angle_gamma 101.653706
_cell_volume 634.266556
_symmetry_space_group_name_H-M "P -1"
_symmetry_group_IT_number 2
_symmetry_cell_setting 'triclinic'
loop_
_space_group_symop_operation_xyz
x,y,z
-x,-y,-z
loop_
_atom_site_type_symbol
_atom_site_label
_atom_site_fract_x
_atom_site_fract_y
_atom_site_fract_z
Si Si1 0.721603 0.238899 0.787625
Si Si2 0.234558 0.207089 0.513140
Si Si3 0.124483 0.054545 0.073886
Si Si4 0.562090 0.298272 0.189434
Si Si5 0.871648 0.571804 0.397205
Si Si6 0.796161 0.442412 0.999517
Si Si7 0.896603 0.120775 0.429511
Si Si8 0.487095 0.115835 0.667073
O O1 0.775975 0.393023 0.542354
O O2 0.780196 0.037682 0.934136
O O3 0.764923 0.340464 0.891003
O O4 0.586885 0.185754 0.771478
O O5 0.152701 0.282818 0.570441
O O6 0.368945 0.214315 0.592488
O O7 0.205745 0.982375 0.630312
O O8 0.208367 0.332013 0.239329
O O9 0.125433 0.940673 0.339203
O O10 0.141896 0.292024 0.877546
O O11 0.000000 0.000000 0.000000
O O12 0.693494 0.373148 0.145183
O O13 0.532557 0.204239 0.434125
O O14 0.528738 0.121165 0.186285
O O15 0.500000 0.500000 0.000000
O O16 0.000000 0.500000 0.500000
O O17 0.904508 0.348716 0.193545
O O18 0.000000 0.000000 0.500000
#
# Coordination Sequence:
#
# PCOD9060979 Si02
#       8
#     2   2   2   2   2   2   2   2
#     4  11  26  44  74 109 144 192 247 301 367 435
#     4  11  25  48  72 106 148 192 246 300 370 441
#     4  12  25  47  74 102 142 192 250 304 368 433
#     4  11  23  44  70  99 148 188 238 299 365 433
#     4  11  25  47  74 102 151 188 242 307 362 438
#     4  11  24  46  71 104 146 188 242 301 364 434
#     4  12  27  45  73 102 141 191 246 306 368 433
#     4  11  25  45  72 107 146 192 249 299 366 443
#
# _framework density 25.225985999999999
#
# number of rings (size 3 to 8) (size 9 to 14) (size 15 to 20)
#    0.000    0.750    3.750    3.000    3.500    6.000 
#    0.000    0.000    0.000    0.000    0.000    0.000 
#    0.000    0.000    0.000    0.000    0.000    0.000 
#
# Total GULP energy -89562.901246 kJ/mol
# GULP energy per Si atom -5597.681328 kJ/mol
# Density = 2.516857 g / cm^3
# Si number density = 25.225986 Si / 1000 Ang^3
#
#
#
# Elastic Constant Matrix: (Units=GPa)
#
#
# Indices 1 2 3 4 5 6 
#
# 1 116.9032 14.6882 27.4816 0.8521 6.6088 -19.6291
# 2 14.6882 87.4893 42.2278 -4.9568 5.2057 -15.5483
# 3 27.4816 42.2278 153.8976 -18.8646 3.5527 -2.9192
# 4 0.8521 -4.9568 -18.8646 54.2925 -4.1979 -2.1706
# 5 6.6088 5.2057 3.5527 -4.1979 39.6077 -4.1088
# 6 -19.6291 -15.5483 -2.9192 -2.1706 -4.1088 43.8028
#
#
#
# Elastic Compliance Matrix: (Units=1/GPa)
#
#
# Indices 1 2 3 4 5 6 
#
# 1 0.009713 -0.000058 -0.001698 -0.000670 -0.001108 0.004082
# 2 -0.000058 0.014141 -0.003746 0.000098 -0.001020 0.004653
# 3 -0.001698 -0.003746 0.008099 0.002455 0.000163 -0.001414
# 4 -0.000670 0.000098 0.002455 0.019492 0.002054 0.001056
# 5 -0.001108 -0.001020 0.000163 0.002054 0.025945 0.001688
# 6 0.004082 0.004653 -0.001414 0.001056 0.001688 0.026427
#
#
# Mechanical properties :
#
#
# Convention : Reuss Voigt Hill
#
# Bulk Modulus (GPa) = 47.73232 58.56503 53.14868
# Shear Modulus (GPa) = 41.04952 45.80011 43.42481
#
# Velocity S-wave (km/s) = 4.03832 4.26560 4.15352
# Velocity P-wave (km/s) = 6.38020 6.89398 6.64206
#
# Compressibility (1/GPa) = 0.02095017
#
# Stress axis : x y z
#
# Youngs Moduli (GPa) = 102.95046 70.71700 123.46890
#
# Poissons Ratio (x) = 0.00409 0.20962
# Poissons Ratio (y) = 0.00596 0.46252
# Poissons Ratio (z) = 0.17479 0.26491
#
# Static dielectric constant tensor:
#      x y z
#    x 2.050160 0.080680 0.036200 
#    y 0.080680 2.104080 0.029090 
#    z 0.036200 0.029090 2.033200 
# 
# From -- ./inp_files/255824.got.cif
#   From: 2010.05.17/outbox.cif.g08.bks.cpg/sg2_128_cif.got.tgz:255824.got - 2010.06.03 11:33:40.
