data_PCOD9060211
_publ_section_title
;
Structure prediction by ZEFSAII (Michael W. Deem and Ramdas Pophale) SiO2 
 PCOD9060211
Probable space group: P -1
;
_chemical_formula_sum "Si O2"
_cell_formula_units_Z 16
_cell_length_a 8.575751
_cell_length_b 13.363267
_cell_length_c 15.704348
_cell_angle_alpha 27.619898
_cell_angle_beta 104.663106
_cell_angle_gamma 90.956576
_cell_volume 715.512758
_symmetry_space_group_name_H-M "P -1"
_symmetry_group_IT_number 2
_symmetry_cell_setting 'triclinic'
loop_
_space_group_symop_operation_xyz
x,y,z
-x,-y,-z
loop_
_atom_site_type_symbol
_atom_site_label
_atom_site_fract_x
_atom_site_fract_y
_atom_site_fract_z
Si Si1 0.061293 0.124322 0.279233
Si Si2 0.159751 0.424880 0.200339
Si Si3 0.526267 0.296268 0.825070
Si Si4 0.462951 0.821710 0.484632
Si Si5 0.149877 0.543142 0.535891
Si Si6 0.932145 0.362954 0.349154
Si Si7 0.198119 0.897476 0.144873
Si Si8 0.405652 0.155811 0.070314
O O1 0.077792 0.285415 0.235969
O O2 0.261342 0.985164 0.369306
O O3 0.017117 0.910779 0.463220
O O4 0.915741 0.309354 0.052359
O O5 0.375698 0.268757 0.355920
O O6 0.074331 0.441817 0.269132
O O7 0.478759 0.571122 0.637883
O O8 0.342847 0.306151 0.753200
O O9 0.671795 0.218356 0.830354
O O10 0.552987 0.150097 0.026923
O O11 0.489189 0.983586 0.292348
O O12 0.078358 0.632497 0.553505
O O13 0.198448 0.718092 0.353539
O O14 0.000000 0.500000 0.500000
O O15 0.731214 0.561770 0.139737
O O16 0.268990 0.069764 0.070724
O O17 0.000000 0.000000 0.000000
#
# Coordination Sequence:
#
# PCOD9060211 Si02
#       8
#     2   2   2   2   2   2   2   2
#     4  11  23  51  69 103 144 176 237 296 350 421
#     4  11  27  41  78 105 132 188 233 292 359 423
#     4  11  25  44  66  97 142 187 235 290 350 411
#     4  12  24  44  73  99 143 180 232 289 362 419
#     4  11  24  42  67  98 136 186 233 285 342 419
#     4  11  23  46  69  97 146 183 227 289 356 404
#     4  12  25  41  67  99 139 188 240 290 346 415
#     4  11  23  43  67  98 139 192 226 296 348 416
#
# _framework density 22.361585000000002
#
# number of rings (size 3 to 8) (size 9 to 14) (size 15 to 20)
#    0.000    0.750    5.000    3.000    3.500    2.000 
#    0.000    0.625    0.000    0.000    0.000    0.000 
#    0.000    0.000    0.000    0.000    0.000    0.000 
#
# Total GULP energy -89489.393852 kJ/mol
# GULP energy per Si atom -5593.087116 kJ/mol
# Density = 2.231069 g / cm^3
# Si number density = 22.361585 Si / 1000 Ang^3
#
#
#
# Elastic Constant Matrix: (Units=GPa)
#
#
# Indices 1 2 3 4 5 6 
#
# 1 51.4037 22.1905 36.1944 14.9290 -4.3887 -8.0119
# 2 22.1905 29.0076 20.0833 1.8074 -1.2138 -1.0001
# 3 36.1944 20.0833 144.4133 16.5360 -20.0177 2.2197
# 4 14.9290 1.8074 16.5360 36.7825 2.1403 3.6659
# 5 -4.3887 -1.2138 -20.0177 2.1403 40.5563 6.0569
# 6 -8.0119 -1.0001 2.2197 3.6659 6.0569 35.7457
#
#
#
# Elastic Compliance Matrix: (Units=1/GPa)
#
#
# Indices 1 2 3 4 5 6 
#
# 1 0.039408 -0.025580 -0.004870 -0.013540 0.000354 0.009748
# 2 -0.025580 0.054965 -0.002542 0.009413 -0.002183 -0.004633
# 3 -0.004870 -0.002542 0.009404 -0.002160 0.004494 -0.002287
# 4 -0.013540 0.009413 -0.002160 0.033933 -0.003208 -0.005574
# 5 0.000354 -0.002183 0.004494 -0.003208 0.027708 -0.004627
# 6 0.009748 -0.004633 -0.002287 -0.005574 -0.004627 0.031528
#
#
# Mechanical properties :
#
#
# Convention : Reuss Voigt Hill
#
# Bulk Modulus (GPa) = 26.46019 42.41791 34.43905
# Shear Modulus (GPa) = 18.14703 32.37399 25.26051
#
# Velocity S-wave (km/s) = 2.85182 3.80906 3.36466
# Velocity P-wave (km/s) = 4.76470 6.19318 5.52530
#
# Compressibility (1/GPa) = 0.03779263
#
# Stress axis : x y z
#
# Youngs Moduli (GPa) = 25.37583 18.19350 106.33856
#
# Poissons Ratio (x) = 0.46540 0.51783
# Poissons Ratio (y) = 0.64912 0.27029
# Poissons Ratio (z) = 0.12357 0.04624
#
# Static dielectric constant tensor:
#      x y z
#    x 1.841880 0.003450 -0.015590 
#    y 0.003450 1.849850 0.002400 
#    z -0.015590 0.002400 1.888460 
# 
# From -- ./inp_files/499765.got.cif
#   From: 2010.05.17/outbox.cif.g08.bks.cpg/sg2_250_cif.got.tgz:499765.got - 2010.06.03 11:33:40.
