data_PCOD9060539
_publ_section_title
;
Structure prediction by ZEFSAII (Michael W. Deem and Ramdas Pophale) SiO2 
 PCOD9060539
Probable space group: P -1
;
_chemical_formula_sum "Si O2"
_cell_formula_units_Z 14
_cell_length_a 9.508096
_cell_length_b 12.360562
_cell_length_c 9.141065
_cell_angle_alpha 127.854105
_cell_angle_beta 133.945786
_cell_angle_gamma 67.023603
_cell_volume 609.542694
_symmetry_space_group_name_H-M "P -1"
_symmetry_group_IT_number 2
_symmetry_cell_setting 'triclinic'
loop_
_space_group_symop_operation_xyz
x,y,z
-x,-y,-z
loop_
_atom_site_type_symbol
_atom_site_label
_atom_site_fract_x
_atom_site_fract_y
_atom_site_fract_z
Si Si1 0.843353 0.115954 0.482619
Si Si2 0.399865 0.343488 0.959802
Si Si3 0.512210 0.963240 0.307548
Si Si4 0.999886 0.781612 0.920692
Si Si5 0.796014 0.456350 0.236896
Si Si6 0.899699 0.637109 0.994576
Si Si7 0.089687 0.923168 0.827170
O O1 0.938697 0.247880 0.739500
O O2 0.840540 0.140701 0.326347
O O3 0.647876 0.061983 0.381046
O O4 0.000000 0.000000 0.500000
O O5 0.409597 0.187651 0.784068
O O6 0.270956 0.427953 0.824975
O O7 0.295220 0.347174 0.042192
O O8 0.615787 0.417684 0.181368
O O9 0.500000 0.000000 0.500000
O O10 0.291631 0.960365 0.087595
O O11 0.181608 0.685371 0.955603
O O12 0.962021 0.821180 0.757038
O O13 0.861169 0.679045 0.833264
O O14 0.012433 0.931408 0.131383
O O15 0.000000 0.500000 0.500000
O O16 0.000000 0.500000 0.000000
#
# Coordination Sequence:
#
# PCOD9060539 Si02
#       7
#     2   2   2   2   2   2   2
#     4  12  25  43  75 103 146 196 244 308 381 432
#     4  11  25  46  74 105 149 196 249 307 374 448
#     4  12  26  44  75 108 145 193 252 311 371 445
#     4  11  23  43  72 105 143 192 246 306 367 441
#     4  11  26  45  72 105 151 198 249 305 380 447
#     4  12  25  47  72 108 150 197 246 310 376 448
#     4  11  25  43  73 107 150 186 254 310 371 447
#
# _framework density 22.968036999999999
#
# number of rings (size 3 to 8) (size 9 to 14) (size 15 to 20)
#    0.000    0.571    5.714    1.286    6.000    0.000 
#    0.000    0.714    0.000    0.000    0.000    0.000 
#    0.000    0.000    0.000    0.000    0.000    0.000 
#
# Total GULP energy -78220.191259 kJ/mol
# GULP energy per Si atom -5587.156518 kJ/mol
# Density = 2.291576 g / cm^3
# Si number density = 22.968037 Si / 1000 Ang^3
#
#
#
# Elastic Constant Matrix: (Units=GPa)
#
#
# Indices 1 2 3 4 5 6 
#
# 1 206.2731 62.1719 38.6073 -10.8385 -9.1612 33.5992
# 2 62.1719 150.5320 25.9731 18.5516 -1.2573 5.8966
# 3 38.6073 25.9731 85.6531 -9.3150 4.1415 9.3012
# 4 -10.8385 18.5516 -9.3150 27.1347 -2.0013 -7.1267
# 5 -9.1612 -1.2573 4.1415 -2.0013 34.8237 -2.5623
# 6 33.5992 5.8966 9.3012 -7.1267 -2.5623 52.4699
#
#
#
# Elastic Compliance Matrix: (Units=1/GPa)
#
#
# Indices 1 2 3 4 5 6 
#
# 1 0.006764 -0.002797 -0.001576 0.003369 0.001825 -0.003191
# 2 -0.002797 0.009231 -0.002415 -0.008294 -0.000590 0.000026
# 3 -0.001576 -0.002415 0.013863 0.005506 -0.001872 -0.000521
# 4 0.003369 -0.008294 0.005506 0.047118 0.002959 0.004343
# 5 0.001825 -0.000590 -0.001872 0.002959 0.029647 0.001080
# 6 -0.003191 0.000026 -0.000521 0.004343 0.001080 0.021834
#
#
# Mechanical properties :
#
#
# Convention : Reuss Voigt Hill
#
# Bulk Modulus (GPa) = 61.41297 77.32921 69.37109
# Shear Modulus (GPa) = 33.90762 43.93274 38.92018
#
# Velocity S-wave (km/s) = 3.84643 4.37828 4.12094
# Velocity P-wave (km/s) = 6.82079 7.70067 7.27405
#
# Compressibility (1/GPa) = 0.01628320
#
# Stress axis : x y z
#
# Youngs Moduli (GPa) = 147.85056 108.33105 72.13191
#
# Poissons Ratio (x) = 0.30295 0.11368
# Poissons Ratio (y) = 0.41347 0.17419
# Poissons Ratio (z) = 0.23301 0.26161
#
# Static dielectric constant tensor:
#      x y z
#    x 1.913800 0.074430 -0.059190 
#    y 0.074430 1.913030 -0.032630 
#    z -0.059190 -0.032630 1.894680 
# 
# From -- ./inp_files/190476.got.cif
#   From: 2010.05.17/outbox.cif.g08.bks.cpg/sg2_96_cif.got.tgz:190476.got - 2010.06.03 11:33:40.
