data_PCOD9060900
_publ_section_title
;
Structure prediction by ZEFSAII (Michael W. Deem and Ramdas Pophale) SiO2 
 PCOD9060900
Probable space group: P -1
;
_chemical_formula_sum "Si O2"
_cell_formula_units_Z 16
_cell_length_a 14.494768
_cell_length_b 17.869235
_cell_length_c 23.549730
_cell_angle_alpha 18.515127
_cell_angle_beta 158.254617
_cell_angle_gamma 149.491806
_cell_volume 707.985620
_symmetry_space_group_name_H-M "P -1"
_symmetry_group_IT_number 2
_symmetry_cell_setting 'triclinic'
loop_
_space_group_symop_operation_xyz
x,y,z
-x,-y,-z
loop_
_atom_site_type_symbol
_atom_site_label
_atom_site_fract_x
_atom_site_fract_y
_atom_site_fract_z
Si Si1 0.997997 0.226395 0.877031
Si Si2 0.671504 0.024911 0.025481
Si Si3 0.583119 0.580335 0.575516
Si Si4 0.151218 0.179789 0.353823
Si Si5 0.713368 0.752451 0.863012
Si Si6 0.822005 0.906751 0.695486
Si Si7 0.500272 0.708356 0.930067
Si Si8 0.372134 0.939124 0.810417
O O1 0.714605 0.361130 0.623244
O O2 0.098277 0.165632 0.042198
O O3 0.210566 0.358677 0.875195
O O4 0.000000 0.000000 0.000000
O O5 0.643034 0.305370 0.790508
O O6 0.566452 0.899182 0.002406
O O7 0.958604 0.946440 0.266017
O O8 0.500000 0.000000 0.000000
O O9 0.740593 0.619002 0.694017
O O10 0.646658 0.786260 0.420606
O O11 0.114753 0.218452 0.238448
O O12 0.899203 0.112717 0.286627
O O13 0.372656 0.951221 0.652097
O O14 0.806100 0.738221 0.861552
O O15 0.449105 0.930326 0.583091
O O16 0.656953 0.493346 0.032495
O O17 0.470107 0.771792 0.933674
#
# Coordination Sequence:
#
# PCOD9060900 Si02
#       8
#     2   2   2   2   2   2   2   2
#     4  12  22  44  71 100 133 164 222 281 326 384
#     4  12  27  43  65  95 139 180 218 269 326 398
#     4  11  25  42  70 100 127 180 221 274 332 381
#     4  11  23  44  69  96 138 168 224 272 332 395
#     4  11  26  43  71  96 129 178 222 270 328 399
#     4  11  25  45  65  94 138 177 219 261 335 392
#     4  11  24  41  71  99 125 173 224 278 327 379
#     4  11  24  45  65 102 133 170 225 278 325 390
#
# _framework density 22.599329999999998
#
# number of rings (size 3 to 8) (size 9 to 14) (size 15 to 20)
#    0.000    0.750    5.000    3.000    7.000    1.500 
#    0.000    0.625    0.000    0.000    0.000    0.000 
#    0.000    0.000    0.000    0.000    0.000    0.000 
#
# Total GULP energy -89535.500816 kJ/mol
# GULP energy per Si atom -5595.968801 kJ/mol
# Density = 2.254789 g / cm^3
# Si number density = 22.599330 Si / 1000 Ang^3
#
#
#
# Elastic Constant Matrix: (Units=GPa)
#
#
# Indices 1 2 3 4 5 6 
#
# 1 161.6349 46.6773 28.7815 31.5393 -4.3392 -15.6007
# 2 46.6773 108.2791 34.9475 33.0877 -3.9074 -20.6384
# 3 28.7815 34.9475 90.7483 33.1322 7.8345 -5.8917
# 4 31.5393 33.0877 33.1322 42.4503 1.4059 -1.3825
# 5 -4.3392 -3.9074 7.8345 1.4059 24.6844 23.9918
# 6 -15.6007 -20.6384 -5.8917 -1.3825 23.9918 44.8022
#
#
#
# Elastic Compliance Matrix: (Units=1/GPa)
#
#
# Indices 1 2 3 4 5 6 
#
# 1 0.007694 -0.001571 -0.000016 -0.004377 -0.000853 0.002275
# 2 -0.001571 0.014359 -0.000649 -0.009034 -0.005893 0.008859
# 3 -0.000016 -0.000649 0.017586 -0.012464 -0.013670 0.008944
# 4 -0.004377 -0.009034 -0.012464 0.042841 0.010742 -0.011756
# 5 -0.000853 -0.005893 -0.013670 0.010742 0.099074 -0.057533
# 6 0.002275 0.008859 0.008944 -0.011756 -0.057533 0.058816
#
#
# Mechanical properties :
#
#
# Convention : Reuss Voigt Hill
#
# Bulk Modulus (GPa) = 28.43559 64.60832 46.52195
# Shear Modulus (GPa) = 19.48835 39.07110 29.27973
#
# Velocity S-wave (km/s) = 2.93975 4.16247 3.60335
# Velocity P-wave (km/s) = 4.91250 7.19390 6.15974
#
# Compressibility (1/GPa) = 0.03516720
#
# Stress axis : x y z
#
# Youngs Moduli (GPa) = 129.96924 69.64365 56.86355
#
# Poissons Ratio (x) = 0.10943 0.00089
# Poissons Ratio (y) = 0.20422 0.03690
# Poissons Ratio (z) = 0.00203 0.04519
#
# Static dielectric constant tensor:
#      x y z
#    x 1.888940 0.021330 -0.010220 
#    y 0.021330 1.826190 0.007830 
#    z -0.010220 0.007830 1.830470 
# 
# From -- ./inp_files/333579.got.cif
#   From: 2010.05.17/outbox.cif.g08.bks.cpg/sg2_167_cif.got.tgz:333579.got - 2010.06.03 11:33:40.
