data_PCOD9060544
_publ_section_title
;
Structure prediction by ZEFSAII (Michael W. Deem and Ramdas Pophale) SiO2 
 PCOD9060544
Probable space group: P -1
;
_chemical_formula_sum "Si O2"
_cell_formula_units_Z 14
_cell_length_a 11.887257
_cell_length_b 9.637534
_cell_length_c 9.314083
_cell_angle_alpha 130.651307
_cell_angle_beta 119.371147
_cell_angle_gamma 58.534238
_cell_volume 671.607514
_symmetry_space_group_name_H-M "P -1"
_symmetry_group_IT_number 2
_symmetry_cell_setting 'triclinic'
loop_
_space_group_symop_operation_xyz
x,y,z
-x,-y,-z
loop_
_atom_site_type_symbol
_atom_site_label
_atom_site_fract_x
_atom_site_fract_y
_atom_site_fract_z
Si Si1 0.782250 0.530936 0.363221
Si Si2 0.311740 0.828456 0.923445
Si Si3 0.577047 0.906299 0.626854
Si Si4 0.409999 0.721959 0.605717
Si Si5 0.972241 0.889254 0.046541
Si Si6 0.101433 0.810098 0.364433
Si Si7 0.004522 0.537077 0.307200
O O1 0.709748 0.371515 0.174035
O O2 0.688275 0.711653 0.511918
O O3 0.903622 0.428490 0.480892
O O4 0.851788 0.594949 0.312024
O O5 0.404205 0.781620 0.808838
O O6 0.166726 0.973810 0.883221
O O7 0.362930 0.942263 0.154622
O O8 0.478616 0.846054 0.635099
O O9 0.500000 0.000000 0.500000
O O10 0.500000 0.500000 0.500000
O O11 0.255563 0.754957 0.478467
O O12 0.088645 0.843808 0.208626
O O13 0.956140 0.688280 0.851335
O O14 0.000000 0.000000 0.000000
O O15 0.037405 0.645387 0.264056
O O16 0.000000 0.000000 0.500000
#
# Coordination Sequence:
#
# PCOD9060544 Si02
#       7
#     2   2   2   2   2   2   2
#     4  11  23  44  74 107 143 188 238 304 367 431
#     4  12  24  49  73 103 145 196 240 298 373 431
#     4  12  29  46  74 104 143 196 249 296 362 441
#     4  12  26  51  74 103 153 196 242 304 361 438
#     4  12  25  43  74 109 146 189 241 307 374 432
#     4  12  26  45  74 110 145 191 251 302 364 440
#     4  11  23  43  72 106 149 182 237 306 368 432
#
# _framework density 20.845507000000001
#
# number of rings (size 3 to 8) (size 9 to 14) (size 15 to 20)
#    0.000    0.286    7.143    0.857    6.000    0.571 
#    2.571    0.000    0.000    0.000    0.000    0.000 
#    0.000    0.000    0.000    0.000    0.000    0.000 
#
# Total GULP energy -78318.641986 kJ/mol
# GULP energy per Si atom -5594.188713 kJ/mol
# Density = 2.079806 g / cm^3
# Si number density = 20.845507 Si / 1000 Ang^3
#
#
#
# Elastic Constant Matrix: (Units=GPa)
#
#
# Indices 1 2 3 4 5 6 
#
# 1 128.5044 53.2092 53.9122 17.1602 -2.7501 3.8223
# 2 53.2092 98.2382 66.7093 5.4525 9.6613 12.8466
# 3 53.9122 66.7093 147.1966 20.0855 12.7680 1.2416
# 4 17.1602 5.4525 20.0855 43.7135 -1.5115 -0.5631
# 5 -2.7501 9.6613 12.7680 -1.5115 31.7202 7.2359
# 6 3.8223 12.8466 1.2416 -0.5631 7.2359 39.1021
#
#
#
# Elastic Compliance Matrix: (Units=1/GPa)
#
#
# Indices 1 2 3 4 5 6 
#
# 1 0.010967 -0.004966 -0.001639 -0.002829 0.002984 0.000019
# 2 -0.004966 0.017924 -0.006428 0.002533 -0.002092 -0.004775
# 3 -0.001639 -0.006428 0.011090 -0.003736 -0.003395 0.002495
# 4 -0.002829 0.002533 -0.003736 0.025444 0.001791 -0.000402
# 5 0.002984 -0.002092 -0.003395 0.001791 0.035241 -0.005992
# 6 0.000019 -0.004775 0.002495 -0.000402 -0.005992 0.028165
#
#
# Mechanical properties :
#
#
# Convention : Reuss Voigt Hill
#
# Bulk Modulus (GPa) = 71.86615 80.17783 76.02199
# Shear Modulus (GPa) = 31.34107 36.24774 33.79440
#
# Velocity S-wave (km/s) = 3.88170 4.17451 4.03076
# Velocity P-wave (km/s) = 7.39192 7.86013 7.62962
#
# Compressibility (1/GPa) = 0.01391476
#
# Stress axis : x y z
#
# Youngs Moduli (GPa) = 91.18451 55.79208 90.16750
#
# Poissons Ratio (x) = 0.27705 0.14780
# Poissons Ratio (y) = 0.45280 0.57961
# Poissons Ratio (z) = 0.14947 0.35864
#
# Static dielectric constant tensor:
#      x y z
#    x 1.777860 -0.021220 0.000060 
#    y -0.021220 1.787250 -0.001560 
#    z 0.000060 -0.001560 1.751560 
# 
# From -- ./inp_files/189728.got.cif
#   From: 2010.05.17/outbox.cif.g08.bks.cpg/sg2_95_cif.got.tgz:189728.got - 2010.06.03 11:33:40.
