data_PCOD9060019
_publ_section_title
;
Structure prediction by ZEFSAII (Michael W. Deem and Ramdas Pophale) SiO2 
 PCOD9060019
Probable space group: P -1
;
_chemical_formula_sum "Si O2"
_cell_formula_units_Z 14
_cell_length_a 11.142268
_cell_length_b 11.545030
_cell_length_c 11.263327
_cell_angle_alpha 49.905280
_cell_angle_beta 143.848977
_cell_angle_gamma 130.246154
_cell_volume 627.833687
_symmetry_space_group_name_H-M "P -1"
_symmetry_group_IT_number 2
_symmetry_cell_setting 'triclinic'
loop_
_space_group_symop_operation_xyz
x,y,z
-x,-y,-z
loop_
_atom_site_type_symbol
_atom_site_label
_atom_site_fract_x
_atom_site_fract_y
_atom_site_fract_z
Si Si1 0.582333 0.710846 0.487968
Si Si2 0.244460 0.673693 0.819483
Si Si3 0.892653 0.849684 0.432950
Si Si4 0.009943 0.375887 0.693381
Si Si5 0.247757 0.564860 0.142507
Si Si6 0.388810 0.895035 0.370600
Si Si7 0.283361 0.151796 0.965803
O O1 0.726830 0.743531 0.463981
O O2 0.348568 0.642554 0.293438
O O3 0.650331 0.578553 0.703133
O O4 0.573228 0.857814 0.462337
O O5 0.071138 0.765665 0.594676
O O6 0.137575 0.491367 0.821631
O O7 0.291573 0.684283 0.990228
O O8 0.469915 0.748956 0.889784
O O9 0.781085 0.881703 0.201936
O O10 0.000000 0.000000 0.500000
O O11 0.776543 0.268093 0.612106
O O12 0.000000 0.500000 0.500000
O O13 0.140485 0.256584 0.834267
O O14 0.000000 0.500000 0.000000
O O15 0.500000 0.000000 0.500000
O O16 0.263748 0.992321 0.127915
#
# Coordination Sequence:
#
# PCOD9060019 Si02
#       7
#     2   2   2   2   2   2   2
#     4  11  26  45  71 109 150 184 249 303 367 446
#     4  12  25  46  77 112 144 199 255 305 375 440
#     4  12  27  45  77 111 153 195 246 305 379 456
#     4  12  27  49  78 107 149 197 258 310 364 448
#     4  11  23  42  73 108 142 189 239 310 368 427
#     4  12  30  50  76 110 154 203 251 307 383 451
#     4  12  28  51  76 110 155 199 249 312 382 440
#
# _framework density 22.298898999999999
#
# number of rings (size 3 to 8) (size 9 to 14) (size 15 to 20)
#    0.000    0.286    4.286    3.429   10.000    2.286 
#    0.000    0.000    0.000    0.000    0.000    0.000 
#    0.000    0.000    0.000    0.000    0.000    0.000 
#
# Total GULP energy -78358.732370 kJ/mol
# GULP energy per Si atom -5597.052312 kJ/mol
# Density = 2.224815 g / cm^3
# Si number density = 22.298899 Si / 1000 Ang^3
#
#
#
# Elastic Constant Matrix: (Units=GPa)
#
#
# Indices 1 2 3 4 5 6 
#
# 1 70.8310 15.3663 26.7343 2.4439 2.0243 -4.0260
# 2 15.3663 89.9170 22.5290 12.2588 -12.3231 -5.8797
# 3 26.7343 22.5290 111.5544 3.4785 -22.5761 -0.5271
# 4 2.4439 12.2588 3.4785 42.7263 9.6303 -0.6753
# 5 2.0243 -12.3231 -22.5761 9.6303 28.2314 -2.0708
# 6 -4.0260 -5.8797 -0.5271 -0.6753 -2.0708 53.9730
#
#
#
# Elastic Compliance Matrix: (Units=1/GPa)
#
#
# Indices 1 2 3 4 5 6 
#
# 1 0.016744 -0.002783 -0.004901 0.001806 -0.006902 0.000656
# 2 -0.002783 0.013595 -0.000311 -0.005464 0.007860 0.001504
# 3 -0.004901 -0.000311 0.012612 -0.003227 0.011411 0.000121
# 4 0.001806 -0.005464 -0.003227 0.028470 -0.014859 -0.000706
# 5 -0.006902 0.007860 0.011411 -0.014859 0.053712 0.002328
# 6 0.000656 0.001504 0.000121 -0.000706 0.002328 0.018822
#
#
# Mechanical properties :
#
#
# Convention : Reuss Voigt Hill
#
# Bulk Modulus (GPa) = 37.08828 44.61796 40.85312
# Shear Modulus (GPa) = 29.59792 38.83100 34.21446
#
# Velocity S-wave (km/s) = 3.64720 4.17752 3.92134
# Velocity P-wave (km/s) = 5.86554 6.58190 6.23402
#
# Compressibility (1/GPa) = 0.02696269
#
# Stress axis : x y z
#
# Youngs Moduli (GPa) = 59.72373 73.55561 79.28929
#
# Poissons Ratio (x) = 0.20469 0.38858
# Poissons Ratio (y) = 0.16620 0.02463
# Poissons Ratio (z) = 0.29269 0.02285
#
# Static dielectric constant tensor:
#      x y z
#    x 1.865620 0.035990 -0.005300 
#    y 0.035990 1.878560 0.012810 
#    z -0.005300 0.012810 1.801000 
# 
# From -- ./inp_files/107412.got.cif
#   From: 2010.05.17/outbox.cif.g08.bks.cpg/sg2_54_cif.got.tgz:107412.got - 2010.06.03 11:33:40.
