data_PCOD9060317
_publ_section_title
;
Structure prediction by ZEFSAII (Michael W. Deem and Ramdas Pophale) SiO2 
 PCOD9060317
Probable space group: P -1
;
_chemical_formula_sum "Si O2"
_cell_formula_units_Z 16
_cell_length_a 16.289326
_cell_length_b 9.581789
_cell_length_c 18.542924
_cell_angle_alpha 144.008066
_cell_angle_beta 156.513943
_cell_angle_gamma 48.987704
_cell_volume 630.645056
_symmetry_space_group_name_H-M "P -1"
_symmetry_group_IT_number 2
_symmetry_cell_setting 'triclinic'
loop_
_space_group_symop_operation_xyz
x,y,z
-x,-y,-z
loop_
_atom_site_type_symbol
_atom_site_label
_atom_site_fract_x
_atom_site_fract_y
_atom_site_fract_z
Si Si1 0.379500 0.145305 0.512190
Si Si2 0.070246 0.075501 0.995778
Si Si3 0.110375 0.605077 0.281588
Si Si4 0.187990 0.139450 0.614467
Si Si5 0.717452 0.115352 0.174358
Si Si6 0.239559 0.296944 0.067264
Si Si7 0.462265 0.787778 0.526308
Si Si8 0.455263 0.478999 0.840188
O O1 0.503316 0.393688 0.763335
O O2 0.500000 0.000000 0.500000
O O3 0.317976 0.940023 0.442101
O O4 0.163168 0.147836 0.298849
O O5 0.037075 0.303760 0.110961
O O6 0.139144 0.188161 0.018131
O O7 0.285391 0.036425 0.183271
O O8 0.344813 0.670990 0.457104
O O9 0.151032 0.839800 0.466860
O O10 0.930635 0.632103 0.091188
O O11 0.340122 0.259851 0.715882
O O12 0.947924 0.153802 0.415356
O O13 0.324180 0.317058 0.862621
O O14 0.715152 0.378234 0.250311
O O15 0.500000 0.000000 0.000000
O O16 0.695678 0.913628 0.009018
O O17 0.436968 0.561564 0.355206
#
# Coordination Sequence:
#
# PCOD9060317 Si02
#       8
#     2   2   2   2   2   2   2   2
#     4  12  26  44  61  90 134 173 210 259 328 390
#     4  11  22  37  67  97 122 164 218 275 312 376
#     4  10  17  38  67  97 123 154 209 276 323 359
#     4  10  23  44  71  97 130 172 227 271 319 395
#     4  11  26  42  65  99 135 173 215 272 331 393
#     4  10  19  38  66  91 126 160 206 268 320 370
#     4  11  21  37  64  95 122 157 215 264 320 369
#     4  11  25  45  69  94 131 182 218 267 325 392
#
# _framework density 25.370847999999999
#
# number of rings (size 3 to 8) (size 9 to 14) (size 15 to 20)
#    0.000    1.250    3.750    3.375    5.250    2.000 
#    2.250    0.000    0.000    0.000    0.000    0.000 
#    0.000    0.000    0.000    0.000    0.000    0.000 
#
# Total GULP energy -89493.366074 kJ/mol
# GULP energy per Si atom -5593.335380 kJ/mol
# Density = 2.531310 g / cm^3
# Si number density = 25.370848 Si / 1000 Ang^3
#
#
#
# Elastic Constant Matrix: (Units=GPa)
#
#
# Indices 1 2 3 4 5 6 
#
# 1 79.3797 13.9409 66.2505 2.9154 -11.2644 -17.1906
# 2 13.9409 58.5300 19.7492 -2.9017 -26.0787 -27.2759
# 3 66.2505 19.7492 180.2901 -14.9674 -29.4898 -34.8530
# 4 2.9154 -2.9017 -14.9674 38.9894 -7.1622 -5.8215
# 5 -11.2644 -26.0787 -29.4898 -7.1622 37.8053 12.5979
# 6 -17.1906 -27.2759 -34.8530 -5.8215 12.5979 34.7116
#
#
#
# Elastic Compliance Matrix: (Units=1/GPa)
#
#
# Indices 1 2 3 4 5 6 
#
# 1 0.019561 -0.005287 -0.008323 -0.006249 -0.004783 -0.002136
# 2 -0.005287 0.045714 0.010255 0.018524 0.029467 0.036012
# 3 -0.008323 0.010255 0.013178 0.010841 0.012059 0.014610
# 4 -0.006249 0.018524 0.010841 0.038470 0.019412 0.021753
# 5 -0.004783 0.029467 0.012059 0.019412 0.052774 0.016997
# 6 -0.002136 0.036012 0.014610 0.021753 0.016997 0.068197
#
#
# Mechanical properties :
#
#
# Convention : Reuss Voigt Hill
#
# Bulk Modulus (GPa) = 13.93857 57.56455 35.75156
# Shear Modulus (GPa) = 18.62068 36.85188 27.73628
#
# Velocity S-wave (km/s) = 2.71207 3.81534 3.31000
# Velocity P-wave (km/s) = 3.91318 6.49212 5.36006
#
# Compressibility (1/GPa) = 0.07174336
#
# Stress axis : x y z
#
# Youngs Moduli (GPa) = 51.12329 21.87491 75.88136
#
# Poissons Ratio (x) = 0.11565 0.63154
# Poissons Ratio (y) = 0.27029 -0.77814
# Poissons Ratio (z) = 0.42548 -0.22432
#
# Static dielectric constant tensor:
#      x y z
#    x 2.075220 0.049080 0.004820 
#    y 0.049080 2.011610 0.054680 
#    z 0.004820 0.054680 1.987470 
# 
# From -- ./inp_files/332785.got.cif
#   From: 2010.05.17/outbox.cif.g08.bks.cpg/sg2_167_cif.got.tgz:332785.got - 2010.06.03 11:33:40.
