data_PCOD9060989
_publ_section_title
;
Structure prediction by ZEFSAII (Michael W. Deem and Ramdas Pophale) SiO2 
 PCOD9060989
Probable space group: P -1
;
_chemical_formula_sum "Si O2"
_cell_formula_units_Z 14
_cell_length_a 13.241129
_cell_length_b 12.730853
_cell_length_c 8.207357
_cell_angle_alpha 132.862500
_cell_angle_beta 37.770511
_cell_angle_gamma 136.203579
_cell_volume 566.519237
_symmetry_space_group_name_H-M "P -1"
_symmetry_group_IT_number 2
_symmetry_cell_setting 'triclinic'
loop_
_space_group_symop_operation_xyz
x,y,z
-x,-y,-z
loop_
_atom_site_type_symbol
_atom_site_label
_atom_site_fract_x
_atom_site_fract_y
_atom_site_fract_z
Si Si1 0.160550 0.025716 0.438392
Si Si2 0.461289 0.741714 0.381477
Si Si3 0.866388 0.592115 0.563059
Si Si4 0.642154 0.157002 0.074414
Si Si5 0.197717 0.262132 0.884861
Si Si6 0.766148 0.451071 0.026374
Si Si7 0.388499 0.271172 0.149605
O O1 0.136250 0.086470 0.709532
O O2 0.321062 0.161141 0.276746
O O3 0.182114 0.864314 0.231245
O O4 0.000000 0.000000 0.500000
O O5 0.284496 0.585104 0.403552
O O6 0.601114 0.696978 0.262751
O O7 0.406163 0.853367 0.685289
O O8 0.572294 0.810002 0.147039
O O9 0.758545 0.661371 0.648505
O O10 0.052064 0.573150 0.270621
O O11 0.898071 0.695747 0.796784
O O12 0.682456 0.336182 0.164798
O O13 0.500000 0.000000 0.000000
O O14 0.182396 0.363922 0.857125
O O15 0.591388 0.390746 0.066081
#
# Coordination Sequence:
#
# PCOD9060989 Si02
#       7
#     2   2   2   2   2   2   2
#     4  12  28  48  67 101 142 184 231 279 349 414
#     4  11  23  44  71 101 142 174 231 288 339 405
#     4  11  24  43  70 111 135 172 238 288 333 405
#     4  12  26  46  64  99 140 182 227 280 342 407
#     4  11  23  46  72  99 141 179 225 294 337 404
#     4  12  24  43  73 102 136 184 231 280 344 399
#     4  11  23  45  69 101 135 182 227 280 346 403
#
# _framework density 24.712312000000001
#
# number of rings (size 3 to 8) (size 9 to 14) (size 15 to 20)
#    0.000    0.571    5.714    2.143    4.000    2.286 
#    2.571    2.143    0.000    0.000    0.000    0.000 
#    0.000    0.000    0.000    0.000    0.000    0.000 
#
# Total GULP energy -78054.270865 kJ/mol
# GULP energy per Si atom -5575.305062 kJ/mol
# Density = 2.465607 g / cm^3
# Si number density = 24.712312 Si / 1000 Ang^3
#
#
#
# Elastic Constant Matrix: (Units=GPa)
#
#
# Indices 1 2 3 4 5 6 
#
# 1 66.4019 6.1581 26.6268 6.8298 -21.4300 -1.4339
# 2 6.1581 27.3813 16.2209 1.9646 -11.8781 -10.4925
# 3 26.6268 16.2209 116.7544 17.0633 -0.7381 10.2438
# 4 6.8298 1.9646 17.0633 32.9612 11.4455 -13.4419
# 5 -21.4300 -11.8781 -0.7381 11.4455 44.1627 2.7092
# 6 -1.4339 -10.4925 10.2438 -13.4419 2.7092 36.5918
#
#
#
# Elastic Compliance Matrix: (Units=1/GPa)
#
#
# Indices 1 2 3 4 5 6 
#
# 1 0.021418 0.003716 -0.004192 -0.007339 0.013261 -0.000599
# 2 0.003716 0.055518 -0.010904 0.004750 0.014107 0.019818
# 3 -0.004192 -0.010904 0.013189 -0.008771 -0.001856 -0.010068
# 4 -0.007339 0.004750 -0.008771 0.051870 -0.017337 0.023868
# 5 0.013261 0.014107 -0.001856 -0.017337 0.037584 -0.004067
# 6 -0.000599 0.019818 -0.010068 0.023868 -0.004067 0.044875
#
#
# Mechanical properties :
#
#
# Convention : Reuss Voigt Hill
#
# Bulk Modulus (GPa) = 14.84454 34.28323 24.56389
# Shear Modulus (GPa) = 18.54113 33.51193 26.02653
#
# Velocity S-wave (km/s) = 2.74209 3.68650 3.24880
# Velocity P-wave (km/s) = 4.00567 5.65892 4.90249
#
# Compressibility (1/GPa) = 0.06736482
#
# Stress axis : x y z
#
# Youngs Moduli (GPa) = 46.69025 18.01207 75.81877
#
# Poissons Ratio (x) = -0.06693 0.31782
# Poissons Ratio (y) = -0.17350 0.82676
# Poissons Ratio (z) = 0.19572 0.19641
#
# Static dielectric constant tensor:
#      x y z
#    x 1.999220 0.033350 -0.024810 
#    y 0.033350 1.684710 0.180590 
#    z -0.024810 0.180590 1.867490 
# 
# From -- ./inp_files/159557.got.cif
#   From: 2010.05.17/outbox.cif.g08.bks.cpg/sg2_80_cif.got.tgz:159557.got - 2010.06.03 11:33:40.
