data_PCOD9060451
_publ_section_title
;
Structure prediction by ZEFSAII (Michael W. Deem and Ramdas Pophale) SiO2 
 PCOD9060451
Probable space group: P -1
;
_chemical_formula_sum "Si O2"
_cell_formula_units_Z 16
_cell_length_a 9.940129
_cell_length_b 9.383524
_cell_length_c 16.750142
_cell_angle_alpha 106.468003
_cell_angle_beta 27.048147
_cell_angle_gamma 106.488113
_cell_volume 679.552305
_symmetry_space_group_name_H-M "P -1"
_symmetry_group_IT_number 2
_symmetry_cell_setting 'triclinic'
loop_
_space_group_symop_operation_xyz
x,y,z
-x,-y,-z
loop_
_atom_site_type_symbol
_atom_site_label
_atom_site_fract_x
_atom_site_fract_y
_atom_site_fract_z
Si Si1 0.700356 0.892466 0.126857
Si Si2 0.851349 0.549894 0.319938
Si Si3 0.654028 0.683070 0.692200
Si Si4 0.453159 0.954980 0.924336
Si Si5 0.123159 0.138719 0.709472
Si Si6 0.693693 0.147710 0.519987
Si Si7 0.062423 0.464370 0.358795
Si Si8 0.050836 0.611133 0.918702
O O1 0.448185 0.909398 0.329908
O O2 0.813117 0.730921 0.055342
O O3 0.589573 0.918663 0.099138
O O4 0.000000 0.000000 0.000000
O O5 0.500000 0.500000 0.500000
O O6 0.899476 0.727982 0.319319
O O7 0.041173 0.483433 0.279271
O O8 0.948723 0.483958 0.175647
O O9 0.915341 0.609598 0.493978
O O10 0.380587 0.684851 0.776120
O O11 0.637108 0.569382 0.759458
O O12 0.672829 0.845115 0.748961
O O13 0.135729 0.862670 0.088293
O O14 0.500000 0.000000 0.000000
O O15 0.424117 0.165468 0.603852
O O16 0.130403 0.981693 0.635055
O O17 0.859041 0.311936 0.461809
O O18 0.000000 0.500000 0.000000
#
# Coordination Sequence:
#
# PCOD9060451 Si02
#       8
#     2   2   2   2   2   2   2   2
#     4  12  25  43  75 101 130 188 232 277 353 411
#     4  12  24  41  72 105 134 184 237 280 348 415
#     4  11  23  44  71  94 147 179 227 292 351 398
#     4  12  27  48  68 104 146 185 230 295 352 414
#     4  11  24  42  70 103 143 178 232 294 342 410
#     4  11  23  43  71 102 139 177 235 286 347 423
#     4  11  25  44  70 105 140 186 231 291 352 413
#     4  12  25  45  72 103 140 180 236 289 337 414
#
# _framework density 23.544913999999999
#
# number of rings (size 3 to 8) (size 9 to 14) (size 15 to 20)
#    0.000    0.500    5.000    3.000    7.000    0.000 
#    6.750    2.500    0.000    0.000    0.000    0.000 
#    0.000    0.000    0.000    0.000    0.000    0.000 
#
# Total GULP energy -89440.171741 kJ/mol
# GULP energy per Si atom -5590.010734 kJ/mol
# Density = 2.349132 g / cm^3
# Si number density = 23.544914 Si / 1000 Ang^3
#
#
#
# Elastic Constant Matrix: (Units=GPa)
#
#
# Indices 1 2 3 4 5 6 
#
# 1 155.1238 39.5437 25.4726 14.9183 31.9652 -25.9574
# 2 39.5437 102.1079 30.3584 6.6074 15.6984 -15.3777
# 3 25.4726 30.3584 82.6386 10.4398 19.6545 -6.2805
# 4 14.9183 6.6074 10.4398 38.6701 -4.6110 5.5658
# 5 31.9652 15.6984 19.6545 -4.6110 38.7655 -4.2654
# 6 -25.9574 -15.3777 -6.2805 5.5658 -4.2654 54.4004
#
#
#
# Elastic Compliance Matrix: (Units=1/GPa)
#
#
# Indices 1 2 3 4 5 6 
#
# 1 0.009515 -0.001729 0.000420 -0.004962 -0.007506 0.004019
# 2 -0.001729 0.012077 -0.003192 -0.001057 -0.001731 0.002193
# 3 0.000420 -0.003192 0.015603 -0.004861 -0.007431 0.001014
# 4 -0.004962 -0.001057 -0.004861 0.031281 0.010085 -0.005637
# 5 -0.007506 -0.001731 -0.007431 0.010085 0.037320 -0.003034
# 6 0.004019 0.002193 0.001014 -0.005637 -0.003034 0.021376
#
#
# Mechanical properties :
#
#
# Convention : Reuss Voigt Hill
#
# Bulk Modulus (GPa) = 35.47100 58.95776 47.21438
# Shear Modulus (GPa) = 34.34773 42.66689 38.50731
#
# Velocity S-wave (km/s) = 3.82359 4.26155 4.04850
# Velocity P-wave (km/s) = 5.88142 7.02206 6.47690
#
# Compressibility (1/GPa) = 0.02819205
#
# Stress axis : x y z
#
# Youngs Moduli (GPa) = 105.09950 82.80233 64.09226
#
# Poissons Ratio (x) = 0.14319 -0.02692
# Poissons Ratio (y) = 0.18175 0.20457
# Poissons Ratio (z) = -0.04414 0.26429
#
# Static dielectric constant tensor:
#      x y z
#    x 2.043510 0.055310 -0.107560 
#    y 0.055310 1.866890 -0.060420 
#    z -0.107560 -0.060420 1.895230 
# 
# From -- ./inp_files/495111.got.cif
#   From: 2010.05.17/outbox.cif.g08.bks.cpg/sg2_248_cif.got.tgz:495111.got - 2010.06.03 11:33:40.
