data_PCOD9060746
_publ_section_title
;
Structure prediction by ZEFSAII (Michael W. Deem and Ramdas Pophale) SiO2 
 PCOD9060746
Probable space group: P -1
;
_chemical_formula_sum "Si O2"
_cell_formula_units_Z 16
_cell_length_a 17.863328
_cell_length_b 5.224481
_cell_length_c 9.719679
_cell_angle_alpha 51.915424
_cell_angle_beta 86.405476
_cell_angle_gamma 80.690559
_cell_volume 703.775759
_symmetry_space_group_name_H-M "P -1"
_symmetry_group_IT_number 2
_symmetry_cell_setting 'triclinic'
loop_
_space_group_symop_operation_xyz
x,y,z
-x,-y,-z
loop_
_atom_site_type_symbol
_atom_site_label
_atom_site_fract_x
_atom_site_fract_y
_atom_site_fract_z
Si Si1 0.826720 0.347069 0.026956
Si Si2 0.945870 0.755788 0.781789
Si Si3 0.423749 0.703445 0.623897
Si Si4 0.850892 0.367133 0.518177
Si Si5 0.415302 0.478208 0.389609
Si Si6 0.951437 0.788828 0.228513
Si Si7 0.739560 0.285027 0.338275
Si Si8 0.257412 0.451717 0.296896
O O1 0.762168 0.486191 0.879728
O O2 0.880369 0.009665 0.089338
O O3 0.886878 0.599171 0.933610
O O4 0.790359 0.287051 0.197125
O O5 0.894940 0.004512 0.600848
O O6 0.995337 0.974434 0.790360
O O7 0.000033 0.476589 0.785914
O O8 0.415839 0.674551 0.467546
O O9 0.507175 0.501659 0.708902
O O10 0.348241 0.578492 0.727969
O O11 0.421917 0.081497 0.546662
O O12 0.912060 0.605061 0.413540
O O13 0.780314 0.468818 0.390113
O O14 0.814455 0.362200 0.673012
O O15 0.335612 0.571886 0.290952
O O16 0.737583 0.924280 0.525224
#
# Coordination Sequence:
#
# PCOD9060746 Si02
#       8
#     2   2   2   2   2   2   2   2
#     4  12  26  46  71 100 136 182 230 288 347 408
#     4  12  27  47  68  97 134 180 231 291 349 411
#     4   9  18  36  65  99 135 178 221 266 328 401
#     4  12  24  44  71 100 132 180 230 290 345 412
#     4   9  18  36  65  99 135 178 221 266 328 401
#     4  12  27  47  68  97 134 180 231 291 349 411
#     4  11  23  44  66 102 137 179 225 281 339 405
#     4  11  23  44  66 102 137 179 225 281 339 405
#
# _framework density 22.734513
#
# number of rings (size 3 to 8) (size 9 to 14) (size 15 to 20)
#    0.000    1.000    3.750    3.000    0.000    3.000 
#    0.000    0.625    0.000    0.000    0.000   10.500 
#    0.000    0.000    0.000    0.250    0.000    0.000 
#
# Total GULP energy -89492.215644 kJ/mol
# GULP energy per Si atom -5593.263478 kJ/mol
# Density = 2.268277 g / cm^3
# Si number density = 22.734513 Si / 1000 Ang^3
#
#
#
# Elastic Constant Matrix: (Units=GPa)
#
#
# Indices 1 2 3 4 5 6 
#
# 1 139.9360 17.4875 19.8685 -11.7186 -9.5862 3.7606
# 2 17.4875 89.2991 5.2881 1.5200 -5.4826 0.5376
# 3 19.8685 5.2881 60.2561 -3.1690 3.6055 -3.0048
# 4 -11.7186 1.5200 -3.1690 23.2952 0.9100 0.3701
# 5 -9.5862 -5.4826 3.6055 0.9100 22.5310 9.6363
# 6 3.7606 0.5376 -3.0048 0.3701 9.6363 33.6221
#
#
#
# Elastic Compliance Matrix: (Units=1/GPa)
#
#
# Indices 1 2 3 4 5 6 
#
# 1 0.008415 -0.001239 -0.002875 0.003781 0.004682 -0.002562
# 2 -0.001239 0.011710 -0.000928 -0.001614 0.002946 -0.000958
# 3 -0.002875 -0.000928 0.018233 0.001270 -0.005987 0.003668
# 4 0.003781 -0.001614 0.001270 0.045138 -0.000543 -0.000625
# 5 0.004682 0.002946 -0.005987 -0.000543 0.055324 -0.016956
# 6 -0.002562 -0.000958 0.003668 -0.000625 -0.016956 0.035239
#
#
# Mechanical properties :
#
#
# Convention : Reuss Voigt Hill
#
# Bulk Modulus (GPa) = 35.36815 41.64215 38.50515
# Shear Modulus (GPa) = 25.83056 32.34614 29.08835
#
# Velocity S-wave (km/s) = 3.37439 3.77606 3.58086
# Velocity P-wave (km/s) = 5.54732 6.11294 5.83699
#
# Compressibility (1/GPa) = 0.02827403
#
# Stress axis : x y z
#
# Youngs Moduli (GPa) = 118.82948 85.39682 54.84492
#
# Poissons Ratio (x) = 0.10582 0.15769
# Poissons Ratio (y) = 0.14725 0.05089
# Poissons Ratio (z) = 0.34165 0.07925
#
# Static dielectric constant tensor:
#      x y z
#    x 1.900180 -0.012000 0.034300 
#    y -0.012000 1.874500 -0.025230 
#    z 0.034300 -0.025230 1.832590 
# 
# From -- ./inp_files/322218.got.cif
#   From: 2010.05.17/outbox.cif.g08.bks.cpg/sg2_162_cif.got.tgz:322218.got - 2010.06.03 11:33:40.
