data_PCOD9060721
_publ_section_title
;
Structure prediction by ZEFSAII (Michael W. Deem and Ramdas Pophale) SiO2 
 PCOD9060721
Probable space group: P -1
;
_chemical_formula_sum "Si O2"
_cell_formula_units_Z 16
_cell_length_a 11.728948
_cell_length_b 13.765971
_cell_length_c 18.232006
_cell_angle_alpha 148.977909
_cell_angle_beta 26.527937
_cell_angle_gamma 131.117125
_cell_volume 596.579206
_symmetry_space_group_name_H-M "P -1"
_symmetry_group_IT_number 2
_symmetry_cell_setting 'triclinic'
loop_
_space_group_symop_operation_xyz
x,y,z
-x,-y,-z
loop_
_atom_site_type_symbol
_atom_site_label
_atom_site_fract_x
_atom_site_fract_y
_atom_site_fract_z
Si Si1 0.783109 0.155574 0.881884
Si Si2 0.778356 0.722441 0.231497
Si Si3 0.891278 0.783488 0.464734
Si Si4 0.425710 0.338031 0.846764
Si Si5 0.535453 0.760706 0.538027
Si Si6 0.593911 0.605003 0.620615
Si Si7 0.295412 0.460447 0.263995
Si Si8 0.774674 0.794673 0.979813
O O1 0.556722 0.204733 0.111170
O O2 0.574875 0.378903 0.103044
O O3 0.064269 0.135922 0.749402
O O4 0.863763 0.967115 0.654796
O O5 0.508252 0.787722 0.483208
O O6 0.703644 0.719711 0.188336
O O7 0.000000 0.500000 0.000000
O O8 0.793727 0.805437 0.449819
O O9 0.669350 0.705019 0.573104
O O10 0.210987 0.585369 0.153438
O O11 0.386387 0.218026 0.861821
O O12 0.710195 0.350711 0.661493
O O13 0.587660 0.522519 0.370406
O O14 0.260927 0.971398 0.862027
O O15 0.901768 0.402970 0.334468
O O16 0.371180 0.258507 0.038353
O O17 0.000000 0.500000 0.500000
#
# Coordination Sequence:
#
# PCOD9060721 Si02
#       8
#     2   2   2   2   2   2   2   2
#     4  12  23  43  71 105 138 182 241 286 356 419
#     4  12  23  43  72  97 137 186 229 300 347 407
#     4  11  24  41  73 104 136 183 240 296 346 416
#     4  11  25  48  70 104 144 186 241 288 349 419
#     4  12  23  43  71 101 137 188 240 285 353 423
#     4  11  23  44  64 100 148 183 228 292 355 419
#     4  12  23  43  74 101 148 192 225 290 360 421
#     4  11  26  43  70 105 140 190 238 286 350 422
#
# _framework density 26.819575
#
# number of rings (size 3 to 8) (size 9 to 14) (size 15 to 20)
#    0.000    0.500    6.250    1.500    1.750    2.500 
#    0.000    0.000    0.000    0.000    0.000    0.000 
#    0.000    0.000    0.000    0.000    0.000    0.000 
#
# Total GULP energy -89376.566865 kJ/mol
# GULP energy per Si atom -5586.035429 kJ/mol
# Density = 2.675853 g / cm^3
# Si number density = 26.819575 Si / 1000 Ang^3
#
#
#
# Elastic Constant Matrix: (Units=GPa)
#
#
# Indices 1 2 3 4 5 6 
#
# 1 109.5739 27.9957 30.3486 2.8558 37.1748 16.7031
# 2 27.9957 117.9896 53.0552 -3.1737 22.6575 11.1787
# 3 30.3486 53.0552 105.9707 8.5527 31.9687 13.8768
# 4 2.8558 -3.1737 8.5527 47.6708 7.1473 11.4739
# 5 37.1748 22.6575 31.9687 7.1473 49.7364 0.5123
# 6 16.7031 11.1787 13.8768 11.4739 0.5123 40.1613
#
#
#
# Elastic Compliance Matrix: (Units=1/GPa)
#
#
# Indices 1 2 3 4 5 6 
#
# 1 0.013563 -0.000717 0.000147 0.002067 -0.010141 -0.005953
# 2 -0.000717 0.011455 -0.004925 0.002412 -0.001844 -0.001854
# 3 0.000147 -0.004925 0.014488 -0.001096 -0.006987 -0.003294
# 4 0.002067 0.002412 -0.001096 0.023909 -0.005293 -0.007916
# 5 -0.010141 -0.001844 -0.006987 -0.005293 0.033692 0.008227
# 6 -0.005953 -0.001854 -0.003294 -0.007916 0.008227 0.031186
#
#
# Mechanical properties :
#
#
# Convention : Reuss Voigt Hill
#
# Bulk Modulus (GPa) = 35.07012 61.81480 48.44246
# Shear Modulus (GPa) = 33.60460 42.32268 37.96364
#
# Velocity S-wave (km/s) = 3.54360 3.97678 3.76642
# Velocity P-wave (km/s) = 5.46328 6.64716 6.08409
#
# Compressibility (1/GPa) = 0.02851430
#
# Stress axis : x y z
#
# Youngs Moduli (GPa) = 73.73110 87.30008 69.02311
#
# Poissons Ratio (x) = 0.06261 -0.01013
# Poissons Ratio (y) = 0.05288 0.33995
# Poissons Ratio (z) = -0.01082 0.42997
#
# Static dielectric constant tensor:
#      x y z
#    x 2.138010 0.012130 -0.058990 
#    y 0.012130 2.182750 -0.024920 
#    z -0.058990 -0.024920 2.222050 
# 
# From -- ./inp_files/207087.got.cif
#   From: 2010.05.17/outbox.cif.g08.bks.cpg/sg2_104_cif.got.tgz:207087.got - 2010.06.03 11:33:40.
