data_PCOD9060895
_publ_section_title
;
Structure prediction by ZEFSAII (Michael W. Deem and Ramdas Pophale) SiO2 
 PCOD9060895
Probable space group: P -1
;
_chemical_formula_sum "Si O2"
_cell_formula_units_Z 16
_cell_length_a 8.518856
_cell_length_b 25.608559
_cell_length_c 10.086195
_cell_angle_alpha 47.053697
_cell_angle_beta 132.256878
_cell_angle_gamma 150.698684
_cell_volume 769.190239
_symmetry_space_group_name_H-M "P -1"
_symmetry_group_IT_number 2
_symmetry_cell_setting 'triclinic'
loop_
_space_group_symop_operation_xyz
x,y,z
-x,-y,-z
loop_
_atom_site_type_symbol
_atom_site_label
_atom_site_fract_x
_atom_site_fract_y
_atom_site_fract_z
Si Si1 0.668915 0.512149 0.209164
Si Si2 0.598917 0.710156 0.147088
Si Si3 0.293217 0.150360 0.511940
Si Si4 0.332036 0.903076 0.172260
Si Si5 0.474559 0.044075 0.533688
Si Si6 0.431375 0.672406 0.415776
Si Si7 0.668649 0.503839 0.711832
Si Si8 0.632251 0.245813 0.267776
O O1 0.562293 0.404490 0.379794
O O2 0.545203 0.533415 0.216451
O O3 0.065094 0.604888 0.280417
O O4 0.500000 0.500000 0.000000
O O5 0.620825 0.717832 0.304793
O O6 0.344320 0.582753 0.181025
O O7 0.949920 0.785580 0.148286
O O8 0.481103 0.752336 0.939809
O O9 0.471331 0.120260 0.679025
O O10 0.426803 0.237604 0.549747
O O11 0.385621 0.199317 0.330656
O O12 0.907351 0.041533 0.501585
O O13 0.368796 0.948456 0.258850
O O14 0.500000 0.000000 0.000000
O O15 0.647396 0.164717 0.403755
O O16 0.500000 0.000000 0.500000
O O17 0.500000 0.500000 0.500000
O O18 0.025600 0.629356 0.716598
#
# Coordination Sequence:
#
# PCOD9060895 Si02
#       8
#     2   2   2   2   2   2   2   2
#     4  11  25  43  65  95 140 180 227 270 336 398
#     4  12  24  42  67  99 137 172 223 274 335 399
#     4  11  24  43  67  93 133 172 223 278 336 395
#     4  11  23  44  69  96 129 175 222 276 337 399
#     4  11  24  44  67  95 129 172 222 279 333 394
#     4  11  25  43  65 100 139 175 225 282 330 402
#     4  12  23  42  67  95 135 177 218 270 335 400
#     4  11  25  42  67  98 130 175 224 273 335 405
#
# _framework density 20.801096999999999
#
# number of rings (size 3 to 8) (size 9 to 14) (size 15 to 20)
#    0.000    0.750    1.250    7.875    5.250    1.000 
#    2.250    2.500    0.000    0.000    0.000    0.000 
#    0.000    0.000    0.000    0.000    0.000    0.000 
#
# Total GULP energy -89452.458041 kJ/mol
# GULP energy per Si atom -5590.778628 kJ/mol
# Density = 2.075375 g / cm^3
# Si number density = 20.801097 Si / 1000 Ang^3
#
#
#
# Elastic Constant Matrix: (Units=GPa)
#
#
# Indices 1 2 3 4 5 6 
#
# 1 80.2902 31.9778 24.1067 -9.1902 -20.5423 -11.0220
# 2 31.9778 109.6782 34.6503 -5.4134 -11.2572 -2.9376
# 3 24.1067 34.6503 144.1510 -4.2266 -19.8288 -8.4365
# 4 -9.1902 -5.4134 -4.2266 28.8162 2.9592 -2.3779
# 5 -20.5423 -11.2572 -19.8288 2.9592 25.0893 10.2493
# 6 -11.0220 -2.9376 -8.4365 -2.3779 10.2493 49.7744
#
#
#
# Elastic Compliance Matrix: (Units=1/GPa)
#
#
# Indices 1 2 3 4 5 6 
#
# 1 0.017557 -0.003622 -0.000290 0.003816 0.011481 0.001443
# 2 -0.003622 0.010854 -0.001948 0.000494 0.000543 -0.000580
# 3 -0.000290 -0.001948 0.008195 0.000212 0.005287 0.000131
# 4 0.003816 0.000494 0.000212 0.036508 -0.002049 0.003076
# 5 0.011481 0.000543 0.005287 -0.002049 0.057370 -0.008441
# 6 0.001443 -0.000580 0.000131 0.003076 -0.008441 0.022283
#
#
# Mechanical properties :
#
#
# Convention : Reuss Voigt Hill
#
# Bulk Modulus (GPa) = 40.18293 57.28767 48.73530
# Shear Modulus (GPa) = 28.93831 36.96160 32.94995
#
# Velocity S-wave (km/s) = 3.73391 4.21991 3.98433
# Velocity P-wave (km/s) = 6.16029 7.16547 6.68181
#
# Compressibility (1/GPa) = 0.02488619
#
# Stress axis : x y z
#
# Youngs Moduli (GPa) = 56.95818 92.13501 122.02556
#
# Poissons Ratio (x) = 0.33370 0.03536
# Poissons Ratio (y) = 0.20629 0.23770
# Poissons Ratio (z) = 0.01651 0.17947
#
# Static dielectric constant tensor:
#      x y z
#    x 1.739050 0.032410 0.006120 
#    y 0.032410 1.768800 0.011580 
#    z 0.006120 0.011580 1.751230 
# 
# From -- ./inp_files/226203.got.cif
#   From: 2010.05.17/outbox.cif.g08.bks.cpg/sg2_114_cif.got.tgz:226203.got - 2010.06.03 11:33:40.
