data_PCOD9060064
_publ_section_title
;
Structure prediction by ZEFSAII (Michael W. Deem and Ramdas Pophale) SiO2 
 PCOD9060064
Probable space group: P -1
;
_chemical_formula_sum "Si O2"
_cell_formula_units_Z 12
_cell_length_a 9.606706
_cell_length_b 15.255558
_cell_length_c 6.785427
_cell_angle_alpha 71.103592
_cell_angle_beta 77.368825
_cell_angle_gamma 32.029406
_cell_volume 495.878402
_symmetry_space_group_name_H-M "P -1"
_symmetry_group_IT_number 2
_symmetry_cell_setting 'triclinic'
loop_
_space_group_symop_operation_xyz
x,y,z
-x,-y,-z
loop_
_atom_site_type_symbol
_atom_site_label
_atom_site_fract_x
_atom_site_fract_y
_atom_site_fract_z
Si Si1 0.480406 0.362817 0.678114
Si Si2 0.089354 0.369846 0.412365
Si Si3 0.211747 0.823205 0.670756
Si Si4 0.504188 0.196719 0.103480
Si Si5 0.712517 0.884899 0.192782
Si Si6 0.769785 0.328993 0.930710
O O1 0.224723 0.331626 0.197778
O O2 0.583701 0.316901 0.458677
O O3 0.665754 0.328259 0.775851
O O4 0.166536 0.550091 0.631644
O O5 0.303332 0.187704 0.589492
O O6 0.000000 0.500000 0.500000
O O7 0.359874 0.803008 0.799745
O O8 0.082644 0.813381 0.846229
O O9 0.000000 0.000000 0.500000
O O10 0.672042 0.010833 0.193876
O O11 0.497236 0.250551 0.853222
O O12 0.500000 0.000000 0.000000
O O13 0.017055 0.710002 0.155144
O O14 0.500000 0.500000 0.000000
#
# Coordination Sequence:
#
# PCOD9060064 Si02
#       6
#     2   2   2   2   2   2
#     4  11  24  46  73 102 141 185 234 293 342 421
#     4  12  25  45  75 102 140 190 234 283 360 415
#     4  11  23  42  74  97 139 184 230 289 350 415
#     4  11  25  45  70 106 140 183 236 287 351 417
#     4  12  28  46  71 106 146 184 234 293 350 417
#     4  11  27  45  70 106 141 185 237 285 350 413
#
# _framework density 24.199482
#
# number of rings (size 3 to 8) (size 9 to 14) (size 15 to 20)
#    0.000    0.667    1.667    5.000    7.000    6.667 
#    0.000    0.000    0.000    0.000    0.000    0.000 
#    0.000    0.000    0.000    0.000    0.000    0.000 
#
# Total GULP energy -67125.667260 kJ/mol
# GULP energy per Si atom -5593.805605 kJ/mol
# Density = 2.414440 g / cm^3
# Si number density = 24.199482 Si / 1000 Ang^3
#
#
#
# Elastic Constant Matrix: (Units=GPa)
#
#
# Indices 1 2 3 4 5 6 
#
# 1 55.2442 1.3886 25.1663 3.4539 -9.7012 -13.0749
# 2 1.3886 61.2532 8.2225 -5.0717 1.3182 -4.4361
# 3 25.1663 8.2225 111.8063 -15.7901 -9.9662 8.0969
# 4 3.4539 -5.0717 -15.7901 50.4632 -0.4459 -0.6833
# 5 -9.7012 1.3182 -9.9662 -0.4459 27.5652 -6.5641
# 6 -13.0749 -4.4361 8.0969 -0.6833 -6.5641 48.8424
#
#
#
# Elastic Compliance Matrix: (Units=1/GPa)
#
#
# Indices 1 2 3 4 5 6 
#
# 1 0.024522 0.000407 -0.005884 -0.003286 0.008495 0.008673
# 2 0.000407 0.016743 -0.001337 0.001255 -0.000698 0.001775
# 3 -0.005884 -0.001337 0.011257 0.003758 0.001331 -0.003331
# 4 -0.003286 0.001255 0.003758 0.021331 0.000235 -0.001059
# 5 0.008495 -0.000698 0.001331 0.000235 0.041591 0.007583
# 6 0.008673 0.001775 -0.003331 -0.001059 0.007583 0.024513
#
#
# Mechanical properties :
#
#
# Convention : Reuss Voigt Hill
#
# Bulk Modulus (GPa) = 25.71039 33.09539 29.40289
# Shear Modulus (GPa) = 30.02092 38.27590 34.14841
#
# Velocity S-wave (km/s) = 3.52598 3.98135 3.76057
# Velocity P-wave (km/s) = 5.21767 5.90260 5.57067
#
# Compressibility (1/GPa) = 0.03889478
#
# Stress axis : x y z
#
# Youngs Moduli (GPa) = 40.78027 59.72533 88.83062
#
# Poissons Ratio (x) = -0.02432 0.52272
# Poissons Ratio (y) = -0.01661 0.11873
# Poissons Ratio (z) = 0.23997 0.07983
#
# Static dielectric constant tensor:
#      x y z
#    x 2.016520 0.044050 -0.094380 
#    y 0.044050 2.048500 0.005860 
#    z -0.094380 0.005860 1.965980 
# 
# From -- ./inp_files/38856.got.cif
#   From: 2010.05.17/outbox.cif.g08.bks.cpg/sg2_20_cif.got.tgz:38856.got - 2010.06.03 11:33:40.
