data_PCOD9060091
_publ_section_title
;
Structure prediction by ZEFSAII (Michael W. Deem and Ramdas Pophale) SiO2 
 PCOD9060091
Probable space group: P -1
;
_chemical_formula_sum "Si O2"
_cell_formula_units_Z 12
_cell_length_a 8.855921
_cell_length_b 5.186709
_cell_length_c 15.147386
_cell_angle_alpha 84.676485
_cell_angle_beta 139.396357
_cell_angle_gamma 90.012271
_cell_volume 448.211712
_symmetry_space_group_name_H-M "P -1"
_symmetry_group_IT_number 2
_symmetry_cell_setting 'triclinic'
loop_
_space_group_symop_operation_xyz
x,y,z
-x,-y,-z
loop_
_atom_site_type_symbol
_atom_site_label
_atom_site_fract_x
_atom_site_fract_y
_atom_site_fract_z
Si Si1 0.969165 0.323794 0.905631
Si Si2 0.987443 0.967817 0.676413
Si Si3 0.633063 0.666009 0.623857
Si Si4 0.745227 0.544313 0.230903
Si Si5 0.740955 0.178791 0.393440
Si Si6 0.378799 0.927091 0.122819
O O1 0.517795 0.312873 0.884856
O O2 0.778056 0.144876 0.862375
O O3 0.000000 0.500000 0.000000
O O4 0.207767 0.149581 0.992456
O O5 0.849006 0.493539 0.770072
O O6 0.916279 0.996428 0.540034
O O7 0.090455 0.237562 0.730517
O O8 0.756670 0.903059 0.627883
O O9 0.500000 0.500000 0.500000
O O10 0.454792 0.731784 0.622200
O O11 0.792126 0.441054 0.356063
O O12 0.821293 0.282210 0.218627
O O13 0.601802 0.030186 0.263348
#
# Coordination Sequence:
#
# PCOD9060091 Si02
#       6
#     2   2   2   2   2   2
#     4  11  23  47  76 111 143 200 262 303 361 452
#     4  12  28  42  71 115 159 190 239 324 389 430
#     4  12  26  49  76 114 156 191 249 320 383 431
#     4  12  25  47  72 112 150 203 253 304 371 458
#     4  12  24  47  78 107 148 206 259 300 363 460
#     4  11  23  42  80 106 141 194 270 301 350 442
#
# _framework density 26.773064000000002
#
# number of rings (size 3 to 8) (size 9 to 14) (size 15 to 20)
#    0.000    0.333    5.000    3.500    2.333    1.333 
#    0.000    1.667    0.000    0.000    0.000    0.000 
#    0.000    0.000    0.000    0.000    0.000    0.000 
#
# Total GULP energy -67211.715177 kJ/mol
# GULP energy per Si atom -5600.976265 kJ/mol
# Density = 2.671213 g / cm^3
# Si number density = 26.773064 Si / 1000 Ang^3
#
#
#
# Elastic Constant Matrix: (Units=GPa)
#
#
# Indices 1 2 3 4 5 6 
#
# 1 57.2459 35.8091 9.1979 6.8982 -9.3161 10.3608
# 2 35.8091 172.3828 53.3119 -13.7021 9.9835 14.2270
# 3 9.1979 53.3119 142.8109 -29.2368 7.7565 0.8322
# 4 6.8982 -13.7021 -29.2368 45.6833 -2.4046 15.6588
# 5 -9.3161 9.9835 7.7565 -2.4046 44.3076 -12.3953
# 6 10.3608 14.2270 0.8322 15.6588 -12.3953 59.0234
#
#
#
# Elastic Compliance Matrix: (Units=1/GPa)
#
#
# Indices 1 2 3 4 5 6 
#
# 1 0.022370 -0.005097 -0.000899 -0.005139 0.005695 -0.000126
# 2 -0.005097 0.008042 -0.001970 0.002561 -0.003054 -0.002337
# 3 -0.000899 -0.001970 0.009047 0.005707 -0.001383 -0.001299
# 4 -0.005139 0.002561 0.005707 0.029791 -0.003393 -0.008412
# 5 0.005695 -0.003054 -0.001383 -0.003393 0.026238 0.006166
# 6 -0.000126 -0.002337 -0.001299 -0.008412 0.006166 0.021073
#
#
# Mechanical properties :
#
#
# Convention : Reuss Voigt Hill
#
# Bulk Modulus (GPa) = 42.50320 63.23082 52.86701
# Shear Modulus (GPa) = 35.62904 48.07758 41.85331
#
# Velocity S-wave (km/s) = 3.65194 4.24222 3.95810
# Velocity P-wave (km/s) = 5.80449 6.90390 6.37793
#
# Compressibility (1/GPa) = 0.02352764
#
# Stress axis : x y z
#
# Youngs Moduli (GPa) = 44.70271 124.34072 110.53789
#
# Poissons Ratio (x) = 0.63375 0.09934
# Poissons Ratio (y) = 0.22784 0.21778
# Poissons Ratio (z) = 0.04017 0.24497
#
# Static dielectric constant tensor:
#      x y z
#    x 2.200560 -0.041890 0.178730 
#    y -0.041890 2.208690 -0.128700 
#    z 0.178730 -0.128700 2.478080 
# 
# From -- ./inp_files/73148.got.cif
#   From: 2010.05.17/outbox.cif.g08.bks.cpg/sg2_37_cif.got.tgz:73148.got - 2010.06.03 11:33:40.
