data_PCOD9060063
_publ_section_title
;
Structure prediction by ZEFSAII (Michael W. Deem and Ramdas Pophale) SiO2 
 PCOD9060063
Probable space group: P -1
;
_chemical_formula_sum "Si O2"
_cell_formula_units_Z 16
_cell_length_a 14.276692
_cell_length_b 15.363617
_cell_length_c 12.065463
_cell_angle_alpha 146.966058
_cell_angle_beta 51.255165
_cell_angle_gamma 150.342277
_cell_volume 660.132784
_symmetry_space_group_name_H-M "P -1"
_symmetry_group_IT_number 2
_symmetry_cell_setting 'triclinic'
loop_
_space_group_symop_operation_xyz
x,y,z
-x,-y,-z
loop_
_atom_site_type_symbol
_atom_site_label
_atom_site_fract_x
_atom_site_fract_y
_atom_site_fract_z
Si Si1 0.277348 0.150876 0.956518
Si Si2 0.588423 0.954752 0.601201
Si Si3 0.180509 0.405622 0.260229
Si Si4 0.325707 0.745605 0.938443
Si Si5 0.966743 0.121251 0.778983
Si Si6 0.944686 0.135757 0.548700
Si Si7 0.645563 0.320309 0.807106
Si Si8 0.585508 0.723300 0.761854
O O1 0.231177 0.272170 0.065968
O O2 0.354838 0.268571 0.150924
O O3 0.448252 0.223105 0.852253
O O4 0.054589 0.827202 0.781717
O O5 0.724683 0.947874 0.463951
O O6 0.593675 0.089516 0.643599
O O7 0.353769 0.659320 0.485404
O O8 0.694673 0.149173 0.836114
O O9 0.234477 0.544971 0.253097
O O10 0.420681 0.684784 0.851884
O O11 0.107080 0.451131 0.740404
O O12 0.500000 0.000000 0.000000
O O13 0.918634 0.079794 0.640589
O O14 0.972723 0.947333 0.637590
O O15 0.187204 0.429965 0.965470
O O16 0.788556 0.013793 0.864671
O O17 0.500000 0.500000 0.500000
#
# Coordination Sequence:
#
# PCOD9060063 Si02
#       8
#     2   2   2   2   2   2   2   2
#     4  11  25  48  73 101 137 178 241 292 333 409
#     4  12  26  45  68 100 144 180 229 280 350 424
#     4  11  27  47  71  98 136 188 236 288 338 405
#     4  12  26  42  65 105 144 179 217 284 355 418
#     4  11  23  42  74  97 138 178 230 289 340 407
#     4  11  24  43  66 104 133 185 225 280 353 409
#     4  12  24  48  70 101 137 183 233 286 346 405
#     4  12  24  44  71 105 137 178 229 284 349 411
#
# _framework density 24.237546999999999
#
# number of rings (size 3 to 8) (size 9 to 14) (size 15 to 20)
#    0.000    0.500    5.000    2.625    7.000    0.500 
#    2.250    0.000    0.000    0.000    0.000    0.000 
#    0.000    0.000    0.000    0.000    0.000    0.000 
#
# Total GULP energy -89599.340801 kJ/mol
# GULP energy per Si atom -5599.958800 kJ/mol
# Density = 2.418238 g / cm^3
# Si number density = 24.237547 Si / 1000 Ang^3
#
#
#
# Elastic Constant Matrix: (Units=GPa)
#
#
# Indices 1 2 3 4 5 6 
#
# 1 71.1597 1.3728 11.0636 8.8263 2.9453 13.3905
# 2 1.3728 80.3922 9.3179 27.0271 2.4843 12.3700
# 3 11.0636 9.3179 76.4648 28.0147 6.2521 5.1466
# 4 8.8263 27.0271 28.0147 37.6119 5.7129 0.6873
# 5 2.9453 2.4843 6.2521 5.7129 28.1538 6.9756
# 6 13.3905 12.3700 5.1466 0.6873 6.9756 49.0932
#
#
#
# Elastic Compliance Matrix: (Units=1/GPa)
#
#
# Indices 1 2 3 4 5 6 
#
# 1 0.015550 0.002116 -0.000466 -0.004802 0.000434 -0.004720
# 2 0.002116 0.018412 0.003807 -0.016781 0.002121 -0.005682
# 3 -0.000466 0.003807 0.018992 -0.016650 -0.000502 -0.002519
# 4 -0.004802 -0.016781 -0.016650 0.053094 -0.006958 0.007529
# 5 0.000434 0.002121 -0.000502 -0.006958 0.038282 -0.005942
# 6 -0.004720 -0.005682 -0.002519 0.007529 -0.005942 0.024092
#
#
# Mechanical properties :
#
#
# Convention : Reuss Voigt Hill
#
# Bulk Modulus (GPa) = 15.65721 30.16946 22.91334
# Shear Modulus (GPa) = 27.96447 36.72260 32.34354
#
# Velocity S-wave (km/s) = 3.40040 3.89667 3.65696
# Velocity P-wave (km/s) = 4.67877 5.72012 5.22545
#
# Compressibility (1/GPa) = 0.06386835
#
# Stress axis : x y z
#
# Youngs Moduli (GPa) = 64.30689 54.31233 52.65304
#
# Poissons Ratio (x) = -0.11491 0.02455
# Poissons Ratio (y) = -0.13605 -0.20047
# Poissons Ratio (z) = 0.02999 -0.20679
#
# Static dielectric constant tensor:
#      x y z
#    x 1.907340 -0.027800 0.036960 
#    y -0.027800 1.868740 0.005510 
#    z 0.036960 0.005510 1.985590 
# 
# From -- ./inp_files/434254.got.cif
#   From: 2010.05.17/outbox.cif.g08.bks.cpg/sg2_218_cif.got.tgz:434254.got - 2010.06.03 11:33:40.
