data_PCOD9060367
_publ_section_title
;
Structure prediction by ZEFSAII (Michael W. Deem and Ramdas Pophale) SiO2 
 PCOD9060367
Probable space group: P -1
;
_chemical_formula_sum "Si O2"
_cell_formula_units_Z 12
_cell_length_a 15.883672
_cell_length_b 8.204575
_cell_length_c 4.946292
_cell_angle_alpha 94.993255
_cell_angle_beta 69.484921
_cell_angle_gamma 127.775865
_cell_volume 470.037286
_symmetry_space_group_name_H-M "P -1"
_symmetry_group_IT_number 2
_symmetry_cell_setting 'triclinic'
loop_
_space_group_symop_operation_xyz
x,y,z
-x,-y,-z
loop_
_atom_site_type_symbol
_atom_site_label
_atom_site_fract_x
_atom_site_fract_y
_atom_site_fract_z
Si Si1 0.595944 0.530720 0.084101
Si Si2 0.193360 0.414920 0.173456
Si Si3 0.112394 0.148614 0.710638
Si Si4 0.746313 0.970990 0.287110
Si Si5 0.461677 0.066193 0.307971
Si Si6 0.087461 0.622107 0.171656
O O1 0.658993 0.746793 0.205620
O O2 0.532284 0.315445 0.284945
O O3 0.500000 0.500000 0.000000
O O4 0.692889 0.534946 0.819474
O O5 0.098396 0.235648 0.463958
O O6 0.179098 0.586926 0.150604
O O7 0.187787 0.335747 0.867435
O O8 0.175512 0.046051 0.596921
O O9 0.000000 0.000000 0.000000
O O10 0.671077 0.026038 0.524554
O O11 0.833709 0.140322 0.988602
O O12 0.500000 0.000000 0.500000
O O13 0.500000 0.000000 0.000000
O O14 0.000000 0.500000 0.500000
O O15 0.000000 0.500000 0.000000
#
# Coordination Sequence:
#
# PCOD9060367 Si02
#       6
#     2   2   2   2   2   2
#     4  11  25  48  76 110 152 199 254 312 377 454
#     4  11  24  42  67 101 141 188 239 302 367 438
#     4  11  23  43  70 101 139 187 244 304 369 440
#     4  11  26  48  76 111 153 204 254 315 381 451
#     4  12  27  47  74 108 147 195 249 308 374 446
#     4  12  27  48  75 111 153 199 252 313 381 455
#
# _framework density 25.529888
#
# number of rings (size 3 to 8) (size 9 to 14) (size 15 to 20)
#    0.000    0.667    0.000    7.000    0.000   14.667 
#    0.000    0.000    0.000    0.000    0.000    0.000 
#    0.000    0.000    0.000    0.000    0.000    0.000 
#
# Total GULP energy -67095.530518 kJ/mol
# GULP energy per Si atom -5591.294210 kJ/mol
# Density = 2.547178 g / cm^3
# Si number density = 25.529888 Si / 1000 Ang^3
#
#
#
# Elastic Constant Matrix: (Units=GPa)
#
#
# Indices 1 2 3 4 5 6 
#
# 1 152.6501 55.2570 34.0328 2.9185 7.8585 -23.1710
# 2 55.2570 131.7594 66.0243 -21.1156 13.2748 -5.3501
# 3 34.0328 66.0243 164.0487 -3.5328 24.5519 -3.3683
# 4 2.9185 -21.1156 -3.5328 45.8566 -5.7409 11.0162
# 5 7.8585 13.2748 24.5519 -5.7409 58.6469 -13.0683
# 6 -23.1710 -5.3501 -3.3683 11.0162 -13.0683 37.2420
#
#
#
# Elastic Compliance Matrix: (Units=1/GPa)
#
#
# Indices 1 2 3 4 5 6 
#
# 1 0.009145 -0.004138 -0.000320 -0.003974 0.000919 0.006565
# 2 -0.004138 0.012217 -0.003886 0.006289 -0.000699 -0.003276
# 3 -0.000320 -0.003886 0.008093 -0.001347 -0.002728 -0.000584
# 4 -0.003974 0.006289 -0.001347 0.027199 0.000180 -0.009673
# 5 0.000919 -0.000699 -0.002728 0.000180 0.019835 0.007132
# 6 0.006565 -0.003276 -0.000584 -0.009673 0.007132 0.035776
#
#
# Mechanical properties :
#
#
# Convention : Reuss Voigt Hill
#
# Bulk Modulus (GPa) = 78.32034 84.34295 81.33164
# Shear Modulus (GPa) = 37.53487 47.89203 42.71345
#
# Velocity S-wave (km/s) = 3.83852 4.33589 4.09476
# Velocity P-wave (km/s) = 7.09860 7.62727 7.36768
#
# Compressibility (1/GPa) = 0.01276808
#
# Stress axis : x y z
#
# Youngs Moduli (GPa) = 109.34672 81.85053 123.55715
#
# Poissons Ratio (x) = 0.33867 0.03957
# Poissons Ratio (y) = 0.45245 0.48014
# Poissons Ratio (z) = 0.03502 0.31807
#
# Static dielectric constant tensor:
#      x y z
#    x 2.080250 0.064430 -0.134520 
#    y 0.064430 2.049200 0.004090 
#    z -0.134520 0.004090 2.071960 
# 
# From -- ./inp_files/88757.got.cif
#   From: 2010.05.17/outbox.cif.g08.bks.cpg/sg2_45_cif.got.tgz:88757.got - 2010.06.03 11:33:40.
