data_PCOD9060736
_publ_section_title
;
Structure prediction by ZEFSAII (Michael W. Deem and Ramdas Pophale) SiO2 
 PCOD9060736
Probable space group: P -1
;
_chemical_formula_sum "Si O2"
_cell_formula_units_Z 14
_cell_length_a 20.344545
_cell_length_b 8.997493
_cell_length_c 16.016130
_cell_angle_alpha 47.312681
_cell_angle_beta 163.127005
_cell_angle_gamma 136.068542
_cell_volume 589.473853
_symmetry_space_group_name_H-M "P -1"
_symmetry_group_IT_number 2
_symmetry_cell_setting 'triclinic'
loop_
_space_group_symop_operation_xyz
x,y,z
-x,-y,-z
loop_
_atom_site_type_symbol
_atom_site_label
_atom_site_fract_x
_atom_site_fract_y
_atom_site_fract_z
Si Si1 0.964246 0.280287 0.820126
Si Si2 0.700271 0.012068 0.949810
Si Si3 0.401831 0.187054 0.415644
Si Si4 0.316863 0.311018 0.096577
Si Si5 0.063373 0.271813 0.422957
Si Si6 0.471720 0.711444 0.925527
Si Si7 0.312692 0.759565 0.873117
O O1 0.764874 0.063845 0.689261
O O2 0.883403 0.486346 0.638023
O O3 0.060161 0.251171 0.855010
O O4 0.212254 0.308612 0.161865
O O5 0.618184 0.192868 0.736101
O O6 0.709890 0.837027 0.960005
O O7 0.501378 0.885112 0.824033
O O8 0.935680 0.116571 0.251378
O O9 0.475205 0.258053 0.382973
O O10 0.401691 0.564508 0.086576
O O11 0.111328 0.751098 0.700130
O O12 0.291516 0.225133 0.753074
O O13 0.252468 0.691296 0.728719
O O14 0.500000 0.500000 0.000000
O O15 0.500000 0.000000 0.000000
#
# Coordination Sequence:
#
# PCOD9060736 Si02
#       7
#     2   2   2   2   2   2   2
#     4   8  19  41  63  89 128 173 220 267 319 387
#     4  12  22  38  64  99 132 172 211 273 329 384
#     4   9  19  40  69  91 130 171 226 260 325 396
#     4   9  20  40  65  94 126 173 218 264 323 388
#     4  11  25  44  62  98 141 167 221 280 320 392
#     4  12  25  44  67  95 131 177 223 267 331 396
#     4  11  23  44  65  98 132 174 216 272 330 382
#
# _framework density 23.749991999999999
#
# number of rings (size 3 to 8) (size 9 to 14) (size 15 to 20)
#    0.857    0.857    2.857    1.714    0.000    1.143 
#    5.143    0.714    0.000    0.000    0.000    0.000 
#    0.000    0.000    0.000    0.000    0.000    0.000 
#
# Total GULP energy -78131.780862 kJ/mol
# GULP energy per Si atom -5580.841490 kJ/mol
# Density = 2.369594 g / cm^3
# Si number density = 23.749992 Si / 1000 Ang^3
#
#
#
# Elastic Constant Matrix: (Units=GPa)
#
#
# Indices 1 2 3 4 5 6 
#
# 1 110.6541 54.1338 38.6288 -12.7589 -20.2608 10.7005
# 2 54.1338 114.0807 28.7325 -22.0745 -12.1456 4.0695
# 3 38.6288 28.7325 106.3225 -6.6812 -18.7646 -16.3261
# 4 -12.7589 -22.0745 -6.6812 35.4115 1.6079 -6.6777
# 5 -20.2608 -12.1456 -18.7646 1.6079 36.4872 -8.4219
# 6 10.7005 4.0695 -16.3261 -6.6777 -8.4219 42.6347
#
#
#
# Elastic Compliance Matrix: (Units=1/GPa)
#
#
# Indices 1 2 3 4 5 6 
#
# 1 0.013766 -0.005099 -0.003598 0.000264 0.003239 -0.003665
# 2 -0.005099 0.012632 -0.000911 0.005983 0.000832 0.000827
# 3 -0.003598 -0.000911 0.013342 0.001806 0.006239 0.007614
# 4 0.000264 0.005983 0.001806 0.033377 0.002950 0.005864
# 5 0.003239 0.000832 0.006239 0.002950 0.034590 0.008791
# 6 -0.003665 0.000827 0.007614 0.005864 0.008791 0.029867
#
#
# Mechanical properties :
#
#
# Convention : Reuss Voigt Hill
#
# Bulk Modulus (GPa) = 48.72566 63.78305 56.25435
# Shear Modulus (GPa) = 30.55654 36.87750 33.71702
#
# Velocity S-wave (km/s) = 3.59080 3.94475 3.77193
# Velocity P-wave (km/s) = 6.14430 6.90380 6.53509
#
# Compressibility (1/GPa) = 0.02052307
#
# Stress axis : x y z
#
# Youngs Moduli (GPa) = 72.64452 79.16556 74.94877
#
# Poissons Ratio (x) = 0.40369 0.26965
# Poissons Ratio (y) = 0.37044 0.06830
# Poissons Ratio (z) = 0.26136 0.07214
#
# Static dielectric constant tensor:
#      x y z
#    x 2.010210 -0.018720 0.022910 
#    y -0.018720 1.926170 0.006640 
#    z 0.022910 0.006640 1.975460 
# 
# From -- ./inp_files/540416.got.cif
#   From: 2010.05.17/outbox.cif.g08.bks.cpg/sg2_271_cif.got.tgz:540416.got - 2010.06.03 11:33:40.
