data_PCOD9060936
_publ_section_title
;
Structure prediction by ZEFSAII (Michael W. Deem and Ramdas Pophale) SiO2 
 PCOD9060936
Probable space group: P -1
;
_chemical_formula_sum "Si O2"
_cell_formula_units_Z 14
_cell_length_a 20.133293
_cell_length_b 9.234951
_cell_length_c 8.394029
_cell_angle_alpha 44.972784
_cell_angle_beta 135.783377
_cell_angle_gamma 142.770423
_cell_volume 622.921436
_symmetry_space_group_name_H-M "P -1"
_symmetry_group_IT_number 2
_symmetry_cell_setting 'triclinic'
loop_
_space_group_symop_operation_xyz
x,y,z
-x,-y,-z
loop_
_atom_site_type_symbol
_atom_site_label
_atom_site_fract_x
_atom_site_fract_y
_atom_site_fract_z
Si Si1 0.234737 0.506775 0.397560
Si Si2 0.178047 0.989680 0.643525
Si Si3 0.364415 0.884845 0.041040
Si Si4 0.379634 0.464055 0.254831
Si Si5 0.882298 0.252731 0.922710
Si Si6 0.431668 0.592725 0.894046
Si Si7 0.891165 0.021804 0.787238
O O1 0.278397 0.672573 0.185735
O O2 0.339603 0.543589 0.645396
O O3 0.161514 0.216085 0.447138
O O4 0.188897 0.631808 0.330106
O O5 0.163526 0.917099 0.863185
O O6 0.095900 0.835029 0.469040
O O7 0.296923 0.011709 0.781794
O O8 0.390837 0.724382 0.098556
O O9 0.483903 0.112637 0.147764
O O10 0.500000 0.500000 0.500000
O O11 0.247000 0.232710 0.262844
O O12 0.378837 0.434897 0.087166
O O13 0.000000 0.500000 0.000000
O O14 0.896068 0.143336 0.870849
O O15 0.500000 0.500000 0.000000
O O16 0.000000 0.000000 0.000000
#
# Coordination Sequence:
#
# PCOD9060936 Si02
#       7
#     2   2   2   2   2   2   2
#     4  11  23  44  70 103 148 188 251 313 374 448
#     4  11  24  49  75 105 155 194 251 318 377 447
#     4  11  24  44  71 105 149 199 245 307 381 449
#     4  12  27  46  75 110 153 196 258 310 375 459
#     4  11  28  47  75 110 145 199 257 312 379 453
#     4  12  24  41  71 108 146 200 245 310 383 440
#     4  12  28  50  79 112 153 203 256 313 379 455
#
# _framework density 22.474744000000001
#
# number of rings (size 3 to 8) (size 9 to 14) (size 15 to 20)
#    0.000    0.571    2.857    4.286    8.000    4.000 
#    0.000    0.000    0.000    0.000    0.000    0.000 
#    0.000    0.000    0.000    0.000    0.000    0.000 
#
# Total GULP energy -77953.733479 kJ/mol
# GULP energy per Si atom -5568.123820 kJ/mol
# Density = 2.242359 g / cm^3
# Si number density = 22.474744 Si / 1000 Ang^3
#
#
#
# Elastic Constant Matrix: (Units=GPa)
#
#
# Indices 1 2 3 4 5 6 
#
# 1 126.3191 36.4082 17.5776 -31.0145 43.1370 -64.2013
# 2 36.4082 80.2438 17.5994 3.8795 -1.4024 -15.7197
# 3 17.5776 17.5994 52.7596 -25.0185 38.9648 -38.7389
# 4 -31.0145 3.8795 -25.0185 10.4356 22.8288 -22.2215
# 5 43.1370 -1.4024 38.9648 22.8288 13.4802 23.2160
# 6 -64.2013 -15.7197 -38.7389 -22.2215 23.2160 26.6244
#
#
#
# Elastic Compliance Matrix: (Units=1/GPa)
#
#
# Indices 1 2 3 4 5 6 
#
# 1 0.006891 -0.001491 -0.006606 -0.003755 0.003788 -0.000313
# 2 -0.001491 0.014123 -0.000448 0.000079 -0.000491 0.004584
# 3 -0.006606 -0.000448 0.012738 -0.005853 0.002844 -0.005026
# 4 -0.003755 0.000079 -0.005853 0.020846 0.012236 -0.010796
# 5 0.003788 -0.000491 0.002844 0.012236 0.013700 0.011247
# 6 -0.000313 0.004584 -0.005026 -0.010796 0.011247 0.013380
#
#
# Mechanical properties :
#
#
# Convention : Reuss Voigt Hill
#
# Bulk Modulus (GPa) = 60.02438 44.72141 52.37290
# Shear Modulus (GPa) = 47.92808 22.62386 35.27597
#
# Velocity S-wave (km/s) = 4.62294 3.17619 3.96609
# Velocity P-wave (km/s) = 7.43377 5.77864 6.65784
#
# Compressibility (1/GPa) = 0.01665990
#
# Stress axis : x y z
#
# Youngs Moduli (GPa) = 145.11636 70.80863 78.50649
#
# Poissons Ratio (x) = 0.10559 0.51863
# Poissons Ratio (y) = 0.21640 0.03519
# Poissons Ratio (z) = 0.95867 0.03174
#
# Static dielectric constant tensor:
#      x y z
#    x 1.956270 0.074170 -0.016790 
#    y 0.074170 1.922940 -0.065200 
#    z -0.016790 -0.065200 1.836530 
# 
# From -- ./inp_files/35229.got.cif
#   From: 2010.05.17/outbox.cif.g08.bks.cpg/sg2_18_cif.got.tgz:35229.got - 2010.06.03 11:33:40.
