data_PCOD9060022
_publ_section_title
;
Structure prediction by ZEFSAII (Michael W. Deem and Ramdas Pophale) SiO2 
 PCOD9060022
Probable space group: P -1
;
_chemical_formula_sum "Si O2"
_cell_formula_units_Z 16
_cell_length_a 11.640716
_cell_length_b 11.575555
_cell_length_c 11.509133
_cell_angle_alpha 101.071908
_cell_angle_beta 138.516306
_cell_angle_gamma 109.918562
_cell_volume 672.086700
_symmetry_space_group_name_H-M "P -1"
_symmetry_group_IT_number 2
_symmetry_cell_setting 'triclinic'
loop_
_space_group_symop_operation_xyz
x,y,z
-x,-y,-z
loop_
_atom_site_type_symbol
_atom_site_label
_atom_site_fract_x
_atom_site_fract_y
_atom_site_fract_z
Si Si1 0.079416 0.288824 0.774545
Si Si2 0.838342 0.784628 0.583404
Si Si3 0.670890 0.557207 0.768660
Si Si4 0.493775 0.982842 0.631837
Si Si5 0.716447 0.797949 0.239413
Si Si6 0.995681 0.346126 0.181762
Si Si7 0.774025 0.886084 0.904144
Si Si8 0.138623 0.539476 0.731262
O O1 0.259721 0.272914 0.868494
O O2 0.117270 0.392001 0.713453
O O3 0.776982 0.113312 0.535776
O O4 0.171322 0.389858 0.984908
O O5 0.591854 0.650496 0.457120
O O6 0.717794 0.738411 0.356234
O O7 0.968087 0.724422 0.696027
O O8 0.056372 0.988099 0.829542
O O9 0.815901 0.590228 0.769148
O O10 0.657892 0.695068 0.788044
O O11 0.500000 0.000000 0.500000
O O12 0.713841 0.180235 0.884328
O O13 0.579604 0.894079 0.721335
O O14 0.444319 0.728412 0.004496
O O15 0.000000 0.000000 0.500000
O O16 0.011999 0.479864 0.277841
O O17 0.000000 0.000000 0.000000
O O18 0.000000 0.500000 0.500000
#
# Coordination Sequence:
#
# PCOD9060022 Si02
#       8
#     2   2   2   2   2   2   2   2
#     4  12  26  46  75 106 145 192 246 312 371 449
#     4  11  25  46  73 107 149 194 253 304 370 461
#     4  12  24  47  73 111 151 192 247 308 382 448
#     4  11  23  46  71 111 157 185 244 307 375 456
#     4  12  27  52  77 103 143 204 257 312 377 456
#     4  11  25  46  70 110 150 191 245 308 377 453
#     4  11  23  42  73 110 151 198 239 302 379 450
#     4  12  29  49  74 108 148 197 255 313 377 450
#
# _framework density 23.806452
#
# number of rings (size 3 to 8) (size 9 to 14) (size 15 to 20)
#    0.000    0.500    5.000    3.000    3.500    3.500 
#    0.000    4.375    0.000    0.000    0.000    0.000 
#    0.000    0.000    0.000    0.000    0.000    0.000 
#
# Total GULP energy -89425.730729 kJ/mol
# GULP energy per Si atom -5589.108171 kJ/mol
# Density = 2.375227 g / cm^3
# Si number density = 23.806452 Si / 1000 Ang^3
#
#
#
# Elastic Constant Matrix: (Units=GPa)
#
#
# Indices 1 2 3 4 5 6 
#
# 1 128.6909 30.7790 39.7449 -6.6276 -1.6125 1.5370
# 2 30.7790 88.2842 34.1264 -4.7464 -7.4824 19.6170
# 3 39.7449 34.1264 150.8024 -14.2811 -9.6379 22.6398
# 4 -6.6276 -4.7464 -14.2811 44.5982 14.7178 -2.7153
# 5 -1.6125 -7.4824 -9.6379 14.7178 29.4859 -0.2589
# 6 1.5370 19.6170 22.6398 -2.7153 -0.2589 28.8196
#
#
#
# Elastic Compliance Matrix: (Units=1/GPa)
#
#
# Indices 1 2 3 4 5 6 
#
# 1 0.009220 -0.003209 -0.002233 0.001031 -0.001524 0.003531
# 2 -0.003209 0.015206 -0.001035 -0.001006 0.003764 -0.009427
# 3 -0.002233 -0.001035 0.008556 0.001399 0.001663 -0.005751
# 4 0.001031 -0.001006 0.001399 0.027473 -0.013437 0.001999
# 5 -0.001524 0.003764 0.001663 -0.013437 0.041996 -0.004676
# 6 0.003531 -0.009427 -0.005751 0.001999 -0.004676 0.045592
#
#
# Mechanical properties :
#
#
# Convention : Reuss Voigt Hill
#
# Bulk Modulus (GPa) = 49.93294 64.11979 57.02636
# Shear Modulus (GPa) = 29.82008 38.12253 33.97130
#
# Velocity S-wave (km/s) = 3.54306 4.00603 3.78164
# Velocity P-wave (km/s) = 6.14473 6.95629 6.56307
#
# Compressibility (1/GPa) = 0.02002686
#
# Stress axis : x y z
#
# Youngs Moduli (GPa) = 108.46280 65.76546 116.87449
#
# Poissons Ratio (x) = 0.21106 0.26104
# Poissons Ratio (y) = 0.34808 0.12092
# Poissons Ratio (z) = 0.24225 0.06804
#
# Static dielectric constant tensor:
#      x y z
#    x 1.886700 -0.030890 0.020060 
#    y -0.030890 1.857640 -0.072490 
#    z 0.020060 -0.072490 1.881440 
# 
# From -- ./inp_files/428482.got.cif
#   From: 2010.05.17/outbox.cif.g08.bks.cpg/sg2_215_cif.got.tgz:428482.got - 2010.06.03 11:33:40.
