data_PCOD9060984
_publ_section_title
;
Structure prediction by ZEFSAII (Michael W. Deem and Ramdas Pophale) SiO2 
 PCOD9060984
Probable space group: P -1
;
_chemical_formula_sum "Si O2"
_cell_formula_units_Z 12
_cell_length_a 5.233753
_cell_length_b 11.864258
_cell_length_c 9.396626
_cell_angle_alpha 102.991221
_cell_angle_beta 76.444824
_cell_angle_gamma 64.482316
_cell_volume 475.295548
_symmetry_space_group_name_H-M "P -1"
_symmetry_group_IT_number 2
_symmetry_cell_setting 'triclinic'
loop_
_space_group_symop_operation_xyz
x,y,z
-x,-y,-z
loop_
_atom_site_type_symbol
_atom_site_label
_atom_site_fract_x
_atom_site_fract_y
_atom_site_fract_z
Si Si1 0.618092 0.282368 0.039840
Si Si2 0.751518 0.929885 0.620300
Si Si3 0.212458 0.148153 0.097363
Si Si4 0.292976 0.295318 0.510386
Si Si5 0.676750 0.206266 0.696329
Si Si6 0.623598 0.515573 0.641253
O O1 0.348187 0.246691 0.083833
O O2 0.557202 0.415446 0.171430
O O3 0.940248 0.172548 0.035983
O O4 0.668677 0.277003 0.863273
O O5 0.899640 0.850974 0.725895
O O6 0.550827 0.863975 0.583734
O O7 0.997057 0.877863 0.447068
O O8 0.598201 0.088199 0.705927
O O9 0.500000 0.000000 0.000000
O O10 0.444264 0.307408 0.637823
O O11 0.316802 0.366659 0.387598
O O12 0.928987 0.378916 0.602425
O O13 0.500000 0.500000 0.500000
#
# Coordination Sequence:
#
# PCOD9060984 Si02
#       6
#     2   2   2   2   2   2
#     4  12  27  46  73 111 147 186 248 301 361 425
#     4  11  24  44  71 105 150 188 238 292 373 432
#     4  12  25  46  73 109 147 193 244 295 358 439
#     4  11  23  44  71 100 137 194 244 291 363 433
#     4  11  26  42  70 110 149 186 230 309 370 432
#     4  11  25  47  73  99 138 196 251 298 349 437
#
# _framework density 25.247449
#
# number of rings (size 3 to 8) (size 9 to 14) (size 15 to 20)
#    0.000    0.667    3.333    4.000    4.667    2.000 
#    0.000    3.333    0.000    0.000    0.000    0.000 
#    0.000    0.000    0.000    0.000    0.000    0.000 
#
# Total GULP energy -67054.916287 kJ/mol
# GULP energy per Si atom -5587.909691 kJ/mol
# Density = 2.518998 g / cm^3
# Si number density = 25.247449 Si / 1000 Ang^3
#
#
#
# Elastic Constant Matrix: (Units=GPa)
#
#
# Indices 1 2 3 4 5 6 
#
# 1 74.0409 6.5909 24.0982 -8.7897 18.5225 -14.1366
# 2 6.5909 79.0089 28.1708 -0.8295 7.4621 -5.8603
# 3 24.0982 28.1708 197.4433 -2.5473 34.5180 -10.0553
# 4 -8.7897 -0.8295 -2.5473 50.4934 -3.0369 6.0653
# 5 18.5225 7.4621 34.5180 -3.0369 39.3538 -13.2151
# 6 -14.1366 -5.8603 -10.0553 6.0653 -13.2151 43.2514
#
#
#
# Elastic Compliance Matrix: (Units=1/GPa)
#
#
# Indices 1 2 3 4 5 6 
#
# 1 0.016006 -0.000291 -0.000743 0.002043 -0.005660 0.003003
# 2 -0.000291 0.013433 -0.001735 -0.000090 -0.000498 0.001182
# 3 -0.000743 -0.001735 0.006246 -0.000078 -0.004987 -0.000539
# 4 0.002043 -0.000090 -0.000078 0.020421 -0.000053 -0.002243
# 5 -0.005660 -0.000498 -0.004987 -0.000053 0.035111 0.007658
# 6 0.003003 0.001182 -0.000539 -0.002243 0.007658 0.026792
#
#
# Mechanical properties :
#
#
# Convention : Reuss Voigt Hill
#
# Bulk Modulus (GPa) = 33.17114 52.02364 42.59739
# Shear Modulus (GPa) = 37.42603 46.06194 41.74398
#
# Velocity S-wave (km/s) = 3.85433 4.27596 4.07061
# Velocity P-wave (km/s) = 5.74237 6.71034 6.24513
#
# Compressibility (1/GPa) = 0.03014669
#
# Stress axis : x y z
#
# Youngs Moduli (GPa) = 62.47756 74.44084 160.09232
#
# Poissons Ratio (x) = 0.02170 0.11896
# Poissons Ratio (y) = 0.01821 0.27775
# Poissons Ratio (z) = 0.04643 0.12915
#
# Static dielectric constant tensor:
#      x y z
#    x 2.121030 0.135040 -0.029120 
#    y 0.135040 2.068240 0.028260 
#    z -0.029120 0.028260 2.058730 
# 
# From -- ./inp_files/19683.got.cif
#   From: 2010.05.17/outbox.cif.g08.bks.cpg/sg2_10_cif.got.tgz:19683.got - 2010.06.03 11:33:40.
