data_PCOD9060597
_publ_section_title
;
Structure prediction by ZEFSAII (Michael W. Deem and Ramdas Pophale) SiO2 
 PCOD9060597
Probable space group: P -1
;
_chemical_formula_sum "Si O2"
_cell_formula_units_Z 14
_cell_length_a 12.111150
_cell_length_b 20.612852
_cell_length_c 7.794263
_cell_angle_alpha 128.284181
_cell_angle_beta 139.742330
_cell_angle_gamma 27.943075
_cell_volume 579.562158
_symmetry_space_group_name_H-M "P -1"
_symmetry_group_IT_number 2
_symmetry_cell_setting 'triclinic'
loop_
_space_group_symop_operation_xyz
x,y,z
-x,-y,-z
loop_
_atom_site_type_symbol
_atom_site_label
_atom_site_fract_x
_atom_site_fract_y
_atom_site_fract_z
Si Si1 0.299302 0.809046 0.307656
Si Si2 0.267584 0.259870 0.493069
Si Si3 0.845777 0.188246 0.495873
Si Si4 0.792988 0.569486 0.031193
Si Si5 0.860438 0.943210 0.718177
Si Si6 0.698971 0.425874 0.785057
Si Si7 0.788726 0.332139 0.144501
O O1 0.576517 0.755884 0.507447
O O2 0.173817 0.857388 0.428730
O O3 0.061669 0.914049 0.046245
O O4 0.370505 0.684614 0.154152
O O5 0.986291 0.312404 0.225844
O O6 0.529587 0.099069 0.611509
O O7 0.184231 0.364898 0.699318
O O8 0.537760 0.299744 0.216394
O O9 0.882457 0.269600 0.728215
O O10 0.077229 0.073057 0.437608
O O11 0.840009 0.461594 0.995850
O O12 0.000000 0.500000 0.000000
O O13 0.975427 0.805567 0.675245
O O14 0.500000 0.500000 0.500000
O O15 0.448452 0.525853 0.797096
#
# Coordination Sequence:
#
# PCOD9060597 Si02
#       7
#     2   2   2   2   2   2   2
#     4  10  23  41  62  96 125 164 211 254 312 368
#     4  12  21  42  67  89 132 164 206 261 308 372
#     4  11  22  41  66  91 125 170 204 260 313 364
#     4  11  22  39  65  97 121 166 212 253 315 373
#     4  10  22  43  64  92 126 169 206 253 317 365
#     4  10  17  39  61  85 126 159 202 254 308 363
#     4  10  21  40  63  92 123 167 207 253 311 371
#
# _framework density 24.156165999999999
#
# number of rings (size 3 to 8) (size 9 to 14) (size 15 to 20)
#    0.857    0.571    5.714    2.571    0.000    1.143 
#    2.571    2.143    0.000    0.000    0.000    0.000 
#    0.000    0.000    0.000    0.000    0.000    0.000 
#
# Total GULP energy -78220.633380 kJ/mol
# GULP energy per Si atom -5587.188099 kJ/mol
# Density = 2.410119 g / cm^3
# Si number density = 24.156166 Si / 1000 Ang^3
#
#
#
# Elastic Constant Matrix: (Units=GPa)
#
#
# Indices 1 2 3 4 5 6 
#
# 1 179.4714 47.7042 23.6481 6.2921 8.9085 -0.3719
# 2 47.7042 133.6603 46.9659 20.7782 19.8567 -3.6471
# 3 23.6481 46.9659 91.8957 5.8890 15.9825 -8.0825
# 4 6.2921 20.7782 5.8890 42.5342 -7.5603 -2.5681
# 5 8.9085 19.8567 15.9825 -7.5603 41.4083 -3.9335
# 6 -0.3719 -3.6471 -8.0825 -2.5681 -3.9335 36.8718
#
#
#
# Elastic Compliance Matrix: (Units=1/GPa)
#
#
# Indices 1 2 3 4 5 6 
#
# 1 0.006184 -0.002007 -0.000569 0.000100 -0.000156 -0.000270
# 2 -0.002007 0.011108 -0.004118 -0.005372 -0.004349 -0.000662
# 3 -0.000569 -0.004118 0.013886 -0.000238 -0.003089 0.002285
# 4 0.000100 -0.005372 -0.000238 0.027691 0.007910 0.002190
# 5 -0.000156 -0.004349 -0.003089 0.007910 0.029148 0.002552
# 6 -0.000270 -0.000662 0.002285 0.002190 0.002552 0.027978
#
#
# Mechanical properties :
#
#
# Convention : Reuss Voigt Hill
#
# Bulk Modulus (GPa) = 56.20948 71.29598 63.75273
# Shear Modulus (GPa) = 36.95094 43.27681 40.11388
#
# Velocity S-wave (km/s) = 3.91534 4.23725 4.07947
# Velocity P-wave (km/s) = 6.61510 7.31558 6.97414
#
# Compressibility (1/GPa) = 0.01779059
#
# Stress axis : x y z
#
# Youngs Moduli (GPa) = 161.70743 90.02258 72.01274
#
# Poissons Ratio (x) = 0.18069 0.04095
# Poissons Ratio (y) = 0.32457 0.29657
# Poissons Ratio (z) = 0.09196 0.37074
#
# Static dielectric constant tensor:
#      x y z
#    x 2.045880 0.109870 -0.073090 
#    y 0.109870 1.907560 -0.004000 
#    z -0.073090 -0.004000 1.976760 
# 
# From -- ./inp_files/252456.got.cif
#   From: 2010.05.17/outbox.cif.g08.bks.cpg/sg2_127_cif.got.tgz:252456.got - 2010.06.03 11:33:40.
