data_PCOD9060107
_publ_section_title
;
Structure prediction by ZEFSAII (Michael W. Deem and Ramdas Pophale) SiO2 
 PCOD9060107
Probable space group: P -1
;
_chemical_formula_sum "Si O2"
_cell_formula_units_Z 10
_cell_length_a 11.379324
_cell_length_b 13.586809
_cell_length_c 6.785290
_cell_angle_alpha 105.547501
_cell_angle_beta 115.224353
_cell_angle_gamma 31.228949
_cell_volume 481.534684
_symmetry_space_group_name_H-M "P -1"
_symmetry_group_IT_number 2
_symmetry_cell_setting 'triclinic'
loop_
_space_group_symop_operation_xyz
x,y,z
-x,-y,-z
loop_
_atom_site_type_symbol
_atom_site_label
_atom_site_fract_x
_atom_site_fract_y
_atom_site_fract_z
Si Si1 0.070674 0.891127 0.687911
Si Si2 0.382281 0.790008 0.166859
Si Si3 0.919752 0.668690 0.094544
Si Si4 0.692395 0.451508 0.511767
Si Si5 0.495803 0.057345 0.737195
O O1 0.114272 0.748267 0.570770
O O2 0.307352 0.778999 0.910059
O O3 0.000000 0.000000 0.500000
O O4 0.855542 0.040484 0.772557
O O5 0.568607 0.604501 0.339761
O O6 0.462409 0.849791 0.201881
O O7 0.163633 0.574706 0.243423
O O8 0.235621 0.222932 0.754503
O O9 0.722213 0.852567 0.905323
O O10 0.000000 0.500000 0.000000
O O11 0.500000 0.500000 0.500000
O O12 0.500000 0.000000 0.500000
#
# Coordination Sequence:
#
# PCOD9060107 Si02
#       5
#     2   2   2   2   2
#     4  11  23  43  64  98 140 174 223 278 337 403
#     4  11  25  41  70  99 132 184 225 278 340 404
#     4  11  27  46  71 101 140 182 229 288 341 407
#     4  12  25  43  69 102 138 177 225 282 340 402
#     4  11  25  47  71  98 138 183 235 280 344 409
#
# _framework density 20.766936999999999
#
# number of rings (size 3 to 8) (size 9 to 14) (size 15 to 20)
#    0.000    0.800    2.000    4.200    5.600    8.000 
#    0.000    0.000    0.000    0.000    0.000    0.000 
#    0.000    0.000    0.000    0.000    0.000    0.000 
#
# Total GULP energy -55907.061656 kJ/mol
# GULP energy per Si atom -5590.706166 kJ/mol
# Density = 2.071967 g / cm^3
# Si number density = 20.766937 Si / 1000 Ang^3
#
#
#
# Elastic Constant Matrix: (Units=GPa)
#
#
# Indices 1 2 3 4 5 6 
#
# 1 120.2121 39.5234 44.9818 -2.4647 12.2720 9.3495
# 2 39.5234 117.6827 37.1335 -0.7705 4.0971 26.8020
# 3 44.9818 37.1335 107.8391 12.8585 15.6542 -2.8923
# 4 -2.4647 -0.7705 12.8585 32.7017 3.1120 2.4827
# 5 12.2720 4.0971 15.6542 3.1120 39.7961 6.6108
# 6 9.3495 26.8020 -2.8923 2.4827 6.6108 40.1428
#
#
#
# Elastic Compliance Matrix: (Units=1/GPa)
#
#
# Indices 1 2 3 4 5 6 
#
# 1 0.010756 -0.001997 -0.003915 0.002553 -0.001545 -0.001357
# 2 -0.001997 0.012425 -0.004278 0.002264 0.002280 -0.008654
# 3 -0.003915 -0.004278 0.013864 -0.005880 -0.004316 0.005842
# 4 0.002553 0.002264 -0.005880 0.033535 -0.000581 -0.004509
# 5 -0.001545 0.002280 -0.004316 -0.000581 0.028121 -0.006069
# 6 -0.001357 -0.008654 0.005842 -0.004509 -0.006069 0.032704
#
#
# Mechanical properties :
#
#
# Convention : Reuss Voigt Hill
#
# Bulk Modulus (GPa) = 60.01500 65.44571 62.73035
# Shear Modulus (GPa) = 31.77811 37.46778 34.62295
#
# Velocity S-wave (km/s) = 3.91605 4.25220 4.08758
# Velocity P-wave (km/s) = 7.02918 7.46264 7.24915
#
# Compressibility (1/GPa) = 0.01666250
#
# Stress axis : x y z
#
# Youngs Moduli (GPa) = 92.97107 80.48543 72.13050
#
# Poissons Ratio (x) = 0.16076 0.28241
# Poissons Ratio (y) = 0.18570 0.30860
# Poissons Ratio (z) = 0.36401 0.34434
#
# Static dielectric constant tensor:
#      x y z
#    x 1.764970 -0.050330 0.035860 
#    y -0.050330 1.726760 0.003360 
#    z 0.035860 0.003360 1.742310 
# 
# From -- ./inp_files/38266.got.cif
#   From: 2010.05.17/outbox.cif.g08.bks.cpg/sg2_20_cif.got.tgz:38266.got - 2010.06.03 11:33:40.
