data_PCOD9060955
_publ_section_title
;
Structure prediction by ZEFSAII (Michael W. Deem and Ramdas Pophale) SiO2 
 PCOD9060955
Probable space group: P -1
;
_chemical_formula_sum "Si O2"
_cell_formula_units_Z 14
_cell_length_a 13.662460
_cell_length_b 11.388017
_cell_length_c 11.422408
_cell_angle_alpha 75.782983
_cell_angle_beta 140.595850
_cell_angle_gamma 135.463635
_cell_volume 576.099042
_symmetry_space_group_name_H-M "P -1"
_symmetry_group_IT_number 2
_symmetry_cell_setting 'triclinic'
loop_
_space_group_symop_operation_xyz
x,y,z
-x,-y,-z
loop_
_atom_site_type_symbol
_atom_site_label
_atom_site_fract_x
_atom_site_fract_y
_atom_site_fract_z
Si Si1 0.325877 0.706205 0.195360
Si Si2 0.814663 0.985043 0.769995
Si Si3 0.505986 0.279632 0.244770
Si Si4 0.793951 0.538871 0.079121
Si Si5 0.691716 0.171350 0.338194
Si Si6 0.025522 0.798109 0.585851
Si Si7 0.223867 0.170173 0.801291
O O1 0.577954 0.813982 0.486221
O O2 0.442350 0.918331 0.221974
O O3 0.301612 0.617903 0.072150
O O4 0.000000 0.500000 0.000000
O O5 0.598680 0.869394 0.707872
O O6 0.038535 0.241228 0.885781
O O7 0.000000 0.000000 0.000000
O O8 0.608564 0.255656 0.244819
O O9 0.751703 0.539428 0.442794
O O10 0.266892 0.195571 0.972712
O O11 0.032600 0.649556 0.363813
O O12 0.510913 0.382004 0.934326
O O13 0.765319 0.166024 0.280548
O O14 0.967202 0.841173 0.405767
O O15 0.100612 0.956610 0.703801
#
# Coordination Sequence:
#
# PCOD9060955 Si02
#       7
#     2   2   2   2   2   2   2
#     4  11  24  45  70  96 141 186 231 275 344 418
#     4  11  27  44  71 102 139 183 232 287 342 409
#     4  12  25  42  67 102 139 171 228 289 345 403
#     4  11  23  44  70  96 134 185 229 278 345 408
#     4  11  24  42  68 101 135 181 227 284 343 414
#     4  11  24  42  65 100 136 176 226 279 352 408
#     4  11  25  41  71  97 131 181 228 284 342 412
#
# _framework density 24.301373999999999
#
# number of rings (size 3 to 8) (size 9 to 14) (size 15 to 20)
#    0.000    0.857    2.857    3.429    4.000    6.857 
#    0.000    0.000    0.000    0.000    0.000    0.000 
#    0.000    0.000    0.000    0.000    0.000    0.000 
#
# Total GULP energy -78287.531562 kJ/mol
# GULP energy per Si atom -5591.966540 kJ/mol
# Density = 2.424606 g / cm^3
# Si number density = 24.301374 Si / 1000 Ang^3
#
#
#
# Elastic Constant Matrix: (Units=GPa)
#
#
# Indices 1 2 3 4 5 6 
#
# 1 84.0741 24.8755 19.9595 8.0133 -25.0593 -9.3864
# 2 24.8755 127.4677 35.6659 16.1265 -19.1601 -4.8121
# 3 19.9595 35.6659 116.0290 9.7293 -18.3812 -9.2434
# 4 8.0133 16.1265 9.7293 30.4351 -0.8381 -6.3989
# 5 -25.0593 -19.1601 -18.3812 -0.8381 25.1499 -1.9943
# 6 -9.3864 -4.8121 -9.2434 -6.3989 -1.9943 45.3538
#
#
#
# Elastic Compliance Matrix: (Units=1/GPa)
#
#
# Indices 1 2 3 4 5 6 
#
# 1 0.018148 -0.000331 0.000513 -0.003386 0.018423 0.004158
# 2 -0.000331 0.009807 -0.001649 -0.004364 0.005813 0.000276
# 3 0.000513 -0.001649 0.010482 -0.001978 0.007016 0.002097
# 4 -0.003386 -0.004364 -0.001978 0.037224 -0.006635 0.003393
# 5 0.018423 0.005813 0.007016 -0.006635 0.068082 0.007917
# 6 0.004158 0.000276 0.002097 0.003393 0.007917 0.024193
#
#
# Mechanical properties :
#
#
# Convention : Reuss Voigt Hill
#
# Bulk Modulus (GPa) = 28.16510 54.28584 41.22547
# Shear Modulus (GPa) = 27.36675 36.65908 32.01292
#
# Velocity S-wave (km/s) = 3.35944 3.88818 3.63344
# Velocity P-wave (km/s) = 5.16361 6.52260 5.88248
#
# Compressibility (1/GPa) = 0.03550493
#
# Stress axis : x y z
#
# Youngs Moduli (GPa) = 55.10125 101.96336 95.40614
#
# Poissons Ratio (x) = 0.03373 -0.04899
# Poissons Ratio (y) = 0.01823 0.15731
# Poissons Ratio (z) = -0.02829 0.16813
#
# Static dielectric constant tensor:
#      x y z
#    x 1.963650 0.022260 0.080520 
#    y 0.022260 1.868220 -0.018230 
#    z 0.080520 -0.018230 2.073730 
# 
# From -- ./inp_files/417347.got.cif
#   From: 2010.05.17/outbox.cif.g08.bks.cpg/sg2_209_cif.got.tgz:417347.got - 2010.06.03 11:33:40.
