data_PCOD9060635
_publ_section_title
;
Structure prediction by ZEFSAII (Michael W. Deem and Ramdas Pophale) SiO2 
 PCOD9060635
Probable space group: P -1
;
_chemical_formula_sum "Si O2"
_cell_formula_units_Z 16
_cell_length_a 20.539712
_cell_length_b 5.447842
_cell_length_c 9.099968
_cell_angle_alpha 125.242875
_cell_angle_beta 117.238213
_cell_angle_gamma 49.352794
_cell_volume 625.461607
_symmetry_space_group_name_H-M "P -1"
_symmetry_group_IT_number 2
_symmetry_cell_setting 'triclinic'
loop_
_space_group_symop_operation_xyz
x,y,z
-x,-y,-z
loop_
_atom_site_type_symbol
_atom_site_label
_atom_site_fract_x
_atom_site_fract_y
_atom_site_fract_z
Si Si1 0.764051 0.588402 0.816008
Si Si2 0.466362 0.511835 0.808729
Si Si3 0.817877 0.343052 0.254312
Si Si4 0.585413 0.304222 0.622974
Si Si5 0.697903 0.532721 0.432437
Si Si6 0.872457 0.900127 0.895371
Si Si7 0.653542 0.752957 0.011116
Si Si8 0.955900 0.414190 0.556247
O O1 0.720716 0.482305 0.609111
O O2 0.814379 0.743662 0.836616
O O3 0.693460 0.861386 0.954742
O O4 0.824382 0.243973 0.858393
O O5 0.543997 0.221685 0.690829
O O6 0.384990 0.476393 0.697614
O O7 0.500000 0.500000 0.000000
O O8 0.424444 0.926473 0.869159
O O9 0.781233 0.254242 0.328838
O O10 0.861037 0.540890 0.437451
O O11 0.732426 0.549033 0.135920
O O12 0.887704 0.038448 0.112717
O O13 0.500000 0.500000 0.500000
O O14 0.620441 0.529699 0.814537
O O15 0.664576 0.947486 0.513364
O O16 0.947331 0.614638 0.768788
O O17 0.000000 0.500000 0.500000
O O18 0.000000 0.000000 0.500000
#
# Coordination Sequence:
#
# PCOD9060635 Si02
#       8
#     2   2   2   2   2   2   2   2
#     4  11  23  43  74 107 146 189 257 314 359 440
#     4  12  24  38  58  96 148 196 255 317 384 441
#     4  11  26  46  79 110 148 199 258 309 371 460
#     4  12  24  42  64 100 150 201 254 319 385 440
#     4  12  23  41  71 103 141 203 257 314 375 443
#     4  11  25  49  76 114 152 188 245 305 372 457
#     4  11  24  42  69 102 146 205 260 319 374 447
#     4  12  29  51  81 116 157 193 238 307 388 462
#
# _framework density 25.581105999999998
#
# number of rings (size 3 to 8) (size 9 to 14) (size 15 to 20)
#    0.000    0.500    1.250    7.500    1.750    3.000 
#    0.000    0.000    0.000    0.000    0.000    0.000 
#    0.000    0.000    0.000    0.000    0.000    0.000 
#
# Total GULP energy -89481.739419 kJ/mol
# GULP energy per Si atom -5592.608714 kJ/mol
# Density = 2.552288 g / cm^3
# Si number density = 25.581106 Si / 1000 Ang^3
#
#
#
# Elastic Constant Matrix: (Units=GPa)
#
#
# Indices 1 2 3 4 5 6 
#
# 1 110.3987 -8.4487 8.9596 -1.1298 -18.8083 16.2245
# 2 -8.4487 100.7337 14.7798 -1.6650 -8.8505 3.7824
# 3 8.9596 14.7798 122.6551 -6.3728 -19.3476 -0.5287
# 4 -1.1298 -1.6650 -6.3728 46.8133 -9.8349 -3.5944
# 5 -18.8083 -8.8505 -19.3476 -9.8349 63.8878 9.1409
# 6 16.2245 3.7824 -0.5287 -3.5944 9.1409 28.4169
#
#
#
# Elastic Compliance Matrix: (Units=1/GPa)
#
#
# Indices 1 2 3 4 5 6 
#
# 1 0.011204 0.001708 -0.000282 0.000662 0.004705 -0.008059
# 2 0.001708 0.010535 -0.001041 0.000495 0.002156 -0.003028
# 3 -0.000282 -0.001041 0.008819 0.001716 0.002736 -0.000199
# 4 0.000662 0.000495 0.001716 0.022576 0.004098 0.001125
# 5 0.004705 0.002156 0.002736 0.004098 0.020063 -0.008858
# 6 -0.008059 -0.003028 -0.000199 0.001125 -0.008858 0.043183
#
#
# Mechanical properties :
#
#
# Convention : Reuss Voigt Hill
#
# Bulk Modulus (GPa) = 31.92203 40.48545 36.20374
# Shear Modulus (GPa) = 39.66587 49.05672 44.36130
#
# Velocity S-wave (km/s) = 3.94203 4.38390 4.16882
# Velocity P-wave (km/s) = 5.76414 6.44092 6.11190
#
# Compressibility (1/GPa) = 0.03132632
#
# Stress axis : x y z
#
# Youngs Moduli (GPa) = 89.25036 94.92591 113.39229
#
# Poissons Ratio (x) = -0.16214 0.03203
# Poissons Ratio (y) = -0.15245 0.11809
# Poissons Ratio (z) = 0.02521 0.09886
#
# Static dielectric constant tensor:
#      x y z
#    x 2.044810 0.010580 -0.001950 
#    y 0.010580 2.128120 0.052420 
#    z -0.001950 0.052420 2.031860 
# 
# From -- ./inp_files/340688.got.cif
#   From: 2010.05.17/outbox.cif.g08.bks.cpg/sg2_171_cif.got.tgz:340688.got - 2010.06.03 11:33:40.
