data_PCOD9060156
_publ_section_title
;
Structure prediction by ZEFSAII (Michael W. Deem and Ramdas Pophale) SiO2 
 PCOD9060156
Probable space group: P -1
;
_chemical_formula_sum "Si O2"
_cell_formula_units_Z 14
_cell_length_a 11.382043
_cell_length_b 9.593435
_cell_length_c 9.343295
_cell_angle_alpha 82.304884
_cell_angle_beta 128.870003
_cell_angle_gamma 133.128713
_cell_volume 495.385300
_symmetry_space_group_name_H-M "P -1"
_symmetry_group_IT_number 2
_symmetry_cell_setting 'triclinic'
loop_
_space_group_symop_operation_xyz
x,y,z
-x,-y,-z
loop_
_atom_site_type_symbol
_atom_site_label
_atom_site_fract_x
_atom_site_fract_y
_atom_site_fract_z
Si Si1 0.519355 0.679563 0.132212
Si Si2 0.374925 0.261556 0.464833
Si Si3 0.377413 0.818175 0.776332
Si Si4 0.065632 0.859875 0.559867
Si Si5 0.054045 0.191002 0.848260
Si Si6 0.251520 0.535213 0.477898
Si Si7 0.098411 0.727730 0.011918
O O1 0.537019 0.721741 0.312216
O O2 0.804651 0.914761 0.293021
O O3 0.405652 0.715200 0.932687
O O4 0.339748 0.416199 0.021151
O O5 0.500000 0.500000 0.500000
O O6 0.502845 0.259142 0.443726
O O7 0.097641 0.063365 0.228377
O O8 0.224680 0.641408 0.553532
O O9 0.762579 0.149678 0.273104
O O10 0.628962 0.049922 0.864081
O O11 0.052519 0.840151 0.381722
O O12 0.795346 0.636914 0.437665
O O13 0.971518 0.231225 0.908570
O O14 0.064631 0.362241 0.237161
O O15 0.000000 0.500000 0.000000
#
# Coordination Sequence:
#
# PCOD9060156 Si02
#       7
#     2   2   2   2   2   2   2
#     4  11  23  43  67  97 135 172 220 275 327 397
#     4  11  27  49  70  93 124 173 234 291 331 373
#     4  12  24  40  64 101 143 180 209 257 332 404
#     4  11  24  38  65 102 140 176 210 258 328 408
#     4  11  23  43  66  97 136 173 222 274 321 392
#     4  12  24  41  66  94 133 171 226 269 319 394
#     4  12  25  38  65 102 142 182 213 254 327 405
#
# _framework density 28.260829000000001
#
# number of rings (size 3 to 8) (size 9 to 14) (size 15 to 20)
#    0.000    0.571    5.714    2.571    4.000    1.714 
#    0.000    3.571    0.000    0.000    0.000    0.000 
#    0.000    0.000    0.000    0.000    0.000    0.000 
#
# Total GULP energy -78220.549810 kJ/mol
# GULP energy per Si atom -5587.182129 kJ/mol
# Density = 2.819651 g / cm^3
# Si number density = 28.260829 Si / 1000 Ang^3
#
#
#
# Elastic Constant Matrix: (Units=GPa)
#
#
# Indices 1 2 3 4 5 6 
#
# 1 108.4695 48.1356 51.7723 -0.7874 -16.5300 20.5745
# 2 48.1356 146.3141 69.1938 37.5631 -10.2744 8.2786
# 3 51.7723 69.1938 190.8087 42.8888 -17.3711 2.7641
# 4 -0.7874 37.5631 42.8888 85.9024 10.7395 -1.8812
# 5 -16.5300 -10.2744 -17.3711 10.7395 47.0258 6.4483
# 6 20.5745 8.2786 2.7641 -1.8812 6.4483 50.0203
#
#
#
# Elastic Compliance Matrix: (Units=1/GPa)
#
#
# Indices 1 2 3 4 5 6 
#
# 1 0.013392 -0.003254 -0.002613 0.002337 0.003204 -0.005151
# 2 -0.003254 0.009760 -0.001728 -0.003600 0.001238 -0.000477
# 3 -0.002613 -0.001728 0.007498 -0.003268 0.002145 0.000547
# 4 0.002337 -0.003600 -0.003268 0.015498 -0.004852 0.001024
# 5 0.003204 0.001238 0.002145 -0.004852 0.025259 -0.005080
# 6 -0.005151 -0.000477 0.000547 0.001024 -0.005080 0.022853
#
#
# Mechanical properties :
#
#
# Convention : Reuss Voigt Hill
#
# Bulk Modulus (GPa) = 64.67160 87.08842 75.88001
# Shear Modulus (GPa) = 43.62876 55.02244 49.32560
#
# Velocity S-wave (km/s) = 3.93337 4.41721 4.18229
# Velocity P-wave (km/s) = 6.60016 7.54311 7.08733
#
# Compressibility (1/GPa) = 0.01546274
#
# Stress axis : x y z
#
# Youngs Moduli (GPa) = 74.66890 102.45529 133.36278
#
# Poissons Ratio (x) = 0.33337 0.34844
# Poissons Ratio (y) = 0.24296 0.23041
# Poissons Ratio (z) = 0.19509 0.17701
#
# Static dielectric constant tensor:
#      x y z
#    x 2.360620 0.041340 0.140980 
#    y 0.041340 2.704190 -0.115070 
#    z 0.140980 -0.115070 2.226750 
# 
# From -- ./inp_files/316733.got.cif
#   From: 2010.05.17/outbox.cif.g08.bks.cpg/sg2_159_cif.got.tgz:316733.got - 2010.06.03 11:33:40.
