data_PCOD9060965
_publ_section_title
;
Structure prediction by ZEFSAII (Michael W. Deem and Ramdas Pophale) SiO2 
 PCOD9060965
Probable space group: P -1
;
_chemical_formula_sum "Si O2"
_cell_formula_units_Z 16
_cell_length_a 10.022577
_cell_length_b 12.322424
_cell_length_c 19.844871
_cell_angle_alpha 127.817043
_cell_angle_beta 151.612726
_cell_angle_gamma 45.339371
_cell_volume 828.703838
_symmetry_space_group_name_H-M "P -1"
_symmetry_group_IT_number 2
_symmetry_cell_setting 'triclinic'
loop_
_space_group_symop_operation_xyz
x,y,z
-x,-y,-z
loop_
_atom_site_type_symbol
_atom_site_label
_atom_site_fract_x
_atom_site_fract_y
_atom_site_fract_z
Si Si1 0.806161 0.618634 0.348155
Si Si2 0.181161 0.436552 0.124333
Si Si3 0.692588 0.419104 0.988252
Si Si4 0.593284 0.611735 0.403495
Si Si5 0.264250 0.953677 0.418492
Si Si6 0.235175 0.060651 0.596009
Si Si7 0.780494 0.924314 0.892408
Si Si8 0.456713 0.925200 0.882558
O O1 0.549835 0.591907 0.179041
O O2 0.692686 0.649507 0.387978
O O3 0.851000 0.758651 0.385518
O O4 0.129757 0.469414 0.449963
O O5 0.431343 0.499854 0.276540
O O6 0.354865 0.256071 0.116579
O O7 0.000000 0.500000 0.000000
O O8 0.903963 0.493879 0.078311
O O9 0.500000 0.500000 0.000000
O O10 0.974048 0.252808 0.064185
O O11 0.357303 0.775233 0.387177
O O12 0.500000 0.000000 0.500000
O O13 0.297329 0.996080 0.524736
O O14 0.905185 0.038252 0.269269
O O15 0.531116 0.977250 0.742738
O O16 0.000000 0.000000 0.500000
O O17 0.589995 0.982739 0.899924
O O18 0.000000 0.000000 0.000000
O O19 0.500000 0.000000 0.000000
#
# Coordination Sequence:
#
# PCOD9060965 Si02
#       8
#     2   2   2   2   2   2   2   2
#     4  11  24  46  67  98 141 177 225 289 344 407
#     4  11  23  44  70  97 138 179 224 287 345 399
#     4  11  26  44  66  99 137 179 227 277 347 417
#     4  11  25  43  70 102 135 178 232 286 346 402
#     4  12  26  43  71 102 134 184 236 284 341 419
#     4  12  25  47  69  98 142 182 231 284 351 414
#     4  11  25  45  69  95 137 187 223 288 348 403
#     4  11  26  44  69 103 138 179 240 285 340 416
#
# _framework density 19.307258999999998
#
# number of rings (size 3 to 8) (size 9 to 14) (size 15 to 20)
#    0.000    0.750    5.000    1.500    8.750    3.000 
#    0.000    1.250    0.000    0.000    0.000    0.000 
#    0.000    0.000    0.000    0.000    0.000    0.000 
#
# Total GULP energy -89162.637520 kJ/mol
# GULP energy per Si atom -5572.664845 kJ/mol
# Density = 1.926332 g / cm^3
# Si number density = 19.307259 Si / 1000 Ang^3
#
#
#
# Elastic Constant Matrix: (Units=GPa)
#
#
# Indices 1 2 3 4 5 6 
#
# 1 151.6030 35.3845 67.2413 -4.2829 8.6968 0.8006
# 2 35.3845 79.7866 43.7880 -9.4218 0.2320 -3.2379
# 3 67.2413 43.7880 164.5254 -19.1030 -1.2294 6.8823
# 4 -4.2829 -9.4218 -19.1030 34.9113 3.9145 3.4155
# 5 8.6968 0.2320 -1.2294 3.9145 40.0906 5.2640
# 6 0.8006 -3.2379 6.8823 3.4155 5.2640 35.2332
#
#
#
# Elastic Compliance Matrix: (Units=1/GPa)
#
#
# Indices 1 2 3 4 5 6 
#
# 1 0.008548 -0.002203 -0.003071 -0.001070 -0.001909 0.000592
# 2 -0.002203 0.015517 -0.003070 0.002070 -0.000157 0.001899
# 3 -0.003071 -0.003070 0.008685 0.003680 0.000906 -0.002401
# 4 -0.001070 0.002070 0.003680 0.031662 -0.002335 -0.003225
# 5 -0.001909 -0.000157 0.000906 -0.002335 0.026116 -0.003824
# 6 0.000592 0.001899 -0.002401 -0.003225 -0.003824 0.029896
#
#
# Mechanical properties :
#
#
# Convention : Reuss Voigt Hill
#
# Bulk Modulus (GPa) = 62.25288 76.52695 69.38991
# Shear Modulus (GPa) = 35.09608 38.68044 36.88826
#
# Velocity S-wave (km/s) = 4.26815 4.48081 4.37577
# Velocity P-wave (km/s) = 7.52348 8.15430 7.84523
#
# Compressibility (1/GPa) = 0.01606351
#
# Stress axis : x y z
#
# Youngs Moduli (GPa) = 116.98054 64.44556 115.14553
#
# Poissons Ratio (x) = 0.14195 0.35359
# Poissons Ratio (y) = 0.25766 0.35348
# Poissons Ratio (z) = 0.35922 0.19784
#
# Static dielectric constant tensor:
#      x y z
#    x 1.639140 -0.008120 -0.016250 
#    y -0.008120 1.655240 -0.033430 
#    z -0.016250 -0.033430 1.592210 
# 
# From -- ./inp_files/382516.got.cif
#   From: 2010.05.17/outbox.cif.g08.bks.cpg/sg2_192_cif.got.tgz:382516.got - 2010.06.03 11:33:40.
