data_PCOD9060256
_publ_section_title
;
Structure prediction by ZEFSAII (Michael W. Deem and Ramdas Pophale) SiO2 
 PCOD9060256
Probable space group: P -1
;
_chemical_formula_sum "Si O2"
_cell_formula_units_Z 14
_cell_length_a 20.288191
_cell_length_b 9.141560
_cell_length_c 14.389241
_cell_angle_alpha 48.965394
_cell_angle_beta 149.871443
_cell_angle_gamma 149.643120
_cell_volume 633.140735
_symmetry_space_group_name_H-M "P -1"
_symmetry_group_IT_number 2
_symmetry_cell_setting 'triclinic'
loop_
_space_group_symop_operation_xyz
x,y,z
-x,-y,-z
loop_
_atom_site_type_symbol
_atom_site_label
_atom_site_fract_x
_atom_site_fract_y
_atom_site_fract_z
Si Si1 0.490188 0.710402 0.868325
Si Si2 0.972535 0.669078 0.951885
Si Si3 0.167439 0.610358 0.910842
Si Si4 0.463661 0.145217 0.831802
Si Si5 0.410399 0.306841 0.198111
Si Si6 0.488300 0.682984 0.471007
Si Si7 0.201883 0.715510 0.530063
O O1 0.512086 0.739219 0.771388
O O2 0.279593 0.583814 0.691319
O O3 0.500000 0.500000 0.000000
O O4 0.682642 0.049512 0.007455
O O5 0.746030 0.502485 0.733812
O O6 0.983127 0.631124 0.089744
O O7 0.000000 0.500000 0.000000
O O8 0.159089 0.025128 0.000390
O O9 0.029011 0.519456 0.693110
O O10 0.327604 0.622609 0.074978
O O11 0.475976 0.356589 0.814323
O O12 0.262557 0.891540 0.626671
O O13 0.500000 0.000000 0.000000
O O14 0.453938 0.287136 0.363791
O O15 0.500000 0.500000 0.500000
O O16 0.640704 0.008708 0.468954
#
# Coordination Sequence:
#
# PCOD9060256 Si02
#       7
#     2   2   2   2   2   2   2
#     4  11  25  46  65  95 138 183 224 272 332 410
#     4  12  24  41  66 103 140 171 220 285 349 405
#     4  11  23  43  68  95 136 174 218 284 342 392
#     4  11  25  46  65  95 138 183 224 272 332 410
#     4  12  24  38  74 100 130 178 228 274 346 410
#     4  12  24  41  66 103 140 171 220 285 349 405
#     4  11  23  43  68  95 136 174 218 284 342 392
#
# _framework density 22.111988
#
# number of rings (size 3 to 8) (size 9 to 14) (size 15 to 20)
#    0.000    0.571    7.143    1.714    4.000    3.429 
#    0.000    2.857    0.000    0.000    0.000    0.000 
#    0.000    0.000    0.000    0.000    0.000    0.000 
#
# Total GULP energy -78312.226156 kJ/mol
# GULP energy per Si atom -5593.730440 kJ/mol
# Density = 2.206166 g / cm^3
# Si number density = 22.111988 Si / 1000 Ang^3
#
#
#
# Elastic Constant Matrix: (Units=GPa)
#
#
# Indices 1 2 3 4 5 6 
#
# 1 99.6571 6.6849 27.0048 11.9351 -9.3872 -17.3074
# 2 6.6849 52.1009 15.8087 -6.6045 -6.3598 -19.3981
# 3 27.0048 15.8087 140.0302 15.0284 -10.2345 -24.1723
# 4 11.9351 -6.6045 15.0284 29.2486 -2.8462 -8.3719
# 5 -9.3872 -6.3598 -10.2345 -2.8462 37.9524 -5.9804
# 6 -17.3074 -19.3981 -24.1723 -8.3719 -5.9804 37.0554
#
#
#
# Elastic Compliance Matrix: (Units=1/GPa)
#
#
# Indices 1 2 3 4 5 6 
#
# 1 0.011767 0.000955 -0.000944 -0.002199 0.003510 0.005450
# 2 0.000955 0.029477 -0.000859 0.013248 0.009053 0.019771
# 3 -0.000944 -0.000859 0.008680 -0.002724 0.002477 0.004556
# 4 -0.002199 0.013248 -0.002724 0.044497 0.006684 0.015263
# 5 0.003510 0.009053 0.002477 0.006684 0.032220 0.014705
# 6 0.005450 0.019771 0.004556 0.015263 0.014705 0.048676
#
#
# Mechanical properties :
#
#
# Convention : Reuss Voigt Hill
#
# Bulk Modulus (GPa) = 20.73460 43.42053 32.07756
# Shear Modulus (GPa) = 25.89486 37.00393 31.44940
#
# Velocity S-wave (km/s) = 3.42581 4.09526 3.77540
# Velocity P-wave (km/s) = 5.00457 6.48388 5.79165
#
# Compressibility (1/GPa) = 0.04822857
#
# Stress axis : x y z
#
# Youngs Moduli (GPa) = 84.98690 33.92450 115.20524
#
# Poissons Ratio (x) = -0.03241 0.10872
# Poissons Ratio (y) = -0.08119 0.09899
# Poissons Ratio (z) = 0.08020 0.02915
#
# Static dielectric constant tensor:
#      x y z
#    x 1.826540 0.031310 -0.031840 
#    y 0.031310 1.831600 -0.003610 
#    z -0.031840 -0.003610 1.806130 
# 
# From -- ./inp_files/258734.got.cif
#   From: 2010.05.17/outbox.cif.g08.bks.cpg/sg2_130_cif.got.tgz:258734.got - 2010.06.03 11:33:40.
