data_PCOD9060908
_publ_section_title
;
Structure prediction by ZEFSAII (Michael W. Deem and Ramdas Pophale) SiO2 
 PCOD9060908
Probable space group: P -1
;
_chemical_formula_sum "Si O2"
_cell_formula_units_Z 16
_cell_length_a 9.979572
_cell_length_b 13.317973
_cell_length_c 22.663151
_cell_angle_alpha 144.743755
_cell_angle_beta 27.994463
_cell_angle_gamma 136.684162
_cell_volume 815.879085
_symmetry_space_group_name_H-M "P -1"
_symmetry_group_IT_number 2
_symmetry_cell_setting 'triclinic'
loop_
_space_group_symop_operation_xyz
x,y,z
-x,-y,-z
loop_
_atom_site_type_symbol
_atom_site_label
_atom_site_fract_x
_atom_site_fract_y
_atom_site_fract_z
Si Si1 0.712259 0.033869 0.164058
Si Si2 0.819884 0.000402 0.856246
Si Si3 0.400483 0.089957 0.519651
Si Si4 0.421909 0.468718 0.084427
Si Si5 0.752902 0.113519 0.803429
Si Si6 0.333387 0.175238 0.802049
Si Si7 0.195476 0.581520 0.643453
Si Si8 0.122283 0.636544 0.565088
O O1 0.755765 0.212872 0.267353
O O2 0.443598 0.028787 0.222322
O O3 0.655966 0.887528 0.164792
O O4 0.000000 0.000000 0.000000
O O5 0.929646 0.806028 0.727165
O O6 0.822451 0.055391 0.814136
O O7 0.016736 0.133292 0.881006
O O8 0.500000 0.000000 0.000000
O O9 0.580635 0.269399 0.525644
O O10 0.068285 0.131759 0.662690
O O11 0.500000 0.000000 0.500000
O O12 0.478783 0.949861 0.371812
O O13 0.564352 0.625829 0.142216
O O14 0.082667 0.467434 0.231655
O O15 0.500000 0.500000 0.000000
O O16 0.566007 0.286993 0.958316
O O17 0.500000 0.500000 0.500000
O O18 0.134908 0.549636 0.582714
O O19 0.000000 0.500000 0.500000
#
# Coordination Sequence:
#
# PCOD9060908 Si02
#       8
#     2   2   2   2   2   2   2   2
#     4  12  23  47  69  97 138 182 225 281 340 407
#     4  11  23  44  69  99 131 181 230 276 347 405
#     4  11  24  47  69 102 137 177 233 277 346 409
#     4  12  27  46  67 107 141 176 232 285 340 406
#     4  12  25  41  75  97 137 183 226 283 341 406
#     4  11  24  45  70  94 142 179 221 289 336 406
#     4  12  28  45  70 104 138 181 233 280 342 409
#     4  11  26  46  67 100 139 174 227 291 332 406
#
# _framework density 19.610749999999999
#
# number of rings (size 3 to 8) (size 9 to 14) (size 15 to 20)
#    0.000    0.500    7.500    1.500    7.000    2.000 
#    0.000    0.000    0.000    0.000    0.000    0.000 
#    0.000    0.000    0.000    0.000    0.000    0.000 
#
# Total GULP energy -89370.923814 kJ/mol
# GULP energy per Si atom -5585.682738 kJ/mol
# Density = 1.956611 g / cm^3
# Si number density = 19.610750 Si / 1000 Ang^3
#
#
#
# Elastic Constant Matrix: (Units=GPa)
#
#
# Indices 1 2 3 4 5 6 
#
# 1 290.0640 8.0837 0.2547 -91.1679 15.0655 4.2661
# 2 8.0837 74.4493 41.3924 -4.7234 2.2962 22.0764
# 3 0.2547 41.3924 125.9908 -13.8684 -17.5684 14.2559
# 4 -91.1679 -4.7234 -13.8684 82.3114 2.1865 2.8114
# 5 15.0655 2.2962 -17.5684 2.1865 37.0650 0.1498
# 6 4.2661 22.0764 14.2559 2.8114 0.1498 53.4802
#
#
#
# Elastic Compliance Matrix: (Units=1/GPa)
#
#
# Indices 1 2 3 4 5 6 
#
# 1 0.005585 -0.000159 0.000502 0.006354 -0.002394 -0.000841
# 2 -0.000159 0.018724 -0.005983 0.000203 -0.003918 -0.006122
# 3 0.000502 -0.005983 0.010910 0.001932 0.005227 -0.000595
# 4 0.006354 0.000203 0.001932 0.019672 -0.002831 -0.002132
# 5 -0.002394 -0.003918 0.005227 -0.002831 0.030838 0.000478
# 6 -0.000841 -0.006122 -0.000595 -0.002132 0.000478 0.021562
#
#
# Mechanical properties :
#
#
# Convention : Reuss Voigt Hill
#
# Bulk Modulus (GPa) = 41.77081 65.55172 53.66127
# Shear Modulus (GPa) = 39.50952 63.95620 51.73286
#
# Velocity S-wave (km/s) = 4.49340 5.71696 5.14170
# Velocity P-wave (km/s) = 6.94745 8.77936 7.91657
#
# Compressibility (1/GPa) = 0.02394016
#
# Stress axis : x y z
#
# Youngs Moduli (GPa) = 179.04181 53.40605 91.65590
#
# Poissons Ratio (x) = 0.00850 -0.04599
# Poissons Ratio (y) = 0.02848 0.54834
# Poissons Ratio (z) = -0.08983 0.31951
#
# Static dielectric constant tensor:
#      x y z
#    x 1.658370 0.003970 -0.023080 
#    y 0.003970 1.677780 0.017260 
#    z -0.023080 0.017260 1.603520 
# 
# From -- ./inp_files/279254.got.cif
#   From: 2010.05.17/outbox.cif.g08.bks.cpg/sg2_140_cif.got.tgz:279254.got - 2010.06.03 11:33:40.
