data_PCOD9060144
_publ_section_title
;
Structure prediction by ZEFSAII (Michael W. Deem and Ramdas Pophale) SiO2 
 PCOD9060144
Probable space group: P -1
;
_chemical_formula_sum "Si O2"
_cell_formula_units_Z 16
_cell_length_a 9.941829
_cell_length_b 9.142092
_cell_length_c 22.403710
_cell_angle_alpha 145.915264
_cell_angle_beta 142.186734
_cell_angle_gamma 51.832484
_cell_volume 695.707101
_symmetry_space_group_name_H-M "P -1"
_symmetry_group_IT_number 2
_symmetry_cell_setting 'triclinic'
loop_
_space_group_symop_operation_xyz
x,y,z
-x,-y,-z
loop_
_atom_site_type_symbol
_atom_site_label
_atom_site_fract_x
_atom_site_fract_y
_atom_site_fract_z
Si Si1 0.889042 0.179549 0.975586
Si Si2 0.407002 0.210668 0.788143
Si Si3 0.298326 0.649316 0.497952
Si Si4 0.953237 0.811388 0.089879
Si Si5 0.941086 0.513082 0.414373
Si Si6 0.505260 0.433790 0.177798
Si Si7 0.803854 0.278597 0.748975
Si Si8 0.081612 0.877359 0.385852
O O1 0.633729 0.222715 0.908948
O O2 0.915681 0.065554 0.879317
O O3 0.042421 0.453376 0.121665
O O4 0.000000 0.000000 0.000000
O O5 0.435145 0.423187 0.816096
O O6 0.178965 0.219613 0.747186
O O7 0.378101 0.925636 0.650505
O O8 0.500000 0.500000 0.500000
O O9 0.147415 0.475782 0.432910
O O10 0.161672 0.716372 0.414631
O O11 0.052745 0.891879 0.215723
O O12 0.693188 0.793448 0.981334
O O13 0.000000 0.500000 0.000000
O O14 0.718474 0.350801 0.258229
O O15 0.000000 0.500000 0.500000
O O16 0.903124 0.816342 0.489457
O O17 0.398941 0.636545 0.254590
O O18 0.769585 0.148365 0.628890
#
# Coordination Sequence:
#
# PCOD9060144 Si02
#       8
#     2   2   2   2   2   2   2   2
#     4  10  20  35  60  92 118 155 203 247 297 354
#     4  11  19  41  65  80 122 166 196 244 308 353
#     4  11  25  40  60  90 123 157 203 253 299 364
#     4   8  16  34  56  82 111 148 195 236 286 350
#     4  11  24  42  61  89 120 160 205 246 309 358
#     4  10  17  38  65  79 114 165 195 239 298 356
#     4  10  21  35  59  92 114 152 205 241 293 362
#     4  11  24  39  60  92 124 155 202 256 300 357
#
# _framework density 22.998183999999998
#
# number of rings (size 3 to 8) (size 9 to 14) (size 15 to 20)
#    0.000    2.000    6.250    0.750    3.500    5.000 
#    0.000    0.000    0.000    1.500    0.000    0.000 
#    0.000    0.000    0.000    0.000    0.000    0.000 
#
# Total GULP energy -89422.812265 kJ/mol
# GULP energy per Si atom -5588.925767 kJ/mol
# Density = 2.294584 g / cm^3
# Si number density = 22.998184 Si / 1000 Ang^3
#
#
#
# Elastic Constant Matrix: (Units=GPa)
#
#
# Indices 1 2 3 4 5 6 
#
# 1 118.7009 33.5450 15.7164 -18.9077 5.2475 5.0256
# 2 33.5450 96.2485 26.9294 -31.2344 3.2863 15.6983
# 3 15.7164 26.9294 63.3824 -23.2616 18.7213 3.0126
# 4 -18.9077 -31.2344 -23.2616 38.9903 -6.8550 -4.6831
# 5 5.2475 3.2863 18.7213 -6.8550 40.4283 -9.8509
# 6 5.0256 15.6983 3.0126 -4.6831 -9.8509 29.0147
#
#
#
# Elastic Compliance Matrix: (Units=1/GPa)
#
#
# Indices 1 2 3 4 5 6 
#
# 1 0.009562 -0.002436 -0.000294 0.002407 -0.000523 -0.000097
# 2 -0.002436 0.016040 -0.002504 0.009443 0.000214 -0.006400
# 3 -0.000294 -0.002504 0.023505 0.009855 -0.009634 -0.002715
# 4 0.002407 0.009443 0.009855 0.040549 0.001342 0.000451
# 5 -0.000523 0.000214 -0.009634 0.001342 0.032449 0.012209
# 6 -0.000097 -0.006400 -0.002715 0.000451 0.012209 0.042444
#
#
# Mechanical properties :
#
#
# Convention : Reuss Voigt Hill
#
# Bulk Modulus (GPa) = 25.87968 47.85705 36.86836
# Shear Modulus (GPa) = 26.61006 35.16272 30.88639
#
# Velocity S-wave (km/s) = 3.40523 3.91440 3.66866
# Velocity P-wave (km/s) = 5.17090 6.42528 5.83191
#
# Compressibility (1/GPa) = 0.03864036
#
# Stress axis : x y z
#
# Youngs Moduli (GPa) = 104.57621 62.34229 42.54336
#
# Poissons Ratio (x) = 0.15185 0.01250
# Poissons Ratio (y) = 0.25472 0.10654
# Poissons Ratio (z) = 0.03073 0.15613
#
# Static dielectric constant tensor:
#      x y z
#    x 1.899940 -0.040570 -0.034160 
#    y -0.040570 1.888120 0.007590 
#    z -0.034160 0.007590 1.940470 
# 
# From -- ./inp_files/225480.got.cif
#   From: 2010.05.17/outbox.cif.g08.bks.cpg/sg2_113_cif.got.tgz:225480.got - 2010.06.03 11:33:40.
