data_PCOD9060350
_publ_section_title
;
Structure prediction by ZEFSAII (Michael W. Deem and Ramdas Pophale) SiO2 
 PCOD9060350
Probable space group: P -1
;
_chemical_formula_sum "Si O2"
_cell_formula_units_Z 16
_cell_length_a 8.752343
_cell_length_b 12.459509
_cell_length_c 14.209872
_cell_angle_alpha 118.154965
_cell_angle_beta 108.982432
_cell_angle_gamma 121.848242
_cell_volume 744.974940
_symmetry_space_group_name_H-M "P -1"
_symmetry_group_IT_number 2
_symmetry_cell_setting 'triclinic'
loop_
_space_group_symop_operation_xyz
x,y,z
-x,-y,-z
loop_
_atom_site_type_symbol
_atom_site_label
_atom_site_fract_x
_atom_site_fract_y
_atom_site_fract_z
Si Si1 0.084247 0.056982 0.752090
Si Si2 0.498318 0.923070 0.370682
Si Si3 0.626694 0.349575 0.090224
Si Si4 0.122448 0.240762 0.654012
Si Si5 0.818462 0.098876 0.845607
Si Si6 0.874643 0.518288 0.807094
Si Si7 0.667587 0.807374 0.832057
Si Si8 0.562444 0.594407 0.406847
O O1 0.098575 0.121250 0.677049
O O2 0.003300 0.121192 0.828764
O O3 0.377330 0.183560 0.896787
O O4 0.833202 0.805579 0.604616
O O5 0.367113 0.927953 0.267375
O O6 0.306773 0.687551 0.252825
O O7 0.500000 0.000000 0.500000
O O8 0.818234 0.081821 0.483697
O O9 0.771156 0.570133 0.196908
O O10 0.491491 0.267101 0.132728
O O11 0.860382 0.391471 0.141925
O O12 0.336312 0.343324 0.656213
O O13 0.635296 0.899758 0.793444
O O14 0.016135 0.303511 0.034323
O O15 0.679995 0.453798 0.659406
O O16 0.552748 0.611053 0.683826
O O17 0.000000 0.000000 0.000000
#
# Coordination Sequence:
#
# PCOD9060350 Si02
#       8
#     2   2   2   2   2   2   2   2
#     4  12  23  43  70 104 135 179 229 278 342 406
#     4  12  23  43  69 107 138 170 220 292 340 402
#     4  11  25  42  69 101 139 178 227 280 336 405
#     4  11  23  43  69  99 144 175 222 278 351 403
#     4  12  25  43  71  96 138 182 224 275 339 403
#     4  12  24  43  71 104 138 177 224 282 350 391
#     4  11  23  51  68  95 137 186 231 273 331 412
#     4  11  25  44  73  98 137 186 224 281 335 405
#
# _framework density 21.477232000000001
#
# number of rings (size 3 to 8) (size 9 to 14) (size 15 to 20)
#    0.000    0.500    6.250    1.875    1.750    2.000 
#    0.000    2.500    0.000    0.000    0.000    0.000 
#    0.000    0.000    0.000    0.000    0.000    0.000 
#
# Total GULP energy -89631.307977 kJ/mol
# GULP energy per Si atom -5601.956749 kJ/mol
# Density = 2.142835 g / cm^3
# Si number density = 21.477232 Si / 1000 Ang^3
#
#
#
# Elastic Constant Matrix: (Units=GPa)
#
#
# Indices 1 2 3 4 5 6 
#
# 1 94.8662 8.8737 53.9116 18.0150 15.1193 -9.3795
# 2 8.8737 116.0637 34.0712 25.1515 3.6654 -23.6653
# 3 53.9116 34.0712 117.2458 39.1845 12.9025 -15.9887
# 4 18.0150 25.1515 39.1845 31.9919 -10.6239 -5.6919
# 5 15.1193 3.6654 12.9025 -10.6239 46.6124 1.6978
# 6 -9.3795 -23.6653 -15.9887 -5.6919 1.6978 29.5291
#
#
#
# Elastic Compliance Matrix: (Units=1/GPa)
#
#
# Indices 1 2 3 4 5 6 
#
# 1 0.015283 0.002324 -0.004729 -0.005798 -0.005274 0.003342
# 2 0.002324 0.013149 0.001780 -0.014006 -0.005832 0.009875
# 3 -0.004729 0.001780 0.021603 -0.027664 -0.011143 0.006930
# 4 -0.005798 -0.014006 -0.027664 0.087415 0.031036 -0.012980
# 5 -0.005274 -0.005832 -0.011143 0.031036 0.034086 -0.008361
# 6 0.003342 0.009875 0.006930 -0.012980 -0.008361 0.044572
#
#
# Mechanical properties :
#
#
# Convention : Reuss Voigt Hill
#
# Bulk Modulus (GPa) = 20.49805 57.98765 39.24285
# Shear Modulus (GPa) = 21.40238 37.04793 29.22516
#
# Velocity S-wave (km/s) = 3.16019 4.15780 3.69284
# Velocity P-wave (km/s) = 4.78336 7.07870 6.04105
#
# Compressibility (1/GPa) = 0.04878513
#
# Stress axis : x y z
#
# Youngs Moduli (GPa) = 65.43089 76.05345 46.28954
#
# Poissons Ratio (x) = -0.17677 0.21890
# Poissons Ratio (y) = -0.15208 -0.08238
# Poissons Ratio (z) = 0.30941 -0.13534
#
# Static dielectric constant tensor:
#      x y z
#    x 1.780490 0.012480 -0.012360 
#    y 0.012480 1.757240 -0.007490 
#    z -0.012360 -0.007490 1.790710 
# 
# From -- ./inp_files/262060.got.cif
#   From: 2010.05.17/outbox.cif.g08.bks.cpg/sg2_132_cif.got.tgz:262060.got - 2010.06.03 11:33:40.
