data_PCOD9060922
_publ_section_title
;
Structure prediction by ZEFSAII (Michael W. Deem and Ramdas Pophale) SiO2 
 PCOD9060922
Probable space group: P -1
;
_chemical_formula_sum "Si O2"
_cell_formula_units_Z 13
_cell_length_a 16.435499
_cell_length_b 12.547048
_cell_length_c 10.230831
_cell_angle_alpha 47.317710
_cell_angle_beta 28.386706
_cell_angle_gamma 35.416958
_cell_volume 575.414146
_symmetry_space_group_name_H-M "P -1"
_symmetry_group_IT_number 2
_symmetry_cell_setting 'triclinic'
loop_
_space_group_symop_operation_xyz
x,y,z
-x,-y,-z
loop_
_atom_site_type_symbol
_atom_site_label
_atom_site_fract_x
_atom_site_fract_y
_atom_site_fract_z
Si Si1 0.854588 0.658466 0.682678
Si Si2 0.538927 0.403384 0.887513
Si Si3 0.313841 0.547436 0.821457
Si Si4 0.076573 0.034125 0.999980
Si Si5 0.001349 0.166513 0.501698
Si Si6 0.500000 0.000000 0.500000
Si Si7 0.561192 0.061191 0.092886
O O1 0.005263 0.678331 0.541259
O O2 0.665445 0.862047 0.720909
O O3 0.000000 0.500000 0.500000
O O4 0.728567 0.602346 0.989704
O O5 0.394092 0.542385 0.859529
O O6 0.798543 0.274195 0.598864
O O7 0.500000 0.500000 0.000000
O O8 0.492901 0.256302 0.082441
O O9 0.500000 0.500000 0.500000
O O10 0.090228 0.743384 0.938299
O O11 0.317215 0.975899 0.720658
O O12 0.000000 0.000000 0.000000
O O13 0.038184 0.940449 0.249582
O O14 0.235393 0.032370 0.212871
O O15 0.618609 0.940141 0.238946
#
# Coordination Sequence:
#
# PCOD9060922 Si02
#       7
#     2   2   2   2   2   1   2
#     4  11  23  46  70 103 142 191 233 293 379 439
#     4  11  23  44  70 101 137 193 231 288 373 436
#     4  11  26  45  72 102 147 181 236 306 369 424
#     4  12  25  46  73 109 141 190 243 304 363 435
#     4  12  24  45  76 100 141 193 245 294 361 450
#     4  12  26  40  72 104 146 178 250 306 358 418
#     4  11  24  42  68 102 138 188 242 298 357 437
#
# _framework density 22.592423
#
# number of rings (size 3 to 8) (size 9 to 14) (size 15 to 20)
#    0.000    0.615    1.538    8.308    2.154    1.231 
#    0.000    0.769    0.000    0.000    0.000    0.000 
#    0.000    0.000    0.000    0.000    0.000    0.000 
#
# Total GULP energy -72456.365836 kJ/mol
# GULP energy per Si atom -5573.566603 kJ/mol
# Density = 2.254100 g / cm^3
# Si number density = 22.592423 Si / 1000 Ang^3
#
#
#
# Elastic Constant Matrix: (Units=GPa)
#
#
# Indices 1 2 3 4 5 6 
#
# 1 96.9814 14.9691 58.2611 -11.6216 -17.5229 5.9259
# 2 14.9691 49.1239 12.4342 4.8021 6.2125 -7.5265
# 3 58.2611 12.4342 135.1388 0.7138 4.4848 -9.7569
# 4 -11.6216 4.8021 0.7138 28.7952 -2.1493 0.5110
# 5 -17.5229 6.2125 4.4848 -2.1493 42.1537 4.4294
# 6 5.9259 -7.5265 -9.7569 0.5110 4.4294 29.3579
#
#
#
# Elastic Compliance Matrix: (Units=1/GPa)
#
#
# Indices 1 2 3 4 5 6 
#
# 1 0.022712 -0.009183 -0.010387 0.012215 0.013856 -0.012694
# 2 -0.009183 0.026270 0.002709 -0.009068 -0.009605 0.011096
# 3 -0.010387 0.002709 0.012483 -0.005634 -0.007186 0.008122
# 4 0.012215 -0.009068 -0.005634 0.042222 0.010104 -0.008922
# 5 0.013856 -0.009605 -0.007186 0.010104 0.033532 -0.012883
# 6 -0.012694 0.011096 0.008122 -0.008922 -0.012883 0.044268
#
#
# Mechanical properties :
#
#
# Convention : Reuss Voigt Hill
#
# Bulk Modulus (GPa) = 36.04370 50.28586 43.16478
# Shear Modulus (GPa) = 22.27609 33.10003 27.68806
#
# Velocity S-wave (km/s) = 3.14347 3.83181 3.50458
# Velocity P-wave (km/s) = 5.40034 6.47172 5.96015
#
# Compressibility (1/GPa) = 0.02774410
#
# Stress axis : x y z
#
# Youngs Moduli (GPa) = 44.03014 38.06590 80.10645
#
# Poissons Ratio (x) = 0.34955 0.83210
# Poissons Ratio (y) = 0.40432 -0.21705
# Poissons Ratio (z) = 0.45736 -0.10314
#
# Static dielectric constant tensor:
#      x y z
#    x 1.887980 -0.012420 0.002830 
#    y -0.012420 1.882950 -0.004190 
#    z 0.002830 -0.004190 1.833610 
# 
# From -- ./inp_files/153413.got.cif
#   From: 2010.05.17/outbox.cif.g08.bks.cpg/sg2_77_cif.got.tgz:153413.got - 2010.06.03 11:33:40.
