data_PCOD9060559
_publ_section_title
;
Structure prediction by ZEFSAII (Michael W. Deem and Ramdas Pophale) SiO2 
 PCOD9060559
Probable space group: P -1
;
_chemical_formula_sum "Si O2"
_cell_formula_units_Z 16
_cell_length_a 8.893488
_cell_length_b 14.719588
_cell_length_c 9.177387
_cell_angle_alpha 138.923653
_cell_angle_beta 111.903709
_cell_angle_gamma 74.549141
_cell_volume 732.194566
_symmetry_space_group_name_H-M "P -1"
_symmetry_group_IT_number 2
_symmetry_cell_setting 'triclinic'
loop_
_space_group_symop_operation_xyz
x,y,z
-x,-y,-z
loop_
_atom_site_type_symbol
_atom_site_label
_atom_site_fract_x
_atom_site_fract_y
_atom_site_fract_z
Si Si1 0.324997 0.490268 0.998869
Si Si2 0.220753 0.774208 0.179154
Si Si3 0.852845 0.799203 0.065564
Si Si4 0.352157 0.946113 0.706152
Si Si5 0.686998 0.055975 0.826968
Si Si6 0.851267 0.801615 0.418622
Si Si7 0.324596 0.491321 0.351977
Si Si8 0.193596 0.779632 0.671802
O O1 0.239620 0.343609 0.755498
O O2 0.500000 0.500000 0.000000
O O3 0.229810 0.618758 0.052710
O O4 0.335118 0.502492 0.192768
O O5 0.343207 0.820788 0.151030
O O6 0.039977 0.801272 0.091465
O O7 0.265526 0.873036 0.449297
O O8 0.753935 0.926823 0.124282
O O9 0.852945 0.815289 0.261166
O O10 0.764573 0.654327 0.822285
O O11 0.524398 0.002927 0.782906
O O12 0.346818 0.832471 0.693367
O O13 0.761320 0.928889 0.613071
O O14 0.805678 0.122871 0.070388
O O15 0.032647 0.795135 0.537801
O O16 0.500000 0.500000 0.500000
O O17 0.221898 0.620482 0.525714
#
# Coordination Sequence:
#
# PCOD9060559 Si02
#       8
#     2   2   2   2   2   2   2   2
#     4  11  25  43  71  99 129 171 225 273 323 390
#     4  12  23  44  69  98 132 173 225 269 325 391
#     4  11  23  43  72  98 129 177 221 268 325 397
#     4  12  23  43  69  96 133 172 226 266 326 394
#     4  12  27  41  67 102 137 171 217 279 326 385
#     4  11  23  44  69  98 133 173 223 269 325 390
#     4  11  25  45  69  97 133 173 219 271 331 392
#     4  12  25  46  66  97 137 177 217 269 333 393
#
# _framework density 21.852115999999999
#
# number of rings (size 3 to 8) (size 9 to 14) (size 15 to 20)
#    0.000    0.500    3.750    4.500    5.250    2.000 
#    2.250    1.250    0.000    0.000    0.000    0.000 
#    0.000    0.000    0.000    0.000    0.000    0.000 
#
# Total GULP energy -89602.948160 kJ/mol
# GULP energy per Si atom -5600.184260 kJ/mol
# Density = 2.180238 g / cm^3
# Si number density = 21.852116 Si / 1000 Ang^3
#
#
#
# Elastic Constant Matrix: (Units=GPa)
#
#
# Indices 1 2 3 4 5 6 
#
# 1 58.2671 -10.6580 27.0834 -2.4016 6.5179 3.0459
# 2 -10.6580 56.9743 40.1483 14.9090 1.6613 2.2489
# 3 27.0834 40.1483 140.2406 15.9909 17.5586 4.2514
# 4 -2.4016 14.9090 15.9909 29.3276 -4.0961 -0.0527
# 5 6.5179 1.6613 17.5586 -4.0961 20.9250 3.4759
# 6 3.0459 2.2489 4.2514 -0.0527 3.4759 39.3456
#
#
#
# Elastic Compliance Matrix: (Units=1/GPa)
#
#
# Indices 1 2 3 4 5 6 
#
# 1 0.022102 0.008683 -0.006590 0.000753 -0.001673 -0.001346
# 2 0.008683 0.027518 -0.008675 -0.008414 0.000976 -0.001405
# 3 -0.006590 -0.008675 0.012410 -0.004088 -0.008541 0.000414
# 4 0.000753 -0.008414 -0.004088 0.042367 0.012183 -0.000155
# 5 -0.001673 0.000976 -0.008541 0.012183 0.058475 -0.004153
# 6 -0.001346 -0.001405 0.000414 -0.000155 -0.004153 0.025922
#
#
# Mechanical properties :
#
#
# Convention : Reuss Voigt Hill
#
# Bulk Modulus (GPa) = 20.46379 40.95883 30.71131
# Shear Modulus (GPa) = 22.90989 31.18018 27.04504
#
# Velocity S-wave (km/s) = 3.24142 3.78149 3.52183
# Velocity P-wave (km/s) = 4.83674 6.15228 5.53375
#
# Compressibility (1/GPa) = 0.04886679
#
# Stress axis : x y z
#
# Youngs Moduli (GPa) = 45.24426 36.33991 80.58243
#
# Poissons Ratio (x) = -0.31555 0.53102
# Poissons Ratio (y) = -0.39286 0.69905
# Poissons Ratio (z) = 0.29815 0.31525
#
# Static dielectric constant tensor:
#      x y z
#    x 1.778790 0.010000 -0.003770 
#    y 0.010000 1.808260 0.002080 
#    z -0.003770 0.002080 1.770690 
# 
# From -- ./inp_files/185816.got.cif
#   From: 2010.05.17/outbox.cif.g08.bks.cpg/sg2_93_cif.got.tgz:185816.got - 2010.06.03 11:33:40.
