data_PCOD9060553
_publ_section_title
;
Structure prediction by ZEFSAII (Michael W. Deem and Ramdas Pophale) SiO2 
 PCOD9060553
Probable space group: P -1
;
_chemical_formula_sum "Si O2"
_cell_formula_units_Z 14
_cell_length_a 8.470531
_cell_length_b 11.149264
_cell_length_c 11.986451
_cell_angle_alpha 69.956898
_cell_angle_beta 40.548078
_cell_angle_gamma 57.670141
_cell_volume 617.634952
_symmetry_space_group_name_H-M "P -1"
_symmetry_group_IT_number 2
_symmetry_cell_setting 'triclinic'
loop_
_space_group_symop_operation_xyz
x,y,z
-x,-y,-z
loop_
_atom_site_type_symbol
_atom_site_label
_atom_site_fract_x
_atom_site_fract_y
_atom_site_fract_z
Si Si1 0.135366 0.255853 0.263770
Si Si2 0.286762 0.981534 0.400824
Si Si3 0.098730 0.119101 0.679823
Si Si4 0.841408 0.406425 0.587319
Si Si5 0.811356 0.933326 0.893051
Si Si6 0.656363 0.527497 0.011963
Si Si7 0.838371 0.773310 0.148334
O O1 0.321505 0.114453 0.283597
O O2 0.028733 0.187463 0.246472
O O3 0.905220 0.361916 0.437829
O O4 0.287413 0.338747 0.096210
O O5 0.296503 0.001933 0.522244
O O6 0.515668 0.826698 0.291345
O O7 0.000000 0.000000 0.500000
O O8 0.000673 0.264019 0.618858
O O9 0.146544 0.152782 0.768237
O O10 0.867747 0.068031 0.824825
O O11 0.534673 0.461322 0.782074
O O12 0.000000 0.500000 0.500000
O O13 0.896524 0.851590 0.989216
O O14 0.500000 0.000000 0.000000
O O15 0.500000 0.500000 0.000000
O O16 0.950260 0.391530 0.911127
#
# Coordination Sequence:
#
# PCOD9060553 Si02
#       7
#     2   2   2   2   2   2   2
#     4  11  24  46  76 104 146 204 248 302 382 446
#     4  11  23  47  75 108 149 193 248 315 381 449
#     4  11  23  43  72 111 146 189 251 312 366 450
#     4  11  23  44  75 104 149 204 244 302 379 444
#     4  12  24  44  71 107 148 196 247 314 381 435
#     4  12  25  48  73 110 156 196 247 312 376 453
#     4  12  26  44  74 111 148 196 259 306 379 451
#
# _framework density 22.667109
#
# number of rings (size 3 to 8) (size 9 to 14) (size 15 to 20)
#    0.000    0.571    5.714    1.714    0.000    2.857 
#    5.143    1.429    0.000    0.000    0.000    0.000 
#    0.000    0.000    0.000    0.000    0.000    0.000 
#
# Total GULP energy -78121.337147 kJ/mol
# GULP energy per Si atom -5580.095510 kJ/mol
# Density = 2.261552 g / cm^3
# Si number density = 22.667109 Si / 1000 Ang^3
#
#
#
# Elastic Constant Matrix: (Units=GPa)
#
#
# Indices 1 2 3 4 5 6 
#
# 1 69.1438 39.9497 50.0382 -0.7306 14.2245 9.6415
# 2 39.9497 122.5817 66.7157 -0.8506 -11.0209 -0.1623
# 3 50.0382 66.7157 146.3792 13.9223 14.7002 -4.2732
# 4 -0.7306 -0.8506 13.9223 57.6342 4.5151 -0.6496
# 5 14.2245 -11.0209 14.7002 4.5151 44.8258 0.6329
# 6 9.6415 -0.1623 -4.2732 -0.6496 0.6329 21.6763
#
#
#
# Elastic Compliance Matrix: (Units=1/GPa)
#
#
# Indices 1 2 3 4 5 6 
#
# 1 0.025260 -0.005754 -0.005806 0.002094 -0.007566 -0.012140
# 2 -0.005754 0.013204 -0.004734 0.000772 0.006525 0.001558
# 3 -0.005806 -0.004734 0.011666 -0.002676 -0.002946 0.004853
# 4 0.002094 0.000772 -0.002676 0.018136 -0.001412 -0.000868
# 5 -0.007566 0.006525 -0.002946 -0.001412 0.027394 0.001991
# 6 -0.012140 0.001558 0.004853 -0.000868 0.001991 0.052417
#
#
# Mechanical properties :
#
#
# Convention : Reuss Voigt Hill
#
# Bulk Modulus (GPa) = 57.00804 72.39021 64.69912
# Shear Modulus (GPa) = 26.80771 36.92066 31.86419
#
# Velocity S-wave (km/s) = 3.44273 4.04024 3.75339
# Velocity P-wave (km/s) = 6.40374 7.33283 6.88397
#
# Compressibility (1/GPa) = 0.01754139
#
# Stress axis : x y z
#
# Youngs Moduli (GPa) = 39.58757 75.73590 85.71853
#
# Poissons Ratio (x) = 0.43580 0.49769
# Poissons Ratio (y) = 0.22780 0.40580
# Poissons Ratio (z) = 0.22985 0.35854
#
# Static dielectric constant tensor:
#      x y z
#    x 1.838120 0.014870 0.003680 
#    y 0.014870 1.710650 0.035090 
#    z 0.003680 0.035090 1.986930 
# 
# From -- ./inp_files/392275.got.cif
#   From: 2010.05.17/outbox.cif.g08.bks.cpg/sg2_197_cif.got.tgz:392275.got - 2010.06.03 11:33:40.
