data_PCOD9060420
_publ_section_title
;
Structure prediction by ZEFSAII (Michael W. Deem and Ramdas Pophale) SiO2 
 PCOD9060420
Probable space group: P -1
;
_chemical_formula_sum "Si O2"
_cell_formula_units_Z 16
_cell_length_a 20.838242
_cell_length_b 9.209191
_cell_length_c 17.581283
_cell_angle_alpha 34.905556
_cell_angle_beta 151.244366
_cell_angle_gamma 151.477554
_cell_volume 756.589855
_symmetry_space_group_name_H-M "P -1"
_symmetry_group_IT_number 2
_symmetry_cell_setting 'triclinic'
loop_
_space_group_symop_operation_xyz
x,y,z
-x,-y,-z
loop_
_atom_site_type_symbol
_atom_site_label
_atom_site_fract_x
_atom_site_fract_y
_atom_site_fract_z
Si Si1 0.017545 0.289213 0.006803
Si Si2 0.694596 0.631305 0.922042
Si Si3 0.580427 0.416202 0.054989
Si Si4 0.180452 0.253902 0.607090
Si Si5 0.911589 0.645580 0.380197
Si Si6 0.149134 0.356122 0.279851
Si Si7 0.571068 0.354140 0.439484
Si Si8 0.707389 0.178657 0.042975
O O1 0.110928 0.292187 0.177777
O O2 0.156047 0.523446 0.990802
O O3 0.917639 0.437430 0.857751
O O4 0.877922 0.942835 0.981404
O O5 0.580446 0.621532 0.741565
O O6 0.605806 0.592438 0.926333
O O7 0.693243 0.326554 0.041125
O O8 0.760317 0.541873 0.213681
O O9 0.500000 0.500000 0.000000
O O10 0.465915 0.045911 0.082194
O O11 0.162689 0.444397 0.573129
O O12 0.294531 0.447814 0.571669
O O13 0.242280 0.056647 0.791148
O O14 0.000000 0.000000 0.500000
O O15 0.000000 0.500000 0.500000
O O16 0.037368 0.019137 0.347948
O O17 0.331250 0.529449 0.429136
O O18 0.500000 0.000000 0.500000
#
# Coordination Sequence:
#
# PCOD9060420 Si02
#       8
#     2   2   2   2   2   2   2   2
#     4  11  23  46  73  96 141 185 237 285 353 428
#     4  12  26  43  72 104 139 188 236 294 351 424
#     4  12  24  46  71 103 138 188 241 289 352 420
#     4  12  25  44  72  98 140 187 227 293 357 420
#     4  12  26  44  70 106 140 183 241 294 353 424
#     4  11  23  43  70  97 137 185 230 284 357 412
#     4  12  25  45  69 103 142 183 232 288 361 422
#     4  12  26  44  72 105 141 180 245 293 351 422
#
# _framework density 21.14752
#
# number of rings (size 3 to 8) (size 9 to 14) (size 15 to 20)
#    0.000    0.250    7.500    0.750    5.250    1.000 
#    2.250    0.625    0.000    0.000    0.000    0.000 
#    0.000    0.000    0.000    0.000    0.000    0.000 
#
# Total GULP energy -89435.995109 kJ/mol
# GULP energy per Si atom -5589.749694 kJ/mol
# Density = 2.109939 g / cm^3
# Si number density = 21.147520 Si / 1000 Ang^3
#
#
#
# Elastic Constant Matrix: (Units=GPa)
#
#
# Indices 1 2 3 4 5 6 
#
# 1 70.4352 31.0236 24.3964 -5.1669 -6.1051 -1.3054
# 2 31.0236 150.7267 30.7216 29.3206 -0.6113 0.0250
# 3 24.3964 30.7216 109.1481 34.7151 -4.5681 -12.5891
# 4 -5.1669 29.3206 34.7151 41.1411 -7.6822 0.7804
# 5 -6.1051 -0.6113 -4.5681 -7.6822 26.8580 -4.5264
# 6 -1.3054 0.0250 -12.5891 0.7804 -4.5264 38.4014
#
#
#
# Elastic Compliance Matrix: (Units=1/GPa)
#
#
# Indices 1 2 3 4 5 6 
#
# 1 0.020854 -0.005506 -0.007465 0.014211 0.007212 -0.001173
# 2 -0.005506 0.009238 0.001379 -0.009074 -0.003395 0.000043
# 3 -0.007465 0.001379 0.016001 -0.016018 -0.002683 0.005000
# 4 0.014211 -0.009074 -0.016018 0.048678 0.013522 -0.004158
# 5 0.007212 -0.003395 -0.002683 0.013522 0.042906 0.004150
# 6 -0.001173 0.000043 0.005000 -0.004158 0.004150 0.028214
#
#
# Mechanical properties :
#
#
# Convention : Reuss Voigt Hill
#
# Bulk Modulus (GPa) = 43.64762 55.84369 49.74566
# Shear Modulus (GPa) = 25.41814 37.55800 31.48807
#
# Velocity S-wave (km/s) = 3.47067 4.21883 3.86291
# Velocity P-wave (km/s) = 6.06178 7.08488 6.59320
#
# Compressibility (1/GPa) = 0.02291075
#
# Stress axis : x y z
#
# Youngs Moduli (GPa) = 47.95283 108.24923 62.49503
#
# Poissons Ratio (x) = 0.59599 0.46651
# Poissons Ratio (y) = 0.26401 -0.08620
# Poissons Ratio (z) = 0.35796 -0.14931
#
# Static dielectric constant tensor:
#      x y z
#    x 1.796210 -0.006270 -0.040360 
#    y -0.006270 1.800520 0.046320 
#    z -0.040360 0.046320 1.772280 
# 
# From -- ./inp_files/577556.got.cif
#   From: 2010.05.17/outbox.cif.g08.bks.cpg/sg2_289_cif.got.tgz:577556.got - 2010.06.03 11:33:40.
