data_PCOD9060346
_publ_section_title
;
Structure prediction by ZEFSAII (Michael W. Deem and Ramdas Pophale) SiO2 
 PCOD9060346
Probable space group: P -1
;
_chemical_formula_sum "Si O2"
_cell_formula_units_Z 16
_cell_length_a 11.404729
_cell_length_b 12.237211
_cell_length_c 10.744725
_cell_angle_alpha 73.445265
_cell_angle_beta 144.436212
_cell_angle_gamma 118.939484
_cell_volume 745.643500
_symmetry_space_group_name_H-M "P -1"
_symmetry_group_IT_number 2
_symmetry_cell_setting 'triclinic'
loop_
_space_group_symop_operation_xyz
x,y,z
-x,-y,-z
loop_
_atom_site_type_symbol
_atom_site_label
_atom_site_fract_x
_atom_site_fract_y
_atom_site_fract_z
Si Si1 0.922107 0.067830 0.517063
Si Si2 0.413549 0.397959 0.114873
Si Si3 0.397018 0.404328 0.558697
Si Si4 0.721813 0.070850 0.750271
Si Si5 0.120611 0.739756 0.770710
Si Si6 0.165075 0.124768 0.960283
Si Si7 0.188465 0.527643 0.756439
Si Si8 0.460079 0.823093 0.251875
O O1 0.885093 0.177676 0.379262
O O2 0.112863 0.128746 0.768258
O O3 0.693585 0.954664 0.413755
O O4 0.000000 0.000000 0.500000
O O5 0.529049 0.506482 0.282828
O O6 0.579152 0.415924 0.137234
O O7 0.340666 0.253937 0.137398
O O8 0.192913 0.409174 0.871230
O O9 0.500000 0.500000 0.500000
O O10 0.488030 0.298042 0.670633
O O11 0.124620 0.324441 0.354014
O O12 0.693133 0.182818 0.759985
O O13 0.932812 0.098263 0.836223
O O14 0.500000 0.000000 0.500000
O O15 0.750316 0.980974 0.909254
O O16 0.172633 0.626283 0.805976
O O17 0.317766 0.823325 0.008276
O O18 0.000000 0.500000 0.500000
#
# Coordination Sequence:
#
# PCOD9060346 Si02
#       8
#     2   2   2   2   2   2   2   2
#     4  12  25  45  76 107 144 182 232 301 360 413
#     4  11  26  44  69 103 140 181 231 286 345 419
#     4  12  29  48  70 102 145 192 237 290 347 425
#     4  11  26  48  70 103 141 187 237 290 347 416
#     4  12  26  46  72 105 143 184 237 292 359 418
#     4  11  27  45  72 105 143 183 235 291 349 417
#     4  11  23  43  69  99 139 178 226 282 345 413
#     4  12  27  48  73 105 142 186 241 290 356 423
#
# _framework density 21.457975999999999
#
# number of rings (size 3 to 8) (size 9 to 14) (size 15 to 20)
#    0.000    0.500    5.000    1.875    8.750    2.500 
#    0.000    0.000    0.000    0.000    0.000    0.000 
#    0.000    0.000    0.000    0.000    0.000    0.000 
#
# Total GULP energy -89423.850702 kJ/mol
# GULP energy per Si atom -5588.990669 kJ/mol
# Density = 2.140914 g / cm^3
# Si number density = 21.457976 Si / 1000 Ang^3
#
#
#
# Elastic Constant Matrix: (Units=GPa)
#
#
# Indices 1 2 3 4 5 6 
#
# 1 83.9588 27.2791 18.2187 -18.3909 6.6879 -25.6692
# 2 27.2791 85.0863 13.3035 -7.1391 13.2260 -7.1335
# 3 18.2187 13.3035 77.5290 -5.1397 4.8617 -4.7397
# 4 -18.3909 -7.1391 -5.1397 30.5480 -4.3107 -1.0945
# 5 6.6879 13.2260 4.8617 -4.3107 33.0331 -3.2737
# 6 -25.6692 -7.1335 -4.7397 -1.0945 -3.2737 42.6950
#
#
#
# Elastic Compliance Matrix: (Units=1/GPa)
#
#
# Indices 1 2 3 4 5 6 
#
# 1 0.019511 -0.004113 -0.002519 0.010841 0.000581 0.011086
# 2 -0.004113 0.013915 -0.001176 -0.000100 -0.004642 -0.000637
# 3 -0.002519 -0.001176 0.013765 0.000371 -0.001022 -0.000252
# 4 0.010841 -0.000100 0.000371 0.040120 0.003805 0.007862
# 5 0.000581 -0.004642 -0.001022 0.003805 0.032866 0.002078
# 6 0.011086 -0.000637 -0.000252 0.007862 0.002078 0.030314
#
#
# Mechanical properties :
#
#
# Convention : Reuss Voigt Hill
#
# Bulk Modulus (GPa) = 31.66935 40.46408 36.06672
# Shear Modulus (GPa) = 28.30734 33.77340 31.04037
#
# Velocity S-wave (km/s) = 3.63602 3.97159 3.80750
# Velocity P-wave (km/s) = 5.69371 6.31899 6.01448
#
# Compressibility (1/GPa) = 0.03157628
#
# Stress axis : x y z
#
# Youngs Moduli (GPa) = 51.25211 71.86515 72.64566
#
# Poissons Ratio (x) = 0.29556 0.18301
# Poissons Ratio (y) = 0.21079 0.08541
# Poissons Ratio (z) = 0.12912 0.08449
#
# Static dielectric constant tensor:
#      x y z
#    x 1.690800 0.021610 -0.009410 
#    y 0.021610 1.843480 0.000800 
#    z -0.009410 0.000800 1.781470 
# 
# From -- ./inp_files/81112.got.cif
#   From: 2010.05.17/outbox.cif.g08.bks.cpg/sg2_41_cif.got.tgz:81112.got - 2010.06.03 11:33:40.
