data_PCOD9060556
_publ_section_title
;
Structure prediction by ZEFSAII (Michael W. Deem and Ramdas Pophale) SiO2 
 PCOD9060556
Probable space group: P -1
;
_chemical_formula_sum "Si O2"
_cell_formula_units_Z 16
_cell_length_a 11.924814
_cell_length_b 6.316017
_cell_length_c 11.516876
_cell_angle_alpha 72.556856
_cell_angle_beta 68.407884
_cell_angle_gamma 59.596614
_cell_volume 688.632281
_symmetry_space_group_name_H-M "P -1"
_symmetry_group_IT_number 2
_symmetry_cell_setting 'triclinic'
loop_
_space_group_symop_operation_xyz
x,y,z
-x,-y,-z
loop_
_atom_site_type_symbol
_atom_site_label
_atom_site_fract_x
_atom_site_fract_y
_atom_site_fract_z
Si Si1 0.525593 0.916208 0.290941
Si Si2 0.831496 0.901434 0.907900
Si Si3 0.708153 0.585272 0.460048
Si Si4 0.620090 0.738742 0.038750
Si Si5 0.894704 0.779933 0.471516
Si Si6 0.323853 0.777596 0.866806
Si Si7 0.736486 0.125723 0.668710
Si Si8 0.118088 0.791321 0.744480
O O1 0.571986 0.761051 0.416505
O O2 0.616323 0.752967 0.177037
O O3 0.379245 0.958150 0.301827
O O4 0.564534 0.142821 0.236896
O O5 0.770115 0.100677 0.794756
O O6 0.772418 0.033373 0.030630
O O7 0.991567 0.774704 0.854977
O O8 0.761684 0.719707 0.944836
O O9 0.766654 0.756174 0.470261
O O10 0.695386 0.395779 0.586972
O O11 0.811951 0.412650 0.349520
O O12 0.606439 0.493129 0.057248
O O13 0.500000 0.000000 0.000000
O O14 0.000000 0.500000 0.500000
O O15 0.861917 0.930522 0.579213
O O16 0.934674 0.938815 0.340541
O O17 0.227553 0.778390 0.799155
#
# Coordination Sequence:
#
# PCOD9060556 Si02
#       8
#     2   2   2   2   2   2   2   2
#     4  11  23  45  68 101 134 175 230 275 342 400
#     4  11  25  42  68 104 134 180 228 272 340 399
#     4  11  23  43  72  96 138 180 221 286 335 395
#     4  11  24  47  67  99 137 177 221 280 337 397
#     4  11  24  43  68  99 137 182 224 278 341 395
#     4  11  25  44  73  97 137 181 220 284 336 398
#     4  11  25  44  66 105 136 177 229 278 335 407
#     4  11  23  45  67 100 138 174 230 278 334 402
#
# _framework density 23.234461
#
# number of rings (size 3 to 8) (size 9 to 14) (size 15 to 20)
#    0.000    1.000    3.750    2.250    0.000    9.000 
#    2.250    0.000    0.000    0.000    0.000    0.000 
#    0.000    0.000    0.000    0.000    0.000    0.000 
#
# Total GULP energy -89525.366588 kJ/mol
# GULP energy per Si atom -5595.335412 kJ/mol
# Density = 2.318158 g / cm^3
# Si number density = 23.234461 Si / 1000 Ang^3
#
#
#
# Elastic Constant Matrix: (Units=GPa)
#
#
# Indices 1 2 3 4 5 6 
#
# 1 93.8372 1.1923 11.0295 -7.0727 -16.0584 11.4537
# 2 1.1923 74.4304 18.0266 -11.6130 -10.0867 2.2362
# 3 11.0295 18.0266 83.6814 -2.0151 -1.5560 3.6584
# 4 -7.0727 -11.6130 -2.0151 32.5367 6.5170 4.6654
# 5 -16.0584 -10.0867 -1.5560 6.5170 43.4680 -4.3790
# 6 11.4537 2.2362 3.6584 4.6654 -4.3790 26.4600
#
#
#
# Elastic Compliance Matrix: (Units=1/GPa)
#
#
# Indices 1 2 3 4 5 6 
#
# 1 0.012333 0.001322 -0.001542 0.003025 0.003837 -0.005135
# 2 0.001322 0.015485 -0.003246 0.005284 0.002985 -0.001870
# 3 -0.001542 -0.003246 0.012867 -0.000385 -0.000897 -0.000918
# 4 0.003025 0.005284 -0.000385 0.035244 -0.003815 -0.008548
# 5 0.003837 0.002985 -0.000897 -0.003815 0.025976 0.003183
# 6 -0.005135 -0.001870 -0.000918 -0.008548 0.003183 0.042335
#
#
# Mechanical properties :
#
#
# Convention : Reuss Voigt Hill
#
# Bulk Modulus (GPa) = 29.62593 34.71620 32.17106
# Shear Modulus (GPa) = 30.78421 35.27298 33.02859
#
# Velocity S-wave (km/s) = 3.64392 3.90055 3.77441
# Velocity P-wave (km/s) = 5.52112 5.93800 5.73335
#
# Compressibility (1/GPa) = 0.03375421
#
# Stress axis : x y z
#
# Youngs Moduli (GPa) = 81.08618 64.57720 77.72060
#
# Poissons Ratio (x) = -0.08537 0.11981
# Poissons Ratio (y) = -0.10720 0.25225
# Poissons Ratio (z) = 0.12500 0.20959
#
# Static dielectric constant tensor:
#      x y z
#    x 1.926250 -0.016800 0.000160 
#    y -0.016800 1.877180 -0.021700 
#    z 0.000160 -0.021700 1.870670 
# 
# From -- ./inp_files/69380.got.cif
#   From: 2010.05.17/outbox.cif.g08.bks.cpg/sg2_35_cif.got.tgz:69380.got - 2010.06.03 11:33:40.
