data_PCOD9060486
_publ_section_title
;
Structure prediction by ZEFSAII (Michael W. Deem and Ramdas Pophale) SiO2 
 PCOD9060486
Probable space group: P -1
;
_chemical_formula_sum "Si O2"
_cell_formula_units_Z 16
_cell_length_a 11.303948
_cell_length_b 11.677862
_cell_length_c 10.740528
_cell_angle_alpha 107.453159
_cell_angle_beta 65.250882
_cell_angle_gamma 145.578447
_cell_volume 724.989852
_symmetry_space_group_name_H-M "P -1"
_symmetry_group_IT_number 2
_symmetry_cell_setting 'triclinic'
loop_
_space_group_symop_operation_xyz
x,y,z
-x,-y,-z
loop_
_atom_site_type_symbol
_atom_site_label
_atom_site_fract_x
_atom_site_fract_y
_atom_site_fract_z
Si Si1 0.417717 0.167096 0.371395
Si Si2 0.396174 0.355727 0.620335
Si Si3 0.882923 0.999014 0.779882
Si Si4 0.755562 0.162785 0.959557
Si Si5 0.657526 0.596159 0.842964
Si Si6 0.878618 0.433419 0.210196
Si Si7 0.091548 0.449625 0.330873
Si Si8 0.309687 0.848389 0.431497
O O1 0.399646 0.219896 0.528561
O O2 0.247881 0.095075 0.324472
O O3 0.668219 0.363337 0.277711
O O4 0.377585 0.995479 0.346424
O O5 0.500000 0.500000 0.500000
O O6 0.527429 0.477093 0.730234
O O7 0.142121 0.199572 0.704815
O O8 0.811411 0.826071 0.826889
O O9 0.801095 0.055649 0.908105
O O10 0.904543 0.330653 0.840088
O O11 0.840539 0.298844 0.085363
O O12 0.500000 0.000000 0.000000
O O13 0.804564 0.586645 0.793888
O O14 0.500000 0.500000 0.000000
O O15 0.917287 0.396238 0.310069
O O16 0.278824 0.686472 0.356500
O O17 0.937229 0.295215 0.462876
O O18 0.500000 0.000000 0.500000
#
# Coordination Sequence:
#
# PCOD9060486 Si02
#       8
#     2   2   2   2   2   2   2   2
#     4  12  23  45  77 111 144 181 249 306 370 426
#     4  12  27  48  77 106 148 194 245 305 366 439
#     4  12  27  48  75 109 145 196 249 303 366 437
#     4  11  25  44  72 105 144 184 245 300 365 428
#     4  12  31  50  71 104 152 201 247 297 362 451
#     4  11  25  43  72 107 141 187 231 311 363 439
#     4  11  26  44  70 101 147 189 238 295 372 433
#     4  11  23  43  71 108 143 180 234 306 370 431
#
# _framework density 22.069275000000001
#
# number of rings (size 3 to 8) (size 9 to 14) (size 15 to 20)
#    0.000    0.500    3.750    3.375    7.000    0.500 
#    2.250    0.000    0.000    0.000    0.000    0.000 
#    0.000    0.000    0.000    0.000    0.000    0.000 
#
# Total GULP energy -89509.418620 kJ/mol
# GULP energy per Si atom -5594.338664 kJ/mol
# Density = 2.201904 g / cm^3
# Si number density = 22.069275 Si / 1000 Ang^3
#
#
#
# Elastic Constant Matrix: (Units=GPa)
#
#
# Indices 1 2 3 4 5 6 
#
# 1 37.2925 25.2647 2.5113 -0.6980 -12.7755 -2.5610
# 2 25.2647 130.2793 21.2053 -4.5637 -11.8286 -7.8295
# 3 2.5113 21.2053 71.2781 0.0925 -18.7499 -4.4489
# 4 -0.6980 -4.5637 0.0925 51.9589 -2.9431 -2.4954
# 5 -12.7755 -11.8286 -18.7499 -2.9431 48.2110 5.2723
# 6 -2.5610 -7.8295 -4.4489 -2.4954 5.2723 39.0047
#
#
#
# Elastic Compliance Matrix: (Units=1/GPa)
#
#
# Indices 1 2 3 4 5 6 
#
# 1 0.033792 -0.006227 0.002927 0.000395 0.008570 0.000169
# 2 -0.006227 0.009371 -0.002610 0.000780 -0.000459 0.001286
# 3 0.002927 -0.002610 0.016447 0.000180 0.006468 0.000681
# 4 0.000395 0.000780 0.000180 0.019460 0.001417 0.001257
# 5 0.008570 -0.000459 0.006468 0.001417 0.025741 -0.002180
# 6 0.000169 0.001286 0.000681 0.001257 -0.002180 0.026360
#
#
# Mechanical properties :
#
#
# Convention : Reuss Voigt Hill
#
# Bulk Modulus (GPa) = 20.92565 37.42360 29.17462
# Shear Modulus (GPa) = 31.46197 40.49282 35.97740
#
# Velocity S-wave (km/s) = 3.77981 4.28811 4.04196
# Velocity P-wave (km/s) = 5.34338 6.44293 5.91874
#
# Compressibility (1/GPa) = 0.04778824
#
# Stress axis : x y z
#
# Youngs Moduli (GPa) = 29.59286 106.70933 60.80274
#
# Poissons Ratio (x) = 0.66452 -0.17795
# Poissons Ratio (y) = 0.18429 0.15870
# Poissons Ratio (z) = -0.08661 0.27851
#
# Static dielectric constant tensor:
#      x y z
#    x 1.822390 -0.016810 0.050390 
#    y -0.016810 1.820960 0.001690 
#    z 0.050390 0.001690 1.864640 
# 
# From -- ./inp_files/365215.got.cif
#   From: 2010.05.17/outbox.cif.g08.bks.cpg/sg2_183_cif.got.tgz:365215.got - 2010.06.03 11:33:40.
