data_PCOD9060718
_publ_section_title
;
Structure prediction by ZEFSAII (Michael W. Deem and Ramdas Pophale) SiO2 
 PCOD9060718
Probable space group: P -1
;
_chemical_formula_sum "Si O2"
_cell_formula_units_Z 16
_cell_length_a 17.442416
_cell_length_b 16.779304
_cell_length_c 5.797763
_cell_angle_alpha 47.266475
_cell_angle_beta 132.175630
_cell_angle_gamma 147.114526
_cell_volume 654.417386
_symmetry_space_group_name_H-M "P -1"
_symmetry_group_IT_number 2
_symmetry_cell_setting 'triclinic'
loop_
_space_group_symop_operation_xyz
x,y,z
-x,-y,-z
loop_
_atom_site_type_symbol
_atom_site_label
_atom_site_fract_x
_atom_site_fract_y
_atom_site_fract_z
Si Si1 0.395697 0.375159 0.840770
Si Si2 0.918987 0.820134 0.377474
Si Si3 0.471997 0.088256 0.627928
Si Si4 0.519593 0.347641 0.759621
Si Si5 0.248053 0.054257 0.547057
Si Si6 0.732050 0.354583 0.349037
Si Si7 0.067208 0.288384 0.872710
Si Si8 0.775628 0.147466 0.732419
O O1 0.229019 0.217716 0.851381
O O2 0.482302 0.343731 0.956261
O O3 0.391667 0.480229 0.469064
O O4 0.500000 0.500000 0.000000
O O5 0.894831 0.731662 0.264968
O O6 0.084776 0.984075 0.351947
O O7 0.918428 0.769666 0.740930
O O8 0.628770 0.252632 0.558001
O O9 0.357048 0.086117 0.513168
O O10 0.386432 0.988181 0.422534
O O11 0.500000 0.000000 0.000000
O O12 0.361214 0.218981 0.578794
O O13 0.619168 0.315962 0.002019
O O14 0.215099 0.920928 0.891064
O O15 0.840813 0.533777 0.258938
O O16 0.804236 0.294765 0.546051
O O17 0.896196 0.192173 0.711611
#
# Coordination Sequence:
#
# PCOD9060718 Si02
#       8
#     2   2   2   2   2   2   2   2
#     4  11  26  48  73 101 135 180 239 309 359 425
#     4  11  25  48  75 101 147 187 237 300 363 422
#     4  12  23  39  65 101 144 189 240 285 342 419
#     4  11  25  44  69 103 136 178 243 290 362 421
#     4  11  24  44  68 103 142 188 231 289 357 431
#     4  12  23  42  69 104 140 194 238 290 354 424
#     4  11  25  45  71 107 145 192 238 291 357 432
#     4  11  23  44  63 102 149 184 234 289 351 425
#
# _framework density 24.449227
#
# number of rings (size 3 to 8) (size 9 to 14) (size 15 to 20)
#    0.000    0.750    5.000    2.250    5.250    1.500 
#    0.000    3.125    0.000    0.000    0.000    0.000 
#    0.000    0.000    0.000    0.000    0.000    0.000 
#
# Total GULP energy -89314.649632 kJ/mol
# GULP energy per Si atom -5582.165602 kJ/mol
# Density = 2.439358 g / cm^3
# Si number density = 24.449227 Si / 1000 Ang^3
#
#
#
# Elastic Constant Matrix: (Units=GPa)
#
#
# Indices 1 2 3 4 5 6 
#
# 1 69.8832 -19.8643 6.9039 14.5333 -0.5574 7.9683
# 2 -19.8643 89.3766 1.4494 7.5119 -7.0989 14.8132
# 3 6.9039 1.4494 77.8169 -9.8935 -0.4461 13.1017
# 4 14.5333 7.5119 -9.8935 47.8664 3.9318 -2.3953
# 5 -0.5574 -7.0989 -0.4461 3.9318 31.9870 6.8749
# 6 7.9683 14.8132 13.1017 -2.3953 6.8749 41.6139
#
#
#
# Elastic Compliance Matrix: (Units=1/GPa)
#
#
# Indices 1 2 3 4 5 6 
#
# 1 0.018544 0.006144 -0.001637 -0.007573 0.003951 -0.006311
# 2 0.006144 0.014681 -0.000153 -0.005041 0.005610 -0.007571
# 3 -0.001637 -0.000153 0.014077 0.003182 0.000598 -0.003980
# 4 -0.007573 -0.005041 0.003182 0.025304 -0.005300 0.004575
# 5 0.003951 0.005610 0.000598 -0.005300 0.035184 -0.009060
# 6 -0.006311 -0.007571 -0.003980 0.004575 -0.009060 0.030947
#
#
# Mechanical properties :
#
#
# Convention : Reuss Voigt Hill
#
# Bulk Modulus (GPa) = 17.85361 23.78388 20.81874
# Shear Modulus (GPa) = 33.62530 40.86598 37.24564
#
# Velocity S-wave (km/s) = 3.71254 4.09279 3.90729
# Velocity P-wave (km/s) = 5.06907 5.66423 5.37490
#
# Compressibility (1/GPa) = 0.05601107
#
# Stress axis : x y z
#
# Youngs Moduli (GPa) = 53.92554 68.11596 71.03860
#
# Poissons Ratio (x) = -0.41854 0.11631
# Poissons Ratio (y) = -0.33134 0.01084
# Poissons Ratio (z) = 0.08829 0.01039
#
# Static dielectric constant tensor:
#      x y z
#    x 2.024050 -0.073010 -0.000680 
#    y -0.073010 1.985760 -0.042700 
#    z -0.000680 -0.042700 2.135530 
# 
# From -- ./inp_files/84961.got.cif
#   From: 2010.05.17/outbox.cif.g08.bks.cpg/sg2_43_cif.got.tgz:84961.got - 2010.06.03 11:33:40.
