data_PCOD9060383
_publ_section_title
;
Structure prediction by ZEFSAII (Michael W. Deem and Ramdas Pophale) SiO2 
 PCOD9060383
Probable space group: P -1
;
_chemical_formula_sum "Si O2"
_cell_formula_units_Z 16
_cell_length_a 5.776020
_cell_length_b 11.482214
_cell_length_c 22.796992
_cell_angle_alpha 146.627272
_cell_angle_beta 122.087854
_cell_angle_gamma 72.548848
_cell_volume 670.286566
_symmetry_space_group_name_H-M "P -1"
_symmetry_group_IT_number 2
_symmetry_cell_setting 'triclinic'
loop_
_space_group_symop_operation_xyz
x,y,z
-x,-y,-z
loop_
_atom_site_type_symbol
_atom_site_label
_atom_site_fract_x
_atom_site_fract_y
_atom_site_fract_z
Si Si1 0.221941 0.791817 0.888012
Si Si2 0.304538 0.364549 0.577598
Si Si3 0.184127 0.448247 0.372030
Si Si4 0.110482 0.877403 0.312733
Si Si5 0.461295 0.684163 0.118005
Si Si6 0.848728 0.995120 0.762995
Si Si7 0.219524 0.425204 0.180114
Si Si8 0.684437 0.694496 0.979123
O O1 0.361571 0.657230 0.897205
O O2 0.066935 0.688537 0.763987
O O3 0.941055 0.767103 0.877252
O O4 0.500000 0.000000 0.000000
O O5 0.533578 0.445209 0.587240
O O6 0.472404 0.478614 0.706455
O O7 0.992144 0.410653 0.556048
O O8 0.245293 0.099916 0.461288
O O9 0.248819 0.264449 0.345578
O O10 0.198477 0.944939 0.285037
O O11 0.164848 0.658082 0.253582
O O12 0.769243 0.820320 0.240696
O O13 0.305811 0.865183 0.158600
O O14 0.289402 0.524265 0.078602
O O15 0.500000 0.500000 0.000000
O O16 0.181822 0.104167 0.873686
O O17 0.163818 0.289337 0.055443
#
# Coordination Sequence:
#
# PCOD9060383 Si02
#       8
#     2   2   2   2   2   2   2   2
#     4  11  23  43  70 104 143 189 230 302 368 439
#     4  11  28  49  74 104 146 198 247 309 357 435
#     4  11  27  49  71 108 149 193 252 295 370 436
#     4  12  26  46  72 103 141 194 247 301 366 430
#     4  12  25  44  70 109 148 187 239 302 371 440
#     4  12  27  42  72 105 146 194 238 304 366 441
#     4  11  24  45  71 107 143 185 243 307 367 438
#     4  12  22  41  70 105 143 179 239 296 375 427
#
# _framework density 23.870386
#
# number of rings (size 3 to 8) (size 9 to 14) (size 15 to 20)
#    0.000    0.500    6.250    1.500    3.500    2.500 
#    0.000    2.500    0.000    0.000    0.000    0.000 
#    0.000    0.000    0.000    0.000    0.000    0.000 
#
# Total GULP energy -89090.891164 kJ/mol
# GULP energy per Si atom -5568.180698 kJ/mol
# Density = 2.381606 g / cm^3
# Si number density = 23.870386 Si / 1000 Ang^3
#
#
#
# Elastic Constant Matrix: (Units=GPa)
#
#
# Indices 1 2 3 4 5 6 
#
# 1 79.3210 31.3933 19.3997 10.9224 -0.4990 11.7881
# 2 31.3933 97.0255 21.7028 20.9424 -5.5650 -5.5753
# 3 19.3997 21.7028 57.4172 13.5179 -1.8921 8.4870
# 4 10.9224 20.9424 13.5179 41.7985 3.1246 2.6968
# 5 -0.4990 -5.5650 -1.8921 3.1246 26.4515 2.8410
# 6 11.7881 -5.5753 8.4870 2.6968 2.8410 33.7698
#
#
#
# Elastic Compliance Matrix: (Units=1/GPa)
#
#
# Indices 1 2 3 4 5 6 
#
# 1 0.016086 -0.004836 -0.002647 -0.000541 -0.000229 -0.005686
# 2 -0.004836 0.014170 -0.003109 -0.005360 0.002763 0.005004
# 3 -0.002647 -0.003109 0.021301 -0.004472 0.001857 -0.004742
# 4 -0.000541 -0.005360 -0.004472 0.028642 -0.004684 -0.001465
# 5 -0.000229 0.002763 0.001857 -0.004684 0.039376 -0.002869
# 6 -0.005686 0.005004 -0.004742 -0.001465 -0.002869 0.033973
#
#
# Mechanical properties :
#
#
# Convention : Reuss Voigt Hill
#
# Bulk Modulus (GPa) = 32.92359 42.08390 37.50375
# Shear Modulus (GPa) = 27.04805 31.15516 29.10160
#
# Velocity S-wave (km/s) = 3.36984 3.61665 3.49542
# Velocity P-wave (km/s) = 5.38179 5.92525 5.66005
#
# Compressibility (1/GPa) = 0.03037335
#
# Stress axis : x y z
#
# Youngs Moduli (GPa) = 62.16452 70.57391 46.94653
#
# Poissons Ratio (x) = 0.34129 0.12427
# Poissons Ratio (y) = 0.30062 0.14594
# Poissons Ratio (z) = 0.16455 0.21939
#
# Static dielectric constant tensor:
#      x y z
#    x 2.195560 0.045110 -0.134430 
#    y 0.045110 2.022610 -0.098580 
#    z -0.134430 -0.098580 2.080840 
# 
# From -- ./inp_files/78784.got.cif
#   From: 2010.05.17/outbox.cif.g08.bks.cpg/sg2_40_cif.got.tgz:78784.got - 2010.06.03 11:33:40.
