data_PCOD9060618
_publ_section_title
;
Structure prediction by ZEFSAII (Michael W. Deem and Ramdas Pophale) SiO2 
 PCOD9060618
Probable space group: P -1
;
_chemical_formula_sum "Si O2"
_cell_formula_units_Z 16
_cell_length_a 16.088482
_cell_length_b 8.440562
_cell_length_c 9.172436
_cell_angle_alpha 89.861461
_cell_angle_beta 88.832883
_cell_angle_gamma 146.362058
_cell_volume 689.414073
_symmetry_space_group_name_H-M "P -1"
_symmetry_group_IT_number 2
_symmetry_cell_setting 'triclinic'
loop_
_space_group_symop_operation_xyz
x,y,z
-x,-y,-z
loop_
_atom_site_type_symbol
_atom_site_label
_atom_site_fract_x
_atom_site_fract_y
_atom_site_fract_z
Si Si1 0.349243 0.824973 0.580653
Si Si2 0.413823 0.505907 0.078625
Si Si3 0.983009 0.663538 0.458472
Si Si4 0.299388 0.573816 0.879057
Si Si5 0.137184 0.047809 0.703167
Si Si6 0.878047 0.146631 0.858788
Si Si7 0.583581 0.723410 0.364896
Si Si8 0.118936 0.502679 0.101915
O O1 0.184332 0.527346 0.521860
O O2 0.356518 0.776995 0.747581
O O3 0.500000 0.000000 0.500000
O O4 0.347600 0.010990 0.569853
O O5 0.479013 0.621219 0.238487
O O6 0.242909 0.179640 0.107746
O O7 0.500000 0.500000 0.000000
O O8 0.417856 0.654211 0.962107
O O9 0.000000 0.500000 0.500000
O O10 0.024980 0.729394 0.287313
O O11 0.102594 0.969882 0.532871
O O12 0.182971 0.274423 0.794338
O O13 0.228345 0.561524 0.012303
O O14 0.284279 0.169928 0.713281
O O15 0.978532 0.728954 0.766533
O O16 0.810891 0.218340 0.853400
O O17 0.988536 0.323875 0.989495
O O18 0.500000 0.500000 0.500000
#
# Coordination Sequence:
#
# PCOD9060618 Si02
#       8
#     2   2   2   2   2   2   2   2
#     4  12  29  50  73 113 157 193 252 323 390 448
#     4  12  27  45  75 107 149 202 251 305 385 459
#     4  12  24  46  79 109 143 205 257 309 376 464
#     4  12  27  47  73 110 153 195 250 325 379 452
#     4  12  24  46  76 105 149 196 257 307 375 453
#     4  11  23  44  74 106 143 198 251 302 377 458
#     4  12  26  50  76 105 151 203 250 311 379 459
#     4  11  23  43  74 104 147 187 247 318 372 438
#
# _framework density 23.208113999999998
#
# number of rings (size 3 to 8) (size 9 to 14) (size 15 to 20)
#    0.000    0.250    6.250    1.875    3.500    2.000 
#    0.000    0.000    0.000    0.000    0.000    0.000 
#    0.000    0.000    0.000    0.000    0.000    0.000 
#
# Total GULP energy -89369.603942 kJ/mol
# GULP energy per Si atom -5585.600246 kJ/mol
# Density = 2.315529 g / cm^3
# Si number density = 23.208114 Si / 1000 Ang^3
#
#
#
# Elastic Constant Matrix: (Units=GPa)
#
#
# Indices 1 2 3 4 5 6 
#
# 1 117.5429 12.8223 29.2486 -15.3578 -6.1689 11.0778
# 2 12.8223 73.4960 -11.7315 0.1598 4.7429 3.2788
# 3 29.2486 -11.7315 148.4944 -8.5802 23.3948 2.1494
# 4 -15.3578 0.1598 -8.5802 49.6982 1.0735 1.6916
# 5 -6.1689 4.7429 23.3948 1.0735 45.7268 -0.0137
# 6 11.0778 3.2788 2.1494 1.6916 -0.0137 36.8973
#
#
#
# Elastic Compliance Matrix: (Units=1/GPa)
#
#
# Indices 1 2 3 4 5 6 
#
# 1 0.010117 -0.002206 -0.002401 0.002756 0.002757 -0.002827
# 2 -0.002206 0.014530 0.002022 -0.000293 -0.002833 -0.000734
# 3 -0.002401 0.002022 0.008155 0.000760 -0.004724 0.000030
# 4 0.002756 -0.000293 0.000760 0.021177 -0.000485 -0.001817
# 5 0.002757 -0.002833 -0.004724 -0.000485 0.024963 -0.000269
# 6 -0.002827 -0.000734 0.000030 -0.001817 -0.000269 0.028098
#
#
# Mechanical properties :
#
#
# Convention : Reuss Voigt Hill
#
# Bulk Modulus (GPa) = 36.18985 44.46802 40.32894
# Shear Modulus (GPa) = 41.17954 47.07739 44.12847
#
# Velocity S-wave (km/s) = 4.21688 4.50876 4.36526
# Velocity P-wave (km/s) = 6.27192 6.80495 6.54386
#
# Compressibility (1/GPa) = 0.02763205
#
# Stress axis : x y z
#
# Youngs Moduli (GPa) = 98.84584 68.82284 122.62894
#
# Poissons Ratio (x) = 0.15183 0.29445
# Poissons Ratio (y) = 0.21806 -0.24801
# Poissons Ratio (z) = 0.23734 -0.13919
#
# Static dielectric constant tensor:
#      x y z
#    x 1.966390 0.079190 0.038560 
#    y 0.079190 2.158450 -0.029610 
#    z 0.038560 -0.029610 1.853670 
# 
# From -- ./inp_files/329032.got.cif
#   From: 2010.05.17/outbox.cif.g08.bks.cpg/sg2_165_cif.got.tgz:329032.got - 2010.06.03 11:33:40.
