data_PCOD9060498
_publ_section_title
;
Structure prediction by ZEFSAII (Michael W. Deem and Ramdas Pophale) SiO2 
 PCOD9060498
Probable space group: P -1
;
_chemical_formula_sum "Si O2"
_cell_formula_units_Z 15
_cell_length_a 9.858100
_cell_length_b 9.182424
_cell_length_c 9.537033
_cell_angle_alpha 111.538504
_cell_angle_beta 67.917109
_cell_angle_gamma 111.834834
_cell_volume 716.186877
_symmetry_space_group_name_H-M "P -1"
_symmetry_group_IT_number 2
_symmetry_cell_setting 'triclinic'
loop_
_space_group_symop_operation_xyz
x,y,z
-x,-y,-z
loop_
_atom_site_type_symbol
_atom_site_label
_atom_site_fract_x
_atom_site_fract_y
_atom_site_fract_z
Si Si1 0.641517 0.730576 0.451339
Si Si2 0.564720 0.383772 0.253466
Si Si3 0.500000 0.000000 0.500000
Si Si4 0.874944 0.903559 0.907828
Si Si5 0.348842 0.417310 0.117337
Si Si6 0.666916 0.123088 0.964542
Si Si7 0.254033 0.737719 0.327229
Si Si8 0.950609 0.827668 0.537772
O O1 0.631700 0.577066 0.301171
O O2 0.493789 0.681283 0.593796
O O3 0.627695 0.894302 0.441555
O O4 0.789598 0.747289 0.496646
O O5 0.415840 0.348598 0.202029
O O6 0.670673 0.283404 0.109491
O O7 0.379963 0.837047 0.421856
O O8 0.767956 0.738858 0.959327
O O9 0.934845 0.852051 0.718671
O O10 0.778643 0.027276 0.947491
O O11 0.000000 0.000000 0.000000
O O12 0.270437 0.556352 0.238806
O O13 0.500000 0.500000 0.000000
O O14 0.702101 0.171775 0.807309
O O15 0.500000 0.000000 0.000000
O O16 0.083283 0.739810 0.430929
O O17 0.000000 0.000000 0.500000
#
# Coordination Sequence:
#
# PCOD9060498 Si02
#       8
#     2   2   1   2   2   2   2   2
#     4  11  24  43  69 102 137 180 233 289 353 421
#     4  11  23  43  71  99 134 178 236 292 347 412
#     4  12  22  38  68 104 130 180 248 278 332 432
#     4  12  28  48  73 106 143 191 244 291 360 433
#     4  12  24  47  72 105 143 182 237 309 345 416
#     4  12  22  46  71  95 138 191 236 291 355 420
#     4  12  26  41  71 105 139 190 236 288 369 422
#     4  12  24  47  69  99 151 185 221 297 361 425
#
# _framework density 20.944255999999999
#
# number of rings (size 3 to 8) (size 9 to 14) (size 15 to 20)
#    0.000    0.267    8.000    0.800    0.000    5.867 
#    0.000    1.333    0.000    0.000    0.000    0.000 
#    0.000    0.000    0.000    0.000    0.000    0.000 
#
# Total GULP energy -83624.409004 kJ/mol
# GULP energy per Si atom -5574.960600 kJ/mol
# Density = 2.089659 g / cm^3
# Si number density = 20.944256 Si / 1000 Ang^3
#
#
#
# Elastic Constant Matrix: (Units=GPa)
#
#
# Indices 1 2 3 4 5 6 
#
# 1 120.4656 39.5992 61.4265 24.4469 -8.6034 -11.6479
# 2 39.5992 101.1964 41.5945 24.8466 -3.4432 -0.2024
# 3 61.4265 41.5945 99.7197 15.8018 -19.6936 -0.3897
# 4 24.4469 24.8466 15.8018 37.4525 0.4676 -5.1951
# 5 -8.6034 -3.4432 -19.6936 0.4676 38.2304 17.7793
# 6 -11.6479 -0.2024 -0.3897 -5.1951 17.7793 39.5797
#
#
#
# Elastic Compliance Matrix: (Units=1/GPa)
#
#
# Indices 1 2 3 4 5 6 
#
# 1 0.013876 -0.001220 -0.008036 -0.004125 -0.003392 0.004981
# 2 -0.001220 0.013616 -0.003989 -0.006678 -0.000582 -0.000943
# 3 -0.008036 -0.003989 0.018996 -0.001277 0.011040 -0.007325
# 4 -0.004125 -0.006678 -0.001277 0.035224 -0.005287 0.005738
# 5 -0.003392 -0.000582 0.011040 -0.005287 0.040236 -0.019661
# 6 0.004981 -0.000943 -0.007325 0.005738 -0.019661 0.036239
#
#
# Mechanical properties :
#
#
# Convention : Reuss Voigt Hill
#
# Bulk Modulus (GPa) = 50.00024 67.40247 58.70136
# Shear Modulus (GPa) = 26.13128 34.96993 30.55060
#
# Velocity S-wave (km/s) = 3.53605 4.09059 3.82339
# Velocity P-wave (km/s) = 6.37153 7.38663 6.89778
#
# Compressibility (1/GPa) = 0.01999990
#
# Stress axis : x y z
#
# Youngs Moduli (GPa) = 72.06805 73.44046 52.64356
#
# Poissons Ratio (x) = 0.08957 0.42302
# Poissons Ratio (y) = 0.08790 0.20999
# Poissons Ratio (z) = 0.57910 0.29294
#
# Static dielectric constant tensor:
#      x y z
#    x 1.728840 0.014620 0.002000 
#    y 0.014620 1.784800 -0.018250 
#    z 0.002000 -0.018250 1.786690 
# 
# From -- ./inp_files/157229.got.cif
#   From: 2010.05.17/outbox.cif.g08.bks.cpg/sg2_79_cif.got.tgz:157229.got - 2010.06.03 11:33:40.
