data_PCOD9060670
_publ_section_title
;
Structure prediction by ZEFSAII (Michael W. Deem and Ramdas Pophale) SiO2 
 PCOD9060670
Probable space group: P -1
;
_chemical_formula_sum "Si O2"
_cell_formula_units_Z 12
_cell_length_a 21.888357
_cell_length_b 5.003405
_cell_length_c 8.883533
_cell_angle_alpha 107.880060
_cell_angle_beta 40.068527
_cell_angle_gamma 125.503302
_cell_volume 491.982930
_symmetry_space_group_name_H-M "P -1"
_symmetry_group_IT_number 2
_symmetry_cell_setting 'triclinic'
loop_
_space_group_symop_operation_xyz
x,y,z
-x,-y,-z
loop_
_atom_site_type_symbol
_atom_site_label
_atom_site_fract_x
_atom_site_fract_y
_atom_site_fract_z
Si Si1 0.370204 0.179236 0.648367
Si Si2 0.666909 0.765928 0.592669
Si Si3 0.535885 0.929131 0.076237
Si Si4 0.289403 0.610749 0.951366
Si Si5 0.084328 0.980768 0.721804
Si Si6 0.077053 0.350970 0.508804
O O1 0.500000 0.500000 0.500000
O O2 0.351934 0.070305 0.488856
O O3 0.277470 0.278584 0.854984
O O4 0.334026 0.885573 0.784235
O O5 0.622171 0.825271 0.843588
O O6 0.796169 0.887264 0.396114
O O7 0.570272 0.367761 0.682110
O O8 0.611139 0.257459 0.089771
O O9 0.500000 0.000000 0.000000
O O10 0.182960 0.563340 0.231452
O O11 0.108249 0.232808 0.581685
O O12 0.000000 0.000000 0.000000
O O13 0.961036 0.397559 0.324058
O O14 0.000000 0.000000 0.500000
#
# Coordination Sequence:
#
# PCOD9060670 Si02
#       6
#     2   2   2   2   2   2
#     4  12  26  45  72 114 155 198 249 310 392 467
#     4  11  26  44  74 110 155 196 253 319 387 465
#     4  11  23  43  75 107 148 201 246 315 394 469
#     4  12  26  47  74 105 154 200 251 313 388 468
#     4  12  28  53  80 116 154 205 268 331 390 456
#     4  12  28  55  79 110 152 208 270 324 389 466
#
# _framework density 24.391089999999998
#
# number of rings (size 3 to 8) (size 9 to 14) (size 15 to 20)
#    0.000    0.333    3.333    4.500    7.000    0.000 
#    0.000    0.000    0.000    0.000    0.000    0.000 
#    0.000    0.000    0.000    0.000    0.000    0.000 
#
# Total GULP energy -67140.049366 kJ/mol
# GULP energy per Si atom -5595.004114 kJ/mol
# Density = 2.433557 g / cm^3
# Si number density = 24.391090 Si / 1000 Ang^3
#
#
#
# Elastic Constant Matrix: (Units=GPa)
#
#
# Indices 1 2 3 4 5 6 
#
# 1 121.9725 17.5323 60.2366 -12.3295 19.6739 -8.8472
# 2 17.5323 92.5309 63.4724 26.1277 -2.1403 -8.9809
# 3 60.2366 63.4724 177.4082 19.7419 0.7386 -0.4921
# 4 -12.3295 26.1277 19.7419 42.5501 -10.0581 -2.4464
# 5 19.6739 -2.1403 0.7386 -10.0581 46.1592 -8.2309
# 6 -8.8472 -8.9809 -0.4921 -2.4464 -8.2309 48.1312
#
#
#
# Elastic Compliance Matrix: (Units=1/GPa)
#
#
# Indices 1 2 3 4 5 6 
#
# 1 0.011567 -0.000603 -0.004243 0.004951 -0.003522 0.001620
# 2 -0.000603 0.016820 -0.004900 -0.008133 -0.000206 0.002529
# 3 -0.004243 -0.004900 0.009089 -0.002382 0.000629 -0.001615
# 4 0.004951 -0.008133 -0.002382 0.032305 0.004920 0.001852
# 5 -0.003522 -0.000206 0.000629 0.004920 0.024901 0.003829
# 6 0.001620 0.002529 -0.001615 0.001852 0.003829 0.022279
#
#
# Mechanical properties :
#
#
# Convention : Reuss Voigt Hill
#
# Bulk Modulus (GPa) = 55.61109 74.93269 65.27189
# Shear Modulus (GPa) = 35.10078 44.07947 39.59012
#
# Velocity S-wave (km/s) = 3.79764 4.25572 4.03319
# Velocity P-wave (km/s) = 6.48681 7.41190 6.96473
#
# Compressibility (1/GPa) = 0.01798202
#
# Stress axis : x y z
#
# Youngs Moduli (GPa) = 86.45226 59.45361 110.02817
#
# Poissons Ratio (x) = 0.03586 0.46690
# Poissons Ratio (y) = 0.05215 0.53914
# Poissons Ratio (z) = 0.36686 0.29132
#
# Static dielectric constant tensor:
#      x y z
#    x 1.916550 0.035640 -0.050550 
#    y 0.035640 2.702880 0.400300 
#    z -0.050550 0.400300 2.133450 
# 
# From -- ./inp_files/350568.got.cif
#   From: 2010.05.17/outbox.cif.g08.bks.cpg/sg2_176_cif.got.tgz:350568.got - 2010.06.03 11:33:40.
