data_PCOD9060804
_publ_section_title
;
Structure prediction by ZEFSAII (Michael W. Deem and Ramdas Pophale) SiO2 
 PCOD9060804
Probable space group: P -1
;
_chemical_formula_sum "Si O2"
_cell_formula_units_Z 14
_cell_length_a 8.007440
_cell_length_b 9.737528
_cell_length_c 9.102067
_cell_angle_alpha 117.012095
_cell_angle_beta 102.616332
_cell_angle_gamma 94.907801
_cell_volume 602.930149
_symmetry_space_group_name_H-M "P -1"
_symmetry_group_IT_number 2
_symmetry_cell_setting 'triclinic'
loop_
_space_group_symop_operation_xyz
x,y,z
-x,-y,-z
loop_
_atom_site_type_symbol
_atom_site_label
_atom_site_fract_x
_atom_site_fract_y
_atom_site_fract_z
Si Si1 0.173729 0.973445 0.439923
Si Si2 0.276250 0.804815 0.903912
Si Si3 0.985481 0.655758 0.167375
Si Si4 0.580795 0.014739 0.250353
Si Si5 0.828150 0.522666 0.382476
Si Si6 0.922071 0.827892 0.970047
Si Si7 0.323781 0.222299 0.355526
O O1 0.158081 0.788590 0.309310
O O2 0.330241 0.035070 0.613124
O O3 0.202159 0.075236 0.347674
O O4 0.000000 0.000000 0.500000
O O5 0.285619 0.928544 0.831047
O O6 0.298373 0.643023 0.759240
O O7 0.085546 0.753880 0.914325
O O8 0.421398 0.887347 0.087788
O O9 0.894035 0.604290 0.279784
O O10 0.892329 0.767834 0.101279
O O11 0.000000 0.500000 0.000000
O O12 0.505169 0.167309 0.356622
O O13 0.714660 0.627327 0.496838
O O14 0.000000 0.500000 0.500000
O O15 0.746580 0.769396 0.817774
O O16 0.000000 0.000000 0.000000
#
# Coordination Sequence:
#
# PCOD9060804 Si02
#       7
#     2   2   2   2   2   2   2
#     4  12  24  44  72 101 135 182 243 286 351 426
#     4  11  23  44  68 101 144 180 236 284 354 409
#     4  12  24  41  73 110 135 180 241 294 350 411
#     4  11  26  43  70 100 140 187 235 293 353 419
#     4  12  24  43  71 109 143 184 235 294 348 418
#     4  12  22  41  74 104 138 184 238 286 344 429
#     4  12  24  43  69 105 140 184 231 292 352 415
#
# _framework density 23.219933999999999
#
# number of rings (size 3 to 8) (size 9 to 14) (size 15 to 20)
#    0.000    0.286    7.143    2.143    0.000    0.571 
#    0.000    2.143    0.000    0.000    0.000    0.000 
#    0.000    0.000    0.000    0.000    0.000    0.000 
#
# Total GULP energy -78199.602927 kJ/mol
# GULP energy per Si atom -5585.685923 kJ/mol
# Density = 2.316708 g / cm^3
# Si number density = 23.219934 Si / 1000 Ang^3
#
#
#
# Elastic Constant Matrix: (Units=GPa)
#
#
# Indices 1 2 3 4 5 6 
#
# 1 61.1352 6.7773 13.7666 -14.9067 -9.4609 -16.3705
# 2 6.7773 117.8104 56.8042 -5.9798 -3.4429 -5.4856
# 3 13.7666 56.8042 139.1897 -15.9867 -1.2306 -24.2617
# 4 -14.9067 -5.9798 -15.9867 67.3547 -7.6599 -14.0758
# 5 -9.4609 -3.4429 -1.2306 -7.6599 32.0606 -6.1653
# 6 -16.3705 -5.4856 -24.2617 -14.0758 -6.1653 27.4330
#
#
#
# Elastic Compliance Matrix: (Units=1/GPa)
#
#
# Indices 1 2 3 4 5 6 
#
# 1 0.035661 -0.001866 0.007610 0.021510 0.024239 0.044122
# 2 -0.001866 0.010793 -0.005262 -0.001802 -0.000937 -0.004745
# 3 0.007610 -0.005262 0.013893 0.010397 0.009153 0.023167
# 4 0.021510 -0.001802 0.010397 0.033782 0.023124 0.044201
# 5 0.024239 -0.000937 0.009153 0.023124 0.052994 0.046147
# 6 0.044122 -0.004745 0.023167 0.044201 0.046147 0.115373
#
#
# Mechanical properties :
#
#
# Convention : Reuss Voigt Hill
#
# Bulk Modulus (GPa) = 16.31052 52.53685 34.42368
# Shear Modulus (GPa) = 17.73239 41.42214 29.57727
#
# Velocity S-wave (km/s) = 2.76646 4.22821 3.57289
# Velocity P-wave (km/s) = 4.15259 6.81996 5.64606
#
# Compressibility (1/GPa) = 0.06131014
#
# Stress axis : x y z
#
# Youngs Moduli (GPa) = 28.04168 92.65099 71.98032
#
# Poissons Ratio (x) = 0.17291 -0.54779
# Poissons Ratio (y) = 0.05233 0.37879
# Poissons Ratio (z) = -0.21340 0.48757
#
# Static dielectric constant tensor:
#      x y z
#    x 1.966420 -0.007740 -0.059620 
#    y -0.007740 1.907910 0.038810 
#    z -0.059620 0.038810 1.918030 
# 
# From -- ./inp_files/159990.got.cif
#   From: 2010.05.17/outbox.cif.g08.bks.cpg/sg2_80_cif.got.tgz:159990.got - 2010.06.03 11:33:40.
