data_PCOD9060562
_publ_section_title
;
Structure prediction by ZEFSAII (Michael W. Deem and Ramdas Pophale) SiO2 
 PCOD9060562
Probable space group: P -1
;
_chemical_formula_sum "Si O2"
_cell_formula_units_Z 16
_cell_length_a 9.253774
_cell_length_b 12.213484
_cell_length_c 9.397783
_cell_angle_alpha 105.049981
_cell_angle_beta 109.227236
_cell_angle_gamma 118.705662
_cell_volume 759.479155
_symmetry_space_group_name_H-M "P -1"
_symmetry_group_IT_number 2
_symmetry_cell_setting 'triclinic'
loop_
_space_group_symop_operation_xyz
x,y,z
-x,-y,-z
loop_
_atom_site_type_symbol
_atom_site_label
_atom_site_fract_x
_atom_site_fract_y
_atom_site_fract_z
Si Si1 0.800299 0.850890 0.432192
Si Si2 0.913575 0.791764 0.727386
Si Si3 0.627219 0.956441 0.084007
Si Si4 0.030766 0.649148 0.373503
Si Si5 0.281712 0.362053 0.907226
Si Si6 0.632406 0.735289 0.828573
Si Si7 0.782795 0.495682 0.531786
Si Si8 0.640353 0.005997 0.433628
O O1 0.828193 0.773419 0.537192
O O2 0.737022 0.756100 0.239993
O O3 0.686310 0.904059 0.478251
O O4 0.000000 0.000000 0.500000
O O5 0.809734 0.834375 0.810223
O O6 0.839679 0.632078 0.688003
O O7 0.144528 0.913557 0.829297
O O8 0.583252 0.940359 0.233044
O O9 0.500000 0.000000 0.000000
O O10 0.579532 0.819637 0.936779
O O11 0.155478 0.589507 0.390707
O O12 0.181984 0.824218 0.479319
O O13 0.873609 0.615067 0.190083
O O14 0.912800 0.573723 0.456793
O O15 0.500000 0.500000 0.000000
O O16 0.280791 0.318441 0.053208
O O17 0.440023 0.612808 0.634131
O O18 0.500000 0.000000 0.500000
#
# Coordination Sequence:
#
# PCOD9060562 Si02
#       8
#     2   2   2   2   2   2   2   2
#     4  12  21  44  74  93 134 185 237 282 337 415
#     4  12  25  46  70 105 138 189 237 283 345 433
#     4  12  26  44  66 102 144 180 226 293 357 401
#     4  11  23  43  72  98 137 188 232 284 346 421
#     4  12  22  42  68 102 136 180 228 288 351 403
#     4  12  26  42  73 107 141 178 235 299 352 407
#     4  11  23  45  73  99 141 188 233 279 351 430
#     4  12  26  45  71 103 135 185 238 282 342 427
#
# _framework density 21.067069
#
# number of rings (size 3 to 8) (size 9 to 14) (size 15 to 20)
#    0.000    0.250    7.500    1.500    5.250    1.000 
#    0.000    0.625    0.000    0.000    0.000    0.000 
#    0.000    0.000    0.000    0.000    0.000    0.000 
#
# Total GULP energy -89233.459257 kJ/mol
# GULP energy per Si atom -5577.091204 kJ/mol
# Density = 2.101912 g / cm^3
# Si number density = 21.067069 Si / 1000 Ang^3
#
#
#
# Elastic Constant Matrix: (Units=GPa)
#
#
# Indices 1 2 3 4 5 6 
#
# 1 107.6998 20.3839 22.8472 -13.0107 -7.7664 -2.4523
# 2 20.3839 72.6445 17.4725 -2.5916 6.9512 -21.3181
# 3 22.8472 17.4725 43.9382 1.9392 -2.0454 3.1978
# 4 -13.0107 -2.5916 1.9392 39.2121 -3.6337 7.8494
# 5 -7.7664 6.9512 -2.0454 -3.6337 30.1392 -9.1466
# 6 -2.4523 -21.3181 3.1978 7.8494 -9.1466 46.3178
#
#
#
# Elastic Compliance Matrix: (Units=1/GPa)
#
#
# Indices 1 2 3 4 5 6 
#
# 1 0.011580 -0.002224 -0.005152 0.004301 0.003647 -0.000064
# 2 -0.002224 0.018873 -0.007065 -0.001148 -0.002911 0.008676
# 3 -0.005152 -0.007065 0.028744 -0.002559 0.000429 -0.004990
# 4 0.004301 -0.001148 -0.002559 0.028135 0.003305 -0.004239
# 5 0.003647 -0.002911 0.000429 0.003305 0.036903 0.005551
# 6 -0.000064 0.008676 -0.004990 -0.004239 0.005551 0.027739
#
#
# Mechanical properties :
#
#
# Convention : Reuss Voigt Hill
#
# Bulk Modulus (GPa) = 32.98802 38.40996 35.69899
# Shear Modulus (GPa) = 26.18346 34.03908 30.11127
#
# Velocity S-wave (km/s) = 3.52925 4.02400 3.78472
# Velocity P-wave (km/s) = 5.68331 6.31363 6.00674
#
# Compressibility (1/GPa) = 0.03031403
#
# Stress axis : x y z
#
# Youngs Moduli (GPa) = 86.35476 52.98695 34.78998
#
# Poissons Ratio (x) = 0.11786 0.17925
# Poissons Ratio (y) = 0.19208 0.24578
# Poissons Ratio (z) = 0.44494 0.37433
#
# Static dielectric constant tensor:
#      x y z
#    x 1.025450 0.492080 -0.008040 
#    y 0.492080 1.501870 -0.104450 
#    z -0.008040 -0.104450 1.812910 
# 
# From -- ./inp_files/189443.got.cif
#   From: 2010.05.17/outbox.cif.g08.bks.cpg/sg2_95_cif.got.tgz:189443.got - 2010.06.03 11:33:40.
