data_PCOD9060750
_publ_section_title
;
Structure prediction by ZEFSAII (Michael W. Deem and Ramdas Pophale) SiO2 
 PCOD9060750
Probable space group: P -1
;
_chemical_formula_sum "Si O2"
_cell_formula_units_Z 14
_cell_length_a 5.379982
_cell_length_b 26.585494
_cell_length_c 7.736906
_cell_angle_alpha 32.984273
_cell_angle_beta 114.264233
_cell_angle_gamma 116.745640
_cell_volume 536.717109
_symmetry_space_group_name_H-M "P -1"
_symmetry_group_IT_number 2
_symmetry_cell_setting 'triclinic'
loop_
_space_group_symop_operation_xyz
x,y,z
-x,-y,-z
loop_
_atom_site_type_symbol
_atom_site_label
_atom_site_fract_x
_atom_site_fract_y
_atom_site_fract_z
Si Si1 0.579326 0.902024 0.849231
Si Si2 0.871730 0.390704 0.744263
Si Si3 0.867230 0.259183 0.662322
Si Si4 0.362022 0.094330 0.518739
Si Si5 0.902924 0.110271 0.810161
Si Si6 0.712551 0.710279 0.999876
Si Si7 0.277389 0.563380 0.809192
O O1 0.726266 0.887280 0.753899
O O2 0.500000 0.000000 0.500000
O O3 0.316752 0.819715 0.041065
O O4 0.780364 0.902493 0.068304
O O5 0.604927 0.346446 0.908515
O O6 0.770939 0.392292 0.515528
O O7 0.000000 0.500000 0.500000
O O8 0.114788 0.332536 0.971367
O O9 0.911042 0.203378 0.661263
O O10 0.690611 0.340702 0.344279
O O11 0.144422 0.298323 0.743952
O O12 0.697526 0.111362 0.588287
O O13 0.277450 0.179954 0.350013
O O14 0.237709 0.987587 0.847431
O O15 0.500000 0.500000 0.000000
O O16 0.000000 0.500000 0.000000
#
# Coordination Sequence:
#
# PCOD9060750 Si02
#       7
#     2   2   2   2   2   2   2
#     4  12  23  43  71  98 141 196 228 296 362 419
#     4  11  25  46  73 102 141 183 245 298 361 435
#     4  11  24  44  69  97 140 188 243 286 361 435
#     4  11  23  44  66 103 143 184 242 289 359 422
#     4  11  25  42  66 104 142 184 243 293 347 438
#     4  11  23  44  73 103 139 195 235 298 363 436
#     4  11  25  43  69 100 138 185 233 297 359 419
#
# _framework density 26.084508
#
# number of rings (size 3 to 8) (size 9 to 14) (size 15 to 20)
#    0.000    0.857    2.857    5.143    2.000    2.857 
#    5.143    0.000    0.000    0.000    0.000    0.000 
#    0.000    0.000    0.000    0.000    0.000    0.000 
#
# Total GULP energy -78307.614487 kJ/mol
# GULP energy per Si atom -5593.401035 kJ/mol
# Density = 2.602514 g / cm^3
# Si number density = 26.084508 Si / 1000 Ang^3
#
#
#
# Elastic Constant Matrix: (Units=GPa)
#
#
# Indices 1 2 3 4 5 6 
#
# 1 162.6511 48.6172 68.3152 -29.9224 19.3931 15.6655
# 2 48.6172 106.6643 42.2666 -17.0552 15.5491 7.6863
# 3 68.3152 42.2666 124.4582 -22.0627 26.1719 -6.2071
# 4 -29.9224 -17.0552 -22.0627 67.1463 -13.0510 10.3611
# 5 19.3931 15.5491 26.1719 -13.0510 60.5247 -11.0053
# 6 15.6655 7.6863 -6.2071 10.3611 -11.0053 35.9186
#
#
#
# Elastic Compliance Matrix: (Units=1/GPa)
#
#
# Indices 1 2 3 4 5 6 
#
# 1 0.009731 -0.001628 -0.004255 0.003198 -0.001250 -0.005936
# 2 -0.001628 0.011911 -0.002688 0.001605 -0.001623 -0.003264
# 3 -0.004255 -0.002688 0.012033 0.000340 -0.002408 0.003675
# 4 0.003198 0.001605 0.000340 0.018065 0.001121 -0.006547
# 5 -0.001250 -0.001623 -0.002408 0.001121 0.019751 0.006204
# 6 -0.005936 -0.003264 0.003675 -0.006547 0.006204 0.035553
#
#
# Mechanical properties :
#
#
# Convention : Reuss Voigt Hill
#
# Bulk Modulus (GPa) = 60.48642 79.13016 69.80829
# Shear Modulus (GPa) = 38.55144 48.35624 43.45384
#
# Velocity S-wave (km/s) = 3.84857 4.31028 4.08596
# Velocity P-wave (km/s) = 6.55650 7.42787 7.00575
#
# Compressibility (1/GPa) = 0.01653264
#
# Stress axis : x y z
#
# Youngs Moduli (GPa) = 102.76598 83.95654 83.10409
#
# Poissons Ratio (x) = 0.13668 0.35359
# Poissons Ratio (y) = 0.16731 0.22341
# Poissons Ratio (z) = 0.43724 0.22570
#
# Static dielectric constant tensor:
#      x y z
#    x 2.160640 -0.016970 0.096200 
#    y -0.016970 1.836900 0.021070 
#    z 0.096200 0.021070 1.982030 
# 
# From -- ./inp_files/143267.got.cif
#   From: 2010.05.17/outbox.cif.g08.bks.cpg/sg2_72_cif.got.tgz:143267.got - 2010.06.03 11:33:40.
