data_PCOD9060289
_publ_section_title
;
Structure prediction by ZEFSAII (Michael W. Deem and Ramdas Pophale) SiO2 
 PCOD9060289
Probable space group: P -1
;
_chemical_formula_sum "Si O2"
_cell_formula_units_Z 16
_cell_length_a 17.547607
_cell_length_b 11.507365
_cell_length_c 14.759511
_cell_angle_alpha 28.991643
_cell_angle_beta 149.531111
_cell_angle_gamma 130.634538
_cell_volume 665.498401
_symmetry_space_group_name_H-M "P -1"
_symmetry_group_IT_number 2
_symmetry_cell_setting 'triclinic'
loop_
_space_group_symop_operation_xyz
x,y,z
-x,-y,-z
loop_
_atom_site_type_symbol
_atom_site_label
_atom_site_fract_x
_atom_site_fract_y
_atom_site_fract_z
Si Si1 0.450752 0.061635 0.511332
Si Si2 0.246980 0.271975 0.570231
Si Si3 0.844897 0.924877 0.226841
Si Si4 0.136198 0.328335 0.105296
Si Si5 0.451026 0.519221 0.719695
Si Si6 0.321309 0.496508 0.328975
Si Si7 0.300843 0.420888 0.801110
Si Si8 0.806095 0.228768 0.371052
O O1 0.255146 0.213278 0.219324
O O2 0.540823 0.254930 0.489836
O O3 0.500000 0.000000 0.500000
O O4 0.529952 0.808510 0.829550
O O5 0.235494 0.044914 0.775778
O O6 0.371742 0.358247 0.693339
O O7 0.312764 0.264233 0.541632
O O8 0.055862 0.487132 0.230364
O O9 0.788136 0.739779 0.232416
O O10 0.041909 0.790792 0.521629
O O11 0.787216 0.220335 0.930438
O O12 0.228689 0.472009 0.160247
O O13 0.155007 0.065244 0.356590
O O14 0.342536 0.593850 0.650399
O O15 0.635882 0.354379 0.056623
O O16 0.500000 0.500000 0.500000
O O17 0.208966 0.594688 0.674758
#
# Coordination Sequence:
#
# PCOD9060289 Si02
#       8
#     2   2   2   2   2   2   2   2
#     4  12  23  42  72 103 143 190 238 283 354 427
#     4  11  26  47  71 106 138 185 245 286 354 423
#     4  11  26  46  72 103 143 183 240 295 351 423
#     4  12  26  47  73 105 147 185 237 297 351 416
#     4  11  23  43  69 101 144 186 235 291 350 423
#     4  12  27  51  75 101 142 190 234 301 355 413
#     4  11  23  44  67 106 145 186 233 292 356 417
#     4  12  23  44  72 101 146 189 226 296 359 416
#
# _framework density 24.04213
#
# number of rings (size 3 to 8) (size 9 to 14) (size 15 to 20)
#    0.000    0.500    3.750    4.875    1.750    1.000 
#    2.250    1.875    0.000    0.000    0.000    0.000 
#    0.000    0.000    0.000    0.000    0.000    0.000 
#
# Total GULP energy -89494.518990 kJ/mol
# GULP energy per Si atom -5593.407437 kJ/mol
# Density = 2.398741 g / cm^3
# Si number density = 24.042130 Si / 1000 Ang^3
#
#
#
# Elastic Constant Matrix: (Units=GPa)
#
#
# Indices 1 2 3 4 5 6 
#
# 1 99.2337 20.5465 14.0494 17.3106 11.0137 16.6298
# 2 20.5465 99.1733 35.2064 2.9704 11.6231 1.4307
# 3 14.0494 35.2064 63.7265 8.2495 10.6929 -1.6333
# 4 17.3106 2.9704 8.2495 35.7362 13.3767 -8.2677
# 5 11.0137 11.6231 10.6929 13.3767 39.1259 4.1503
# 6 16.6298 1.4307 -1.6333 -8.2677 4.1503 30.7218
#
#
#
# Elastic Compliance Matrix: (Units=1/GPa)
#
#
# Indices 1 2 3 4 5 6 
#
# 1 0.013809 -0.002188 -0.001129 -0.009022 0.001220 -0.010026
# 2 -0.002188 0.013093 -0.006649 0.002759 -0.002538 0.001307
# 3 -0.001129 -0.006649 0.020399 -0.002174 -0.002728 0.001789
# 4 -0.009022 0.002759 -0.002174 0.041957 -0.013920 0.017811
# 5 0.001220 -0.002538 -0.002728 -0.013920 0.032408 -0.008811
# 6 -0.010026 0.001307 0.001789 0.017811 -0.008811 0.043995
#
#
# Mechanical properties :
#
#
# Convention : Reuss Voigt Hill
#
# Bulk Modulus (GPa) = 36.53750 44.63759 40.58754
# Shear Modulus (GPa) = 25.67837 33.93888 29.80862
#
# Velocity S-wave (km/s) = 3.27166 3.76126 3.52497
# Velocity P-wave (km/s) = 5.43157 6.12123 5.78668
#
# Compressibility (1/GPa) = 0.02736914
#
# Stress axis : x y z
#
# Youngs Moduli (GPa) = 72.41761 76.37686 49.02140
#
# Poissons Ratio (x) = 0.16712 0.05535
# Poissons Ratio (y) = 0.15846 0.32593
# Poissons Ratio (z) = 0.08177 0.50781
#
# Static dielectric constant tensor:
#      x y z
#    x 1.988420 -0.026790 -0.016300 
#    y -0.026790 1.967950 -0.048550 
#    z -0.016300 -0.048550 1.883400 
# 
# From -- ./inp_files/333337.got.cif
#   From: 2010.05.17/outbox.cif.g08.bks.cpg/sg2_167_cif.got.tgz:333337.got - 2010.06.03 11:33:40.
