data_PCOD9060275
_publ_section_title
;
Structure prediction by ZEFSAII (Michael W. Deem and Ramdas Pophale) SiO2 
 PCOD9060275
Probable space group: P -1
;
_chemical_formula_sum "Si O2"
_cell_formula_units_Z 16
_cell_length_a 24.512913
_cell_length_b 8.399429
_cell_length_c 24.495730
_cell_angle_alpha 133.373285
_cell_angle_beta 11.946392
_cell_angle_gamma 134.903302
_cell_volume 739.201577
_symmetry_space_group_name_H-M "P -1"
_symmetry_group_IT_number 2
_symmetry_cell_setting 'triclinic'
loop_
_space_group_symop_operation_xyz
x,y,z
-x,-y,-z
loop_
_atom_site_type_symbol
_atom_site_label
_atom_site_fract_x
_atom_site_fract_y
_atom_site_fract_z
Si Si1 0.527980 0.784347 0.805747
Si Si2 0.984609 0.971210 0.796043
Si Si3 0.205017 0.342929 0.750553
Si Si4 0.906756 0.072959 0.667257
Si Si5 0.776086 0.703095 0.046773
Si Si6 0.332481 0.926483 0.591684
Si Si7 0.425779 0.870337 0.258082
Si Si8 0.749243 0.563822 0.731959
O O1 0.827186 0.775012 0.529994
O O2 0.572241 0.992799 0.768529
O O3 0.372033 0.556967 0.875691
O O4 0.349047 0.822428 0.042938
O O5 0.214741 0.921766 0.520261
O O6 0.894436 0.800475 0.894923
O O7 0.103658 0.212649 0.763382
O O8 0.721329 0.951394 0.012622
O O9 0.500000 0.500000 0.500000
O O10 0.232334 0.142859 0.717930
O O11 0.000000 0.500000 0.000000
O O12 0.820929 0.827750 0.719136
O O13 0.000000 0.000000 0.500000
O O14 0.043293 0.745177 0.833938
O O15 0.548707 0.837326 0.320544
O O16 0.500000 0.000000 0.500000
O O17 0.338391 0.600826 0.271960
O O18 0.000000 0.500000 0.500000
O O19 0.500000 0.500000 0.000000
#
# Coordination Sequence:
#
# PCOD9060275 Si02
#       8
#     2   2   2   2   2   2   2   2
#     4  12  26  45  64  98 137 173 223 285 334 404
#     4  11  25  42  66  97 132 174 222 267 340 403
#     4  11  23  43  69 100 138 173 223 284 332 401
#     4  12  26  44  66  98 131 174 229 279 340 405
#     4  11  25  45  67 100 141 180 226 283 339 409
#     4  11  24  45  71 103 138 184 230 277 345 415
#     4  12  24  42  67  95 131 176 222 276 338 402
#     4  12  23  44  67  94 131 174 223 283 337 390
#
# _framework density 21.644976
#
# number of rings (size 3 to 8) (size 9 to 14) (size 15 to 20)
#    0.000    0.500    2.500    6.750    3.500    3.000 
#    0.000    0.000    0.000    0.000    0.000    0.000 
#    0.000    0.000    0.000    0.000    0.000    0.000 
#
# Total GULP energy -89396.153185 kJ/mol
# GULP energy per Si atom -5587.259574 kJ/mol
# Density = 2.159571 g / cm^3
# Si number density = 21.644976 Si / 1000 Ang^3
#
#
#
# Elastic Constant Matrix: (Units=GPa)
#
#
# Indices 1 2 3 4 5 6 
#
# 1 57.8862 5.6434 37.9236 -0.0038 0.7641 20.7874
# 2 5.6434 113.8408 42.7476 -12.5197 1.6164 32.2186
# 3 37.9236 42.7476 200.4780 -2.7061 8.3609 18.2533
# 4 -0.0038 -12.5197 -2.7061 47.4869 16.2040 -1.9827
# 5 0.7641 1.6164 8.3609 16.2040 41.6311 -6.2273
# 6 20.7874 32.2186 18.2533 -1.9827 -6.2273 40.2805
#
#
#
# Elastic Compliance Matrix: (Units=1/GPa)
#
#
# Indices 1 2 3 4 5 6 
#
# 1 0.025104 0.004847 -0.004271 0.001276 -0.002566 -0.015231
# 2 0.004847 0.013526 -0.002451 0.004134 -0.003610 -0.012564
# 3 -0.004271 -0.002451 0.006250 0.000078 -0.000934 0.001192
# 4 0.001276 0.004134 0.000078 0.025672 -0.010852 -0.004415
# 5 -0.002566 -0.003610 -0.000934 -0.010852 0.029925 0.008727
# 6 -0.015231 -0.012564 0.001192 -0.004415 0.008727 0.043327
#
#
# Mechanical properties :
#
#
# Convention : Reuss Voigt Hill
#
# Bulk Modulus (GPa) = 24.31323 60.53712 42.42517
# Shear Modulus (GPa) = 31.00488 44.93908 37.97198
#
# Velocity S-wave (km/s) = 3.78885 4.56147 4.19299
# Velocity P-wave (km/s) = 5.51340 7.46804 6.56389
#
# Compressibility (1/GPa) = 0.04112987
#
# Stress axis : x y z
#
# Youngs Moduli (GPa) = 39.83350 73.93222 159.99694
#
# Poissons Ratio (x) = -0.35832 0.68341
# Poissons Ratio (y) = -0.19306 0.39209
# Poissons Ratio (z) = 0.17014 0.18118
#
# Static dielectric constant tensor:
#      x y z
#    x 1.835120 0.011280 0.027480 
#    y 0.011280 1.819940 0.017000 
#    z 0.027480 0.017000 1.765690 
# 
# From -- ./inp_files/621167.got.cif
#   From: 2010.05.17/outbox.cif.g08.bks.cpg/sg2_311_cif.got.tgz:621167.got - 2010.06.03 11:33:40.
