data_PCOD9060406
_publ_section_title
;
Structure prediction by ZEFSAII (Michael W. Deem and Ramdas Pophale) SiO2 
 PCOD9060406
Probable space group: P -1
;
_chemical_formula_sum "Si O2"
_cell_formula_units_Z 12
_cell_length_a 13.676266
_cell_length_b 4.994797
_cell_length_c 9.166486
_cell_angle_alpha 95.031651
_cell_angle_beta 56.321086
_cell_angle_gamma 76.991573
_cell_volume 489.943813
_symmetry_space_group_name_H-M "P -1"
_symmetry_group_IT_number 2
_symmetry_cell_setting 'triclinic'
loop_
_space_group_symop_operation_xyz
x,y,z
-x,-y,-z
loop_
_atom_site_type_symbol
_atom_site_label
_atom_site_fract_x
_atom_site_fract_y
_atom_site_fract_z
Si Si1 0.967726 0.522455 0.281848
Si Si2 0.644590 0.890579 0.407972
Si Si3 0.788815 0.432028 0.026842
Si Si4 0.736663 0.696764 0.642747
Si Si5 0.642004 0.297271 0.885627
Si Si6 0.142430 0.923543 0.776251
O O1 0.881711 0.669429 0.497337
O O2 0.914157 0.747142 0.204822
O O3 0.113334 0.475750 0.150047
O O4 0.136097 0.827695 0.941994
O O5 0.711985 0.682160 0.210205
O O6 0.674843 0.750366 0.535922
O O7 0.500000 0.000000 0.500000
O O8 0.710306 0.133703 0.371249
O O9 0.922478 0.254619 0.275687
O O10 0.696322 0.332360 0.999175
O O11 0.719951 0.419424 0.713340
O O12 0.665728 0.970349 0.811792
O O13 0.500000 0.500000 0.000000
#
# Coordination Sequence:
#
# PCOD9060406 Si02
#       6
#     2   2   2   2   2   2
#     4  11  25  44  75 106 144 177 243 292 357 410
#     4  11  26  45  76 106 140 188 246 288 347 419
#     4  12  27  43  77 105 142 192 233 292 354 420
#     4  11  25  47  69 100 143 185 229 298 346 410
#     4  12  29  48  69 100 148 189 232 285 356 423
#     4  11  23  43  70 110 137 180 228 305 343 406
#
# _framework density 24.492602999999999
#
# number of rings (size 3 to 8) (size 9 to 14) (size 15 to 20)
#    0.000    0.667    3.333    4.500    7.000    2.000 
#    0.000    0.000    0.000    0.000    0.000    0.000 
#    0.000    0.000    0.000    0.000    0.000    0.000 
#
# Total GULP energy -67182.891164 kJ/mol
# GULP energy per Si atom -5598.574264 kJ/mol
# Density = 2.443686 g / cm^3
# Si number density = 24.492603 Si / 1000 Ang^3
#
#
#
# Elastic Constant Matrix: (Units=GPa)
#
#
# Indices 1 2 3 4 5 6 
#
# 1 69.9029 -8.8483 23.8799 26.5777 -6.7327 14.0207
# 2 -8.8483 77.4109 6.6499 7.1602 -4.2946 21.3389
# 3 23.8799 6.6499 87.2210 19.1227 -8.4791 3.2242
# 4 26.5777 7.1602 19.1227 52.1242 -0.2200 3.2854
# 5 -6.7327 -4.2946 -8.4791 -0.2200 49.3948 0.8708
# 6 14.0207 21.3389 3.2242 3.2854 0.8708 29.5255
#
#
#
# Elastic Compliance Matrix: (Units=1/GPa)
#
#
# Indices 1 2 3 4 5 6 
#
# 1 0.024883 0.009075 -0.004025 -0.011384 0.003735 -0.016779
# 2 0.009075 0.019698 -0.001832 -0.005526 0.002925 -0.017817
# 3 -0.004025 -0.001832 0.013379 -0.002726 0.001541 0.002032
# 4 -0.011384 -0.005526 -0.002726 0.026307 -0.002504 0.006844
# 5 0.003735 0.002925 0.001541 -0.002504 0.021339 -0.004406
# 6 -0.016779 -0.017817 0.002032 0.006844 -0.004406 0.053860
#
#
# Mechanical properties :
#
#
# Convention : Reuss Voigt Hill
#
# Bulk Modulus (GPa) = 15.52899 30.87754 23.20326
# Shear Modulus (GPa) = 28.65412 40.39913 34.52662
#
# Velocity S-wave (km/s) = 3.42410 4.06574 3.75864
# Velocity P-wave (km/s) = 4.68900 5.88851 5.32265
#
# Compressibility (1/GPa) = 0.06439568
#
# Stress axis : x y z
#
# Youngs Moduli (GPa) = 40.18822 50.76778 74.74314
#
# Poissons Ratio (x) = -0.46074 0.30086
# Poissons Ratio (y) = -0.36472 0.13694
# Poissons Ratio (z) = 0.16177 0.09301
#
# Static dielectric constant tensor:
#      x y z
#    x 1.951730 -0.020850 -0.021870 
#    y -0.020850 1.938560 0.019800 
#    z -0.021870 0.019800 2.014770 
# 
# From -- ./inp_files/287969.got.cif
#   From: 2010.05.17/outbox.cif.g08.bks.cpg/sg2_144_cif.got.tgz:287969.got - 2010.06.03 11:33:40.
