data_PCOD9060978
_publ_section_title
;
Structure prediction by ZEFSAII (Michael W. Deem and Ramdas Pophale) SiO2 
 PCOD9060978
Probable space group: P -1
;
_chemical_formula_sum "Si O2"
_cell_formula_units_Z 16
_cell_length_a 7.638778
_cell_length_b 26.991988
_cell_length_c 9.155858
_cell_angle_alpha 151.759539
_cell_angle_beta 124.113713
_cell_angle_gamma 48.058427
_cell_volume 662.327837
_symmetry_space_group_name_H-M "P -1"
_symmetry_group_IT_number 2
_symmetry_cell_setting 'triclinic'
loop_
_space_group_symop_operation_xyz
x,y,z
-x,-y,-z
loop_
_atom_site_type_symbol
_atom_site_label
_atom_site_fract_x
_atom_site_fract_y
_atom_site_fract_z
Si Si1 0.605734 0.365890 0.243441
Si Si2 0.560334 0.077168 0.119571
Si Si3 0.012996 0.670497 0.433962
Si Si4 0.719044 0.563321 0.196389
Si Si5 0.045516 0.864564 0.776806
Si Si6 0.530901 0.877868 0.126042
Si Si7 0.698938 0.271005 0.736563
Si Si8 0.234449 0.373196 0.299586
O O1 0.500000 0.500000 0.500000
O O2 0.776663 0.341468 0.394196
O O3 0.384263 0.350329 0.161858
O O4 0.748417 0.295105 0.985585
O O5 0.563121 0.190763 0.485387
O O6 0.412898 0.113267 0.995094
O O7 0.500000 0.000000 0.000000
O O8 0.832068 0.991423 0.984839
O O9 0.941927 0.793891 0.645448
O O10 0.855740 0.630689 0.360317
O O11 0.114801 0.572084 0.100561
O O12 0.481735 0.607162 0.104576
O O13 0.661681 0.600667 0.433379
O O14 0.116628 0.795392 0.476505
O O15 0.280187 0.866893 0.966803
O O16 0.500000 0.000000 0.500000
O O17 0.726887 0.759461 0.986099
O O18 0.000000 0.500000 0.500000
#
# Coordination Sequence:
#
# PCOD9060978 Si02
#       8
#     2   2   2   2   2   2   2   2
#     4  12  25  45  68 106 147 188 252 304 367 444
#     4  11  25  48  76 106 141 194 251 305 374 450
#     4  11  24  42  70 103 143 187 244 298 369 444
#     4  11  23  45  69 101 144 193 237 304 370 441
#     4  11  24  49  74 104 142 197 247 303 380 450
#     4  11  25  49  74 106 152 193 253 314 374 449
#     4  11  23  44  70  99 140 188 240 304 365 435
#     4  12  27  47  73 110 152 197 248 311 379 443
#
# _framework density 24.157221
#
# number of rings (size 3 to 8) (size 9 to 14) (size 15 to 20)
#    0.000    0.750    5.000    3.000    5.250    2.000 
#    6.750    1.250    0.000    0.000    0.000    0.000 
#    0.000    0.000    0.000    0.000    0.000    0.000 
#
# Total GULP energy -89373.685726 kJ/mol
# GULP energy per Si atom -5585.855358 kJ/mol
# Density = 2.410224 g / cm^3
# Si number density = 24.157221 Si / 1000 Ang^3
#
#
#
# Elastic Constant Matrix: (Units=GPa)
#
#
# Indices 1 2 3 4 5 6 
#
# 1 101.4065 32.1024 23.1939 4.4736 0.9554 15.8174
# 2 32.1024 105.8437 47.9159 34.0555 1.5433 14.2116
# 3 23.1939 47.9159 141.7510 11.5215 -4.1813 6.5217
# 4 4.4736 34.0555 11.5215 50.4078 9.0409 -3.0532
# 5 0.9554 1.5433 -4.1813 9.0409 28.8741 12.4160
# 6 15.8174 14.2116 6.5217 -3.0532 12.4160 42.6851
#
#
#
# Elastic Compliance Matrix: (Units=1/GPa)
#
#
# Indices 1 2 3 4 5 6 
#
# 1 0.011446 -0.002946 -0.000763 0.000794 0.000854 -0.003336
# 2 -0.002946 0.016340 -0.003723 -0.011136 0.004732 -0.005953
# 3 -0.000763 -0.003723 0.008454 0.000393 0.001388 -0.000145
# 4 0.000794 -0.011136 0.000393 0.030044 -0.012741 0.009209
# 5 0.000854 0.004732 0.001388 -0.012741 0.045534 -0.016260
# 6 -0.003336 -0.005953 -0.000145 0.009209 -0.016260 0.032056
#
#
# Mechanical properties :
#
#
# Convention : Reuss Voigt Hill
#
# Bulk Modulus (GPa) = 46.78169 61.71396 54.24782
# Shear Modulus (GPa) = 30.14550 40.77935 35.46242
#
# Velocity S-wave (km/s) = 3.53638 4.11308 3.83558
# Velocity P-wave (km/s) = 6.00684 6.93966 6.49003
#
# Compressibility (1/GPa) = 0.02137588
#
# Stress axis : x y z
#
# Youngs Moduli (GPa) = 87.36956 61.19895 118.29409
#
# Poissons Ratio (x) = 0.18030 0.09023
# Poissons Ratio (y) = 0.25740 0.44038
# Poissons Ratio (z) = 0.06664 0.22783
#
# Static dielectric constant tensor:
#      x y z
#    x 2.023330 -0.035960 0.011270 
#    y -0.035960 1.819590 0.023830 
#    z 0.011270 0.023830 1.817700 
# 
# From -- ./inp_files/227659.got.cif
#   From: 2010.05.17/outbox.cif.g08.bks.cpg/sg2_114_cif.got.tgz:227659.got - 2010.06.03 11:33:40.
