data_PCOD9060160
_publ_section_title
;
Structure prediction by ZEFSAII (Michael W. Deem and Ramdas Pophale) SiO2 
 PCOD9060160
Probable space group: P -1
;
_chemical_formula_sum "Si O2"
_cell_formula_units_Z 15
_cell_length_a 10.576261
_cell_length_b 13.780124
_cell_length_c 10.930987
_cell_angle_alpha 112.217428
_cell_angle_beta 80.577396
_cell_angle_gamma 151.333654
_cell_volume 654.869308
_symmetry_space_group_name_H-M "P -1"
_symmetry_group_IT_number 2
_symmetry_cell_setting 'triclinic'
loop_
_space_group_symop_operation_xyz
x,y,z
-x,-y,-z
loop_
_atom_site_type_symbol
_atom_site_label
_atom_site_fract_x
_atom_site_fract_y
_atom_site_fract_z
Si Si1 0.500000 0.000000 0.000000
Si Si2 0.324492 0.300255 0.187221
Si Si3 0.296422 0.228123 0.633249
Si Si4 0.703817 0.263952 0.863899
Si Si5 0.109253 0.689640 0.407239
Si Si6 0.581917 0.900535 0.537215
Si Si7 0.550984 0.827297 0.766533
Si Si8 0.302451 0.169736 0.881027
O O1 0.531171 0.057471 0.877250
O O2 0.559930 0.920974 0.914326
O O3 0.541877 0.546784 0.314346
O O4 0.348833 0.210411 0.215936
O O5 0.379360 0.308013 0.041478
O O6 0.999546 0.099960 0.158324
O O7 0.477226 0.258140 0.579040
O O8 0.263078 0.194667 0.768139
O O9 0.000000 0.000000 0.500000
O O10 0.785926 0.279046 0.725761
O O11 0.538050 0.251822 0.871841
O O12 0.000000 0.500000 0.000000
O O13 0.301703 0.768325 0.511116
O O14 0.777275 0.428080 0.343432
O O15 0.193328 0.873299 0.475936
O O16 0.705932 0.976772 0.689649
#
# Coordination Sequence:
#
# PCOD9060160 Si02
#       8
#     1   2   2   2   2   2   2   2
#     4  12  24  40  70 102 132 170 224 282 346 410
#     4  11  26  47  70 102 143 185 236 294 348 420
#     4  12  26  46  72 103 140 194 237 288 349 423
#     4  12  23  44  73 103 137 179 233 290 352 419
#     4  11  23  43  66  98 138 175 222 287 346 410
#     4  11  25  41  65 100 135 177 230 279 346 414
#     4  12  24  44  67 101 134 180 225 284 348 412
#     4  11  25  48  71 104 140 187 238 290 355 419
#
# _framework density 22.905335000000001
#
# number of rings (size 3 to 8) (size 9 to 14) (size 15 to 20)
#    0.000    0.533    5.333    2.400    0.000    5.333 
#    2.400    0.000    0.000    0.000    0.000    0.000 
#    0.000    0.000    0.000    0.000    0.000    0.000 
#
# Total GULP energy -83720.312504 kJ/mol
# GULP energy per Si atom -5581.354167 kJ/mol
# Density = 2.285320 g / cm^3
# Si number density = 22.905335 Si / 1000 Ang^3
#
#
#
# Elastic Constant Matrix: (Units=GPa)
#
#
# Indices 1 2 3 4 5 6 
#
# 1 124.7648 41.8429 40.4770 11.4561 5.6513 -18.3498
# 2 41.8429 41.7815 15.3208 0.7387 0.5738 -11.6426
# 3 40.4770 15.3208 92.9478 -3.7954 5.6805 -14.5575
# 4 11.4561 0.7387 -3.7954 44.6329 -8.0548 6.2777
# 5 5.6513 0.5738 5.6805 -8.0548 42.4301 2.4010
# 6 -18.3498 -11.6426 -14.5575 6.2777 2.4010 32.0387
#
#
#
# Elastic Compliance Matrix: (Units=1/GPa)
#
#
# Indices 1 2 3 4 5 6 
#
# 1 0.014215 -0.011843 -0.003787 -0.004637 -0.002287 0.003197
# 2 -0.011843 0.037553 -0.000016 0.001696 0.001029 0.006446
# 3 -0.003787 -0.000016 0.013103 0.001365 -0.001194 0.003601
# 4 -0.004637 0.001696 0.001365 0.025674 0.005675 -0.006876
# 5 -0.002287 0.001029 -0.001194 0.005675 0.025350 -0.004491
# 6 0.003197 0.006446 0.003601 -0.006876 -0.004491 0.038706
#
#
# Mechanical properties :
#
#
# Convention : Reuss Voigt Hill
#
# Bulk Modulus (GPa) = 29.78145 50.53061 40.15603
# Shear Modulus (GPa) = 25.36939 34.61058 29.98999
#
# Velocity S-wave (km/s) = 3.33164 3.89141 3.62235
# Velocity P-wave (km/s) = 5.27541 6.50379 5.92154
#
# Compressibility (1/GPa) = 0.03357795
#
# Stress axis : x y z
#
# Youngs Moduli (GPa) = 70.34716 26.62923 76.31631
#
# Poissons Ratio (x) = 0.31537 0.28902
# Poissons Ratio (y) = 0.83313 0.00126
# Poissons Ratio (z) = 0.26641 0.00044
#
# Static dielectric constant tensor:
#      x y z
#    x 1.855590 0.011680 -0.009040 
#    y 0.011680 1.899900 0.005240 
#    z -0.009040 0.005240 1.846210 
# 
# From -- ./inp_files/390746.got.cif
#   From: 2010.05.17/outbox.cif.g08.bks.cpg/sg2_196_cif.got.tgz:390746.got - 2010.06.03 11:33:40.
