data_PCOD9060611
_publ_section_title
;
Structure prediction by ZEFSAII (Michael W. Deem and Ramdas Pophale) SiO2 
 PCOD9060611
Probable space group: P -1
;
_chemical_formula_sum "Si O2"
_cell_formula_units_Z 14
_cell_length_a 12.633359
_cell_length_b 8.657033
_cell_length_c 17.560768
_cell_angle_alpha 45.328563
_cell_angle_beta 26.845780
_cell_angle_gamma 51.280509
_cell_volume 616.781011
_symmetry_space_group_name_H-M "P -1"
_symmetry_group_IT_number 2
_symmetry_cell_setting 'triclinic'
loop_
_space_group_symop_operation_xyz
x,y,z
-x,-y,-z
loop_
_atom_site_type_symbol
_atom_site_label
_atom_site_fract_x
_atom_site_fract_y
_atom_site_fract_z
Si Si1 0.876076 0.380756 0.550145
Si Si2 0.416519 0.450018 0.451241
Si Si3 0.685894 0.691398 0.821534
Si Si4 0.398488 0.926102 0.363126
Si Si5 0.196740 0.045852 0.796411
Si Si6 0.089217 0.733443 0.833688
Si Si7 0.130738 0.088598 0.231796
O O1 0.672202 0.508060 0.592453
O O2 0.000000 0.500000 0.500000
O O3 0.076564 0.347539 0.367240
O O4 0.778099 0.152935 0.725360
O O5 0.454542 0.681759 0.386257
O O6 0.657591 0.319242 0.346371
O O7 0.223209 0.297774 0.668471
O O8 0.741541 0.736782 0.857942
O O9 0.580884 0.911480 0.777143
O O10 0.500000 0.500000 0.000000
O O11 0.132348 0.926001 0.560905
O O12 0.562892 0.011218 0.295287
O O13 0.139812 0.901365 0.810290
O O14 0.000000 0.000000 0.000000
O O15 0.905989 0.837221 0.856406
O O16 0.000000 0.500000 0.000000
#
# Coordination Sequence:
#
# PCOD9060611 Si02
#       7
#     2   2   2   2   2   2   2
#     4  11  24  43  72 102 138 188 237 287 355 420
#     4  12  24  47  72 105 142 186 239 291 358 417
#     4  11  25  44  73 103 142 187 237 289 351 423
#     4  11  23  43  74 103 137 192 229 286 359 418
#     4  12  28  44  73 106 144 183 240 291 359 427
#     4  12  29  46  71 107 144 189 234 296 356 420
#     4  11  23  50  68  99 145 187 235 284 355 429
#
# _framework density 22.698494
#
# number of rings (size 3 to 8) (size 9 to 14) (size 15 to 20)
#    0.000    0.571    4.286    3.429   10.000    0.000 
#    2.571    1.429    0.000    0.000    0.000    0.000 
#    0.000    0.000    0.000    0.000    0.000    0.000 
#
# Total GULP energy -78380.733634 kJ/mol
# GULP energy per Si atom -5598.623831 kJ/mol
# Density = 2.264683 g / cm^3
# Si number density = 22.698494 Si / 1000 Ang^3
#
#
#
# Elastic Constant Matrix: (Units=GPa)
#
#
# Indices 1 2 3 4 5 6 
#
# 1 175.6383 23.0500 22.1251 -27.8444 -18.1305 2.4823
# 2 23.0500 59.0750 21.4942 -22.5797 6.6955 0.9774
# 3 22.1251 21.4942 102.0504 -33.7425 -2.4109 -0.9892
# 4 -27.8444 -22.5797 -33.7425 29.3938 4.1524 -3.0169
# 5 -18.1305 6.6955 -2.4109 4.1524 35.6214 -9.3986
# 6 2.4823 0.9774 -0.9892 -3.0169 -9.3986 43.7497
#
#
#
# Elastic Compliance Matrix: (Units=1/GPa)
#
#
# Indices 1 2 3 4 5 6 
#
# 1 0.007088 -0.000929 0.000971 0.006736 0.003276 0.000809
# 2 -0.000929 0.026088 0.001932 0.022445 -0.008038 -0.000665
# 3 0.000971 0.001932 0.016221 0.021303 -0.000844 0.001556
# 4 0.006736 0.022445 0.021303 0.083619 -0.008142 0.003615
# 5 0.003276 -0.008038 -0.000844 -0.008142 0.033911 0.006698
# 6 0.000809 -0.000665 0.001556 0.003615 0.006698 0.024550
#
#
# Mechanical properties :
#
#
# Convention : Reuss Voigt Hill
#
# Bulk Modulus (GPa) = 18.74611 52.23358 35.48984
# Shear Modulus (GPa) = 24.35344 39.75929 32.05637
#
# Velocity S-wave (km/s) = 3.27908 4.18978 3.76209
# Velocity P-wave (km/s) = 4.75533 6.81671 5.87711
#
# Compressibility (1/GPa) = 0.05334439
#
# Stress axis : x y z
#
# Youngs Moduli (GPa) = 141.09054 38.33139 61.64987
#
# Poissons Ratio (x) = 0.03561 -0.05989
# Poissons Ratio (y) = 0.13109 -0.11908
# Poissons Ratio (z) = -0.13705 -0.07404
#
# Static dielectric constant tensor:
#      x y z
#    x 1.821890 -0.025510 0.038270 
#    y -0.025510 1.850630 0.020980 
#    z 0.038270 0.020980 1.816690 
# 
# From -- ./inp_files/156588.got.cif
#   From: 2010.05.17/outbox.cif.g08.bks.cpg/sg2_79_cif.got.tgz:156588.got - 2010.06.03 11:33:40.
