data_PCOD9060122
_publ_section_title
;
Structure prediction by ZEFSAII (Michael W. Deem and Ramdas Pophale) SiO2 
 PCOD9060122
Probable space group: P -1
;
_chemical_formula_sum "Si O2"
_cell_formula_units_Z 14
_cell_length_a 18.411097
_cell_length_b 8.952301
_cell_length_c 6.158536
_cell_angle_alpha 49.666733
_cell_angle_beta 76.234856
_cell_angle_gamma 59.962044
_cell_volume 664.132107
_symmetry_space_group_name_H-M "P -1"
_symmetry_group_IT_number 2
_symmetry_cell_setting 'triclinic'
loop_
_space_group_symop_operation_xyz
x,y,z
-x,-y,-z
loop_
_atom_site_type_symbol
_atom_site_label
_atom_site_fract_x
_atom_site_fract_y
_atom_site_fract_z
Si Si1 0.563629 0.603376 0.329916
Si Si2 0.993979 0.407027 0.844742
Si Si3 0.849859 0.078284 0.770394
Si Si4 0.449171 0.029375 0.724947
Si Si5 0.264882 0.726683 0.716893
Si Si6 0.825098 0.456221 0.749629
Si Si7 0.273975 0.037465 0.768190
O O1 0.500000 0.500000 0.500000
O O2 0.578923 0.717709 0.422107
O O3 0.652060 0.425801 0.335342
O O4 0.515536 0.824022 0.012651
O O5 0.000000 0.500000 0.500000
O O6 0.901612 0.424291 0.880738
O O7 0.000000 0.500000 0.000000
O O8 0.068094 0.155284 0.036492
O O9 0.820396 0.152759 0.477405
O O10 0.858651 0.269404 0.715417
O O11 0.770477 0.055830 0.946985
O O12 0.366372 0.996889 0.802187
O O13 0.500000 0.000000 0.500000
O O14 0.277692 0.914683 0.655835
O O15 0.246566 0.575234 0.041087
O O16 0.785061 0.700874 0.452246
#
# Coordination Sequence:
#
# PCOD9060122 Si02
#       7
#     2   2   2   2   2   2   2
#     4  11  24  42  63  97 133 174 228 282 349 414
#     4  12  27  47  76 106 146 190 237 295 358 424
#     4  11  25  44  70  99 136 180 232 281 354 417
#     4  11  24  40  65  93 131 175 223 283 346 415
#     4  11  25  41  67  99 131 180 227 288 346 423
#     4  11  25  44  70  99 138 179 233 284 352 419
#     4  11  23  43  65  96 134 175 227 284 348 418
#
# _framework density 21.080143
#
# number of rings (size 3 to 8) (size 9 to 14) (size 15 to 20)
#    0.000    0.857    1.429    4.714    4.000   10.857 
#    0.000    0.000    0.000    0.000    0.000    0.000 
#    0.000    0.000    0.000    0.000    0.000    0.000 
#
# Total GULP energy -78141.197095 kJ/mol
# GULP energy per Si atom -5581.514078 kJ/mol
# Density = 2.103216 g / cm^3
# Si number density = 21.080143 Si / 1000 Ang^3
#
#
#
# Elastic Constant Matrix: (Units=GPa)
#
#
# Indices 1 2 3 4 5 6 
#
# 1 61.2177 15.7434 -2.6385 -9.4176 11.0698 1.7112
# 2 15.7434 131.9191 29.0988 -11.9245 -0.6333 13.5977
# 3 -2.6385 29.0988 68.4812 -13.7342 0.2669 8.3929
# 4 -9.4176 -11.9245 -13.7342 27.7463 -1.0823 2.0790
# 5 11.0698 -0.6333 0.2669 -1.0823 31.3579 -3.6957
# 6 1.7112 13.5977 8.3929 2.0790 -3.6957 40.7749
#
#
#
# Elastic Compliance Matrix: (Units=1/GPa)
#
#
# Indices 1 2 3 4 5 6 
#
# 1 0.019468 -0.002277 0.003397 0.007172 -0.006906 -0.001749
# 2 -0.002277 0.008961 -0.003296 0.001645 0.000808 -0.002225
# 3 0.003397 -0.003296 0.018370 0.009027 -0.001514 -0.003422
# 4 0.007172 0.001645 0.009027 0.043968 -0.001659 -0.005100
# 5 -0.006906 0.000808 -0.001514 -0.001659 0.034720 0.003564
# 6 -0.001749 -0.002225 -0.003422 -0.005100 0.003564 0.026628
#
#
# Mechanical properties :
#
#
# Convention : Reuss Voigt Hill
#
# Bulk Modulus (GPa) = 23.55867 38.44727 31.00297
# Shear Modulus (GPa) = 29.30569 34.60344 31.95456
#
# Velocity S-wave (km/s) = 3.73259 4.05596 3.89763
# Velocity P-wave (km/s) = 5.45677 6.34134 5.91561
#
# Compressibility (1/GPa) = 0.04244722
#
# Stress axis : x y z
#
# Youngs Moduli (GPa) = 51.36554 111.59277 54.43759
#
# Poissons Ratio (x) = 0.25414 -0.18495
# Poissons Ratio (y) = 0.11698 0.17943
# Poissons Ratio (z) = -0.17451 0.36781
#
# Static dielectric constant tensor:
#      x y z
#    x 1.752860 0.040250 0.024330 
#    y 0.040250 1.763800 0.062730 
#    z 0.024330 0.062730 1.796010 
# 
# From -- ./inp_files/6496.got.cif
#   From: 2010.05.17/outbox.cif.g08.bks.cpg/sg2_4_cif.got.tgz:6496.got - 2010.06.03 11:33:40.
