data_PCOD9060902
_publ_section_title
;
Structure prediction by ZEFSAII (Michael W. Deem and Ramdas Pophale) SiO2 
 PCOD9060902
Probable space group: P -1
;
_chemical_formula_sum "Si O2"
_cell_formula_units_Z 12
_cell_length_a 8.095191
_cell_length_b 8.984818
_cell_length_c 10.922792
_cell_angle_alpha 83.440111
_cell_angle_beta 119.307622
_cell_angle_gamma 130.231267
_cell_volume 503.977473
_symmetry_space_group_name_H-M "P -1"
_symmetry_group_IT_number 2
_symmetry_cell_setting 'triclinic'
loop_
_space_group_symop_operation_xyz
x,y,z
-x,-y,-z
loop_
_atom_site_type_symbol
_atom_site_label
_atom_site_fract_x
_atom_site_fract_y
_atom_site_fract_z
Si Si1 0.935132 0.260026 0.547125
Si Si2 0.062254 0.614174 0.190805
Si Si3 0.526260 0.193631 0.012988
Si Si4 0.010870 0.000898 0.720107
Si Si5 0.774895 0.573376 0.598746
Si Si6 0.597236 0.929513 0.750683
O O1 0.989511 0.346400 0.695430
O O2 0.128933 0.428319 0.499345
O O3 0.979466 0.105594 0.591921
O O4 0.642371 0.137761 0.409988
O O5 0.227053 0.556776 0.289401
O O6 0.225654 0.832901 0.167687
O O7 0.799164 0.414201 0.054043
O O8 0.504990 0.199808 0.151324
O O9 0.500000 0.000000 0.000000
O O10 0.291013 0.154939 0.869043
O O11 0.974385 0.810663 0.684232
O O12 0.782649 0.921568 0.740141
O O13 0.500000 0.500000 0.500000
#
# Coordination Sequence:
#
# PCOD9060902 Si02
#       6
#     2   2   2   2   2   2
#     4  11  23  44  69  97 136 171 220 281 322 385
#     4  11  24  43  70  96 131 180 218 266 336 387
#     4  12  25  46  65  96 142 174 218 272 329 392
#     4  11  24  43  66  99 134 174 218 273 326 392
#     4  12  23  39  68 102 130 170 225 271 329 389
#     4  11  24  45  71  96 134 174 222 273 328 387
#
# _framework density 23.810589
#
# number of rings (size 3 to 8) (size 9 to 14) (size 15 to 20)
#    0.000    0.667    3.333    5.500    2.333    4.667 
#    3.000    0.000    0.000    0.000    0.000    0.000 
#    0.000    0.000    0.000    0.000    0.000    0.000 
#
# Total GULP energy -67219.222338 kJ/mol
# GULP energy per Si atom -5601.601862 kJ/mol
# Density = 2.375640 g / cm^3
# Si number density = 23.810589 Si / 1000 Ang^3
#
#
#
# Elastic Constant Matrix: (Units=GPa)
#
#
# Indices 1 2 3 4 5 6 
#
# 1 82.6319 1.9726 38.6583 0.8886 21.9150 3.7744
# 2 1.9726 86.7879 5.0417 14.9264 0.2003 0.6133
# 3 38.6583 5.0417 97.2500 20.9583 24.8910 4.3598
# 4 0.8886 14.9264 20.9583 38.0882 2.8896 2.0925
# 5 21.9150 0.2003 24.8910 2.8896 40.9080 2.3917
# 6 3.7744 0.6133 4.3598 2.0925 2.3917 43.6832
#
#
#
# Elastic Compliance Matrix: (Units=1/GPa)
#
#
# Indices 1 2 3 4 5 6 
#
# 1 0.016236 -0.000615 -0.005760 0.003479 -0.005396 -0.000691
# 2 -0.000615 0.012396 0.000669 -0.005232 0.000229 0.000050
# 3 -0.005760 0.000669 0.015893 -0.008400 -0.005973 -0.000369
# 4 0.003479 -0.005232 -0.008400 0.032825 0.001013 -0.001017
# 5 -0.005396 0.000229 -0.005973 0.001013 0.030937 -0.000683
# 6 -0.000691 0.000050 -0.000369 -0.001017 -0.000683 0.023074
#
#
# Mechanical properties :
#
#
# Convention : Reuss Voigt Hill
#
# Bulk Modulus (GPa) = 30.20025 39.77946 34.98985
# Shear Modulus (GPa) = 32.50684 39.26903 35.88793
#
# Velocity S-wave (km/s) = 3.69891 4.06547 3.88651
# Velocity P-wave (km/s) = 5.56360 6.22738 5.90482
#
# Compressibility (1/GPa) = 0.03311231
#
# Stress axis : x y z
#
# Youngs Moduli (GPa) = 61.58964 80.66864 62.91914
#
# Poissons Ratio (x) = 0.04965 0.36243
# Poissons Ratio (y) = 0.03791 -0.04207
# Poissons Ratio (z) = 0.35477 -0.05394
#
# Static dielectric constant tensor:
#      x y z
#    x 1.915180 -0.022150 -0.045570 
#    y -0.022150 1.965410 0.051730 
#    z -0.045570 0.051730 1.874920 
# 
# From -- ./inp_files/150549.got.cif
#   From: 2010.05.17/outbox.cif.g08.bks.cpg/sg2_76_cif.got.tgz:150549.got - 2010.06.03 11:33:40.
