data_PCOD9060770
_publ_section_title
;
Structure prediction by ZEFSAII (Michael W. Deem and Ramdas Pophale) SiO2 
 PCOD9060770
Probable space group: P -1
;
_chemical_formula_sum "Si O2"
_cell_formula_units_Z 16
_cell_length_a 12.370292
_cell_length_b 7.136258
_cell_length_c 11.078627
_cell_angle_alpha 119.384010
_cell_angle_beta 89.966317
_cell_angle_gamma 121.862137
_cell_volume 678.210864
_symmetry_space_group_name_H-M "P -1"
_symmetry_group_IT_number 2
_symmetry_cell_setting 'triclinic'
loop_
_space_group_symop_operation_xyz
x,y,z
-x,-y,-z
loop_
_atom_site_type_symbol
_atom_site_label
_atom_site_fract_x
_atom_site_fract_y
_atom_site_fract_z
Si Si1 0.597665 0.319931 0.339298
Si Si2 0.084422 0.545312 0.343068
Si Si3 0.548619 0.311994 0.604141
Si Si4 0.232320 0.485910 0.133265
Si Si5 0.309535 0.018526 0.665916
Si Si6 0.898600 0.936468 0.188600
Si Si7 0.624205 0.086166 0.939686
Si Si8 0.160047 0.491576 0.761639
O O1 0.591955 0.418013 0.502019
O O2 0.616133 0.083231 0.292999
O O3 0.730560 0.510508 0.317361
O O4 0.452542 0.177768 0.228423
O O5 0.953445 0.537773 0.329454
O O6 0.151409 0.586652 0.225094
O O7 0.194313 0.770325 0.504917
O O8 0.027064 0.246394 0.290046
O O9 0.672462 0.481525 0.749503
O O10 0.500000 0.000000 0.500000
O O11 0.417519 0.256081 0.650319
O O12 0.323654 0.674382 0.080575
O O13 0.132431 0.191615 0.983972
O O14 0.233819 0.090387 0.776309
O O15 0.911140 0.753067 0.221640
O O16 0.754015 0.226609 0.072632
O O17 0.500000 0.000000 0.000000
#
# Coordination Sequence:
#
# PCOD9060770 Si02
#       8
#     2   2   2   2   2   2   2   2
#     4  10  17  39  67  92 124 170 216 259 324 381
#     4  12  23  43  67  92 132 180 216 252 329 391
#     4  10  18  36  68  98 121 168 220 269 321 384
#     4  11  21  40  64  98 131 165 221 271 315 386
#     4  11  21  39  68  97 122 172 218 260 328 386
#     4  11  26  41  61 102 131 168 219 267 318 384
#     4   9  18  35  61  90 126 162 205 263 317 371
#     4  10  24  40  63  97 134 171 213 267 321 383
#
# _framework density 23.591481999999999
#
# number of rings (size 3 to 8) (size 9 to 14) (size 15 to 20)
#    0.000    1.500    6.250    0.750    0.000    3.000 
#    0.000    0.625    0.000    0.000    0.000    0.875 
#    0.000    0.000    0.000    0.000    0.000    0.000 
#
# Total GULP energy -89416.510868 kJ/mol
# GULP energy per Si atom -5588.531929 kJ/mol
# Density = 2.353779 g / cm^3
# Si number density = 23.591482 Si / 1000 Ang^3
#
#
#
# Elastic Constant Matrix: (Units=GPa)
#
#
# Indices 1 2 3 4 5 6 
#
# 1 72.8033 16.3519 14.7649 4.0263 2.6146 9.6530
# 2 16.3519 98.2579 51.7212 0.8927 12.9384 14.2284
# 3 14.7649 51.7212 79.7363 -15.9727 0.0587 -3.0071
# 4 4.0263 0.8927 -15.9727 37.5775 12.1203 -7.6370
# 5 2.6146 12.9384 0.0587 12.1203 32.8198 -1.5323
# 6 9.6530 14.2284 -3.0071 -7.6370 -1.5323 27.3775
#
#
#
# Elastic Compliance Matrix: (Units=1/GPa)
#
#
# Indices 1 2 3 4 5 6 
#
# 1 0.015960 0.001513 -0.005415 -0.005756 -0.000135 -0.008622
# 2 0.001513 0.022493 -0.017434 -0.009590 -0.006217 -0.017161
# 3 -0.005415 -0.017434 0.028850 0.016418 0.002069 0.018834
# 4 -0.005756 -0.009590 0.016418 0.041801 -0.010298 0.019901
# 5 -0.000135 -0.006217 0.002069 -0.010298 0.036856 0.002696
# 6 -0.008622 -0.017161 0.018834 0.019901 0.002696 0.056256
#
#
# Mechanical properties :
#
#
# Convention : Reuss Voigt Hill
#
# Bulk Modulus (GPa) = 40.59823 46.27482 43.43652
# Shear Modulus (GPa) = 19.75505 30.75227 25.25366
#
# Velocity S-wave (km/s) = 2.89689 3.61436 3.27533
# Velocity P-wave (km/s) = 5.33250 6.08899 5.72326
#
# Compressibility (1/GPa) = 0.02463162
#
# Stress axis : x y z
#
# Youngs Moduli (GPa) = 62.65524 44.45764 34.66182
#
# Poissons Ratio (x) = -0.06725 0.18768
# Poissons Ratio (y) = -0.09477 0.60430
# Poissons Ratio (z) = 0.33926 0.77508
#
# Static dielectric constant tensor:
#      x y z
#    x 1.904380 -0.014450 -0.034120 
#    y -0.014450 1.944580 0.001760 
#    z -0.034120 0.001760 1.893000 
# 
# From -- ./inp_files/446323.got.cif
#   From: 2010.05.17/outbox.cif.g08.bks.cpg/sg2_224_cif.got.tgz:446323.got - 2010.06.03 11:33:40.
