data_PCOD9060490
_publ_section_title
;
Structure prediction by ZEFSAII (Michael W. Deem and Ramdas Pophale) SiO2 
 PCOD9060490
Probable space group: P -1
;
_chemical_formula_sum "Si O2"
_cell_formula_units_Z 12
_cell_length_a 4.947845
_cell_length_b 14.152453
_cell_length_c 8.751127
_cell_angle_alpha 125.828112
_cell_angle_beta 84.183073
_cell_angle_gamma 76.977070
_cell_volume 462.472440
_symmetry_space_group_name_H-M "P -1"
_symmetry_group_IT_number 2
_symmetry_cell_setting 'triclinic'
loop_
_space_group_symop_operation_xyz
x,y,z
-x,-y,-z
loop_
_atom_site_type_symbol
_atom_site_label
_atom_site_fract_x
_atom_site_fract_y
_atom_site_fract_z
Si Si1 0.228811 0.912156 0.289518
Si Si2 0.916987 0.653453 0.383489
Si Si3 0.903787 0.242478 0.126567
Si Si4 0.530318 0.333522 0.811753
Si Si5 0.717829 0.904450 0.783151
Si Si6 0.309206 0.405119 0.223851
O O1 0.458080 0.805037 0.274448
O O2 0.320019 0.008020 0.276794
O O3 0.113085 0.837684 0.097945
O O4 0.000000 0.000000 0.500000
O O5 0.719520 0.607072 0.239891
O O6 0.707899 0.775633 0.596175
O O7 0.158050 0.682887 0.293965
O O8 0.089394 0.544948 0.387503
O O9 0.589615 0.349719 0.260801
O O10 0.989842 0.152667 0.184131
O O11 0.140572 0.307521 0.147163
O O12 0.440684 0.404996 0.044596
O O13 0.500000 0.000000 0.000000
#
# Coordination Sequence:
#
# PCOD9060490 Si02
#       6
#     2   2   2   2   2   2
#     4  11  24  46  76 105 146 192 250 299 363 438
#     4  12  26  44  74 110 144 198 240 303 367 438
#     4  11  26  48  73 108 148 195 238 309 366 432
#     4  11  23  43  71 112 145 183 247 309 368 423
#     4  12  28  47  74 108 157 194 245 300 371 442
#     4  11  24  47  76 104 150 187 249 302 369 431
#
# _framework density 25.947489999999998
#
# number of rings (size 3 to 8) (size 9 to 14) (size 15 to 20)
#    0.000    0.667    1.667    6.500    2.333    4.667 
#    0.000    0.000    0.000    0.000    0.000    0.000 
#    0.000    0.000    0.000    0.000    0.000    0.000 
#
# Total GULP energy -67232.340022 kJ/mol
# GULP energy per Si atom -5602.695002 kJ/mol
# Density = 2.588843 g / cm^3
# Si number density = 25.947490 Si / 1000 Ang^3
#
#
#
# Elastic Constant Matrix: (Units=GPa)
#
#
# Indices 1 2 3 4 5 6 
#
# 1 95.8793 14.8005 -9.8946 8.5617 -1.5995 -11.4955
# 2 14.8005 128.9535 28.7082 31.3631 -10.5193 -15.1418
# 3 -9.8946 28.7082 83.5456 22.0610 -8.8777 10.9332
# 4 8.5617 31.3631 22.0610 47.7795 -4.4502 -6.3296
# 5 -1.5995 -10.5193 -8.8777 -4.4502 36.8212 -5.9014
# 6 -11.4955 -15.1418 10.9332 -6.3296 -5.9014 45.7919
#
#
#
# Elastic Compliance Matrix: (Units=1/GPa)
#
#
# Indices 1 2 3 4 5 6 
#
# 1 0.011199 -0.000978 0.002028 -0.001990 0.000748 0.001825
# 2 -0.000978 0.010147 -0.002583 -0.004640 0.002213 0.003370
# 3 0.002028 -0.002583 0.015556 -0.006330 0.001577 -0.004731
# 4 -0.001990 -0.004640 -0.006330 0.027802 0.000974 0.003446
# 5 0.000748 0.002213 0.001577 0.000974 0.029029 0.004419
# 6 0.001825 0.003370 -0.004731 0.003446 0.004419 0.025586
#
#
# Mechanical properties :
#
#
# Convention : Reuss Voigt Hill
#
# Bulk Modulus (GPa) = 29.55348 41.73406 35.64377
# Shear Modulus (GPa) = 37.40786 44.39614 40.90200
#
# Velocity S-wave (km/s) = 3.80106 4.14091 3.97462
# Velocity P-wave (km/s) = 5.53882 6.24354 5.90171
#
# Compressibility (1/GPa) = 0.03383696
#
# Stress axis : x y z
#
# Youngs Moduli (GPa) = 89.29339 98.55351 64.28563
#
# Poissons Ratio (x) = 0.09634 -0.13040
# Poissons Ratio (y) = 0.08729 0.16606
# Poissons Ratio (z) = -0.18113 0.25457
#
# Static dielectric constant tensor:
#      x y z
#    x 2.027600 0.020640 0.003960 
#    y 0.020640 2.043720 0.009850 
#    z 0.003960 0.009850 2.016170 
# 
# From -- ./inp_files/134569.got.cif
#   From: 2010.05.17/outbox.cif.g08.bks.cpg/sg2_68_cif.got.tgz:134569.got - 2010.06.03 11:33:40.
