data_PCOD9060463
_publ_section_title
;
Structure prediction by ZEFSAII (Michael W. Deem and Ramdas Pophale) SiO2 
 PCOD9060463
Probable space group: P -1
;
_chemical_formula_sum "Si O2"
_cell_formula_units_Z 12
_cell_length_a 16.080107
_cell_length_b 7.052077
_cell_length_c 10.583892
_cell_angle_alpha 95.243518
_cell_angle_beta 34.242326
_cell_angle_gamma 117.890329
_cell_volume 480.278444
_symmetry_space_group_name_H-M "P -1"
_symmetry_group_IT_number 2
_symmetry_cell_setting 'triclinic'
loop_
_space_group_symop_operation_xyz
x,y,z
-x,-y,-z
loop_
_atom_site_type_symbol
_atom_site_label
_atom_site_fract_x
_atom_site_fract_y
_atom_site_fract_z
Si Si1 0.762791 0.704400 0.419637
Si Si2 0.643751 0.655277 0.207145
Si Si3 0.965225 0.707874 0.940750
Si Si4 0.941726 0.149384 0.728566
Si Si5 0.231682 0.726684 0.432692
Si Si6 0.612189 0.798957 0.913220
O O1 0.518518 0.511760 0.711984
O O2 0.874992 0.786170 0.417838
O O3 0.830419 0.597939 0.230400
O O4 0.858439 0.973807 0.247330
O O5 0.500000 0.500000 0.500000
O O6 0.815022 0.646931 0.012399
O O7 0.762641 0.961880 0.051280
O O8 0.095808 0.650763 0.722502
O O9 0.059679 0.446908 0.556658
O O10 0.813639 0.954694 0.759152
O O11 0.435968 0.780375 0.196207
O O12 0.306655 0.989851 0.289852
O O13 0.500000 0.500000 0.000000
#
# Coordination Sequence:
#
# PCOD9060463 Si02
#       6
#     2   2   2   2   2   2
#     4   9  19  40  67 105 144 188 225 276 356 425
#     4   9  19  38  67 102 141 184 226 271 347 424
#     4   9  20  39  69 102 145 186 228 284 346 428
#     4  11  23  43  71 103 143 182 234 295 354 415
#     4  11  26  47  71 108 136 182 245 299 348 422
#     4  11  28  51  73  99 137 190 243 300 357 417
#
# _framework density 24.985506999999998
#
# number of rings (size 3 to 8) (size 9 to 14) (size 15 to 20)
#    0.000    2.000    0.000    2.500    7.000    2.667 
#    9.000    4.167    0.000    0.000    0.000    0.000 
#    0.000    0.000    0.000    0.000    0.000    0.000 
#
# Total GULP energy -66822.345420 kJ/mol
# GULP energy per Si atom -5568.528785 kJ/mol
# Density = 2.492864 g / cm^3
# Si number density = 24.985507 Si / 1000 Ang^3
#
#
#
# Elastic Constant Matrix: (Units=GPa)
#
#
# Indices 1 2 3 4 5 6 
#
# 1 158.1768 77.5885 45.9811 0.5236 -25.3501 5.7839
# 2 77.5885 129.9007 49.0981 -33.0365 -28.1422 5.1751
# 3 45.9811 49.0981 141.4331 -2.9722 -27.2282 3.9528
# 4 0.5236 -33.0365 -2.9722 51.6938 4.7344 4.8258
# 5 -25.3501 -28.1422 -27.2282 4.7344 31.9359 -7.1039
# 6 5.7839 5.1751 3.9528 4.8258 -7.1039 43.4155
#
#
#
# Elastic Compliance Matrix: (Units=1/GPa)
#
#
# Indices 1 2 3 4 5 6 
#
# 1 0.010036 -0.006335 -0.000676 -0.004460 0.002556 0.000394
# 2 -0.006335 0.016048 -0.002209 0.009783 0.005547 -0.001048
# 3 -0.000676 -0.002209 0.009091 -0.001453 0.005618 0.000606
# 4 -0.004460 0.009783 -0.001453 0.025952 -0.000773 -0.003451
# 5 0.002556 0.005547 0.005618 -0.000773 0.044434 0.005843
# 6 0.000394 -0.001048 0.000606 -0.003451 0.005843 0.024390
#
#
# Mechanical properties :
#
#
# Convention : Reuss Voigt Hill
#
# Bulk Modulus (GPa) = 59.75356 86.09399 72.92377
# Shear Modulus (GPa) = 32.47383 42.53191 37.50287
#
# Velocity S-wave (km/s) = 3.60906 4.13033 3.87846
# Velocity P-wave (km/s) = 6.42917 7.56826 7.02185
#
# Compressibility (1/GPa) = 0.01673540
#
# Stress axis : x y z
#
# Youngs Moduli (GPa) = 99.64026 62.31142 109.99595
#
# Poissons Ratio (x) = 0.39475 0.07439
# Poissons Ratio (y) = 0.63123 0.24297
# Poissons Ratio (z) = 0.06738 0.13764
#
# Static dielectric constant tensor:
#      x y z
#    x 2.081870 0.006350 0.077120 
#    y 0.006350 2.039360 0.075660 
#    z 0.077120 0.075660 2.082970 
# 
# From -- ./inp_files/265085.got.cif
#   From: 2010.05.17/outbox.cif.g08.bks.cpg/sg2_133_cif.got.tgz:265085.got - 2010.06.03 11:33:40.
