data_PCOD9060757
_publ_section_title
;
Structure prediction by ZEFSAII (Michael W. Deem and Ramdas Pophale) SiO2 
 PCOD9060757
Probable space group: P -1
;
_chemical_formula_sum "Si O2"
_cell_formula_units_Z 16
_cell_length_a 5.398421
_cell_length_b 20.296933
_cell_length_c 9.061727
_cell_angle_alpha 50.263621
_cell_angle_beta 57.286383
_cell_angle_gamma 59.807249
_cell_volume 623.120824
_symmetry_space_group_name_H-M "P -1"
_symmetry_group_IT_number 2
_symmetry_cell_setting 'triclinic'
loop_
_space_group_symop_operation_xyz
x,y,z
-x,-y,-z
loop_
_atom_site_type_symbol
_atom_site_label
_atom_site_fract_x
_atom_site_fract_y
_atom_site_fract_z
Si Si1 0.544758 0.262240 0.593400
Si Si2 0.900787 0.771740 0.725196
Si Si3 0.601155 0.934599 0.423865
Si Si4 0.857527 0.551998 0.614508
Si Si5 0.945713 0.570826 0.045419
Si Si6 0.954158 0.803923 0.003024
Si Si7 0.812261 0.002791 0.811253
Si Si8 0.332135 0.656970 0.272157
O O1 0.781275 0.219270 0.456688
O O2 0.418443 0.365282 0.444810
O O3 0.649812 0.270220 0.715768
O O4 0.289567 0.209410 0.776106
O O5 0.656097 0.834830 0.609793
O O6 0.856959 0.798133 0.872576
O O7 0.929471 0.667787 0.853583
O O8 0.500000 0.000000 0.500000
O O9 0.338206 0.958118 0.352477
O O10 0.941546 0.950695 0.257702
O O11 0.000000 0.500000 0.500000
O O12 0.804063 0.477619 0.847657
O O13 0.115569 0.603360 0.496621
O O14 0.638537 0.589412 0.217265
O O15 0.000000 0.500000 0.000000
O O16 0.996615 0.900937 0.875218
O O17 0.208800 0.714671 0.084072
O O18 0.500000 0.000000 0.000000
#
# Coordination Sequence:
#
# PCOD9060757 Si02
#       8
#     2   2   2   2   2   2   2   2
#     4  11  25  47  70 106 144 194 252 310 383 450
#     4  12  27  48  75 108 153 198 253 318 386 464
#     4  12  28  52  80 119 164 205 262 332 398 473
#     4  11  23  44  66  95 139 190 247 311 375 444
#     4  12  26  43  70 108 141 199 252 307 384 457
#     4  11  26  47  75 110 148 200 249 318 382 468
#     4  12  28  51  85 119 160 209 266 325 401 482
#     4  11  24  44  70  99 148 188 247 315 375 451
#
# _framework density 25.677205000000001
#
# number of rings (size 3 to 8) (size 9 to 14) (size 15 to 20)
#    0.000    0.500    3.750    3.375    8.750    0.500 
#    0.000    0.000    0.000    0.000    0.000    0.000 
#    0.000    0.000    0.000    0.000    0.000    0.000 
#
# Total GULP energy -89460.021599 kJ/mol
# GULP energy per Si atom -5591.251350 kJ/mol
# Density = 2.561876 g / cm^3
# Si number density = 25.677205 Si / 1000 Ang^3
#
#
#
# Elastic Constant Matrix: (Units=GPa)
#
#
# Indices 1 2 3 4 5 6 
#
# 1 63.2022 -0.1771 22.9784 -8.9430 -1.8023 -13.0389
# 2 -0.1771 95.4311 49.4338 -25.7469 -4.3523 -1.0466
# 3 22.9784 49.4338 104.5469 -18.4985 18.2226 -21.4510
# 4 -8.9430 -25.7469 -18.4985 63.8594 -16.3185 -9.2475
# 5 -1.8023 -4.3523 18.2226 -16.3185 44.1005 -2.9941
# 6 -13.0389 -1.0466 -21.4510 -9.2475 -2.9941 35.9833
#
#
#
# Elastic Compliance Matrix: (Units=1/GPa)
#
#
# Indices 1 2 3 4 5 6 
#
# 1 0.020014 0.004680 -0.005432 0.005523 0.005980 0.006067
# 2 0.004680 0.017958 -0.010038 0.007010 0.008621 -0.001247
# 3 -0.005432 -0.010038 0.018542 -0.000455 -0.008502 0.007969
# 4 0.005523 0.007010 -0.000455 0.022994 0.010204 0.008692
# 5 0.005980 0.008621 -0.008502 0.010204 0.031234 0.002571
# 6 0.006067 -0.001247 0.007969 0.008692 0.002571 0.037151
#
#
# Mechanical properties :
#
#
# Convention : Reuss Voigt Hill
#
# Bulk Modulus (GPa) = 28.62526 45.29449 36.95987
# Shear Modulus (GPa) = 27.60654 41.51834 34.56244
#
# Velocity S-wave (km/s) = 3.28249 4.02547 3.67282
# Velocity P-wave (km/s) = 5.05357 6.26771 5.69310
#
# Compressibility (1/GPa) = 0.03493419
#
# Stress axis : x y z
#
# Youngs Moduli (GPa) = 49.96498 55.68538 53.93269
#
# Poissons Ratio (x) = -0.26063 0.29297
# Poissons Ratio (y) = -0.23386 0.54137
# Poissons Ratio (z) = 0.27142 0.55897
#
# Static dielectric constant tensor:
#      x y z
#    x 2.199470 -0.409630 0.283000 
#    y -0.409630 3.662130 -1.308480 
#    z 0.283000 -1.308480 2.982120 
# 
# From -- ./inp_files/107707.got.cif
#   From: 2010.05.17/outbox.cif.g08.bks.cpg/sg2_54_cif.got.tgz:107707.got - 2010.06.03 11:33:40.
