data_PCOD9060306
_publ_section_title
;
Structure prediction by ZEFSAII (Michael W. Deem and Ramdas Pophale) SiO2 
 PCOD9060306
Probable space group: P -1
;
_chemical_formula_sum "Si O2"
_cell_formula_units_Z 16
_cell_length_a 12.491466
_cell_length_b 15.249223
_cell_length_c 10.897870
_cell_angle_alpha 104.426546
_cell_angle_beta 74.071575
_cell_angle_gamma 160.874434
_cell_volume 653.687812
_symmetry_space_group_name_H-M "P -1"
_symmetry_group_IT_number 2
_symmetry_cell_setting 'triclinic'
loop_
_space_group_symop_operation_xyz
x,y,z
-x,-y,-z
loop_
_atom_site_type_symbol
_atom_site_label
_atom_site_fract_x
_atom_site_fract_y
_atom_site_fract_z
Si Si1 0.517690 0.822645 0.621190
Si Si2 0.834149 0.532431 0.587452
Si Si3 0.517922 0.012073 0.797065
Si Si4 0.650677 0.951710 0.261178
Si Si5 0.999859 0.605208 0.004881
Si Si6 0.803807 0.769944 0.912091
Si Si7 0.782937 0.645386 0.465117
Si Si8 0.542097 0.364966 0.209896
O O1 0.183759 0.547752 0.553924
O O2 0.542624 0.948893 0.673786
O O3 0.547255 0.788929 0.726718
O O4 0.842602 0.039168 0.521356
O O5 0.682394 0.503365 0.557767
O O6 0.169322 0.830273 0.639896
O O7 0.593098 0.301847 0.679579
O O8 0.578087 0.160780 0.791567
O O9 0.751271 0.164558 0.890215
O O10 0.152590 0.735650 0.870677
O O11 0.941610 0.116265 0.162918
O O12 0.678785 0.417580 0.066054
O O13 0.000000 0.500000 0.000000
O O14 0.680073 0.725346 0.809834
O O15 0.500000 0.500000 0.000000
O O16 0.000000 0.000000 0.000000
O O17 0.500000 0.500000 0.500000
O O18 0.776321 0.594424 0.314830
#
# Coordination Sequence:
#
# PCOD9060306 Si02
#       8
#     2   2   2   2   2   2   2   2
#     4  11  24  45  71 111 137 189 246 301 357 421
#     4  11  26  47  69 106 143 184 244 286 362 431
#     4  11  26  43  73 103 145 188 244 296 361 433
#     4  12  27  48  73 104 149 196 231 292 369 433
#     4  11  23  43  69 105 138 183 243 299 355 416
#     4  12  29  48  73 106 148 189 241 293 362 438
#     4  11  24  45  74 103 144 187 245 300 354 420
#     4  11  25  41  77 102 145 183 242 302 355 425
#
# _framework density 24.476517000000001
#
# number of rings (size 3 to 8) (size 9 to 14) (size 15 to 20)
#    0.000    0.750    3.750    2.250    7.000    2.000 
#    0.000    0.000    0.000    0.000    0.000    0.000 
#    0.000    0.000    0.000    0.000    0.000    0.000 
#
# Total GULP energy -89293.119822 kJ/mol
# GULP energy per Si atom -5580.819989 kJ/mol
# Density = 2.442081 g / cm^3
# Si number density = 24.476517 Si / 1000 Ang^3
#
#
#
# Elastic Constant Matrix: (Units=GPa)
#
#
# Indices 1 2 3 4 5 6 
#
# 1 77.2176 11.3618 22.8348 3.8398 -0.6317 19.1800
# 2 11.3618 99.2220 34.5248 7.4568 2.8628 -18.1518
# 3 22.8348 34.5248 56.1260 -1.3829 10.6620 6.2480
# 4 3.8398 7.4568 -1.3829 45.5330 3.0897 -4.6377
# 5 -0.6317 2.8628 10.6620 3.0897 46.9144 -2.8402
# 6 19.1800 -18.1518 6.2480 -4.6377 -2.8402 26.9184
#
#
#
# Elastic Compliance Matrix: (Units=1/GPa)
#
#
# Indices 1 2 3 4 5 6 
#
# 1 0.018429 -0.003205 -0.004076 -0.002699 0.000655 -0.014742
# 2 -0.003205 0.017843 -0.012145 -0.001459 0.002764 0.017175
# 3 -0.004076 -0.012145 0.029725 0.002436 -0.006987 -0.012502
# 4 -0.002699 -0.001459 0.002436 0.023046 -0.001767 0.004158
# 5 0.000655 0.002764 -0.006987 -0.001767 0.023172 0.005159
# 6 -0.014742 0.017175 -0.012502 0.004158 0.005159 0.063397
#
#
# Mechanical properties :
#
#
# Convention : Reuss Voigt Hill
#
# Bulk Modulus (GPa) = 36.83921 41.11204 38.97562
# Shear Modulus (GPa) = 22.37013 34.79610 28.58311
#
# Velocity S-wave (km/s) = 3.02643 3.77452 3.42098
# Velocity P-wave (km/s) = 5.22454 5.98573 5.61804
#
# Compressibility (1/GPa) = 0.02714499
#
# Stress axis : x y z
#
# Youngs Moduli (GPa) = 54.26330 56.04395 33.64155
#
# Poissons Ratio (x) = 0.17961 0.13713
# Poissons Ratio (y) = 0.17390 0.40857
# Poissons Ratio (z) = 0.22119 0.68065
#
# Static dielectric constant tensor:
#      x y z
#    x 2.004310 0.038170 0.017550 
#    y 0.038170 2.076370 0.059790 
#    z 0.017550 0.059790 2.096630 
# 
# From -- ./inp_files/434129.got.cif
#   From: 2010.05.17/outbox.cif.g08.bks.cpg/sg2_218_cif.got.tgz:434129.got - 2010.06.03 11:33:40.
