data_PCOD9060700
_publ_section_title
;
Structure prediction by ZEFSAII (Michael W. Deem and Ramdas Pophale) SiO2 
 PCOD9060700
Probable space group: P -1
;
_chemical_formula_sum "Si O2"
_cell_formula_units_Z 16
_cell_length_a 12.596022
_cell_length_b 8.212430
_cell_length_c 9.543934
_cell_angle_alpha 96.102047
_cell_angle_beta 129.956639
_cell_angle_gamma 80.150668
_cell_volume 745.604522
_symmetry_space_group_name_H-M "P -1"
_symmetry_group_IT_number 2
_symmetry_cell_setting 'triclinic'
loop_
_space_group_symop_operation_xyz
x,y,z
-x,-y,-z
loop_
_atom_site_type_symbol
_atom_site_label
_atom_site_fract_x
_atom_site_fract_y
_atom_site_fract_z
Si Si1 0.110576 0.395549 0.684338
Si Si2 0.409084 0.901881 0.108139
Si Si3 0.987445 0.340171 0.879100
Si Si4 0.251147 0.857635 0.422940
Si Si5 0.282801 0.048510 0.722659
Si Si6 0.546799 0.649310 0.639299
Si Si7 0.238484 0.129076 0.213274
Si Si8 0.384627 0.527941 0.026426
O O1 0.040815 0.372624 0.772671
O O2 0.176220 0.215922 0.664817
O O3 0.000000 0.500000 0.500000
O O4 0.240149 0.494911 0.833277
O O5 0.573757 0.909899 0.225436
O O6 0.383628 0.714530 0.093505
O O7 0.339324 0.011639 0.184794
O O8 0.331489 0.973854 0.907671
O O9 0.837944 0.277683 0.727549
O O10 0.092687 0.191803 0.022225
O O11 0.000000 0.500000 0.000000
O O12 0.413480 0.788422 0.540903
O O13 0.223171 0.910262 0.565210
O O14 0.218333 0.026571 0.324380
O O15 0.500000 0.500000 0.500000
O O16 0.678284 0.714673 0.683445
O O17 0.583830 0.594396 0.825618
O O18 0.500000 0.500000 0.000000
#
# Coordination Sequence:
#
# PCOD9060700 Si02
#       8
#     2   2   2   2   2   2   2   2
#     4  12  29  49  73 106 148 195 242 298 364 437
#     4  11  23  43  77 103 145 183 236 302 364 422
#     4  12  29  52  70 100 153 194 241 297 364 439
#     4  12  28  43  76 107 140 195 244 296 361 430
#     4  11  24  47  71 108 144 181 242 305 352 428
#     4  12  25  44  71 108 146 185 244 303 355 427
#     4  12  25  49  71 105 142 194 244 291 367 428
#     4  12  25  44  75 106 143 190 237 296 373 423
#
# _framework density 21.459097
#
# number of rings (size 3 to 8) (size 9 to 14) (size 15 to 20)
#    0.000    0.250    5.000    3.000    8.750    1.500 
#    0.000    0.000    0.000    0.000    0.000    0.000 
#    0.000    0.000    0.000    0.000    0.000    0.000 
#
# Total GULP energy -89613.600740 kJ/mol
# GULP energy per Si atom -5600.850046 kJ/mol
# Density = 2.141025 g / cm^3
# Si number density = 21.459097 Si / 1000 Ang^3
#
#
#
# Elastic Constant Matrix: (Units=GPa)
#
#
# Indices 1 2 3 4 5 6 
#
# 1 44.6004 -2.6838 27.4162 -8.1602 5.1837 0.0896
# 2 -2.6838 76.6079 37.5872 -6.1439 3.7684 -3.0189
# 3 27.4162 37.5872 132.7779 -7.4240 15.5011 -1.2053
# 4 -8.1602 -6.1439 -7.4240 51.1692 -3.1969 5.2758
# 5 5.1837 3.7684 15.5011 -3.1969 34.9854 9.2824
# 6 0.0896 -3.0189 -1.2053 5.2758 9.2824 37.2035
#
#
#
# Elastic Compliance Matrix: (Units=1/GPa)
#
#
# Indices 1 2 3 4 5 6 
#
# 1 0.027650 0.004601 -0.006647 0.003936 -0.001246 -0.000156
# 2 0.004601 0.016032 -0.005369 0.001782 -0.000103 0.000889
# 3 -0.006647 -0.005369 0.010815 -0.000444 -0.003499 0.000867
# 4 0.003936 0.001782 -0.000444 0.020808 0.002221 -0.003384
# 5 -0.001246 -0.000103 -0.003499 0.002221 0.032820 -0.008622
# 6 -0.000156 0.000889 0.000867 -0.003384 -0.008622 0.029611
#
#
# Mechanical properties :
#
#
# Convention : Reuss Voigt Hill
#
# Bulk Modulus (GPa) = 25.21025 42.06949 33.63987
# Shear Modulus (GPa) = 30.15898 37.44939 33.80419
#
# Velocity S-wave (km/s) = 3.75296 4.18203 3.97329
# Velocity P-wave (km/s) = 5.52749 6.55487 6.06298
#
# Compressibility (1/GPa) = 0.03966640
#
# Stress axis : x y z
#
# Youngs Moduli (GPa) = 36.16686 62.37623 92.46141
#
# Poissons Ratio (x) = -0.28699 0.61464
# Poissons Ratio (y) = -0.16640 0.49639
# Poissons Ratio (z) = 0.24042 0.33488
#
# Static dielectric constant tensor:
#      x y z
#    x 1.755140 -0.002320 -0.001920 
#    y -0.002320 1.787890 0.001260 
#    z -0.001920 0.001260 1.771580 
# 
# From -- ./inp_files/184084.got.cif
#   From: 2010.05.17/outbox.cif.g08.bks.cpg/sg2_93_cif.got.tgz:184084.got - 2010.06.03 11:33:40.
