data_PCOD9060362
_publ_section_title
;
Structure prediction by ZEFSAII (Michael W. Deem and Ramdas Pophale) SiO2 
 PCOD9060362
Probable space group: P -1
;
_chemical_formula_sum "Si O2"
_cell_formula_units_Z 16
_cell_length_a 14.661003
_cell_length_b 9.491611
_cell_length_c 11.227916
_cell_angle_alpha 66.768283
_cell_angle_beta 33.096015
_cell_angle_gamma 64.070650
_cell_volume 766.015203
_symmetry_space_group_name_H-M "P -1"
_symmetry_group_IT_number 2
_symmetry_cell_setting 'triclinic'
loop_
_space_group_symop_operation_xyz
x,y,z
-x,-y,-z
loop_
_atom_site_type_symbol
_atom_site_label
_atom_site_fract_x
_atom_site_fract_y
_atom_site_fract_z
Si Si1 0.663731 0.368349 0.836725
Si Si2 0.127963 0.466265 0.612552
Si Si3 0.049690 0.900136 0.754390
Si Si4 0.262975 0.193210 0.734343
Si Si5 0.572417 0.029743 0.037864
Si Si6 0.382357 0.925769 0.495763
Si Si7 0.999102 0.255323 0.632331
Si Si8 0.913557 0.777050 0.730747
O O1 0.745630 0.428117 0.610138
O O2 0.806226 0.350199 0.790402
O O3 0.500000 0.500000 0.000000
O O4 0.623175 0.197291 0.927034
O O5 0.203732 0.354709 0.674114
O O6 0.096526 0.357512 0.572864
O O7 0.954222 0.594729 0.785662
O O8 0.231156 0.846787 0.639193
O O9 0.048721 0.853041 0.632238
O O10 0.004813 0.089120 0.743450
O O11 0.897686 0.834637 0.003747
O O12 0.441161 0.182243 0.613615
O O13 0.306596 0.048750 0.640957
O O14 0.438504 0.021178 0.291570
O O15 0.735398 0.888016 0.923464
O O16 0.500000 0.000000 0.000000
O O17 0.068915 0.223860 0.431335
#
# Coordination Sequence:
#
# PCOD9060362 Si02
#       8
#     2   2   2   2   2   2   2   2
#     4  11  24  41  64 101 139 173 220 288 343 406
#     4  11  26  43  68  97 143 182 226 277 347 415
#     4  12  23  44  74 100 133 184 233 282 344 399
#     4  11  24  47  67 102 135 186 234 281 330 416
#     4  12  26  42  70 103 136 177 228 286 353 406
#     4  11  24  43  73  99 133 176 238 282 332 413
#     4  11  23  43  70 101 135 183 226 280 349 416
#     4  11  24  44  68  99 138 178 223 292 346 401
#
# _framework density 20.887312999999999
#
# number of rings (size 3 to 8) (size 9 to 14) (size 15 to 20)
#    0.000    0.750    3.750    3.750    8.750    1.500 
#    0.000    0.625    0.000    0.000    0.000    0.000 
#    0.000    0.000    0.000    0.000    0.000    0.000 
#
# Total GULP energy -89429.479632 kJ/mol
# GULP energy per Si atom -5589.342477 kJ/mol
# Density = 2.083977 g / cm^3
# Si number density = 20.887313 Si / 1000 Ang^3
#
#
#
# Elastic Constant Matrix: (Units=GPa)
#
#
# Indices 1 2 3 4 5 6 
#
# 1 128.9792 37.8861 46.4489 -5.3459 -15.3925 -15.1690
# 2 37.8861 111.0939 47.5874 7.8760 0.4020 -21.5573
# 3 46.4489 47.5874 105.7698 4.4672 -8.4306 -12.9146
# 4 -5.3459 7.8760 4.4672 25.0433 -6.5165 6.0931
# 5 -15.3925 0.4020 -8.4306 -6.5165 26.7212 4.8967
# 6 -15.1690 -21.5573 -12.9146 6.0931 4.8967 36.5670
#
#
#
# Elastic Compliance Matrix: (Units=1/GPa)
#
#
# Indices 1 2 3 4 5 6 
#
# 1 0.010692 -0.002694 -0.003199 0.005411 0.006521 -0.000058
# 2 -0.002694 0.013803 -0.004278 -0.007672 -0.006381 0.007641
# 3 -0.003199 -0.004278 0.013083 -0.001364 0.001880 0.000747
# 4 0.005411 -0.007672 -0.001364 0.051769 0.017955 -0.013790
# 5 0.006521 -0.006381 0.001880 0.017955 0.048047 -0.009819
# 6 -0.000058 0.007641 0.000747 -0.013790 -0.009819 0.035704
#
#
# Mechanical properties :
#
#
# Convention : Reuss Voigt Hill
#
# Bulk Modulus (GPa) = 58.02435 67.74307 62.88371
# Shear Modulus (GPa) = 25.10204 31.92766 28.51485
#
# Velocity S-wave (km/s) = 3.47044 3.91393 3.69884
# Velocity P-wave (km/s) = 6.62560 7.27518 6.95797
#
# Compressibility (1/GPa) = 0.01723415
#
# Stress axis : x y z
#
# Youngs Moduli (GPa) = 93.52393 72.44964 76.43564
#
# Poissons Ratio (x) = 0.19521 0.24453
# Poissons Ratio (y) = 0.25200 0.32702
# Poissons Ratio (z) = 0.29920 0.30996
#
# Static dielectric constant tensor:
#      x y z
#    x 1.771200 -0.005360 -0.016150 
#    y -0.005360 1.879070 0.038360 
#    z -0.016150 0.038360 1.788230 
# 
# From -- ./inp_files/447039.got.cif
#   From: 2010.05.17/outbox.cif.g08.bks.cpg/sg2_224_cif.got.tgz:447039.got - 2010.06.03 11:33:40.
