data_PCOD9060552
_publ_section_title
;
Structure prediction by ZEFSAII (Michael W. Deem and Ramdas Pophale) SiO2 
 PCOD9060552
Probable space group: P -1
;
_chemical_formula_sum "Si O2"
_cell_formula_units_Z 16
_cell_length_a 6.376446
_cell_length_b 11.790749
_cell_length_c 11.031298
_cell_angle_alpha 123.003938
_cell_angle_beta 104.745399
_cell_angle_gamma 88.766822
_cell_volume 665.577722
_symmetry_space_group_name_H-M "P -1"
_symmetry_group_IT_number 2
_symmetry_cell_setting 'triclinic'
loop_
_space_group_symop_operation_xyz
x,y,z
-x,-y,-z
loop_
_atom_site_type_symbol
_atom_site_label
_atom_site_fract_x
_atom_site_fract_y
_atom_site_fract_z
Si Si1 0.668660 0.132005 0.134882
Si Si2 0.222390 0.443048 0.967896
Si Si3 0.849921 0.500446 0.599028
Si Si4 0.641870 0.112087 0.672168
Si Si5 0.451514 0.712131 0.019375
Si Si6 0.041576 0.717280 0.344008
Si Si7 0.937981 0.899772 0.652449
Si Si8 0.585028 0.711842 0.624412
O O1 0.537899 0.193838 0.257283
O O2 0.893720 0.100578 0.210848
O O3 0.680051 0.236333 0.083339
O O4 0.500000 0.000000 0.000000
O O5 0.340144 0.359733 0.038424
O O6 0.166066 0.316160 0.792271
O O7 0.347125 0.578943 0.002220
O O8 0.000000 0.500000 0.000000
O O9 0.970145 0.428596 0.677159
O O10 0.775278 0.646717 0.683316
O O11 0.615688 0.402451 0.506623
O O12 0.000000 0.500000 0.500000
O O13 0.531695 0.163369 0.807188
O O14 0.741391 0.240439 0.678770
O O15 0.500000 0.000000 0.500000
O O16 0.855654 0.043731 0.702980
O O17 0.035112 0.836394 0.510635
O O18 0.716544 0.795547 0.586067
#
# Coordination Sequence:
#
# PCOD9060552 Si02
#       8
#     2   2   2   2   2   2   2   2
#     4  12  29  46  74 104 153 198 249 311 365 452
#     4  11  26  48  73 107 148 194 238 308 372 452
#     4  11  23  43  72 110 145 181 241 309 369 442
#     4  12  27  48  80 107 148 200 249 312 368 447
#     4  11  28  49  71 110 149 191 253 298 378 443
#     4  12  25  45  79 105 147 189 247 307 376 436
#     4  12  27  49  73 111 147 195 258 305 375 442
#     4  11  24  44  71 104 146 189 237 304 374 438
#
# _framework density 24.039266000000001
#
# number of rings (size 3 to 8) (size 9 to 14) (size 15 to 20)
#    0.000    0.500    3.750    2.625    8.750    2.000 
#    0.000    0.000    0.000    0.000    0.000    0.000 
#    0.000    0.000    0.000    0.000    0.000    0.000 
#
# Total GULP energy -89275.911740 kJ/mol
# GULP energy per Si atom -5579.744484 kJ/mol
# Density = 2.398455 g / cm^3
# Si number density = 24.039266 Si / 1000 Ang^3
#
#
#
# Elastic Constant Matrix: (Units=GPa)
#
#
# Indices 1 2 3 4 5 6 
#
# 1 31.8530 55.8902 26.8816 -32.5448 -8.8258 -0.8062
# 2 55.8902 96.3872 3.3845 -6.9000 12.9644 -29.4376
# 3 26.8816 3.3845 67.0006 2.0795 14.6696 -17.5914
# 4 -32.5448 -6.9000 2.0795 26.2677 3.7084 11.5263
# 5 -8.8258 12.9644 14.6696 3.7084 30.4624 4.8325
# 6 -0.8062 -29.4376 -17.5914 11.5263 4.8325 50.3714
#
#
#
# Elastic Compliance Matrix: (Units=1/GPa)
#
#
# Indices 1 2 3 4 5 6 
#
# 1 -0.008810 0.009202 0.009254 -0.013146 -0.011318 0.012562
# 2 0.009202 0.005485 -0.005167 0.013818 0.001415 -0.001749
# 3 0.009254 -0.005167 0.011228 0.009909 -0.001564 -0.001068
# 4 -0.013146 0.013818 0.009909 0.023899 -0.018583 0.007640
# 5 -0.011318 0.001415 -0.001564 -0.018583 0.031754 0.001305
# 6 0.012562 -0.001749 -0.001068 0.007640 0.001305 0.016785
#
#
# Mechanical properties :
#
#
# Convention : Reuss Voigt Hill
#
# Bulk Modulus (GPa) = 29.00147 40.83927 34.92037
# Shear Modulus (GPa) = 76.62056 28.69261 52.65658
#
# Velocity S-wave (km/s) = 5.65175 3.45856 4.68529
# Velocity P-wave (km/s) = 7.39460 5.74233 6.62021
#
# Compressibility (1/GPa) = 0.03448101
#
# Stress axis : x y z
#
# Youngs Moduli (GPa) = -113.50382 182.30277 89.06497
#
# Poissons Ratio (x) = -1.67747 -0.82423
# Poissons Ratio (y) = 1.04441 0.46018
# Poissons Ratio (z) = 1.05040 0.94192
#
# Static dielectric constant tensor:
#      x y z
#    x 2.088230 -0.056890 0.055640 
#    y -0.056890 1.989330 -0.026260 
#    z 0.055640 -0.026260 1.959100 
# 
# From -- ./inp_files/365300.got.cif
#   From: 2010.05.17/outbox.cif.g08.bks.cpg/sg2_183_cif.got.tgz:365300.got - 2010.06.03 11:33:40.
