data_PCOD9060610
_publ_section_title
;
Structure prediction by ZEFSAII (Michael W. Deem and Ramdas Pophale) SiO2 
 PCOD9060610
Probable space group: P -1
;
_chemical_formula_sum "Si O2"
_cell_formula_units_Z 14
_cell_length_a 17.770925
_cell_length_b 8.767182
_cell_length_c 23.154956
_cell_angle_alpha 40.537223
_cell_angle_beta 20.870528
_cell_angle_gamma 31.529478
_cell_volume 659.092558
_symmetry_space_group_name_H-M "P -1"
_symmetry_group_IT_number 2
_symmetry_cell_setting 'triclinic'
loop_
_space_group_symop_operation_xyz
x,y,z
-x,-y,-z
loop_
_atom_site_type_symbol
_atom_site_label
_atom_site_fract_x
_atom_site_fract_y
_atom_site_fract_z
Si Si1 0.487899 0.044537 0.747250
Si Si2 0.760390 0.680925 0.275331
Si Si3 0.212780 0.894574 0.778865
Si Si4 0.315887 0.149588 0.144182
Si Si5 0.713216 0.389840 0.491510
Si Si6 0.655444 0.334980 0.995163
Si Si7 0.252848 0.357732 0.941486
O O1 0.404349 0.117397 0.719584
O O2 0.692736 0.121592 0.585873
O O3 0.269919 0.266958 0.888790
O O4 0.521209 0.747205 0.823769
O O5 0.641081 0.547976 0.435508
O O6 0.797809 0.867858 0.241219
O O7 0.030705 0.403706 0.130004
O O8 0.499318 0.658439 0.610485
O O9 0.190691 0.676231 0.896524
O O10 0.969806 0.047202 0.862285
O O11 0.015305 0.262796 0.322840
O O12 0.463552 0.914945 0.157818
O O13 0.321420 0.423322 0.066287
O O14 0.500000 0.000000 0.000000
O O15 0.500000 0.500000 0.000000
#
# Coordination Sequence:
#
# PCOD9060610 Si02
#       7
#     2   2   2   2   2   2   2
#     4  11  26  43  69 108 142 185 233 292 351 414
#     4  12  22  43  74 107 137 189 239 289 344 426
#     4  11  25  44  75 103 142 188 243 287 348 421
#     4  12  25  46  75 102 143 186 238 288 358 422
#     4  11  26  46  71 106 145 185 234 296 357 411
#     4  12  25  47  74 102 142 185 237 287 355 418
#     4  11  23  43  74 102 142 191 236 287 349 427
#
# _framework density 21.241325
#
# number of rings (size 3 to 8) (size 9 to 14) (size 15 to 20)
#    0.000    0.571    5.714    1.714    4.000    2.286 
#    2.571    0.714    0.000    0.000    0.000    0.000 
#    0.000    0.000    0.000    0.000    0.000    0.000 
#
# Total GULP energy -77987.892539 kJ/mol
# GULP energy per Si atom -5570.563753 kJ/mol
# Density = 2.119298 g / cm^3
# Si number density = 21.241325 Si / 1000 Ang^3
#
#
#
# Elastic Constant Matrix: (Units=GPa)
#
#
# Indices 1 2 3 4 5 6 
#
# 1 70.1345 34.9464 49.8843 -16.2391 3.8200 0.0111
# 2 34.9464 108.7901 57.9567 -20.9428 -35.3692 -23.3273
# 3 49.8843 57.9567 114.4325 -20.9300 10.4754 21.9013
# 4 -16.2391 -20.9428 -20.9300 34.9273 9.4722 4.0147
# 5 3.8200 -35.3692 10.4754 9.4722 16.0296 -23.8223
# 6 0.0111 -23.3273 21.9013 4.0147 -23.8223 30.5417
#
#
#
# Elastic Compliance Matrix: (Units=1/GPa)
#
#
# Indices 1 2 3 4 5 6 
#
# 1 0.022199 -0.001669 -0.008461 0.004341 -0.001593 0.002971
# 2 -0.001669 0.003775 0.003047 0.007538 -0.011614 -0.009350
# 3 -0.008461 0.003047 0.008579 -0.000831 0.011892 0.005563
# 4 0.004341 0.007538 -0.000831 0.033220 0.003391 0.004629
# 5 -0.001593 -0.011614 0.011892 0.003391 -0.005315 -0.021989
# 6 0.002971 -0.009350 0.005563 0.004629 -0.021989 0.003850
#
#
# Mechanical properties :
#
#
# Convention : Reuss Voigt Hill
#
# Bulk Modulus (GPa) = 49.04949 64.32576 56.68762
# Shear Modulus (GPa) = 57.29414 26.33770 41.81592
#
# Velocity S-wave (km/s) = 5.19918 3.52508 4.44172
# Velocity P-wave (km/s) = 7.69309 6.84962 7.28358
#
# Compressibility (1/GPa) = 0.02038757
#
# Stress axis : x y z
#
# Youngs Moduli (GPa) = 45.04665 264.88264 116.56902
#
# Poissons Ratio (x) = 0.44206 0.98626
# Poissons Ratio (y) = 0.07518 -0.35517
# Poissons Ratio (z) = 0.38113 -0.80707
#
# Static dielectric constant tensor:
#      x y z
#    x 1.832550 -0.057960 -0.026510 
#    y -0.057960 1.835810 0.003910 
#    z -0.026510 0.003910 1.783060 
# 
# From -- ./inp_files/557728.got.cif
#   From: 2010.05.17/outbox.cif.g08.bks.cpg/sg2_279_cif.got.tgz:557728.got - 2010.06.03 11:33:40.
