data_PCOD9060530
_publ_section_title
;
Structure prediction by ZEFSAII (Michael W. Deem and Ramdas Pophale) SiO2 
 PCOD9060530
Probable space group: P -1
;
_chemical_formula_sum "Si O2"
_cell_formula_units_Z 14
_cell_length_a 13.274827
_cell_length_b 9.991610
_cell_length_c 8.975622
_cell_angle_alpha 124.214079
_cell_angle_beta 126.709170
_cell_angle_gamma 47.043700
_cell_volume 673.699978
_symmetry_space_group_name_H-M "P -1"
_symmetry_group_IT_number 2
_symmetry_cell_setting 'triclinic'
loop_
_space_group_symop_operation_xyz
x,y,z
-x,-y,-z
loop_
_atom_site_type_symbol
_atom_site_label
_atom_site_fract_x
_atom_site_fract_y
_atom_site_fract_z
Si Si1 0.560867 0.453864 0.358719
Si Si2 0.095020 0.333698 0.601742
Si Si3 0.835897 0.938294 0.759021
Si Si4 0.089149 0.765315 0.075333
Si Si5 0.096839 0.771976 0.432234
Si Si6 0.661892 0.600240 0.056280
Si Si7 0.488460 0.817170 0.331940
O O1 0.500000 0.500000 0.500000
O O2 0.735868 0.310377 0.419972
O O3 0.525744 0.655443 0.386350
O O4 0.473419 0.366205 0.145254
O O5 0.190012 0.157658 0.465010
O O6 0.213736 0.343768 0.818779
O O7 0.000000 0.500000 0.500000
O O8 0.981884 0.308303 0.585179
O O9 0.917445 0.036868 0.819501
O O10 0.684165 0.085337 0.793794
O O11 0.945144 0.790877 0.885477
O O12 0.105104 0.711517 0.228275
O O13 0.227978 0.624363 0.008256
O O14 0.000000 0.000000 0.500000
O O15 0.590198 0.694396 0.208338
O O16 0.500000 0.000000 0.500000
#
# Coordination Sequence:
#
# PCOD9060530 Si02
#       7
#     2   2   2   2   2   2   2
#     4  12  27  49  73 105 151 189 240 302 363 427
#     4  12  25  46  73 108 147 188 240 301 357 432
#     4  11  23  43  72 104 144 185 244 294 357 433
#     4  11  24  44  73 103 139 193 242 296 354 436
#     4  12  27  48  76 103 144 194 242 293 364 429
#     4  12  25  45  70 107 145 187 241 294 361 425
#     4  12  26  45  75 106 141 192 239 297 363 427
#
# _framework density 20.780761999999999
#
# number of rings (size 3 to 8) (size 9 to 14) (size 15 to 20)
#    0.000    0.286    7.143    1.286    2.000    0.571 
#    2.571    1.429    0.000    0.000    0.000    0.000 
#    0.000    0.000    0.000    0.000    0.000    0.000 
#
# Total GULP energy -78054.136972 kJ/mol
# GULP energy per Si atom -5575.295498 kJ/mol
# Density = 2.073346 g / cm^3
# Si number density = 20.780762 Si / 1000 Ang^3
#
#
#
# Elastic Constant Matrix: (Units=GPa)
#
#
# Indices 1 2 3 4 5 6 
#
# 1 156.1156 62.7539 63.7779 -15.4149 8.3477 -11.0453
# 2 62.7539 92.0026 48.5372 -13.6511 0.6319 -18.5730
# 3 63.7779 48.5372 142.3846 -0.5384 16.6507 3.1448
# 4 -15.4149 -13.6511 -0.5384 35.0599 -12.7275 6.5096
# 5 8.3477 0.6319 16.6507 -12.7275 41.5010 -1.3814
# 6 -11.0453 -18.5730 3.1448 6.5096 -1.3814 39.3604
#
#
#
# Elastic Compliance Matrix: (Units=1/GPa)
#
#
# Indices 1 2 3 4 5 6 
#
# 1 0.009678 -0.004785 -0.002691 0.002263 -0.000090 0.000295
# 2 -0.004785 0.019057 -0.005036 0.005570 0.004644 0.007294
# 3 -0.002691 -0.005036 0.010594 -0.004162 -0.005024 -0.003466
# 4 0.002263 0.005570 -0.004162 0.036436 0.012237 -0.002001
# 5 -0.000090 0.004644 -0.005024 0.012237 0.029865 0.001592
# 6 0.000295 0.007294 -0.003466 -0.002001 0.001592 0.029594
#
#
# Mechanical properties :
#
#
# Convention : Reuss Voigt Hill
#
# Bulk Modulus (GPa) = 69.91175 82.29342 76.10258
# Shear Modulus (GPa) = 30.30000 37.54652 33.92326
#
# Velocity S-wave (km/s) = 3.82262 4.25525 4.04472
# Velocity P-wave (km/s) = 7.29375 7.98934 7.64946
#
# Compressibility (1/GPa) = 0.01430375
#
# Stress axis : x y z
#
# Youngs Moduli (GPa) = 103.33177 52.47382 94.39629
#
# Poissons Ratio (x) = 0.25110 0.25402
# Poissons Ratio (y) = 0.49447 0.47538
# Poissons Ratio (z) = 0.27807 0.26426
#
# Static dielectric constant tensor:
#      x y z
#    x 1.743730 -0.003500 0.040190 
#    y -0.003500 1.760260 0.015040 
#    z 0.040190 0.015040 1.810820 
# 
# From -- ./inp_files/245639.got.cif
#   From: 2010.05.17/outbox.cif.g08.bks.cpg/sg2_123_cif.got.tgz:245639.got - 2010.06.03 11:33:40.
