data_PCOD9060384
_publ_section_title
;
Structure prediction by ZEFSAII (Michael W. Deem and Ramdas Pophale) SiO2 
 PCOD9060384
Probable space group: P -1
;
_chemical_formula_sum "Si O2"
_cell_formula_units_Z 12
_cell_length_a 8.292852
_cell_length_b 8.511004
_cell_length_c 13.276659
_cell_angle_alpha 138.236253
_cell_angle_beta 127.412769
_cell_angle_gamma 52.722698
_cell_volume 474.703928
_symmetry_space_group_name_H-M "P -1"
_symmetry_group_IT_number 2
_symmetry_cell_setting 'triclinic'
loop_
_space_group_symop_operation_xyz
x,y,z
-x,-y,-z
loop_
_atom_site_type_symbol
_atom_site_label
_atom_site_fract_x
_atom_site_fract_y
_atom_site_fract_z
Si Si1 0.410529 0.843375 0.469134
Si Si2 0.405913 0.952490 0.835737
Si Si3 0.814246 0.516343 0.745128
Si Si4 0.596616 0.745634 0.201797
Si Si5 0.837250 0.419504 0.473885
Si Si6 0.151022 0.756250 0.992418
O O1 0.241965 0.696001 0.313840
O O2 0.615790 0.631767 0.480758
O O3 0.500000 0.000000 0.500000
O O4 0.318548 0.050074 0.615748
O O5 0.602286 0.743876 0.760520
O O6 0.212554 0.831075 0.701873
O O7 0.369451 0.199091 0.875256
O O8 0.500000 0.000000 0.000000
O O9 0.883254 0.419348 0.611210
O O10 0.985753 0.627964 0.914767
O O11 0.712854 0.462494 0.135184
O O12 0.343112 0.805075 0.151384
O O13 0.000000 0.500000 0.500000
O O14 0.000000 0.000000 0.000000
#
# Coordination Sequence:
#
# PCOD9060384 Si02
#       6
#     2   2   2   2   2   2
#     4  11  24  45  70 105 142 188 248 298 363 437
#     4  11  23  43  70 104 146 193 242 296 367 430
#     4  11  23  47  71  97 152 192 237 311 358 425
#     4  11  24  45  71 103 148 190 238 304 360 433
#     4  11  24  41  70 105 144 190 243 299 364 428
#     4  11  24  41  74 102 139 191 235 289 373 427
#
# _framework density 25.278915000000001
#
# number of rings (size 3 to 8) (size 9 to 14) (size 15 to 20)
#    0.000    1.000    5.000    1.000    4.667    7.333 
#    0.000    1.667    0.000    0.000    0.000    0.000 
#    0.000    0.000    0.000    0.000    0.000    0.000 
#
# Total GULP energy -67047.524690 kJ/mol
# GULP energy per Si atom -5587.293724 kJ/mol
# Density = 2.522138 g / cm^3
# Si number density = 25.278915 Si / 1000 Ang^3
#
#
#
# Elastic Constant Matrix: (Units=GPa)
#
#
# Indices 1 2 3 4 5 6 
#
# 1 121.7822 35.6177 49.5727 3.4981 35.5383 14.7541
# 2 35.6177 132.4676 29.8835 27.8731 10.3599 -16.5220
# 3 49.5727 29.8835 114.8894 24.3988 32.3717 14.2233
# 4 3.4981 27.8731 24.3988 28.2704 11.2831 -0.5805
# 5 35.5383 10.3599 32.3717 11.2831 57.7095 0.9959
# 6 14.7541 -16.5220 14.2233 -0.5805 0.9959 52.4999
#
#
#
# Elastic Compliance Matrix: (Units=1/GPa)
#
#
# Indices 1 2 3 4 5 6 
#
# 1 0.013409 -0.004513 -0.004123 0.008995 -0.006827 -0.003843
# 2 -0.004513 0.011643 0.000069 -0.012051 0.002925 0.004725
# 3 -0.004123 0.000069 0.013883 -0.010318 -0.003199 -0.002634
# 4 0.008995 -0.012051 -0.010318 0.058580 -0.008995 -0.002707
# 5 -0.006827 0.002925 -0.003199 -0.008995 0.024506 0.003141
# 6 -0.003843 0.004725 -0.002634 -0.002707 0.003141 0.022239
#
#
# Mechanical properties :
#
#
# Convention : Reuss Voigt Hill
#
# Bulk Modulus (GPa) = 45.86751 66.58744 56.22748
# Shear Modulus (GPa) = 29.64509 44.63365 37.13937
#
# Velocity S-wave (km/s) = 3.42822 4.20652 3.83715
# Velocity P-wave (km/s) = 5.81843 7.07046 6.47478
#
# Compressibility (1/GPa) = 0.02180192
#
# Stress axis : x y z
#
# Youngs Moduli (GPa) = 74.57693 85.88620 72.02826
#
# Poissons Ratio (x) = 0.38763 0.29694
# Poissons Ratio (y) = 0.33659 -0.00497
# Poissons Ratio (z) = 0.30745 -0.00593
#
# Static dielectric constant tensor:
#      x y z
#    x 2.056260 -0.022500 0.010820 
#    y -0.022500 1.997710 -0.026810 
#    z 0.010820 -0.026810 1.974970 
# 
# From -- ./inp_files/494131.got.cif
#   From: 2010.05.17/outbox.cif.g08.bks.cpg/sg2_248_cif.got.tgz:494131.got - 2010.06.03 11:33:40.
