data_PCOD9060046
_publ_section_title
;
Structure prediction by ZEFSAII (Michael W. Deem and Ramdas Pophale) SiO2 
 PCOD9060046
Probable space group: P -1
;
_chemical_formula_sum "Si O2"
_cell_formula_units_Z 14
_cell_length_a 8.481921
_cell_length_b 11.158308
_cell_length_c 16.449069
_cell_angle_alpha 137.650557
_cell_angle_beta 146.246635
_cell_angle_gamma 51.510650
_cell_volume 582.571227
_symmetry_space_group_name_H-M "P -1"
_symmetry_group_IT_number 2
_symmetry_cell_setting 'triclinic'
loop_
_space_group_symop_operation_xyz
x,y,z
-x,-y,-z
loop_
_atom_site_type_symbol
_atom_site_label
_atom_site_fract_x
_atom_site_fract_y
_atom_site_fract_z
Si Si1 0.619026 0.770981 0.849051
Si Si2 0.918282 0.522561 0.070797
Si Si3 0.211258 0.840520 0.857265
Si Si4 0.733464 0.509495 0.220562
Si Si5 0.702362 0.325267 0.493824
Si Si6 0.216704 0.862069 0.403545
Si Si7 0.760074 0.783264 0.496586
O O1 0.476354 0.781708 0.882990
O O2 0.379751 0.752369 0.668225
O O3 0.842402 0.608511 0.853599
O O4 0.762193 0.961506 0.999696
O O5 0.956041 0.731219 0.211944
O O6 0.599862 0.463025 0.925440
O O7 0.000000 0.500000 0.000000
O O8 0.196008 0.698371 0.850808
O O9 0.949277 0.825308 0.676145
O O10 0.789072 0.587438 0.374187
O O11 0.973924 0.610973 0.326589
O O12 0.500000 0.500000 0.500000
O O13 0.660487 0.186840 0.479727
O O14 0.439691 0.803002 0.400134
O O15 0.179421 0.070016 0.473468
#
# Coordination Sequence:
#
# PCOD9060046 Si02
#       7
#     2   2   2   2   2   2   2
#     4  11  24  43  72 103 147 182 236 295 357 407
#     4  12  22  43  71 109 140 184 238 301 343 415
#     4  11  23  42  74 108 135 184 248 292 340 422
#     4  12  26  42  76 104 143 186 244 284 357 424
#     4  12  26  50  69 105 147 195 226 296 364 426
#     4  11  25  43  73 101 150 180 236 298 361 416
#     4  11  23  44  75 109 128 192 248 290 346 429
#
# _framework density 24.031396999999998
#
# number of rings (size 3 to 8) (size 9 to 14) (size 15 to 20)
#    0.000    0.571    5.714    2.143    4.000    1.143 
#    0.000    4.286    0.000    0.000    0.000    0.000 
#    0.000    0.000    0.000    0.000    0.000    0.000 
#
# Total GULP energy -78328.310817 kJ/mol
# GULP energy per Si atom -5594.879344 kJ/mol
# Density = 2.397670 g / cm^3
# Si number density = 24.031397 Si / 1000 Ang^3
#
#
#
# Elastic Constant Matrix: (Units=GPa)
#
#
# Indices 1 2 3 4 5 6 
#
# 1 67.7690 28.9736 21.2334 -5.5890 11.3712 11.8982
# 2 28.9736 89.3938 30.4180 -5.1172 16.9689 19.2008
# 3 21.2334 30.4180 124.5460 -5.3532 24.6532 1.6783
# 4 -5.5890 -5.1172 -5.3532 40.9562 -1.2187 -2.2479
# 5 11.3712 16.9689 24.6532 -1.2187 35.6950 -2.7128
# 6 11.8982 19.2008 1.6783 -2.2479 -2.7128 32.1978
#
#
#
# Elastic Compliance Matrix: (Units=1/GPa)
#
#
# Indices 1 2 3 4 5 6 
#
# 1 0.018298 -0.003723 -0.001413 0.001491 -0.003385 -0.004649
# 2 -0.003723 0.016014 -0.002016 0.000594 -0.005661 -0.008505
# 3 -0.001413 -0.002016 0.009831 0.000727 -0.005294 0.000817
# 4 0.001491 0.000594 0.000727 0.024820 -0.000355 0.000760
# 5 -0.003385 -0.005661 -0.005294 -0.000355 0.036030 0.007914
# 6 -0.004649 -0.008505 0.000817 0.000760 0.007914 0.038525
#
#
# Mechanical properties :
#
#
# Convention : Reuss Voigt Hill
#
# Bulk Modulus (GPa) = 33.51407 49.21764 41.36585
# Shear Modulus (GPa) = 29.80290 35.17539 32.48915
#
# Velocity S-wave (km/s) = 3.52542 3.83002 3.68087
# Velocity P-wave (km/s) = 5.52699 6.33117 5.94270
#
# Compressibility (1/GPa) = 0.02983822
#
# Stress axis : x y z
#
# Youngs Moduli (GPa) = 54.65131 62.44417 101.72244
#
# Poissons Ratio (x) = 0.23249 0.14377
# Poissons Ratio (y) = 0.20347 0.20505
# Poissons Ratio (z) = 0.07724 0.12587
#
# Static dielectric constant tensor:
#      x y z
#    x 1.961780 -0.002690 0.017110 
#    y -0.002690 1.874080 -0.031830 
#    z 0.017110 -0.031830 1.905980 
# 
# From -- ./inp_files/494345.got.cif
#   From: 2010.05.17/outbox.cif.g08.bks.cpg/sg2_248_cif.got.tgz:494345.got - 2010.06.03 11:33:40.
