data_PCOD9060196
_publ_section_title
;
Structure prediction by ZEFSAII (Michael W. Deem and Ramdas Pophale) SiO2 
 PCOD9060196
Probable space group: P -1
;
_chemical_formula_sum "Si O2"
_cell_formula_units_Z 14
_cell_length_a 16.657565
_cell_length_b 5.128467
_cell_length_c 9.200792
_cell_angle_alpha 104.150320
_cell_angle_beta 68.112387
_cell_angle_gamma 126.970807
_cell_volume 582.487019
_symmetry_space_group_name_H-M "P -1"
_symmetry_group_IT_number 2
_symmetry_cell_setting 'triclinic'
loop_
_space_group_symop_operation_xyz
x,y,z
-x,-y,-z
loop_
_atom_site_type_symbol
_atom_site_label
_atom_site_fract_x
_atom_site_fract_y
_atom_site_fract_z
Si Si1 0.597439 0.464225 0.662214
Si Si2 0.184848 0.326294 0.357020
Si Si3 0.046368 0.677919 0.212126
Si Si4 0.298998 0.366378 0.700595
Si Si5 0.140444 0.820909 0.553405
Si Si6 0.487173 0.833974 0.827635
Si Si7 0.100442 0.356263 0.931679
O O1 0.696067 0.562799 0.711811
O O2 0.632563 0.469708 0.471937
O O3 0.565777 0.718892 0.739795
O O4 0.509162 0.106191 0.731117
O O5 0.175859 0.628310 0.409255
O O6 0.110222 0.056522 0.254596
O O7 0.145800 0.112802 0.504162
O O8 0.978187 0.435311 0.353796
O O9 0.952348 0.572051 0.151519
O O10 0.123700 0.598884 0.079896
O O11 0.376375 0.507584 0.805551
O O12 0.204439 0.398095 0.812365
O O13 0.228012 0.987777 0.645090
O O14 0.500000 0.000000 0.000000
O O15 0.000000 0.000000 0.000000
#
# Coordination Sequence:
#
# PCOD9060196 Si02
#       7
#     2   2   2   2   2   2   2
#     4  11  25  49  72 112 141 192 246 292 364 441
#     4  11  25  41  75 101 147 184 241 299 357 416
#     4  11  24  41  66 101 150 187 245 291 351 428
#     4  11  25  48  79 100 153 193 241 300 364 436
#     4  11  23  43  67 108 135 198 237 289 359 434
#     4  12  28  49  77 110 143 184 245 309 369 426
#     4  11  25  44  66 106 145 197 242 287 363 433
#
# _framework density 24.034866000000001
#
# number of rings (size 3 to 8) (size 9 to 14) (size 15 to 20)
#    0.000    0.857    1.429    5.571    4.000    4.571 
#    0.000    0.000    0.000    0.000    0.000    0.000 
#    0.000    0.000    0.000    0.000    0.000    0.000 
#
# Total GULP energy -78216.975911 kJ/mol
# GULP energy per Si atom -5586.926851 kJ/mol
# Density = 2.398016 g / cm^3
# Si number density = 24.034866 Si / 1000 Ang^3
#
#
#
# Elastic Constant Matrix: (Units=GPa)
#
#
# Indices 1 2 3 4 5 6 
#
# 1 87.5563 16.4759 58.8644 15.7583 -16.6153 12.6878
# 2 16.4759 87.3234 49.0410 27.8060 1.8164 9.7363
# 3 58.8644 49.0410 146.5689 27.6359 -19.6878 5.9344
# 4 15.7583 27.8060 27.6359 42.6689 -5.2888 14.4773
# 5 -16.6153 1.8164 -19.6878 -5.2888 40.0878 6.0049
# 6 12.6878 9.7363 5.9344 14.4773 6.0049 40.3606
#
#
#
# Elastic Compliance Matrix: (Units=1/GPa)
#
#
# Indices 1 2 3 4 5 6 
#
# 1 0.017217 0.000936 -0.006280 -0.000544 0.004720 -0.005222
# 2 0.000936 0.016872 -0.004920 -0.008661 -0.003943 0.000052
# 3 -0.006280 -0.004920 0.011736 -0.002363 0.002792 0.001868
# 4 -0.000544 -0.008661 -0.002363 0.035117 0.005252 -0.010770
# 5 0.004720 -0.003943 0.002792 0.005252 0.030242 -0.007327
# 6 -0.005222 0.000052 0.001868 -0.010770 -0.007327 0.031084
#
#
# Mechanical properties :
#
#
# Convention : Reuss Voigt Hill
#
# Bulk Modulus (GPa) = 39.52973 63.35678 51.44325
# Shear Modulus (GPa) = 29.20055 37.76129 33.48092
#
# Velocity S-wave (km/s) = 3.48936 3.96802 3.73636
# Velocity P-wave (km/s) = 5.71985 6.88557 6.32961
#
# Compressibility (1/GPa) = 0.02529742
#
# Stress axis : x y z
#
# Youngs Moduli (GPa) = 58.08054 59.26943 85.20771
#
# Poissons Ratio (x) = -0.05545 0.53508
# Poissons Ratio (y) = -0.05434 0.41921
# Poissons Ratio (z) = 0.36473 0.29160
#
# Static dielectric constant tensor:
#      x y z
#    x 1.929590 0.017230 0.053350 
#    y 0.017230 1.987980 -0.094490 
#    z 0.053350 -0.094490 2.127500 
# 
# From -- ./inp_files/323972.got.cif
#   From: 2010.05.17/outbox.cif.g08.bks.cpg/sg2_162_cif.got.tgz:323972.got - 2010.06.03 11:33:40.
