data_PCOD9060454
_publ_section_title
;
Structure prediction by ZEFSAII (Michael W. Deem and Ramdas Pophale) SiO2 
 PCOD9060454
Probable space group: P -1
;
_chemical_formula_sum "Si O2"
_cell_formula_units_Z 16
_cell_length_a 5.716936
_cell_length_b 8.339247
_cell_length_c 17.678004
_cell_angle_alpha 65.455171
_cell_angle_beta 58.399506
_cell_angle_gamma 65.322508
_cell_volume 630.868575
_symmetry_space_group_name_H-M "P -1"
_symmetry_group_IT_number 2
_symmetry_cell_setting 'triclinic'
loop_
_space_group_symop_operation_xyz
x,y,z
-x,-y,-z
loop_
_atom_site_type_symbol
_atom_site_label
_atom_site_fract_x
_atom_site_fract_y
_atom_site_fract_z
Si Si1 0.691613 0.555913 0.670082
Si Si2 0.863227 0.981636 0.777646
Si Si3 0.231165 0.672721 0.519946
Si Si4 0.888545 0.307661 0.809060
Si Si5 0.525372 0.219027 0.682684
Si Si6 0.691851 0.098181 0.399006
Si Si7 0.236546 0.807085 0.995209
Si Si8 0.925428 0.697691 0.934322
O O1 0.611390 0.387972 0.674992
O O2 0.489971 0.752885 0.655039
O O3 0.968939 0.585751 0.575387
O O4 0.704289 0.490862 0.767087
O O5 0.082842 0.026614 0.670666
O O6 0.963959 0.775324 0.829204
O O7 0.811692 0.122613 0.829143
O O8 0.581747 0.043522 0.762420
O O9 0.500000 0.500000 0.500000
O O10 0.299324 0.809907 0.418907
O O11 0.188582 0.780733 0.584788
O O12 0.189547 0.288342 0.721744
O O13 0.881490 0.313247 0.899061
O O14 0.500000 0.000000 0.500000
O O15 0.567328 0.777772 0.974638
O O16 0.165322 0.762322 0.930763
O O17 0.000000 0.000000 0.000000
O O18 0.000000 0.500000 0.000000
#
# Coordination Sequence:
#
# PCOD9060454 Si02
#       8
#     2   2   2   2   2   2   2   2
#     4  11  24  41  69  99 139 189 241 300 361 441
#     4  11  27  45  71 104 150 188 241 307 376 445
#     4  12  23  43  67 100 140 191 243 297 360 442
#     4  11  24  43  75 107 136 190 246 310 360 455
#     4  11  23  43  71 102 140 186 248 301 368 436
#     4  12  27  44  68 106 147 192 237 300 376 441
#     4  12  26  50  84 112 150 201 266 309 387 461
#     4  12  29  52  78 117 160 202 249 329 394 462
#
# _framework density 25.36186
#
# number of rings (size 3 to 8) (size 9 to 14) (size 15 to 20)
#    0.000    0.500    3.750    3.375    7.000    4.000 
#    0.000    0.000    0.000    0.000    0.000    0.000 
#    0.000    0.000    0.000    0.000    0.000    0.000 
#
# Total GULP energy -89149.943506 kJ/mol
# GULP energy per Si atom -5571.871469 kJ/mol
# Density = 2.530414 g / cm^3
# Si number density = 25.361860 Si / 1000 Ang^3
#
#
#
# Elastic Constant Matrix: (Units=GPa)
#
#
# Indices 1 2 3 4 5 6 
#
# 1 92.6656 33.1284 28.8448 -11.5996 5.4221 -17.3568
# 2 33.1284 58.2143 15.3943 -21.6817 5.0848 -20.6292
# 3 28.8448 15.3943 120.7514 -24.8207 13.9206 -15.8868
# 4 -11.5996 -21.6817 -24.8207 46.4600 -14.1197 10.2012
# 5 5.4221 5.0848 13.9206 -14.1197 51.7021 -13.9283
# 6 -17.3568 -20.6292 -15.8868 10.2012 -13.9283 37.9041
#
#
#
# Elastic Compliance Matrix: (Units=1/GPa)
#
#
# Indices 1 2 3 4 5 6 
#
# 1 0.014413 -0.007478 -0.002586 -0.001698 -0.000034 0.001891
# 2 -0.007478 0.028800 0.001431 0.010964 0.003582 0.011215
# 3 -0.002586 0.001431 0.010061 0.004685 -0.000679 0.002301
# 4 -0.001698 0.010964 0.004685 0.030398 0.006507 0.001363
# 5 -0.000034 0.003582 -0.000679 0.006507 0.023224 0.008432
# 6 0.001891 0.011215 0.002301 0.001363 0.008432 0.037048
#
#
# Mechanical properties :
#
#
# Convention : Reuss Voigt Hill
#
# Bulk Modulus (GPa) = 27.77164 47.37406 37.57285
# Shear Modulus (GPa) = 28.86607 40.16414 34.51511
#
# Velocity S-wave (km/s) = 3.37734 3.98382 3.69305
# Velocity P-wave (km/s) = 5.11688 6.31513 5.74732
#
# Compressibility (1/GPa) = 0.03600796
#
# Stress axis : x y z
#
# Youngs Moduli (GPa) = 69.37948 34.72223 99.39452
#
# Poissons Ratio (x) = 0.25965 0.25704
# Poissons Ratio (y) = 0.51882 -0.14223
# Poissons Ratio (z) = 0.17942 -0.04968
#
# Static dielectric constant tensor:
#      x y z
#    x 2.028100 -0.174340 -0.051680 
#    y -0.174340 2.026710 -0.013230 
#    z -0.051680 -0.013230 2.051520 
# 
# From -- ./inp_files/37253.got.cif
#   From: 2010.05.17/outbox.cif.g08.bks.cpg/sg2_19_cif.got.tgz:37253.got - 2010.06.03 11:33:40.
