data_PCOD9060494
_publ_section_title
;
Structure prediction by ZEFSAII (Michael W. Deem and Ramdas Pophale) SiO2 
 PCOD9060494
Probable space group: P -1
;
_chemical_formula_sum "Si O2"
_cell_formula_units_Z 16
_cell_length_a 15.090392
_cell_length_b 9.072635
_cell_length_c 12.459359
_cell_angle_alpha 77.633451
_cell_angle_beta 117.950288
_cell_angle_gamma 147.295658
_cell_volume 753.864340
_symmetry_space_group_name_H-M "P -1"
_symmetry_group_IT_number 2
_symmetry_cell_setting 'triclinic'
loop_
_space_group_symop_operation_xyz
x,y,z
-x,-y,-z
loop_
_atom_site_type_symbol
_atom_site_label
_atom_site_fract_x
_atom_site_fract_y
_atom_site_fract_z
Si Si1 0.349583 0.228707 0.378155
Si Si2 0.574528 0.861155 0.768745
Si Si3 0.062158 0.616175 0.397160
Si Si4 0.329353 0.722003 0.811727
Si Si5 0.117124 0.228113 0.199205
Si Si6 0.361546 0.624943 0.082199
Si Si7 0.709919 0.294165 0.633812
Si Si8 0.324606 0.277033 0.018099
O O1 0.500000 0.500000 0.500000
O O2 0.454834 0.282763 0.329171
O O3 0.194623 0.156225 0.262204
O O4 0.244157 0.962120 0.428636
O O5 0.385787 0.682404 0.752647
O O6 0.692998 0.910927 0.911452
O O7 0.697342 0.159493 0.745838
O O8 0.122163 0.544678 0.377305
O O9 0.000000 0.500000 0.500000
O O10 0.881254 0.475930 0.271448
O O11 0.477005 0.054220 0.829118
O O12 0.350586 0.666741 0.946537
O O13 0.177361 0.383104 0.095421
O O14 0.230008 0.468817 0.318093
O O15 0.882294 0.937104 0.114883
O O16 0.400033 0.496840 0.113337
O O17 0.500000 0.000000 0.500000
O O18 0.500000 0.500000 0.000000
#
# Coordination Sequence:
#
# PCOD9060494 Si02
#       8
#     2   2   2   2   2   2   2   2
#     4  11  26  46  71 101 135 187 240 290 353 421
#     4  11  23  43  71  94 138 177 228 287 342 420
#     4  11  26  44  71  96 136 178 233 291 350 408
#     4  11  24  43  68 103 135 183 229 283 345 422
#     4  12  25  44  73 100 140 186 228 286 360 417
#     4  11  24  42  69  97 146 178 225 281 350 416
#     4  11  25  47  70  98 132 181 238 287 347 421
#     4  12  26  42  67 103 141 178 231 289 349 419
#
# _framework density 21.223979
#
# number of rings (size 3 to 8) (size 9 to 14) (size 15 to 20)
#    0.000    0.750    3.750    3.375    7.000    0.500 
#    0.000    1.250    0.000    0.000    0.000    0.000 
#    0.000    0.000    0.000    0.000    0.000    0.000 
#
# Total GULP energy -89309.441378 kJ/mol
# GULP energy per Si atom -5581.840086 kJ/mol
# Density = 2.117567 g / cm^3
# Si number density = 21.223979 Si / 1000 Ang^3
#
#
#
# Elastic Constant Matrix: (Units=GPa)
#
#
# Indices 1 2 3 4 5 6 
#
# 1 151.4545 35.0057 35.6969 6.9635 -22.7970 15.0193
# 2 35.0057 92.9111 28.8555 -4.2396 -10.6530 3.8850
# 3 35.6969 28.8555 44.5890 -7.8350 -8.9273 7.6837
# 4 6.9635 -4.2396 -7.8350 31.4748 -0.1027 1.4494
# 5 -22.7970 -10.6530 -8.9273 -0.1027 38.7769 -7.2137
# 6 15.0193 3.8850 7.6837 1.4494 -7.2137 45.9316
#
#
#
# Elastic Compliance Matrix: (Units=1/GPa)
#
#
# Indices 1 2 3 4 5 6 
#
# 1 0.009171 -0.001225 -0.006319 -0.003701 0.003368 -0.001192
# 2 -0.001225 0.013769 -0.007745 0.000168 0.001419 0.000749
# 3 -0.006319 -0.007745 0.034993 0.009217 0.001649 -0.003164
# 4 -0.003701 0.000168 0.009217 0.034975 -0.000190 -0.001479
# 5 0.003368 0.001419 0.001649 -0.000190 0.029111 0.003081
# 6 -0.001192 0.000749 -0.003164 -0.001479 0.003081 0.023158
#
#
# Mechanical properties :
#
#
# Convention : Reuss Voigt Hill
#
# Bulk Modulus (GPa) = 36.55844 54.23010 45.39427
# Shear Modulus (GPa) = 27.04545 35.86309 31.45427
#
# Velocity S-wave (km/s) = 3.57359 4.11511 3.85387
# Velocity P-wave (km/s) = 5.85575 6.94159 6.42166
#
# Compressibility (1/GPa) = 0.02735347
#
# Stress axis : x y z
#
# Youngs Moduli (GPa) = 109.04267 72.62641 28.57692
#
# Poissons Ratio (x) = 0.08900 0.18059
# Poissons Ratio (y) = 0.13362 0.22133
# Poissons Ratio (z) = 0.68908 0.56249
#
# Static dielectric constant tensor:
#      x y z
#    x 1.989100 -0.079500 0.345980 
#    y -0.079500 1.806830 -0.168530 
#    z 0.345980 -0.168530 2.474910 
# 
# From -- ./inp_files/188778.got.cif
#   From: 2010.05.17/outbox.cif.g08.bks.cpg/sg2_95_cif.got.tgz:188778.got - 2010.06.03 11:33:40.
