data_PCOD9060208
_publ_section_title
;
Structure prediction by ZEFSAII (Michael W. Deem and Ramdas Pophale) SiO2 
 PCOD9060208
Probable space group: P -1
;
_chemical_formula_sum "Si O2"
_cell_formula_units_Z 12
_cell_length_a 7.963824
_cell_length_b 5.159164
_cell_length_c 16.757992
_cell_angle_alpha 115.703219
_cell_angle_beta 56.561526
_cell_angle_gamma 86.212566
_cell_volume 473.192541
_symmetry_space_group_name_H-M "P -1"
_symmetry_group_IT_number 2
_symmetry_cell_setting 'triclinic'
loop_
_space_group_symop_operation_xyz
x,y,z
-x,-y,-z
loop_
_atom_site_type_symbol
_atom_site_label
_atom_site_fract_x
_atom_site_fract_y
_atom_site_fract_z
Si Si1 0.696811 0.090805 0.162712
Si Si2 0.879745 0.619490 0.189827
Si Si3 0.482828 0.846022 0.564897
Si Si4 0.766134 0.276109 0.819016
Si Si5 0.777082 0.791423 0.626179
Si Si6 0.334073 0.848175 0.002677
O O1 0.768957 0.375343 0.201733
O O2 0.430791 0.220538 0.267747
O O3 0.755986 0.039056 0.046520
O O4 0.830536 0.762342 0.131238
O O5 0.104200 0.504680 0.166976
O O6 0.752344 0.951503 0.310888
O O7 0.500000 0.500000 0.500000
O O8 0.651860 0.892010 0.588632
O O9 0.500000 0.000000 0.500000
O O10 0.504572 0.476671 0.901303
O O11 0.839705 0.036524 0.693943
O O12 0.800189 0.123689 0.877929
O O13 0.000000 0.500000 0.500000
O O14 0.500000 0.000000 0.000000
#
# Coordination Sequence:
#
# PCOD9060208 Si02
#       6
#     2   2   2   2   2   2
#     4  11  25  47  71 105 145 191 232 296 356 420
#     4  11  26  45  70 104 147 181 241 292 357 425
#     4  11  23  43  67  97 140 186 230 288 348 416
#     4  11  26  45  72 108 139 192 238 295 355 424
#     4  11  24  47  76 106 143 188 240 292 358 430
#     4  11  24  46  74  99 148 184 243 294 352 423
#
# _framework density 25.359653000000002
#
# number of rings (size 3 to 8) (size 9 to 14) (size 15 to 20)
#    0.000    1.000    1.667    5.000    4.667    2.667 
#    0.000   10.833    0.000    0.000    0.000    0.000 
#    0.000    0.000    0.000    0.000    0.000    0.000 
#
# Total GULP energy -66982.700277 kJ/mol
# GULP energy per Si atom -5581.891690 kJ/mol
# Density = 2.530193 g / cm^3
# Si number density = 25.359653 Si / 1000 Ang^3
#
#
#
# Elastic Constant Matrix: (Units=GPa)
#
#
# Indices 1 2 3 4 5 6 
#
# 1 160.3468 31.7058 44.8092 -1.5841 11.8377 3.5887
# 2 31.7058 109.9439 30.9246 -1.1698 11.3194 -1.2948
# 3 44.8092 30.9246 156.4178 6.1136 23.1440 -10.1687
# 4 -1.5841 -1.1698 6.1136 37.5671 -6.6969 11.5706
# 5 11.8377 11.3194 23.1440 -6.6969 47.3695 7.4757
# 6 3.5887 -1.2948 -10.1687 11.5706 7.4757 55.4173
#
#
#
# Elastic Compliance Matrix: (Units=1/GPa)
#
#
# Indices 1 2 3 4 5 6 
#
# 1 0.007083 -0.001516 -0.001780 0.000783 -0.000278 -0.000947
# 2 -0.001516 0.010057 -0.001338 0.000144 -0.001389 0.000245
# 3 -0.001780 -0.001338 0.008057 -0.002986 -0.004025 0.002729
# 4 0.000783 0.000144 -0.002986 0.030811 0.006839 -0.007951
# 5 -0.000278 -0.001389 -0.004025 0.006839 0.025329 -0.005598
# 6 -0.000947 0.000245 0.002729 -0.007951 -0.005598 0.021028
#
#
# Mechanical properties :
#
#
# Convention : Reuss Voigt Hill
#
# Bulk Modulus (GPa) = 62.78363 71.28752 67.03558
# Shear Modulus (GPa) = 42.75587 49.35537 46.05562
#
# Velocity S-wave (km/s) = 4.11052 4.41638 4.26619
# Velocity P-wave (km/s) = 6.88038 7.36054 7.12450
#
# Compressibility (1/GPa) = 0.01592772
#
# Stress axis : x y z
#
# Youngs Moduli (GPa) = 141.17792 99.43775 124.10976
#
# Poissons Ratio (x) = 0.15076 0.22098
# Poissons Ratio (y) = 0.21404 0.16608
# Poissons Ratio (z) = 0.25137 0.13306
#
# Static dielectric constant tensor:
#      x y z
#    x 2.496980 0.078470 -0.306750 
#    y 0.078470 1.998250 0.023830 
#    z -0.306750 0.023830 2.137140 
# 
# From -- ./inp_files/108299.got.cif
#   From: 2010.05.17/outbox.cif.g08.bks.cpg/sg2_55_cif.got.tgz:108299.got - 2010.06.03 11:33:40.
