data_PCOD9060850
_publ_section_title
;
Structure prediction by ZEFSAII (Michael W. Deem and Ramdas Pophale) SiO2 
 PCOD9060850
Probable space group: P -1
;
_chemical_formula_sum "Si O2"
_cell_formula_units_Z 14
_cell_length_a 8.745893
_cell_length_b 17.070603
_cell_length_c 13.435923
_cell_angle_alpha 152.520913
_cell_angle_beta 44.460631
_cell_angle_gamma 128.440434
_cell_volume 647.893972
_symmetry_space_group_name_H-M "P -1"
_symmetry_group_IT_number 2
_symmetry_cell_setting 'triclinic'
loop_
_space_group_symop_operation_xyz
x,y,z
-x,-y,-z
loop_
_atom_site_type_symbol
_atom_site_label
_atom_site_fract_x
_atom_site_fract_y
_atom_site_fract_z
Si Si1 0.476006 0.951100 0.071074
Si Si2 0.229241 0.783702 0.414547
Si Si3 0.027888 0.105221 0.765098
Si Si4 0.543123 0.447288 0.112162
Si Si5 0.411741 0.178663 0.539545
Si Si6 0.607186 0.587742 0.643993
Si Si7 0.074030 0.469411 0.255484
O O1 0.226611 0.899102 0.143974
O O2 0.509216 0.097601 0.301802
O O3 0.628224 0.786927 0.838130
O O4 0.500000 0.000000 0.000000
O O5 0.412247 0.831673 0.464525
O O6 0.100332 0.627923 0.346456
O O7 0.087995 0.949289 0.635543
O O8 0.347488 0.705757 0.173703
O O9 0.194598 0.091357 0.579761
O O10 0.071340 0.287725 0.998724
O O11 0.644551 0.623628 0.231586
O O12 0.545668 0.427699 0.206559
O O13 0.289902 0.465226 0.217397
O O14 0.500000 0.500000 0.500000
O O15 0.844578 0.500619 0.452077
#
# Coordination Sequence:
#
# PCOD9060850 Si02
#       7
#     2   2   2   2   2   2   2
#     4  12  27  46  64  97 137 177 226 271 327 399
#     4  11  23  44  71 102 132 170 222 280 331 389
#     4  12  23  43  72  97 135 174 221 276 331 392
#     4  11  23  44  70  99 135 171 219 281 328 396
#     4  11  23  44  69 100 135 170 221 279 331 391
#     4  12  25  44  65  93 136 182 218 265 334 393
#     4  11  23  45  67 102 133 171 225 273 331 394
#
# _framework density 21.608476
#
# number of rings (size 3 to 8) (size 9 to 14) (size 15 to 20)
#    0.000    0.571    4.286    4.714    2.000    0.000 
#    0.000    4.286    0.000    0.000    0.000    0.000 
#    0.000    0.000    0.000    0.000    0.000    0.000 
#
# Total GULP energy -78338.734284 kJ/mol
# GULP energy per Si atom -5595.623877 kJ/mol
# Density = 2.155929 g / cm^3
# Si number density = 21.608476 Si / 1000 Ang^3
#
#
#
# Elastic Constant Matrix: (Units=GPa)
#
#
# Indices 1 2 3 4 5 6 
#
# 1 44.3181 25.7495 34.5948 0.1682 13.9620 -4.5795
# 2 25.7495 58.7331 34.9725 0.1193 12.9038 -11.3392
# 3 34.5948 34.9725 128.7012 1.2066 11.5321 -12.4783
# 4 0.1682 0.1193 1.2066 40.3040 -10.1640 4.2286
# 5 13.9620 12.9038 11.5321 -10.1640 37.6204 -1.6179
# 6 -4.5795 -11.3392 -12.4783 4.2286 -1.6179 28.4913
#
#
#
# Elastic Compliance Matrix: (Units=1/GPa)
#
#
# Indices 1 2 3 4 5 6 
#
# 1 0.036027 -0.010504 -0.006180 -0.001930 -0.008451 -0.001289
# 2 -0.010504 0.025789 -0.003093 -0.001749 -0.004160 0.007244
# 3 -0.006180 -0.003093 0.010506 -0.000512 0.000101 0.002459
# 4 -0.001930 -0.001749 -0.000512 0.027542 0.008707 -0.004824
# 5 -0.008451 -0.004160 0.000101 0.008707 0.033364 -0.002367
# 6 -0.001289 0.007244 0.002459 -0.004824 -0.002367 0.039433
#
#
# Mechanical properties :
#
#
# Convention : Reuss Voigt Hill
#
# Bulk Modulus (GPa) = 30.51617 46.93178 38.72398
# Shear Modulus (GPa) = 22.40793 30.37885 26.39339
#
# Velocity S-wave (km/s) = 3.22374 3.75357 3.49870
# Velocity P-wave (km/s) = 5.29241 6.36805 5.85498
#
# Compressibility (1/GPa) = 0.03276951
#
# Stress axis : x y z
#
# Youngs Moduli (GPa) = 27.75690 38.77634 95.18805
#
# Poissons Ratio (x) = 0.40729 0.58822
# Poissons Ratio (y) = 0.29155 0.29440
# Poissons Ratio (z) = 0.17153 0.11993
#
# Static dielectric constant tensor:
#      x y z
#    x 1.760040 -0.014700 0.014960 
#    y -0.014700 1.798650 -0.006800 
#    z 0.014960 -0.006800 1.784620 
# 
# From -- ./inp_files/155439.got.cif
#   From: 2010.05.17/outbox.cif.g08.bks.cpg/sg2_78_cif.got.tgz:155439.got - 2010.06.03 11:33:40.
