data_PCOD9060037
_publ_section_title
;
Structure prediction by ZEFSAII (Michael W. Deem and Ramdas Pophale) SiO2 
 PCOD9060037
Probable space group: P -1
;
_chemical_formula_sum "Si O2"
_cell_formula_units_Z 16
_cell_length_a 11.410113
_cell_length_b 9.618741
_cell_length_c 9.086415
_cell_angle_alpha 129.660494
_cell_angle_beta 102.483340
_cell_angle_gamma 86.901310
_cell_volume 744.882656
_symmetry_space_group_name_H-M "P -1"
_symmetry_group_IT_number 2
_symmetry_cell_setting 'triclinic'
loop_
_space_group_symop_operation_xyz
x,y,z
-x,-y,-z
loop_
_atom_site_type_symbol
_atom_site_label
_atom_site_fract_x
_atom_site_fract_y
_atom_site_fract_z
Si Si1 0.549844 0.306719 0.371124
Si Si2 0.831632 0.935792 0.514227
Si Si3 0.590980 0.973228 0.638812
Si Si4 0.106350 0.450304 0.102848
Si Si5 0.297480 0.396101 0.897051
Si Si6 0.951050 0.977989 0.138916
Si Si7 0.451295 0.694845 0.968908
Si Si8 0.179374 0.760962 0.534916
O O1 0.500000 0.500000 0.500000
O O2 0.469088 0.174479 0.366230
O O3 0.541360 0.254443 0.163510
O O4 0.687326 0.295365 0.446139
O O5 0.714674 0.924553 0.576085
O O6 0.809407 0.748791 0.290797
O O7 0.827378 0.097604 0.505795
O O8 0.945841 0.972563 0.675592
O O9 0.500000 0.000000 0.500000
O O10 0.609743 0.159618 0.856384
O O11 0.103354 0.575520 0.332167
O O12 0.231743 0.498440 0.077337
O O13 0.096567 0.235515 0.994851
O O14 0.000000 0.500000 0.000000
O O15 0.365670 0.510934 0.860607
O O16 0.411171 0.310637 0.941989
O O17 0.859475 0.125909 0.257324
O O18 0.000000 0.000000 0.000000
#
# Coordination Sequence:
#
# PCOD9060037 Si02
#       8
#     2   2   2   2   2   2   2   2
#     4  12  27  45  72 111 151 187 238 305 370 434
#     4  12  23  46  75 103 145 190 244 298 354 437
#     4  12  24  43  71 106 143 195 237 292 366 440
#     4  12  25  44  78 105 139 192 246 298 361 434
#     4  11  23  42  74 104 140 187 244 292 358 436
#     4  12  30  49  74 110 146 190 250 311 365 423
#     4  11  25  42  68 105 144 186 236 293 362 432
#     4  12  25  49  76 105 146 196 246 298 364 441
#
# _framework density 21.479893000000001
#
# number of rings (size 3 to 8) (size 9 to 14) (size 15 to 20)
#    0.000    0.250    5.000    3.750    3.500    3.500 
#    0.000    0.000    0.000    0.000    0.000    0.000 
#    0.000    0.000    0.000    0.000    0.000    0.000 
#
# Total GULP energy -89473.737761 kJ/mol
# GULP energy per Si atom -5592.108610 kJ/mol
# Density = 2.143100 g / cm^3
# Si number density = 21.479893 Si / 1000 Ang^3
#
#
#
# Elastic Constant Matrix: (Units=GPa)
#
#
# Indices 1 2 3 4 5 6 
#
# 1 88.8106 30.9851 21.6656 -0.6886 -12.2698 -1.9709
# 2 30.9851 93.2140 35.6781 -13.5156 1.4063 14.9521
# 3 21.6656 35.6781 115.4794 6.8855 -16.3292 9.4466
# 4 -0.6886 -13.5156 6.8855 35.6940 5.9013 -7.6817
# 5 -12.2698 1.4063 -16.3292 5.9013 36.8691 1.5247
# 6 -1.9709 14.9521 9.4466 -7.6817 1.5247 31.6337
#
#
#
# Elastic Compliance Matrix: (Units=1/GPa)
#
#
# Indices 1 2 3 4 5 6 
#
# 1 0.013908 -0.005246 -0.000427 -0.001830 0.004817 0.002797
# 2 -0.005246 0.016111 -0.004785 0.006823 -0.005382 -0.004597
# 3 -0.000427 -0.004785 0.011687 -0.005744 0.006258 -0.002951
# 4 -0.001830 0.006823 -0.005744 0.034770 -0.009279 0.007267
# 5 0.004817 -0.005382 0.006258 -0.009279 0.033307 -0.002884
# 6 0.002797 -0.004597 -0.002951 0.007267 -0.002884 0.036744
#
#
# Mechanical properties :
#
#
# Convention : Reuss Voigt Hill
#
# Bulk Modulus (GPa) = 48.10239 52.68461 50.39350
# Shear Modulus (GPa) = 28.67387 34.78437 31.72912
#
# Velocity S-wave (km/s) = 3.65761 4.02853 3.84755
# Velocity P-wave (km/s) = 6.34668 6.79849 6.57646
#
# Compressibility (1/GPa) = 0.02078899
#
# Stress axis : x y z
#
# Youngs Moduli (GPa) = 71.90186 62.06792 85.56557
#
# Poissons Ratio (x) = 0.32563 0.03654
# Poissons Ratio (y) = 0.37723 0.40945
# Poissons Ratio (z) = 0.03070 0.29701
#
# Static dielectric constant tensor:
#      x y z
#    x 1.772540 -0.003410 0.027220 
#    y -0.003410 1.785760 0.055090 
#    z 0.027220 0.055090 1.776040 
# 
# From -- ./inp_files/245847.got.cif
#   From: 2010.05.17/outbox.cif.g08.bks.cpg/sg2_123_cif.got.tgz:245847.got - 2010.06.03 11:33:40.
