data_PCOD9060798
_publ_section_title
;
Structure prediction by ZEFSAII (Michael W. Deem and Ramdas Pophale) SiO2 
 PCOD9060798
Probable space group: P -1
;
_chemical_formula_sum "Si O2"
_cell_formula_units_Z 16
_cell_length_a 8.943299
_cell_length_b 25.552008
_cell_length_c 12.232360
_cell_angle_alpha 30.721207
_cell_angle_beta 32.724705
_cell_angle_gamma 41.417116
_cell_volume 768.379222
_symmetry_space_group_name_H-M "P -1"
_symmetry_group_IT_number 2
_symmetry_cell_setting 'triclinic'
loop_
_space_group_symop_operation_xyz
x,y,z
-x,-y,-z
loop_
_atom_site_type_symbol
_atom_site_label
_atom_site_fract_x
_atom_site_fract_y
_atom_site_fract_z
Si Si1 0.706187 0.688662 0.505222
Si Si2 0.922221 0.208248 0.524194
Si Si3 0.937255 0.309625 0.116635
Si Si4 0.012974 0.183363 0.076774
Si Si5 0.614486 0.834851 0.502108
Si Si6 0.246964 0.565074 0.689077
Si Si7 0.504872 0.033799 0.062804
Si Si8 0.817581 0.478251 0.440601
O O1 0.394578 0.666245 0.709099
O O2 0.691880 0.739394 0.543427
O O3 0.927477 0.589880 0.539932
O O4 0.811744 0.771008 0.209127
O O5 0.035313 0.230410 0.294126
O O6 0.786339 0.320693 0.445947
O O7 0.164838 0.170781 0.526435
O O8 0.702791 0.124399 0.798822
O O9 0.988613 0.260616 0.054769
O O10 0.087793 0.411806 0.847713
O O11 0.701375 0.170010 0.254592
O O12 0.190899 0.081225 0.192629
O O13 0.603857 0.937487 0.250901
O O14 0.543661 0.499709 0.644674
O O15 0.243181 0.574937 0.541803
O O16 0.000000 0.500000 0.000000
O O17 0.500000 0.000000 0.000000
#
# Coordination Sequence:
#
# PCOD9060798 Si02
#       8
#     2   2   2   2   2   2   2   2
#     4  11  23  44  68 100 139 180 233 285 336 413
#     4  12  24  46  71 100 142 178 227 289 342 404
#     4  11  24  43  67 103 136 186 226 281 347 411
#     4  11  24  45  70  97 140 182 225 283 352 407
#     4  11  25  43  71 102 134 178 233 287 339 411
#     4  11  24  42  66  99 142 180 221 285 345 407
#     4  12  23  48  74  98 137 181 228 288 352 400
#     4  11  24  39  70  99 135 184 232 275 348 404
#
# _framework density 20.823051
#
# number of rings (size 3 to 8) (size 9 to 14) (size 15 to 20)
#    0.000    0.750    5.000    2.625    1.750    0.500 
#    2.250    1.250    0.000    0.000    0.000    0.000 
#    0.000    0.000    0.000    0.000    0.000    0.000 
#
# Total GULP energy -89487.165952 kJ/mol
# GULP energy per Si atom -5592.947872 kJ/mol
# Density = 2.077566 g / cm^3
# Si number density = 20.823051 Si / 1000 Ang^3
#
#
#
# Elastic Constant Matrix: (Units=GPa)
#
#
# Indices 1 2 3 4 5 6 
#
# 1 100.2733 16.1026 10.4005 25.0002 -20.9988 -15.1881
# 2 16.1026 82.8260 17.8163 20.2645 -24.1783 -19.4215
# 3 10.4005 17.8163 91.2374 22.8511 -27.1938 -6.6033
# 4 25.0002 20.2645 22.8511 14.2528 -0.7753 -4.6892
# 5 -20.9988 -24.1783 -27.1938 -0.7753 28.1294 -8.9361
# 6 -15.1881 -19.4215 -6.6033 -4.6892 -8.9361 37.5916
#
#
#
# Elastic Compliance Matrix: (Units=1/GPa)
#
#
# Indices 1 2 3 4 5 6 
#
# 1 0.003009 -0.010029 -0.008812 0.019918 -0.016558 -0.006965
# 2 -0.010029 0.004554 -0.011263 0.027095 -0.014936 -0.003848
# 3 -0.008812 -0.011263 0.003242 0.022217 -0.015610 -0.009749
# 4 0.019918 0.027095 0.022217 -0.021749 0.071844 0.040314
# 5 -0.016558 -0.014936 -0.015610 0.071844 -0.005798 -0.009565
# 6 -0.006965 -0.003848 -0.009749 0.040314 -0.009565 0.022842
#
#
# Mechanical properties :
#
#
# Convention : Reuss Voigt Hill
#
# Bulk Modulus (GPa) = -20.24122 40.33062 10.04470
# Shear Modulus (GPa) = 100.31950 31.32924 65.82437
#
# Velocity S-wave (km/s) = 6.94851 3.88306 5.62849
# Velocity P-wave (km/s) = 7.39148 6.28605 6.86106
#
# Compressibility (1/GPa) = -0.04940413
#
# Stress axis : x y z
#
# Youngs Moduli (GPa) = 332.35112 219.57531 308.48867
#
# Poissons Ratio (x) = 2.20221 2.71853
# Poissons Ratio (y) = 3.33328 3.47439
# Poissons Ratio (z) = 2.92882 2.47299
#
# Static dielectric constant tensor:
#      x y z
#    x 1.751030 -0.002690 0.002900 
#    y -0.002690 1.764410 0.007610 
#    z 0.002900 0.007610 1.728620 
# 
# From -- ./inp_files/109509.got.cif
#   From: 2010.05.17/outbox.cif.g08.bks.cpg/sg2_55_cif.got.tgz:109509.got - 2010.06.03 11:33:40.
