data_PCOD9060810
_publ_section_title
;
Structure prediction by ZEFSAII (Michael W. Deem and Ramdas Pophale) SiO2 
 PCOD9060810
Probable space group: P -1
;
_chemical_formula_sum "Si O2"
_cell_formula_units_Z 16
_cell_length_a 14.636866
_cell_length_b 14.800040
_cell_length_c 5.656020
_cell_angle_alpha 117.072170
_cell_angle_beta 115.274039
_cell_angle_gamma 39.908097
_cell_volume 693.409380
_symmetry_space_group_name_H-M "P -1"
_symmetry_group_IT_number 2
_symmetry_cell_setting 'triclinic'
loop_
_space_group_symop_operation_xyz
x,y,z
-x,-y,-z
loop_
_atom_site_type_symbol
_atom_site_label
_atom_site_fract_x
_atom_site_fract_y
_atom_site_fract_z
Si Si1 0.778120 0.079057 0.893219
Si Si2 0.926148 0.447461 0.300560
Si Si3 0.340245 0.158487 0.023006
Si Si4 0.771418 0.425621 0.781751
Si Si5 0.653518 0.627940 0.517291
Si Si6 0.077785 0.882994 0.247149
Si Si7 0.783449 0.841709 0.608126
Si Si8 0.483740 0.622599 0.008851
O O1 0.803213 0.129548 0.750216
O O2 0.666644 0.231530 0.095505
O O3 0.730817 0.995873 0.723000
O O4 0.942646 0.952947 0.015281
O O5 0.769819 0.573299 0.386877
O O6 0.000000 0.500000 0.500000
O O7 0.042664 0.287357 0.347463
O O8 0.884316 0.434766 0.982805
O O9 0.354313 0.270600 0.198216
O O10 0.268238 0.168464 0.204197
O O11 0.266198 0.179102 0.715470
O O12 0.500000 0.000000 0.000000
O O13 0.726220 0.475620 0.525753
O O14 0.848515 0.269041 0.752609
O O15 0.618596 0.537361 0.881253
O O16 0.508969 0.691885 0.317622
O O17 0.000000 0.000000 0.500000
O O18 0.500000 0.500000 0.000000
#
# Coordination Sequence:
#
# PCOD9060810 Si02
#       8
#     2   2   2   2   2   2   2   2
#     4  11  26  46  69 102 142 190 243 302 367 441
#     4  11  23  44  68 102 143 181 243 294 368 427
#     4  12  28  49  72 107 150 194 245 306 371 444
#     4  11  25  44  70 103 142 188 240 302 366 433
#     4  11  27  42  73 103 143 190 239 307 364 442
#     4  11  26  43  70 102 144 187 242 305 368 435
#     4  12  27  45  78 104 145 195 247 305 370 439
#     4  11  25  47  69 100 143 187 243 297 367 440
#
# _framework density 23.074390999999999
#
# number of rings (size 3 to 8) (size 9 to 14) (size 15 to 20)
#    0.000    0.750    3.750    1.875   10.500    2.500 
#    0.000    0.000    0.000    0.000    0.000    0.000 
#    0.000    0.000    0.000    0.000    0.000    0.000 
#
# Total GULP energy -89216.536457 kJ/mol
# GULP energy per Si atom -5576.033529 kJ/mol
# Density = 2.302187 g / cm^3
# Si number density = 23.074391 Si / 1000 Ang^3
#
#
#
# Elastic Constant Matrix: (Units=GPa)
#
#
# Indices 1 2 3 4 5 6 
#
# 1 83.9969 11.3376 31.6780 8.8493 19.2017 10.5249
# 2 11.3376 142.0708 5.8524 16.8160 10.7684 5.2219
# 3 31.6780 5.8524 67.8318 -0.3011 -2.5376 3.5464
# 4 8.8493 16.8160 -0.3011 36.7124 1.0030 3.7030
# 5 19.2017 10.7684 -2.5376 1.0030 14.5245 1.2980
# 6 10.5249 5.2219 3.5464 3.7030 1.2980 46.5203
#
#
#
# Elastic Compliance Matrix: (Units=1/GPa)
#
#
# Indices 1 2 3 4 5 6 
#
# 1 0.026930 0.002254 -0.014063 -0.006202 -0.038971 -0.003693
# 2 0.002254 0.008123 -0.002072 -0.003964 -0.009028 -0.000696
# 3 -0.014063 -0.002072 0.022353 0.003799 0.023705 0.000746
# 4 -0.006202 -0.003964 0.003799 0.030427 0.009802 -0.001137
# 5 -0.038971 -0.009028 0.023705 0.009802 0.130206 0.003610
# 6 -0.003693 -0.000696 0.000746 -0.001137 0.003610 0.022342
#
#
# Mechanical properties :
#
#
# Convention : Reuss Voigt Hill
#
# Bulk Modulus (GPa) = 33.73486 43.51506 38.62496
# Shear Modulus (GPa) = 17.98390 35.88687 26.93539
#
# Velocity S-wave (km/s) = 2.79478 3.94797 3.42033
# Velocity P-wave (km/s) = 5.00661 6.29932 5.68980
#
# Compressibility (1/GPa) = 0.02964293
#
# Stress axis : x y z
#
# Youngs Moduli (GPa) = 37.13398 123.10140 44.73587
#
# Poissons Ratio (x) = -0.27746 0.62913
# Poissons Ratio (y) = -0.08370 0.09271
# Poissons Ratio (z) = 0.52222 0.25512
#
# Static dielectric constant tensor:
#      x y z
#    x 1.952370 -0.056740 0.008880 
#    y -0.056740 1.984320 -0.048570 
#    z 0.008880 -0.048570 1.727110 
# 
# From -- ./inp_files/85399.got.cif
#   From: 2010.05.17/outbox.cif.g08.bks.cpg/sg2_43_cif.got.tgz:85399.got - 2010.06.03 11:33:40.
