data_PCOD9060446
_publ_section_title
;
Structure prediction by ZEFSAII (Michael W. Deem and Ramdas Pophale) SiO2 
 PCOD9060446
Probable space group: P -1
;
_chemical_formula_sum "Si O2"
_cell_formula_units_Z 14
_cell_length_a 12.036953
_cell_length_b 18.536393
_cell_length_c 9.322345
_cell_angle_alpha 41.211268
_cell_angle_beta 131.827638
_cell_angle_gamma 155.835983
_cell_volume 559.505997
_symmetry_space_group_name_H-M "P -1"
_symmetry_group_IT_number 2
_symmetry_cell_setting 'triclinic'
loop_
_space_group_symop_operation_xyz
x,y,z
-x,-y,-z
loop_
_atom_site_type_symbol
_atom_site_label
_atom_site_fract_x
_atom_site_fract_y
_atom_site_fract_z
Si Si1 0.405488 0.123102 0.293873
Si Si2 0.488382 0.862217 0.102505
Si Si3 0.762596 0.145334 0.674244
Si Si4 0.731932 0.502897 0.586933
Si Si5 0.891543 0.589695 0.923585
Si Si6 0.753188 0.913013 0.494527
Si Si7 0.437660 0.427097 0.217519
O O1 0.531238 0.090141 0.519715
O O2 0.213332 0.052065 0.359472
O O3 0.256103 0.979998 0.243323
O O4 0.644213 0.355609 0.109228
O O5 0.469620 0.724936 0.234306
O O6 0.605238 0.921165 0.274343
O O7 0.183667 0.719132 0.024032
O O8 0.710412 0.071276 0.898610
O O9 0.026769 0.369455 0.510178
O O10 0.867655 0.593493 0.725591
O O11 0.597247 0.527402 0.359121
O O12 0.829236 0.668060 0.827168
O O13 0.534582 0.683756 0.624560
O O14 0.000000 0.000000 0.500000
O O15 0.500000 0.500000 0.000000
#
# Coordination Sequence:
#
# PCOD9060446 Si02
#       7
#     2   2   2   2   2   2   2
#     4  11  23  43  71 101 141 183 231 289 347 408
#     4  11  25  45  73 102 137 185 235 287 350 406
#     4  11  24  42  72 105 133 182 237 289 344 403
#     4  11  24  45  71 103 140 179 233 292 342 412
#     4  12  22  45  70 102 140 181 232 291 341 415
#     4  11  28  48  65 103 145 183 232 287 348 422
#     4  11  26  45  69  99 138 187 229 279 355 407
#
# _framework density 25.022072999999999
#
# number of rings (size 3 to 8) (size 9 to 14) (size 15 to 20)
#    0.000    0.857    4.286    2.571    6.000    2.286 
#    0.000    1.429    0.000    0.000    0.000    0.000 
#    0.000    0.000    0.000    0.000    0.000    0.000 
#
# Total GULP energy -78016.519517 kJ/mol
# GULP energy per Si atom -5572.608537 kJ/mol
# Density = 2.496512 g / cm^3
# Si number density = 25.022073 Si / 1000 Ang^3
#
#
#
# Elastic Constant Matrix: (Units=GPa)
#
#
# Indices 1 2 3 4 5 6 
#
# 1 110.4342 28.8117 49.2828 16.0542 -9.7953 3.5811
# 2 28.8117 67.1335 37.1107 20.1164 -5.9596 0.8182
# 3 49.2828 37.1107 170.3630 21.6014 -27.7192 3.5565
# 4 16.0542 20.1164 21.6014 47.6943 1.5205 11.5750
# 5 -9.7953 -5.9596 -27.7192 1.5205 35.1507 -8.4597
# 6 3.5811 0.8182 3.5565 11.5750 -8.4597 31.0058
#
#
#
# Elastic Compliance Matrix: (Units=1/GPa)
#
#
# Indices 1 2 3 4 5 6 
#
# 1 0.011135 -0.003034 -0.002237 -0.001438 0.000843 -0.000183
# 2 -0.003034 0.019709 -0.002296 -0.007090 0.001768 0.003223
# 3 -0.002237 -0.002296 0.008327 -0.002750 0.006172 0.002074
# 4 -0.001438 -0.007090 -0.002750 0.028929 -0.007985 -0.012310
# 5 0.000843 0.001768 0.006172 -0.007985 0.037147 0.012264
# 6 -0.000183 0.003223 0.002074 -0.012310 0.012264 0.039892
#
#
# Mechanical properties :
#
#
# Convention : Reuss Voigt Hill
#
# Bulk Modulus (GPa) = 41.60453 64.26013 52.93233
# Shear Modulus (GPa) = 29.71137 38.28521 33.99829
#
# Velocity S-wave (km/s) = 3.44961 3.91584 3.69010
# Velocity P-wave (km/s) = 5.70348 6.79575 6.27343
#
# Compressibility (1/GPa) = 0.02403584
#
# Stress axis : x y z
#
# Youngs Moduli (GPa) = 89.80926 50.73702 120.09583
#
# Poissons Ratio (x) = 0.15395 0.26864
# Poissons Ratio (y) = 0.27251 0.27577
# Poissons Ratio (z) = 0.20089 0.11651
#
# Static dielectric constant tensor:
#      x y z
#    x 1.988110 -0.021850 -0.040370 
#    y -0.021850 2.143860 -0.028180 
#    z -0.040370 -0.028180 2.173230 
# 
# From -- ./inp_files/278847.got.cif
#   From: 2010.05.17/outbox.cif.g08.bks.cpg/sg2_140_cif.got.tgz:278847.got - 2010.06.03 11:33:40.
