data_PCOD9060930
_publ_section_title
;
Structure prediction by ZEFSAII (Michael W. Deem and Ramdas Pophale) SiO2 
 PCOD9060930
Probable space group: P -1
;
_chemical_formula_sum "Si O2"
_cell_formula_units_Z 15
_cell_length_a 9.642811
_cell_length_b 4.952687
_cell_length_c 15.060058
_cell_angle_alpha 108.987813
_cell_angle_beta 115.239709
_cell_angle_gamma 90.145302
_cell_volume 606.722821
_symmetry_space_group_name_H-M "P -1"
_symmetry_group_IT_number 2
_symmetry_cell_setting 'triclinic'
loop_
_space_group_symop_operation_xyz
x,y,z
-x,-y,-z
loop_
_atom_site_type_symbol
_atom_site_label
_atom_site_fract_x
_atom_site_fract_y
_atom_site_fract_z
Si Si1 0.926033 0.191809 0.678156
Si Si2 0.606261 0.611329 0.873495
Si Si3 0.500000 0.500000 0.000000
Si Si4 0.894077 0.288656 0.315641
Si Si5 0.247935 0.864481 0.914227
Si Si6 0.372767 0.886944 0.524852
Si Si7 0.942461 0.561073 0.893059
Si Si8 0.366955 0.521853 0.642916
O O1 0.776448 0.237481 0.587149
O O2 0.920785 0.292938 0.789509
O O3 0.062102 0.411183 0.692311
O O4 0.960701 0.869036 0.643287
O O5 0.770233 0.630983 0.869958
O O6 0.479446 0.628760 0.766662
O O7 0.547654 0.351597 0.897932
O O8 0.641411 0.846596 0.989477
O O9 0.654135 0.392877 0.075899
O O10 0.792891 0.088548 0.193646
O O11 0.793811 0.355640 0.377665
O O12 0.082613 0.791975 0.913171
O O13 0.431204 0.663237 0.583660
O O14 0.500000 0.000000 0.500000
O O15 0.342933 0.176600 0.598340
O O16 0.000000 0.500000 0.000000
#
# Coordination Sequence:
#
# PCOD9060930 Si02
#       8
#     2   2   1   2   2   2   2   2
#     4  11  26  47  73 100 145 182 230 302 358 416
#     4  12  26  42  70 104 144 190 239 286 359 421
#     4  12  24  42  68 100 150 188 230 292 364 412
#     4  11  25  45  73 108 139 182 235 290 369 421
#     4  11  25  41  69 100 149 182 229 293 357 422
#     4  12  28  50  72 102 142 187 243 299 358 413
#     4  11  23  44  70 103 136 185 235 282 351 439
#     4  12  28  45  77 104 139 189 245 296 347 433
#
# _framework density 24.722987
#
# number of rings (size 3 to 8) (size 9 to 14) (size 15 to 20)
#    0.000    0.533    2.667    4.400    3.733    7.467 
#    0.000    0.000    0.000    0.000    0.000    0.000 
#    0.000    0.000    0.000    0.000    0.000    0.000 
#
# Total GULP energy -83740.603142 kJ/mol
# GULP energy per Si atom -5582.706876 kJ/mol
# Density = 2.466672 g / cm^3
# Si number density = 24.722987 Si / 1000 Ang^3
#
#
#
# Elastic Constant Matrix: (Units=GPa)
#
#
# Indices 1 2 3 4 5 6 
#
# 1 89.6248 -21.8306 1.2671 5.6193 -3.9116 2.5050
# 2 -21.8306 63.4002 12.7668 -1.5781 -0.2825 1.8596
# 3 1.2671 12.7668 106.9595 -8.0259 5.2529 9.9230
# 4 5.6193 -1.5781 -8.0259 43.4696 -2.5349 -3.8641
# 5 -3.9116 -0.2825 5.2529 -2.5349 33.9781 -6.7899
# 6 2.5050 1.8596 9.9230 -3.8641 -6.7899 29.9059
#
#
#
# Elastic Compliance Matrix: (Units=1/GPa)
#
#
# Indices 1 2 3 4 5 6 
#
# 1 0.012431 0.004429 -0.000768 -0.001601 0.001271 -0.000980
# 2 0.004429 0.017751 -0.002182 -0.000335 0.000850 -0.000601
# 3 -0.000768 -0.002182 0.010164 0.001453 -0.002269 -0.003500
# 4 -0.001601 -0.000335 0.001453 0.023871 0.002011 0.003214
# 5 0.001271 0.000850 -0.002269 0.002011 0.031693 0.008049
# 6 -0.000980 -0.000601 -0.003500 0.003214 0.008049 0.036962
#
#
# Mechanical properties :
#
#
# Convention : Reuss Voigt Hill
#
# Bulk Modulus (GPa) = 23.09243 27.15454 25.12349
# Shear Modulus (GPa) = 34.63886 39.32282 36.98084
#
# Velocity S-wave (km/s) = 3.74716 3.99248 3.87176
# Velocity P-wave (km/s) = 5.29928 5.67984 5.49286
#
# Compressibility (1/GPa) = 0.04330424
#
# Stress axis : x y z
#
# Youngs Moduli (GPa) = 80.44648 56.33636 98.38583
#
# Poissons Ratio (x) = -0.24954 0.07552
# Poissons Ratio (y) = -0.35633 0.21471
# Poissons Ratio (z) = 0.06175 0.12294
#
# Static dielectric constant tensor:
#      x y z
#    x 1.648710 -0.383890 -0.260650 
#    y -0.383890 1.480330 -0.134540 
#    z -0.260650 -0.134540 1.724500 
# 
# From -- ./inp_files/488732.got.cif
#   From: 2010.05.17/outbox.cif.g08.bks.cpg/sg2_245_cif.got.tgz:488732.got - 2010.06.03 11:33:40.
