data_PCOD9060254
_publ_section_title
;
Structure prediction by ZEFSAII (Michael W. Deem and Ramdas Pophale) SiO2 
 PCOD9060254
Probable space group: P -1
;
_chemical_formula_sum "Si O2"
_cell_formula_units_Z 15
_cell_length_a 18.444961
_cell_length_b 20.420998
_cell_length_c 11.079143
_cell_angle_alpha 30.588115
_cell_angle_beta 28.108219
_cell_angle_gamma 21.177169
_cell_volume 691.995192
_symmetry_space_group_name_H-M "P -1"
_symmetry_group_IT_number 2
_symmetry_cell_setting 'triclinic'
loop_
_space_group_symop_operation_xyz
x,y,z
-x,-y,-z
loop_
_atom_site_type_symbol
_atom_site_label
_atom_site_fract_x
_atom_site_fract_y
_atom_site_fract_z
Si Si1 0.943954 0.732433 0.129711
Si Si2 0.655995 0.670499 0.719229
Si Si3 0.500000 0.500000 0.500000
Si Si4 0.888681 0.998537 0.281537
Si Si5 0.777152 0.113986 0.831040
Si Si6 0.039803 0.325588 0.323688
Si Si7 0.562549 0.605950 0.701195
Si Si8 0.095741 0.565237 0.919587
O O1 0.779431 0.733258 0.438557
O O2 0.187927 0.536781 0.125160
O O3 0.943624 0.700810 0.038918
O O4 0.896952 0.910357 0.936703
O O5 0.611678 0.656666 0.669215
O O6 0.431093 0.805390 0.909855
O O7 0.673752 0.271815 0.633686
O O8 0.319359 0.511938 0.682481
O O9 0.059551 0.906277 0.287498
O O10 0.848330 0.877247 0.492360
O O11 0.658773 0.201749 0.336014
O O12 0.000000 0.000000 0.000000
O O13 0.782299 0.473171 0.508857
O O14 0.035497 0.344402 0.156305
O O15 0.145706 0.382653 0.145102
O O16 0.500000 0.500000 0.000000
#
# Coordination Sequence:
#
# PCOD9060254 Si02
#       8
#     2   2   1   2   2   2   2   2
#     4  11  25  44  73 104 138 185 236 293 365 429
#     4  11  23  43  68 110 140 176 233 293 369 422
#     4  12  26  48  72 100 144 196 240 288 360 418
#     4  12  24  41  72 109 140 183 233 288 361 430
#     4  12  25  45  70 105 145 186 237 296 353 428
#     4  11  25  49  70 100 147 183 241 292 348 421
#     4  12  23  40  72 103 141 182 225 289 360 422
#     4  11  25  49  71  98 140 194 237 293 345 424
#
# _framework density 21.676449999999999
#
# number of rings (size 3 to 8) (size 9 to 14) (size 15 to 20)
#    0.000    0.533    6.667    1.200    0.000    2.667 
#    2.400    1.333    0.000    0.000    0.000    0.000 
#    0.000    0.000    0.000    0.000    0.000    0.000 
#
# Total GULP energy -83641.601833 kJ/mol
# GULP energy per Si atom -5576.106789 kJ/mol
# Density = 2.162711 g / cm^3
# Si number density = 21.676450 Si / 1000 Ang^3
#
#
#
# Elastic Constant Matrix: (Units=GPa)
#
#
# Indices 1 2 3 4 5 6 
#
# 1 56.3436 18.5280 18.4586 -5.2897 -5.5645 13.7396
# 2 18.5280 91.1741 21.2662 -17.9191 -2.3041 7.7707
# 3 18.4586 21.2662 61.1021 -28.8833 -25.1162 19.2832
# 4 -5.2897 -17.9191 -28.8833 43.9023 7.8180 -4.8124
# 5 -5.5645 -2.3041 -25.1162 7.8180 40.1149 -6.9921
# 6 13.7396 7.7707 19.2832 -4.8124 -6.9921 24.8827
#
#
#
# Elastic Compliance Matrix: (Units=1/GPa)
#
#
# Indices 1 2 3 4 5 6 
#
# 1 0.021976 -0.003213 -0.004230 -0.002232 -0.000835 -0.008519
# 2 -0.003213 0.012886 -0.002730 0.003443 -0.002096 -0.000058
# 3 -0.004230 -0.002730 0.042330 0.020746 0.018142 -0.020505
# 4 -0.002232 0.003443 0.020746 0.035911 0.004537 -0.007701
# 5 -0.000835 -0.002096 0.018142 0.004537 0.034767 -0.002297
# 6 -0.008519 -0.000058 -0.020505 -0.007701 -0.002297 0.058667
#
#
# Mechanical properties :
#
#
# Convention : Reuss Voigt Hill
#
# Bulk Modulus (GPa) = 17.59139 36.12504 26.85822
# Shear Modulus (GPa) = 20.33915 31.80444 26.07180
#
# Velocity S-wave (km/s) = 3.06650 3.83461 3.47186
# Velocity P-wave (km/s) = 4.54653 6.02556 5.33752
#
# Compressibility (1/GPa) = 0.05684600
#
# Stress axis : x y z
#
# Youngs Moduli (GPa) = 45.50403 77.60113 23.62416
#
# Poissons Ratio (x) = 0.24932 0.09993
# Poissons Ratio (y) = 0.14620 0.06450
# Poissons Ratio (z) = 0.19248 0.21186
#
# Static dielectric constant tensor:
#      x y z
#    x 1.759970 -0.018210 0.042420 
#    y -0.018210 1.761640 0.003750 
#    z 0.042420 0.003750 1.810770 
# 
# From -- ./inp_files/467019.got.cif
#   From: 2010.05.17/outbox.cif.g08.bks.cpg/sg2_234_cif.got.tgz:467019.got - 2010.06.03 11:33:40.
