data_PCOD9060058
_publ_section_title
;
Structure prediction by ZEFSAII (Michael W. Deem and Ramdas Pophale) SiO2 
 PCOD9060058
Probable space group: P -1
;
_chemical_formula_sum "Si O2"
_cell_formula_units_Z 14
_cell_length_a 15.518314
_cell_length_b 12.335123
_cell_length_c 6.762872
_cell_angle_alpha 137.105636
_cell_angle_beta 119.631984
_cell_angle_gamma 45.367203
_cell_volume 626.486955
_symmetry_space_group_name_H-M "P -1"
_symmetry_group_IT_number 2
_symmetry_cell_setting 'triclinic'
loop_
_space_group_symop_operation_xyz
x,y,z
-x,-y,-z
loop_
_atom_site_type_symbol
_atom_site_label
_atom_site_fract_x
_atom_site_fract_y
_atom_site_fract_z
Si Si1 0.354829 0.088201 0.443736
Si Si2 0.218740 0.985908 0.449399
Si Si3 0.559554 0.523727 0.296174
Si Si4 0.372083 0.815608 0.767548
Si Si5 0.187449 0.697805 0.782050
Si Si6 0.105123 0.516995 0.724981
Si Si7 0.969729 0.197382 0.624249
O O1 0.241044 0.316724 0.615988
O O2 0.500000 0.000000 0.500000
O O3 0.312485 0.018242 0.490764
O O4 0.346734 0.994391 0.106269
O O5 0.267047 0.881558 0.577560
O O6 0.202534 0.855142 0.106913
O O7 0.083500 0.164081 0.586555
O O8 0.483453 0.710059 0.598728
O O9 0.599639 0.345223 0.252276
O O10 0.679392 0.500080 0.330901
O O11 0.500000 0.500000 0.000000
O O12 0.103164 0.669839 0.782749
O O13 0.135413 0.749452 0.575561
O O14 0.000000 0.500000 0.500000
O O15 0.072974 0.624745 0.041190
O O16 0.000000 0.000000 0.500000
#
# Coordination Sequence:
#
# PCOD9060058 Si02
#       7
#     2   2   2   2   2   2   2
#     4  12  30  48  73 110 162 203 254 318 389 458
#     4  12  25  48  77 109 149 196 257 315 377 459
#     4  11  23  42  74 111 144 187 251 315 366 446
#     4  11  24  43  75 103 152 192 250 307 383 440
#     4  12  26  44  80 109 144 194 256 315 376 460
#     4  12  30  50  74 112 161 198 254 321 388 457
#     4  12  27  47  83 113 146 200 263 315 384 453
#
# _framework density 22.346833
#
# number of rings (size 3 to 8) (size 9 to 14) (size 15 to 20)
#    0.000    0.286    4.286    3.000    8.000    4.000 
#    0.000    0.000    0.000    0.000    0.000    0.000 
#    0.000    0.000    0.000    0.000    0.000    0.000 
#
# Total GULP energy -78158.881282 kJ/mol
# GULP energy per Si atom -5582.777234 kJ/mol
# Density = 2.229597 g / cm^3
# Si number density = 22.346833 Si / 1000 Ang^3
#
#
#
# Elastic Constant Matrix: (Units=GPa)
#
#
# Indices 1 2 3 4 5 6 
#
# 1 157.8591 45.2035 62.0241 -4.3347 -7.6301 -16.2613
# 2 45.2035 101.3658 70.8058 -16.7400 -2.0039 -15.7775
# 3 62.0241 70.8058 180.1873 -12.0184 -27.3993 -20.4548
# 4 -4.3347 -16.7400 -12.0184 53.1817 -10.9780 -8.5513
# 5 -7.6301 -2.0039 -27.3993 -10.9780 38.7663 5.4459
# 6 -16.2613 -15.7775 -20.4548 -8.5513 5.4459 41.4077
#
#
#
# Elastic Compliance Matrix: (Units=1/GPa)
#
#
# Indices 1 2 3 4 5 6 
#
# 1 0.007735 -0.002074 -0.001712 -0.000199 -0.000043 0.001366
# 2 -0.002074 0.015477 -0.005133 0.003563 -0.002739 0.003643
# 3 -0.001712 -0.005133 0.009441 0.001956 0.006400 0.001598
# 4 -0.000199 0.003563 0.001956 0.022791 0.007137 0.006014
# 5 -0.000043 -0.002739 0.006400 0.007137 0.032284 -0.000671
# 6 0.001366 0.003643 0.001598 0.006014 -0.000671 0.028194
#
#
# Mechanical properties :
#
#
# Convention : Reuss Voigt Hill
#
# Bulk Modulus (GPa) = 67.50331 88.38655 77.94493
# Shear Modulus (GPa) = 36.04903 44.09641 40.07272
#
# Velocity S-wave (km/s) = 4.02077 4.44697 4.23923
# Velocity P-wave (km/s) = 7.19918 8.12437 7.67573
#
# Compressibility (1/GPa) = 0.01481409
#
# Stress axis : x y z
#
# Youngs Moduli (GPa) = 129.28908 64.61131 105.91783
#
# Poissons Ratio (x) = 0.13403 0.18133
# Poissons Ratio (y) = 0.26819 0.54369
# Poissons Ratio (z) = 0.22134 0.33166
#
# Static dielectric constant tensor:
#      x y z
#    x 1.947420 0.001640 -0.042660 
#    y 0.001640 1.904950 0.027010 
#    z -0.042660 0.027010 1.751160 
# 
# From -- ./inp_files/95677.got.cif
#   From: 2010.05.17/outbox.cif.g08.bks.cpg/sg2_48_cif.got.tgz:95677.got - 2010.06.03 11:33:40.
