data_PCOD9060741
_publ_section_title
;
Structure prediction by ZEFSAII (Michael W. Deem and Ramdas Pophale) SiO2 
 PCOD9060741
Probable space group: P -1
;
_chemical_formula_sum "Si O2"
_cell_formula_units_Z 16
_cell_length_a 5.145383
_cell_length_b 14.209198
_cell_length_c 14.849703
_cell_angle_alpha 132.069403
_cell_angle_beta 82.504088
_cell_angle_gamma 73.073286
_cell_volume 685.253590
_symmetry_space_group_name_H-M "P -1"
_symmetry_group_IT_number 2
_symmetry_cell_setting 'triclinic'
loop_
_space_group_symop_operation_xyz
x,y,z
-x,-y,-z
loop_
_atom_site_type_symbol
_atom_site_label
_atom_site_fract_x
_atom_site_fract_y
_atom_site_fract_z
Si Si1 0.763764 0.439539 0.276267
Si Si2 0.072958 0.130764 0.573027
Si Si3 0.674569 0.622791 0.054465
Si Si4 0.552730 0.878816 0.738989
Si Si5 0.014872 0.874939 0.853942
Si Si6 0.076234 0.570352 0.455813
Si Si7 0.380517 0.075407 0.709519
Si Si8 0.411875 0.551081 0.190021
O O1 0.935582 0.268388 0.186671
O O2 0.961354 0.511245 0.341638
O O3 0.687303 0.468070 0.193047
O O4 0.431156 0.518017 0.392455
O O5 0.148752 0.149091 0.684125
O O6 0.829517 0.293410 0.653920
O O7 0.349322 0.060114 0.445154
O O8 0.000000 0.000000 0.500000
O O9 0.583382 0.791554 0.170889
O O10 0.467997 0.609136 0.131039
O O11 0.660024 0.570119 0.921517
O O12 0.000000 0.500000 0.000000
O O13 0.329462 0.826152 0.754319
O O14 0.850546 0.743930 0.592024
O O15 0.713974 0.928204 0.839132
O O16 0.344296 0.001909 0.753461
O O17 0.000000 0.000000 0.000000
O O18 0.000000 0.500000 0.500000
#
# Coordination Sequence:
#
# PCOD9060741 Si02
#       8
#     2   2   2   2   2   2   2   2
#     4  12  26  44  76 101 139 181 229 287 352 406
#     4  11  23  44  66 100 141 168 232 281 345 406
#     4  11  24  46  66  98 140 173 237 277 343 412
#     4  12  27  45  75 101 140 183 231 284 350 409
#     4  12  27  48  67 103 143 183 234 285 335 418
#     4  12  23  46  72 103 138 176 230 293 345 401
#     4  11  26  42  72  99 135 188 219 290 342 416
#     4  11  26  42  72 100 133 185 223 291 340 417
#
# _framework density 23.349022999999999
#
# number of rings (size 3 to 8) (size 9 to 14) (size 15 to 20)
#    0.000    0.500    5.000    2.250    7.000    1.000 
#    0.000    0.000    0.000    0.000    0.000    0.000 
#    0.000    0.000    0.000    0.000    0.000    0.000 
#
# Total GULP energy -89366.347361 kJ/mol
# GULP energy per Si atom -5585.396710 kJ/mol
# Density = 2.329588 g / cm^3
# Si number density = 23.349023 Si / 1000 Ang^3
#
#
#
# Elastic Constant Matrix: (Units=GPa)
#
#
# Indices 1 2 3 4 5 6 
#
# 1 58.2021 -5.1912 12.9557 -4.1122 3.9388 -4.7989
# 2 -5.1912 101.2421 26.1349 1.2520 17.0795 -6.4340
# 3 12.9557 26.1349 103.6212 3.6513 19.1402 -4.7993
# 4 -4.1122 1.2520 3.6513 25.7136 -7.5751 9.2672
# 5 3.9388 17.0795 19.1402 -7.5751 48.5429 -3.7149
# 6 -4.7989 -6.4340 -4.7993 9.2672 -3.7149 27.3038
#
#
#
# Elastic Compliance Matrix: (Units=1/GPa)
#
#
# Indices 1 2 3 4 5 6 
#
# 1 0.018316 0.001835 -0.002613 0.002186 -0.000579 0.002372
# 2 0.001835 0.011320 -0.002274 -0.001918 -0.003321 0.002789
# 3 -0.002613 -0.002274 0.011497 -0.003742 -0.003971 0.001756
# 4 0.002186 -0.001918 -0.003742 0.048027 0.008251 -0.015904
# 5 -0.000579 -0.003321 -0.003971 0.008251 0.024590 -0.001037
# 6 0.002372 0.002789 0.001756 -0.015904 -0.001037 0.043265
#
#
# Mechanical properties :
#
#
# Convention : Reuss Voigt Hill
#
# Bulk Modulus (GPa) = 28.54807 36.76270 32.65539
# Shear Modulus (GPa) = 28.60497 35.58979 32.09738
#
# Velocity S-wave (km/s) = 3.50394 3.90840 3.71169
# Velocity P-wave (km/s) = 5.35008 6.01220 5.69078
#
# Compressibility (1/GPa) = 0.03502863
#
# Stress axis : x y z
#
# Youngs Moduli (GPa) = 54.59702 88.34152 86.97546
#
# Poissons Ratio (x) = -0.16211 0.22728
# Poissons Ratio (y) = -0.10019 0.19780
# Poissons Ratio (z) = 0.14267 0.20091
#
# Static dielectric constant tensor:
#      x y z
#    x 1.946900 0.027410 0.002680 
#    y 0.027410 1.864600 -0.012660 
#    z 0.002680 -0.012660 1.878090 
# 
# From -- ./inp_files/82840.got.cif
#   From: 2010.05.17/outbox.cif.g08.bks.cpg/sg2_42_cif.got.tgz:82840.got - 2010.06.03 11:33:40.
