data_PCOD9060500
_publ_section_title
;
Structure prediction by ZEFSAII (Michael W. Deem and Ramdas Pophale) SiO2 
 PCOD9060500
Probable space group: P -1
;
_chemical_formula_sum "Si O2"
_cell_formula_units_Z 16
_cell_length_a 18.204106
_cell_length_b 9.735920
_cell_length_c 11.910580
_cell_angle_alpha 99.288034
_cell_angle_beta 127.631870
_cell_angle_gamma 36.319397
_cell_volume 702.485061
_symmetry_space_group_name_H-M "P -1"
_symmetry_group_IT_number 2
_symmetry_cell_setting 'triclinic'
loop_
_space_group_symop_operation_xyz
x,y,z
-x,-y,-z
loop_
_atom_site_type_symbol
_atom_site_label
_atom_site_fract_x
_atom_site_fract_y
_atom_site_fract_z
Si Si1 0.204104 0.594784 0.741067
Si Si2 0.414674 0.658254 0.562442
Si Si3 0.741051 0.665762 0.833083
Si Si4 0.369528 0.417576 0.099849
Si Si5 0.239129 0.683826 0.576649
Si Si6 0.957678 0.612481 0.751818
Si Si7 0.218603 0.253399 0.731610
Si Si8 0.257570 0.395715 0.421313
O O1 0.341101 0.496799 0.765647
O O2 0.269988 0.345261 0.768414
O O3 0.200128 0.655604 0.872411
O O4 0.953007 0.950609 0.519140
O O5 0.500000 0.500000 0.500000
O O6 0.594788 0.500876 0.776888
O O7 0.366765 0.591270 0.587229
O O8 0.204521 0.045273 0.398569
O O9 0.681638 0.640317 0.873687
O O10 0.793854 0.514713 0.746387
O O11 0.518190 0.048924 0.642911
O O12 0.937756 0.488694 0.044439
O O13 0.587980 0.095345 0.188577
O O14 0.159700 0.647024 0.441862
O O15 0.824969 0.648167 0.634393
O O16 0.159182 0.323086 0.815894
O O17 0.000000 0.500000 0.500000
#
# Coordination Sequence:
#
# PCOD9060500 Si02
#       8
#     2   2   2   2   2   2   2   2
#     4  11  24  41  67  97 138 176 224 283 346 405
#     4  12  26  46  69  98 140 182 227 280 339 411
#     4  11  23  43  71  99 138 174 237 283 331 404
#     4  12  23  43  70 104 132 182 233 278 343 406
#     4  11  24  45  64  97 143 176 220 285 349 395
#     4  12  24  45  70 103 132 183 235 275 340 407
#     4  12  21  40  70  98 135 173 231 282 329 412
#     4  11  25  44  69 100 137 183 227 284 339 401
#
# _framework density 22.776282999999999
#
# number of rings (size 3 to 8) (size 9 to 14) (size 15 to 20)
#    0.000    0.500    5.000    3.000    3.500    2.500 
#    2.250    2.500    0.000    0.000    0.000    0.000 
#    0.000    0.000    0.000    0.000    0.000    0.000 
#
# Total GULP energy -89449.923084 kJ/mol
# GULP energy per Si atom -5590.620193 kJ/mol
# Density = 2.272444 g / cm^3
# Si number density = 22.776283 Si / 1000 Ang^3
#
#
#
# Elastic Constant Matrix: (Units=GPa)
#
#
# Indices 1 2 3 4 5 6 
#
# 1 105.4103 10.7627 14.9070 15.0996 -19.8446 -8.6123
# 2 10.7627 73.9804 3.9706 24.7566 -6.8754 -6.6603
# 3 14.9070 3.9706 75.5744 26.4279 -14.7590 19.6551
# 4 15.0996 24.7566 26.4279 40.3066 -9.3734 -1.3771
# 5 -19.8446 -6.8754 -14.7590 -9.3734 35.1737 15.9634
# 6 -8.6123 -6.6603 19.6551 -1.3771 15.9634 32.3636
#
#
#
# Elastic Compliance Matrix: (Units=1/GPa)
#
#
# Indices 1 2 3 4 5 6 
#
# 1 0.010917 -0.000217 -0.000427 -0.002487 0.005033 0.000531
# 2 -0.000217 0.017887 0.004152 -0.013235 0.001732 -0.000316
# 3 -0.000427 0.004152 0.032611 -0.019420 0.023328 -0.031397
# 4 -0.002487 -0.013235 -0.019420 0.045660 -0.006015 0.013318
# 5 0.005033 0.001732 0.023328 -0.006015 0.058715 -0.041689
# 6 0.000531 -0.000316 -0.031397 0.013318 -0.041689 0.071173
#
#
# Mechanical properties :
#
#
# Convention : Reuss Voigt Hill
#
# Bulk Modulus (GPa) = 14.61365 34.91619 24.76492
# Shear Modulus (GPa) = 19.78179 36.59044 28.18612
#
# Velocity S-wave (km/s) = 2.95027 4.01248 3.52166
# Velocity P-wave (km/s) = 4.24683 6.06878 5.23763
#
# Compressibility (1/GPa) = 0.06842916
#
# Stress axis : x y z
#
# Youngs Moduli (GPa) = 91.60338 55.90501 30.66484
#
# Poissons Ratio (x) = 0.01215 0.01310
# Poissons Ratio (y) = 0.01990 -0.12732
# Poissons Ratio (z) = 0.03915 -0.23211
#
# Static dielectric constant tensor:
#      x y z
#    x 1.890100 -0.021410 -0.024650 
#    y -0.021410 1.861510 -0.017960 
#    z -0.024650 -0.017960 1.952850 
# 
# From -- ./inp_files/403009.got.cif
#   From: 2010.05.17/outbox.cif.g08.bks.cpg/sg2_202_cif.got.tgz:403009.got - 2010.06.03 11:33:40.
