data_PCOD9060354
_publ_section_title
;
Structure prediction by ZEFSAII (Michael W. Deem and Ramdas Pophale) SiO2 
 PCOD9060354
Probable space group: P -1
;
_chemical_formula_sum "Si O2"
_cell_formula_units_Z 12
_cell_length_a 9.073462
_cell_length_b 12.174259
_cell_length_c 9.011212
_cell_angle_alpha 96.833967
_cell_angle_beta 98.688922
_cell_angle_gamma 144.549919
_cell_volume 517.344680
_symmetry_space_group_name_H-M "P -1"
_symmetry_group_IT_number 2
_symmetry_cell_setting 'triclinic'
loop_
_space_group_symop_operation_xyz
x,y,z
-x,-y,-z
loop_
_atom_site_type_symbol
_atom_site_label
_atom_site_fract_x
_atom_site_fract_y
_atom_site_fract_z
Si Si1 0.909006 0.283169 0.898323
Si Si2 0.293631 0.974740 0.446407
Si Si3 0.517768 0.405850 0.880673
Si Si4 0.735181 0.634193 0.431983
Si Si5 0.307859 0.649864 0.616898
Si Si6 0.377943 0.738267 0.959782
O O1 0.063789 0.484179 0.872089
O O2 0.873840 0.168440 0.750295
O O3 0.646583 0.170586 0.925330
O O4 0.147925 0.396840 0.070171
O O5 0.485958 0.198335 0.465407
O O6 0.500000 0.000000 0.500000
O O7 0.075949 0.856907 0.527970
O O8 0.343419 0.326396 0.698512
O O9 0.500000 0.500000 0.000000
O O10 0.442677 0.246231 0.932438
O O11 0.500000 0.500000 0.500000
O O12 0.698925 0.482208 0.360043
O O13 0.430129 0.789304 0.803201
O O14 0.000000 0.500000 0.500000
#
# Coordination Sequence:
#
# PCOD9060354 Si02
#       6
#     2   2   2   2   2   2
#     4   9  19  37  67  96 128 175 225 264 337 391
#     4  12  24  43  69  99 136 178 231 275 332 416
#     4  10  17  38  68  89 135 174 213 272 340 387
#     4  12  26  44  68 102 139 179 220 285 343 392
#     4  12  24  42  69  96 136 183 225 275 344 394
#     4   9  19  38  68  96 128 180 217 276 331 396
#
# _framework density 23.195367000000001
#
# number of rings (size 3 to 8) (size 9 to 14) (size 15 to 20)
#    1.000    0.333    6.667    0.000    2.333    2.667 
#    0.000    3.333    0.000    0.000    0.000    0.000 
#    0.000    0.000    0.000    0.000    0.000    0.000 
#
# Total GULP energy -66869.928699 kJ/mol
# GULP energy per Si atom -5572.494058 kJ/mol
# Density = 2.314257 g / cm^3
# Si number density = 23.195367 Si / 1000 Ang^3
#
#
#
# Elastic Constant Matrix: (Units=GPa)
#
#
# Indices 1 2 3 4 5 6 
#
# 1 138.8043 25.1752 40.9205 -12.7752 3.7221 13.4505
# 2 25.1752 100.1263 9.7536 -22.8565 -5.2420 16.6515
# 3 40.9205 9.7536 53.4312 -13.7770 12.6681 10.0709
# 4 -12.7752 -22.8565 -13.7770 29.1344 3.5395 -9.3650
# 5 3.7221 -5.2420 12.6681 3.5395 43.2327 -2.8022
# 6 13.4505 16.6515 10.0709 -9.3650 -2.8022 38.4558
#
#
#
# Elastic Compliance Matrix: (Units=1/GPa)
#
#
# Indices 1 2 3 4 5 6 
#
# 1 0.009682 -0.001750 -0.007498 -0.001089 0.001186 -0.000844
# 2 -0.001750 0.012883 0.001920 0.009190 0.000189 -0.003217
# 3 -0.007498 0.001920 0.030208 0.012413 -0.009234 -0.003770
# 4 -0.001089 0.009190 0.012413 0.049178 -0.006152 0.004678
# 5 0.001186 0.000189 -0.009234 -0.006152 0.026413 0.002348
# 6 -0.000844 -0.003217 -0.003770 0.004678 0.002348 0.029990
#
#
# Mechanical properties :
#
#
# Convention : Reuss Voigt Hill
#
# Bulk Modulus (GPa) = 26.23545 49.34004 37.78775
# Shear Modulus (GPa) = 26.92268 36.59877 31.76072
#
# Velocity S-wave (km/s) = 3.41059 3.97652 3.70438
# Velocity P-wave (km/s) = 5.18119 6.51163 5.88413
#
# Compressibility (1/GPa) = 0.03811636
#
# Stress axis : x y z
#
# Youngs Moduli (GPa) = 103.28262 77.61967 33.10338
#
# Poissons Ratio (x) = 0.13584 0.24822
# Poissons Ratio (y) = 0.18075 -0.06355
# Poissons Ratio (z) = 0.77446 -0.14901
#
# Static dielectric constant tensor:
#      x y z
#    x 1.914900 0.077840 0.012580 
#    y 0.077840 1.965900 0.052020 
#    z 0.012580 0.052020 2.044410 
# 
# From -- ./inp_files/164294.got.cif
#   From: 2010.05.17/outbox.cif.g08.bks.cpg/sg2_83_cif.got.tgz:164294.got - 2010.06.03 11:33:40.
