data_PCOD9060470
_publ_section_title
;
Structure prediction by ZEFSAII (Michael W. Deem and Ramdas Pophale) SiO2 
 PCOD9060470
Probable space group: P -1
;
_chemical_formula_sum "Si O2"
_cell_formula_units_Z 14
_cell_length_a 11.161530
_cell_length_b 6.587263
_cell_length_c 16.715131
_cell_angle_alpha 76.941987
_cell_angle_beta 30.605354
_cell_angle_gamma 80.588696
_cell_volume 608.324828
_symmetry_space_group_name_H-M "P -1"
_symmetry_group_IT_number 2
_symmetry_cell_setting 'triclinic'
loop_
_space_group_symop_operation_xyz
x,y,z
-x,-y,-z
loop_
_atom_site_type_symbol
_atom_site_label
_atom_site_fract_x
_atom_site_fract_y
_atom_site_fract_z
Si Si1 0.597288 0.838736 0.023191
Si Si2 0.695707 0.140908 0.271783
Si Si3 0.999525 0.550159 0.829830
Si Si4 0.139488 0.221332 0.395500
Si Si5 0.089556 0.630474 0.329115
Si Si6 0.320382 0.860840 0.905809
Si Si7 0.760582 0.745407 0.382340
O O1 0.359177 0.693868 0.190717
O O2 0.691084 0.955129 0.039397
O O3 0.807130 0.696062 0.888474
O O4 0.500000 0.000000 0.000000
O O5 0.703990 0.087273 0.178378
O O6 0.448845 0.227242 0.436531
O O7 0.887363 0.321701 0.172385
O O8 0.737071 0.932474 0.317045
O O9 0.212500 0.475144 0.658572
O O10 0.858069 0.335776 0.955254
O O11 0.058808 0.380882 0.360656
O O12 0.413435 0.201820 0.229833
O O13 0.081655 0.319728 0.504879
O O14 0.000000 0.000000 0.500000
O O15 0.004273 0.757894 0.291377
#
# Coordination Sequence:
#
# PCOD9060470 Si02
#       7
#     2   2   2   2   2   2   2
#     4  12  27  44  73 109 149 185 230 298 368 430
#     4  11  26  50  72 103 142 193 249 289 353 419
#     4  12  26  46  70 104 145 192 239 294 355 425
#     4  11  23  43  71 105 141 184 235 298 354 420
#     4  11  23  44  71 108 139 180 239 288 365 426
#     4  12  25  46  73 105 143 191 239 299 349 428
#     4  11  26  48  74 104 145 188 240 300 352 427
#
# _framework density 23.014019999999999
#
# number of rings (size 3 to 8) (size 9 to 14) (size 15 to 20)
#    0.000    0.571    4.286    3.429    2.000    5.714 
#    2.571    0.000    0.000    0.000    0.000    0.000 
#    0.000    0.000    0.000    0.000    0.000    0.000 
#
# Total GULP energy -78269.220683 kJ/mol
# GULP energy per Si atom -5590.658620 kJ/mol
# Density = 2.296164 g / cm^3
# Si number density = 23.014020 Si / 1000 Ang^3
#
#
#
# Elastic Constant Matrix: (Units=GPa)
#
#
# Indices 1 2 3 4 5 6 
#
# 1 128.3645 61.9942 41.7630 14.8218 11.2411 -4.4263
# 2 61.9942 129.7913 54.9368 13.3358 0.5034 -8.5058
# 3 41.7630 54.9368 111.9083 20.0724 -3.8477 -6.7308
# 4 14.8218 13.3358 20.0724 40.3019 3.2853 -1.5411
# 5 11.2411 0.5034 -3.8477 3.2853 43.8255 1.5247
# 6 -4.4263 -8.5058 -6.7308 -1.5411 1.5247 33.7297
#
#
#
# Elastic Compliance Matrix: (Units=1/GPa)
#
#
# Indices 1 2 3 4 5 6 
#
# 1 0.010842 -0.004258 -0.001786 -0.001460 -0.002781 0.000051
# 2 -0.004258 0.011517 -0.003900 -0.000292 0.000586 0.001527
# 3 -0.001786 -0.003900 0.012422 -0.004356 0.001886 0.000977
# 4 -0.001460 -0.000292 -0.004356 0.027795 -0.002096 0.000230
# 5 -0.002781 0.000586 0.001886 -0.002096 0.023882 -0.001016
# 6 0.000051 0.001527 0.000977 0.000230 -0.001016 0.030291
#
#
# Mechanical properties :
#
#
# Convention : Reuss Voigt Hill
#
# Bulk Modulus (GPa) = 67.15365 76.38357 71.76861
# Shear Modulus (GPa) = 35.30972 37.66276 36.48624
#
# Velocity S-wave (km/s) = 3.92123 4.04977 3.98602
# Velocity P-wave (km/s) = 7.05295 7.42493 7.24133
#
# Compressibility (1/GPa) = 0.01489122
#
# Stress axis : x y z
#
# Youngs Moduli (GPa) = 92.23406 86.82492 80.50140
#
# Poissons Ratio (x) = 0.36973 0.14380
# Poissons Ratio (y) = 0.39277 0.31399
# Poissons Ratio (z) = 0.16476 0.33866
#
# Static dielectric constant tensor:
#      x y z
#    x 1.849030 -0.008460 0.006680 
#    y -0.008460 1.856780 0.014350 
#    z 0.006680 0.014350 1.856140 
# 
# From -- ./inp_files/118877.got.cif
#   From: 2010.05.17/outbox.cif.g08.bks.cpg/sg2_60_cif.got.tgz:118877.got - 2010.06.03 11:33:40.
