data_PCOD9060893
_publ_section_title
;
Structure prediction by ZEFSAII (Michael W. Deem and Ramdas Pophale) SiO2 
 PCOD9060893
Probable space group: P -1
;
_chemical_formula_sum "Si O2"
_cell_formula_units_Z 14
_cell_length_a 9.366240
_cell_length_b 9.539794
_cell_length_c 8.827632
_cell_angle_alpha 77.976016
_cell_angle_beta 102.898038
_cell_angle_gamma 122.887432
_cell_volume 641.978997
_symmetry_space_group_name_H-M "P -1"
_symmetry_group_IT_number 2
_symmetry_cell_setting 'triclinic'
loop_
_space_group_symop_operation_xyz
x,y,z
-x,-y,-z
loop_
_atom_site_type_symbol
_atom_site_label
_atom_site_fract_x
_atom_site_fract_y
_atom_site_fract_z
Si Si1 0.025121 0.442128 0.358790
Si Si2 0.045264 0.735472 0.116545
Si Si3 0.326604 0.404427 0.076258
Si Si4 0.826340 0.114608 0.209403
Si Si5 0.141689 0.053942 0.276694
Si Si6 0.424204 0.088105 0.565505
Si Si7 0.629647 0.459001 0.616248
O O1 0.079490 0.596762 0.223611
O O2 0.179297 0.409158 0.420349
O O3 0.000000 0.500000 0.500000
O O4 0.873691 0.274949 0.288918
O O5 0.082601 0.881868 0.211191
O O6 0.156223 0.826131 0.972964
O O7 0.843951 0.632894 0.044627
O O8 0.267408 0.217726 0.166434
O O9 0.364041 0.518424 0.207828
O O10 0.500000 0.500000 0.000000
O O11 0.973086 0.065020 0.268138
O O12 0.645215 0.977157 0.266677
O O13 0.257897 0.066768 0.443232
O O14 0.574172 0.278524 0.579643
O O15 0.500000 0.000000 0.500000
O O16 0.500000 0.500000 0.500000
#
# Coordination Sequence:
#
# PCOD9060893 Si02
#       7
#     2   2   2   2   2   2   2
#     4  12  25  45  71  98 134 184 223 279 333 404
#     4  11  25  45  71 102 135 172 236 276 338 401
#     4  11  25  42  71 104 135 175 222 289 338 389
#     4  11  23  44  69  95 132 176 226 276 329 401
#     4  11  23  47  67  99 133 179 230 271 330 411
#     4  12  26  44  65 102 138 177 224 277 338 398
#     4  12  25  46  68 101 138 175 229 274 337 405
#
# _framework density 21.807569000000001
#
# number of rings (size 3 to 8) (size 9 to 14) (size 15 to 20)
#    0.000    0.571    4.286    5.143    6.000    1.143 
#    0.000    1.429    0.000    0.000    0.000    0.000 
#    0.000    0.000    0.000    0.000    0.000    0.000 
#
# Total GULP energy -78257.347966 kJ/mol
# GULP energy per Si atom -5589.810569 kJ/mol
# Density = 2.175793 g / cm^3
# Si number density = 21.807569 Si / 1000 Ang^3
#
#
#
# Elastic Constant Matrix: (Units=GPa)
#
#
# Indices 1 2 3 4 5 6 
#
# 1 57.4982 -12.6489 14.0784 -11.5643 -9.0868 5.5111
# 2 -12.6489 73.1539 -15.9746 23.4031 9.4979 -8.4807
# 3 14.0784 -15.9746 51.9771 16.1193 8.4967 9.6296
# 4 -11.5643 23.4031 16.1193 46.8186 -2.3482 -7.7418
# 5 -9.0868 9.4979 8.4967 -2.3482 38.5276 -2.3737
# 6 5.5111 -8.4807 9.6296 -7.7418 -2.3737 30.7916
#
#
#
# Elastic Compliance Matrix: (Units=1/GPa)
#
#
# Indices 1 2 3 4 5 6 
#
# 1 0.024601 -0.005052 -0.015510 0.015146 0.011623 0.003760
# 2 -0.005052 0.024941 0.018680 -0.021544 -0.013049 -0.004491
# 3 -0.015510 0.018680 0.045838 -0.032715 -0.021369 -0.016287
# 4 0.015146 -0.021544 -0.032715 0.050775 0.020173 0.015908
# 5 0.011623 -0.013049 -0.021369 0.020173 0.038413 0.009042
# 6 0.003760 -0.004491 -0.016287 0.015908 0.009042 0.040357
#
#
# Mechanical properties :
#
#
# Convention : Reuss Voigt Hill
#
# Bulk Modulus (GPa) = 10.91502 17.05988 13.98745
# Shear Modulus (GPa) = 19.28818 36.37251 27.83035
#
# Velocity S-wave (km/s) = 2.97723 4.08841 3.57624
# Velocity P-wave (km/s) = 4.10300 5.48877 4.84568
#
# Compressibility (1/GPa) = 0.09161686
#
# Stress axis : x y z
#
# Youngs Moduli (GPa) = 40.64908 40.09417 21.81612
#
# Poissons Ratio (x) = 0.20255 0.33836
# Poissons Ratio (y) = 0.20535 -0.40753
# Poissons Ratio (z) = 0.63046 -0.74897
#
# Static dielectric constant tensor:
#      x y z
#    x 1.832260 -0.039250 -0.049680 
#    y -0.039250 1.766420 -0.019760 
#    z -0.049680 -0.019760 1.896020 
# 
# From -- ./inp_files/156691.got.cif
#   From: 2010.05.17/outbox.cif.g08.bks.cpg/sg2_79_cif.got.tgz:156691.got - 2010.06.03 11:33:40.
