data_PCOD9060512
_publ_section_title
;
Structure prediction by ZEFSAII (Michael W. Deem and Ramdas Pophale) SiO2 
 PCOD9060512
Probable space group: P -1
;
_chemical_formula_sum "Si O2"
_cell_formula_units_Z 14
_cell_length_a 17.158830
_cell_length_b 8.738039
_cell_length_c 6.123456
_cell_angle_alpha 113.514696
_cell_angle_beta 112.180452
_cell_angle_gamma 48.978492
_cell_volume 626.225026
_symmetry_space_group_name_H-M "P -1"
_symmetry_group_IT_number 2
_symmetry_cell_setting 'triclinic'
loop_
_space_group_symop_operation_xyz
x,y,z
-x,-y,-z
loop_
_atom_site_type_symbol
_atom_site_label
_atom_site_fract_x
_atom_site_fract_y
_atom_site_fract_z
Si Si1 0.672734 0.974664 0.017693
Si Si2 0.838173 0.920824 0.424284
Si Si3 0.903973 0.178328 0.856506
Si Si4 0.298003 0.416807 0.948348
Si Si5 0.729984 0.790886 0.550720
Si Si6 0.956344 0.413977 0.741091
Si Si7 0.489123 0.429898 0.201217
O O1 0.778782 0.960880 0.154364
O O2 0.578785 0.182107 0.148341
O O3 0.686465 0.766715 0.991625
O O4 0.654818 0.971007 0.740900
O O5 0.765915 0.886971 0.472135
O O6 0.956148 0.711343 0.423191
O O7 0.845052 0.096486 0.626647
O O8 0.820057 0.379784 0.025771
O O9 0.949997 0.246018 0.761633
O O10 0.000000 0.000000 0.000000
O O11 0.377094 0.471342 0.109122
O O12 0.316380 0.317968 0.672502
O O13 0.840066 0.602277 0.661424
O O14 0.000000 0.500000 0.000000
O O15 0.500000 0.500000 0.500000
O O16 0.500000 0.500000 0.000000
#
# Coordination Sequence:
#
# PCOD9060512 Si02
#       7
#     2   2   2   2   2   2   2
#     4  11  25  48  76 103 142 192 246 299 369 446
#     4  11  24  40  68 100 146 181 242 303 364 432
#     4  12  25  41  66 103 143 190 239 297 372 430
#     4  11  26  48  72 104 146 190 247 303 364 453
#     4  11  23  43  72 101 139 193 244 295 368 436
#     4  12  21  42  65 100 142 195 240 297 360 443
#     4  12  31  51  81 114 149 192 245 314 385 439
#
# _framework density 22.356179999999998
#
# number of rings (size 3 to 8) (size 9 to 14) (size 15 to 20)
#    0.000    0.571    2.857    4.714    8.000    1.714 
#    0.000    0.000    0.000    0.000    0.000    0.000 
#    0.000    0.000    0.000    0.000    0.000    0.000 
#
# Total GULP energy -78162.935941 kJ/mol
# GULP energy per Si atom -5583.066853 kJ/mol
# Density = 2.230530 g / cm^3
# Si number density = 22.356180 Si / 1000 Ang^3
#
#
#
# Elastic Constant Matrix: (Units=GPa)
#
#
# Indices 1 2 3 4 5 6 
#
# 1 76.9457 23.1709 34.1558 5.3804 10.0417 -0.6358
# 2 23.1709 94.0361 12.7379 12.6223 -10.0567 -8.1376
# 3 34.1558 12.7379 140.9921 25.2079 5.0096 4.3026
# 4 5.3804 12.6223 25.2079 38.9669 -13.1822 -5.4300
# 5 10.0417 -10.0567 5.0096 -13.1822 36.2246 15.0123
# 6 -0.6358 -8.1376 4.3026 -5.4300 15.0123 41.1116
#
#
#
# Elastic Compliance Matrix: (Units=1/GPa)
#
#
# Indices 1 2 3 4 5 6 
#
# 1 0.016604 -0.004048 -0.003376 -0.000660 -0.006345 0.002039
# 2 -0.004048 0.012351 0.000125 -0.002270 0.003358 0.000843
# 3 -0.003376 0.000125 0.009148 -0.006376 -0.002189 -0.001028
# 4 -0.000660 -0.002270 -0.006376 0.035080 0.013190 0.000025
# 5 -0.006345 0.003358 -0.002189 0.013190 0.040472 -0.012241
# 6 0.002039 0.000843 -0.001028 0.000025 -0.012241 0.029103
#
#
# Mechanical properties :
#
#
# Convention : Reuss Voigt Hill
#
# Bulk Modulus (GPa) = 42.53810 50.23368 46.38589
# Shear Modulus (GPa) = 30.26805 39.38791 34.82798
#
# Velocity S-wave (km/s) = 3.68353 4.20198 3.95127
# Velocity P-wave (km/s) = 6.09590 6.78680 6.45060
#
# Compressibility (1/GPa) = 0.02350834
#
# Stress axis : x y z
#
# Youngs Moduli (GPa) = 60.22469 80.96289 109.31175
#
# Poissons Ratio (x) = 0.32771 0.36899
# Poissons Ratio (y) = 0.24377 -0.01371
# Poissons Ratio (z) = 0.20329 -0.01015
#
# Static dielectric constant tensor:
#      x y z
#    x 1.807470 -0.007320 -0.071970 
#    y -0.007320 1.884940 -0.090100 
#    z -0.071970 -0.090100 1.998110 
# 
# From -- ./inp_files/27184.got.cif
#   From: 2010.05.17/outbox.cif.g08.bks.cpg/sg2_14_cif.got.tgz:27184.got - 2010.06.03 11:33:40.
