data_PCOD9060622
_publ_section_title
;
Structure prediction by ZEFSAII (Michael W. Deem and Ramdas Pophale) SiO2 
 PCOD9060622
Probable space group: P -1
;
_chemical_formula_sum "Si O2"
_cell_formula_units_Z 14
_cell_length_a 11.496346
_cell_length_b 13.501483
_cell_length_c 11.491749
_cell_angle_alpha 158.289501
_cell_angle_beta 116.673109
_cell_angle_gamma 66.781463
_cell_volume 588.205453
_symmetry_space_group_name_H-M "P -1"
_symmetry_group_IT_number 2
_symmetry_cell_setting 'triclinic'
loop_
_space_group_symop_operation_xyz
x,y,z
-x,-y,-z
loop_
_atom_site_type_symbol
_atom_site_label
_atom_site_fract_x
_atom_site_fract_y
_atom_site_fract_z
Si Si1 0.854041 0.051094 0.276596
Si Si2 0.446372 0.948176 0.790879
Si Si3 0.095306 0.398091 0.027808
Si Si4 0.729878 0.100651 0.769782
Si Si5 0.005943 0.209440 0.128024
Si Si6 0.355099 0.245719 0.857305
Si Si7 0.579420 0.614425 0.309679
O O1 0.708388 0.087607 0.294057
O O2 0.907226 0.357488 0.613467
O O3 0.925761 0.889060 0.232954
O O4 0.866533 0.856807 0.960614
O O5 0.533744 0.721887 0.531454
O O6 0.443072 0.153255 0.903458
O O7 0.500000 0.000000 0.000000
O O8 0.233479 0.380030 0.005379
O O9 0.000000 0.500000 0.000000
O O10 0.698794 0.007062 0.521096
O O11 0.647312 0.871064 0.555262
O O12 0.881957 0.126955 0.899436
O O13 0.678723 0.384422 0.091880
O O14 0.000000 0.500000 0.500000
O O15 0.000000 0.000000 0.000000
O O16 0.440588 0.452130 0.038479
#
# Coordination Sequence:
#
# PCOD9060622 Si02
#       7
#     2   2   2   2   2   2   2
#     4  11  25  47  70 105 141 187 243 301 359 437
#     4  11  27  47  76 108 147 196 244 302 367 435
#     4  11  23  43  74 105 143 187 239 300 367 429
#     4  12  28  44  79 108 150 196 245 300 371 438
#     4  12  28  51  73 106 146 195 249 304 365 437
#     4  11  25  47  73 114 152 192 246 303 370 436
#     4  12  25  48  72 113 148 196 244 302 366 439
#
# _framework density 23.801207999999999
#
# number of rings (size 3 to 8) (size 9 to 14) (size 15 to 20)
#    0.000    0.571    2.857    3.857    6.000    2.857 
#    0.000    0.000    0.000    0.000    0.000    0.000 
#    0.000    0.000    0.000    0.000    0.000    0.000 
#
# Total GULP energy -78147.721337 kJ/mol
# GULP energy per Si atom -5581.980096 kJ/mol
# Density = 2.374704 g / cm^3
# Si number density = 23.801208 Si / 1000 Ang^3
#
#
#
# Elastic Constant Matrix: (Units=GPa)
#
#
# Indices 1 2 3 4 5 6 
#
# 1 88.8436 28.6584 37.6797 9.2456 -30.3902 4.5257
# 2 28.6584 130.9310 71.2404 8.2693 -4.7104 -6.1430
# 3 37.6797 71.2404 161.3057 18.4172 -37.2738 7.2048
# 4 9.2456 8.2693 18.4172 39.0216 -2.1935 -4.3003
# 5 -30.3902 -4.7104 -37.2738 -2.1935 43.0953 3.0979
# 6 4.5257 -6.1430 7.2048 -4.3003 3.0979 29.2439
#
#
#
# Elastic Compliance Matrix: (Units=1/GPa)
#
#
# Indices 1 2 3 4 5 6 
#
# 1 0.017163 -0.004189 0.001609 -0.003843 0.013265 -0.005903
# 2 -0.004189 0.012008 -0.006552 0.001756 -0.007640 0.005853
# 3 0.001609 -0.006552 0.012129 -0.004808 0.011131 -0.006500
# 4 -0.003843 0.001756 -0.004808 0.028885 -0.005709 0.007000
# 5 0.013265 -0.007640 0.011131 -0.005709 0.041900 -0.011678
# 6 -0.005903 0.005853 -0.006500 0.007000 -0.011678 0.040206
#
#
# Mechanical properties :
#
#
# Convention : Reuss Voigt Hill
#
# Bulk Modulus (GPa) = 43.41242 72.91528 58.16385
# Shear Modulus (GPa) = 28.05295 38.50563 33.27929
#
# Velocity S-wave (km/s) = 3.43685 4.02655 3.74333
# Velocity P-wave (km/s) = 5.83339 7.23320 6.57068
#
# Compressibility (1/GPa) = 0.02303488
#
# Stress axis : x y z
#
# Youngs Moduli (GPa) = 58.26549 83.27458 82.44817
#
# Poissons Ratio (x) = 0.34883 -0.13262
# Poissons Ratio (y) = 0.24407 0.54023
# Poissons Ratio (z) = -0.09372 0.54564
#
# Static dielectric constant tensor:
#      x y z
#    x 1.934960 -0.031720 0.031730 
#    y -0.031720 1.882000 0.010400 
#    z 0.031730 0.010400 1.937070 
# 
# From -- ./inp_files/434398.got.cif
#   From: 2010.05.17/outbox.cif.g08.bks.cpg/sg2_218_cif.got.tgz:434398.got - 2010.06.03 11:33:40.
