data_PCOD9060112
_publ_section_title
;
Structure prediction by ZEFSAII (Michael W. Deem and Ramdas Pophale) SiO2 
 PCOD9060112
Probable space group: P -1
;
_chemical_formula_sum "Si O2"
_cell_formula_units_Z 16
_cell_length_a 6.791402
_cell_length_b 9.813798
_cell_length_c 20.085147
_cell_angle_alpha 49.037329
_cell_angle_beta 120.184189
_cell_angle_gamma 131.699314
_cell_volume 749.468017
_symmetry_space_group_name_H-M "P -1"
_symmetry_group_IT_number 2
_symmetry_cell_setting 'triclinic'
loop_
_space_group_symop_operation_xyz
x,y,z
-x,-y,-z
loop_
_atom_site_type_symbol
_atom_site_label
_atom_site_fract_x
_atom_site_fract_y
_atom_site_fract_z
Si Si1 0.916508 0.911343 0.213600
Si Si2 0.696739 0.689177 0.520892
Si Si3 0.310271 0.917313 0.558059
Si Si4 0.537113 0.556174 0.065411
Si Si5 0.605809 0.117781 0.050318
Si Si6 0.653194 0.486216 0.721389
Si Si7 0.095590 0.795906 0.146055
Si Si8 0.618132 0.758122 0.740824
O O1 0.642841 0.711889 0.254727
O O2 0.021121 0.844761 0.189299
O O3 0.845556 0.087623 0.123010
O O4 0.137736 0.011071 0.275662
O O5 0.500000 0.500000 0.500000
O O6 0.666137 0.601605 0.618591
O O7 0.005794 0.787858 0.524070
O O8 0.649366 0.884687 0.454931
O O9 0.386677 0.775604 0.660300
O O10 0.500000 0.000000 0.500000
O O11 0.471669 0.366969 0.164971
O O12 0.844100 0.729873 0.077212
O O13 0.500000 0.500000 0.000000
O O14 0.354840 0.653487 0.021982
O O15 0.365881 0.993202 0.101707
O O16 0.500000 0.000000 0.000000
O O17 0.846917 0.393963 0.781432
O O18 0.708696 0.638469 0.744265
#
# Coordination Sequence:
#
# PCOD9060112 Si02
#       8
#     2   2   2   2   2   2   2   2
#     4  11  26  44  70 100 135 190 237 291 355 413
#     4  11  27  46  78 110 144 187 233 290 365 428
#     4  11  26  50  73 109 149 182 236 300 350 431
#     4  12  25  41  68 102 136 190 236 289 357 413
#     4  11  23  43  65  93 135 181 240 296 349 413
#     4  11  25  46  69 105 141 183 234 291 350 428
#     4  11  23  45  65  96 141 181 238 297 345 422
#     4  12  26  47  71 101 145 186 233 291 356 422
#
# _framework density 21.348478
#
# number of rings (size 3 to 8) (size 9 to 14) (size 15 to 20)
#    0.000    0.750    3.750    2.625    7.000    1.000 
#    2.250    0.000    0.000    0.000    0.000    0.000 
#    0.000    0.000    0.000    0.000    0.000    0.000 
#
# Total GULP energy -89580.327163 kJ/mol
# GULP energy per Si atom -5598.770448 kJ/mol
# Density = 2.129989 g / cm^3
# Si number density = 21.348478 Si / 1000 Ang^3
#
#
#
# Elastic Constant Matrix: (Units=GPa)
#
#
# Indices 1 2 3 4 5 6 
#
# 1 136.9845 50.5707 38.2156 -2.5573 2.3516 -7.5811
# 2 50.5707 119.1119 13.9199 17.1343 0.0572 -8.8175
# 3 38.2156 13.9199 91.6583 -9.8232 -7.9308 -15.4776
# 4 -2.5573 17.1343 -9.8232 32.1350 -5.7672 5.9217
# 5 2.3516 0.0572 -7.9308 -5.7672 38.6294 -9.0077
# 6 -7.5811 -8.8175 -15.4776 5.9217 -9.0077 31.2127
#
#
#
# Elastic Compliance Matrix: (Units=1/GPa)
#
#
# Indices 1 2 3 4 5 6 
#
# 1 0.009808 -0.004108 -0.003604 0.001867 -0.001358 -0.001312
# 2 -0.004108 0.011449 -0.000213 -0.007148 -0.000069 0.003467
# 3 -0.003604 -0.000213 0.014537 0.003940 0.005448 0.007098
# 4 0.001867 -0.007148 0.003940 0.038198 0.005156 -0.005371
# 5 -0.001358 -0.000069 0.005448 0.005156 0.030211 0.010092
# 6 -0.001312 0.003467 0.007098 -0.005371 0.010092 0.040150
#
#
# Mechanical properties :
#
#
# Convention : Reuss Voigt Hill
#
# Bulk Modulus (GPa) = 50.13805 61.46301 55.80053
# Shear Modulus (GPa) = 29.96672 36.73199 33.34936
#
# Velocity S-wave (km/s) = 3.75065 4.15250 3.95668
# Velocity P-wave (km/s) = 6.50331 7.20027 6.86065
#
# Compressibility (1/GPa) = 0.01994493
#
# Stress axis : x y z
#
# Youngs Moduli (GPa) = 101.96132 87.34170 68.78866
#
# Poissons Ratio (x) = 0.35878 0.24793
# Poissons Ratio (y) = 0.41883 0.01463
# Poissons Ratio (z) = 0.36749 0.01857
#
# Static dielectric constant tensor:
#      x y z
#    x 1.758870 0.015150 0.016900 
#    y 0.015150 1.765980 -0.042520 
#    z 0.016900 -0.042520 1.771350 
# 
# From -- ./inp_files/324256.got.cif
#   From: 2010.05.17/outbox.cif.g08.bks.cpg/sg2_163_cif.got.tgz:324256.got - 2010.06.03 11:33:40.
