data_PCOD9060163
_publ_section_title
;
Structure prediction by ZEFSAII (Michael W. Deem and Ramdas Pophale) SiO2 
 PCOD9060163
Probable space group: P -1
;
_chemical_formula_sum "Si O2"
_cell_formula_units_Z 16
_cell_length_a 12.531625
_cell_length_b 12.901510
_cell_length_c 9.851548
_cell_angle_alpha 43.974303
_cell_angle_beta 122.537212
_cell_angle_gamma 94.561643
_cell_volume 793.294989
_symmetry_space_group_name_H-M "P -1"
_symmetry_group_IT_number 2
_symmetry_cell_setting 'triclinic'
loop_
_space_group_symop_operation_xyz
x,y,z
-x,-y,-z
loop_
_atom_site_type_symbol
_atom_site_label
_atom_site_fract_x
_atom_site_fract_y
_atom_site_fract_z
Si Si1 0.562908 0.240835 0.376496
Si Si2 0.914235 0.966345 0.855444
Si Si3 0.128927 0.496665 0.177865
Si Si4 0.425974 0.155769 0.608603
Si Si5 0.595922 0.148434 0.999223
Si Si6 0.924959 0.437431 0.613955
Si Si7 0.406178 0.442584 0.805031
Si Si8 0.903024 0.127317 0.195919
O O1 0.494046 0.159867 0.506589
O O2 0.556619 0.405966 0.291960
O O3 0.737770 0.100864 0.603217
O O4 0.472535 0.317855 0.101282
O O5 0.999543 0.966047 0.780920
O O6 0.956583 0.767020 0.087289
O O7 0.000000 0.000000 0.000000
O O8 0.281173 0.342981 0.364347
O O9 0.113333 0.468182 0.354201
O O10 0.119545 0.681276 0.988513
O O11 0.000000 0.500000 0.000000
O O12 0.385824 0.007040 0.743922
O O13 0.538087 0.127111 0.834570
O O14 0.745845 0.143686 0.077439
O O15 0.482534 0.327323 0.831850
O O16 0.770575 0.469538 0.416848
O O17 0.000000 0.500000 0.500000
O O18 0.000000 0.000000 0.500000
#
# Coordination Sequence:
#
# PCOD9060163 Si02
#       8
#     2   2   2   2   2   2   2   2
#     4  11  25  42  71 100 136 174 223 279 325 403
#     4  11  23  43  67 100 130 176 223 266 332 398
#     4  11  25  44  68 100 131 174 228 274 334 394
#     4  11  25  42  68 101 133 175 221 275 329 396
#     4  11  24  43  68  97 134 174 222 272 336 393
#     4  11  26  44  68  95 138 178 218 277 335 400
#     4  11  24  46  65 101 133 177 225 269 341 394
#     4  11  24  43  68  97 134 173 217 279 328 398
#
# _framework density 20.169042999999999
#
# number of rings (size 3 to 8) (size 9 to 14) (size 15 to 20)
#    0.000    1.000    2.500    3.000    5.250    5.500 
#    0.000    0.000    0.000    0.000    0.000    0.000 
#    0.000    0.000    0.000    0.000    0.000    0.000 
#
# Total GULP energy -89476.689070 kJ/mol
# GULP energy per Si atom -5592.293067 kJ/mol
# Density = 2.012314 g / cm^3
# Si number density = 20.169043 Si / 1000 Ang^3
#
#
#
# Elastic Constant Matrix: (Units=GPa)
#
#
# Indices 1 2 3 4 5 6 
#
# 1 148.3127 35.6640 48.5178 -4.5770 -13.1665 0.4708
# 2 35.6640 63.6301 13.9852 1.6916 1.6873 -4.2018
# 3 48.5178 13.9852 91.9799 1.8243 2.3977 -4.4748
# 4 -4.5770 1.6916 1.8243 31.5184 -7.8538 14.8441
# 5 -13.1665 1.6873 2.3977 -7.8538 31.3722 -0.7298
# 6 0.4708 -4.2018 -4.4748 14.8441 -0.7298 18.1880
#
#
#
# Elastic Compliance Matrix: (Units=1/GPa)
#
#
# Indices 1 2 3 4 5 6 
#
# 1 0.011022 -0.005999 -0.005752 0.008775 0.007353 -0.009953
# 2 -0.005999 0.020062 0.001048 -0.009259 -0.005707 0.012376
# 3 -0.005752 0.001048 0.014534 -0.007834 -0.005306 0.010148
# 4 0.008775 -0.009259 -0.007834 0.065897 0.019944 -0.057275
# 5 0.007353 -0.005707 -0.005306 0.019944 0.040260 -0.017476
# 6 -0.009953 0.012376 0.010148 -0.057275 -0.017476 0.106639
#
#
# Mechanical properties :
#
#
# Convention : Reuss Voigt Hill
#
# Bulk Modulus (GPa) = 41.29882 55.58408 48.44145
# Shear Modulus (GPa) = 17.36778 29.93274 23.65026
#
# Velocity S-wave (km/s) = 2.93765 3.85657 3.42804
# Velocity P-wave (km/s) = 5.65926 6.88838 6.30385
#
# Compressibility (1/GPa) = 0.02421377
#
# Stress axis : x y z
#
# Youngs Moduli (GPa) = 90.72930 49.84425 68.80501
#
# Poissons Ratio (x) = 0.29901 0.39574
# Poissons Ratio (y) = 0.54428 -0.07214
# Poissons Ratio (z) = 0.52184 -0.05226
#
# Static dielectric constant tensor:
#      x y z
#    x 1.669760 -0.003050 -0.024090 
#    y -0.003050 1.694150 -0.034590 
#    z -0.024090 -0.034590 1.653480 
# 
# From -- ./inp_files/261700.got.cif
#   From: 2010.05.17/outbox.cif.g08.bks.cpg/sg2_131_cif.got.tgz:261700.got - 2010.06.03 11:33:40.
