data_PCOD9060514
_publ_section_title
;
Structure prediction by ZEFSAII (Michael W. Deem and Ramdas Pophale) SiO2 
 PCOD9060514
Probable space group: P -1
;
_chemical_formula_sum "Si O2"
_cell_formula_units_Z 16
_cell_length_a 11.670976
_cell_length_b 11.233153
_cell_length_c 13.488199
_cell_angle_alpha 85.591362
_cell_angle_beta 145.192575
_cell_angle_gamma 118.826622
_cell_volume 681.004141
_symmetry_space_group_name_H-M "P -1"
_symmetry_group_IT_number 2
_symmetry_cell_setting 'triclinic'
loop_
_space_group_symop_operation_xyz
x,y,z
-x,-y,-z
loop_
_atom_site_type_symbol
_atom_site_label
_atom_site_fract_x
_atom_site_fract_y
_atom_site_fract_z
Si Si1 0.308709 0.201335 0.183503
Si Si2 0.382774 0.876734 0.517095
Si Si3 0.808169 0.666820 0.759730
Si Si4 0.488404 0.228915 0.083490
Si Si5 0.828785 0.138861 0.342148
Si Si6 0.422225 0.839991 0.213045
Si Si7 0.177123 0.404938 0.756411
Si Si8 0.894704 0.881928 0.633406
O O1 0.528555 0.222132 0.408120
O O2 0.265510 0.315856 0.184403
O O3 0.426055 0.237072 0.153224
O O4 0.000000 0.000000 0.000000
O O5 0.033860 0.723083 0.295038
O O6 0.500000 0.000000 0.500000
O O7 0.527946 0.011648 0.704056
O O8 0.500000 0.500000 0.500000
O O9 0.917148 0.824952 0.758116
O O10 0.073375 0.686357 0.951464
O O11 0.595318 0.140233 0.150301
O O12 0.759592 0.427581 0.224701
O O13 0.165652 0.095998 0.810836
O O14 0.031475 0.284695 0.562925
O O15 0.029893 0.180738 0.393506
O O16 0.631422 0.944299 0.258784
O O17 0.581119 0.808699 0.394432
O O18 0.500000 0.500000 0.000000
#
# Coordination Sequence:
#
# PCOD9060514 Si02
#       8
#     2   2   2   2   2   2   2   2
#     4  12  22  45  73  99 135 191 240 290 352 438
#     4  11  23  43  72 101 140 187 239 291 362 428
#     4  12  28  46  67 105 143 187 243 291 361 426
#     4  12  23  44  75 103 143 185 244 296 362 424
#     4  11  23  46  69 104 142 185 233 294 361 433
#     4  11  23  46  69 100 137 185 243 284 356 435
#     4  11  26  43  67 112 145 180 244 306 352 423
#     4  12  25  45  74 100 142 194 231 295 366 427
#
# _framework density 23.494717000000001
#
# number of rings (size 3 to 8) (size 9 to 14) (size 15 to 20)
#    0.000    0.500    6.250    3.375    3.500    0.500 
#    2.250    0.000    0.000    0.000    0.000    0.000 
#    0.000    0.000    0.000    0.000    0.000    0.000 
#
# Total GULP energy -89491.547769 kJ/mol
# GULP energy per Si atom -5593.221736 kJ/mol
# Density = 2.344124 g / cm^3
# Si number density = 23.494717 Si / 1000 Ang^3
#
#
#
# Elastic Constant Matrix: (Units=GPa)
#
#
# Indices 1 2 3 4 5 6 
#
# 1 87.5172 21.9159 21.2489 1.8127 14.0972 4.6436
# 2 21.9159 58.0472 25.2762 5.7402 7.4953 16.9512
# 3 21.2489 25.2762 176.6426 0.9665 21.7905 -1.9400
# 4 1.8127 5.7402 0.9665 49.4161 -4.5891 5.4275
# 5 14.0972 7.4953 21.7905 -4.5891 29.8569 1.4018
# 6 4.6436 16.9512 -1.9400 5.4275 1.4018 27.6648
#
#
#
# Elastic Compliance Matrix: (Units=1/GPa)
#
#
# Indices 1 2 3 4 5 6 
#
# 1 0.013408 -0.004442 -0.000338 -0.000531 -0.005089 0.000810
# 2 -0.004442 0.024670 -0.002967 -0.001212 -0.001447 -0.014267
# 3 -0.000338 -0.002967 0.006671 -0.000450 -0.004157 0.002641
# 4 -0.000531 -0.001212 -0.000450 0.021198 0.004309 -0.003577
# 5 -0.005089 -0.001447 -0.004157 0.004309 0.040022 -0.001424
# 6 0.000810 -0.014267 0.002641 -0.003577 -0.001424 0.045712
#
#
# Mechanical properties :
#
#
# Convention : Reuss Voigt Hill
#
# Bulk Modulus (GPa) = 34.18293 51.00987 42.59640
# Shear Modulus (GPa) = 28.26016 38.30533 33.28274
#
# Velocity S-wave (km/s) = 3.47195 4.04218 3.76787
# Velocity P-wave (km/s) = 5.53655 6.59878 6.09087
#
# Compressibility (1/GPa) = 0.02925437
#
# Stress axis : x y z
#
# Youngs Moduli (GPa) = 74.57977 40.53570 149.90991
#
# Poissons Ratio (x) = 0.18007 0.05063
# Poissons Ratio (y) = 0.33129 0.44483
# Poissons Ratio (z) = 0.02519 0.12028
#
# Static dielectric constant tensor:
#      x y z
#    x 1.917420 0.005360 0.039740 
#    y 0.005360 2.058930 -0.050940 
#    z 0.039740 -0.050940 1.974660 
# 
# From -- ./inp_files/519688.got.cif
#   From: 2010.05.17/outbox.cif.g08.bks.cpg/sg2_260_cif.got.tgz:519688.got - 2010.06.03 11:33:40.
