data_PCOD9060943
_publ_section_title
;
Structure prediction by ZEFSAII (Michael W. Deem and Ramdas Pophale) SiO2 
 PCOD9060943
Probable space group: P -1
;
_chemical_formula_sum "Si O2"
_cell_formula_units_Z 16
_cell_length_a 8.420544
_cell_length_b 19.999751
_cell_length_c 11.686275
_cell_angle_alpha 30.969687
_cell_angle_beta 140.507546
_cell_angle_gamma 132.465052
_cell_volume 643.534378
_symmetry_space_group_name_H-M "P -1"
_symmetry_group_IT_number 2
_symmetry_cell_setting 'triclinic'
loop_
_space_group_symop_operation_xyz
x,y,z
-x,-y,-z
loop_
_atom_site_type_symbol
_atom_site_label
_atom_site_fract_x
_atom_site_fract_y
_atom_site_fract_z
Si Si1 0.053691 0.407398 0.058125
Si Si2 0.379085 0.552209 0.681377
Si Si3 0.853603 0.168627 0.418949
Si Si4 0.599533 0.736257 0.828636
Si Si5 0.728292 0.985059 0.426736
Si Si6 0.990176 0.766948 0.205405
Si Si7 0.252441 0.455580 0.496035
Si Si8 0.680656 0.972313 0.031906
O O1 0.344653 0.385427 0.258894
O O2 0.895185 0.275589 0.186477
O O3 0.000000 0.500000 0.000000
O O4 0.965291 0.476816 0.793204
O O5 0.191901 0.656410 0.467787
O O6 0.291718 0.508661 0.568890
O O7 0.397436 0.417583 0.958501
O O8 0.665404 0.224773 0.323568
O O9 0.739283 0.042028 0.477015
O O10 0.121411 0.133755 0.669122
O O11 0.655565 0.832082 0.614739
O O12 0.817494 0.768584 0.994649
O O13 0.518458 0.056987 0.134995
O O14 0.000000 0.000000 0.500000
O O15 0.142104 0.904143 0.093325
O O16 0.809537 0.699561 0.300203
O O17 0.500000 0.500000 0.500000
O O18 0.500000 0.000000 0.000000
#
# Coordination Sequence:
#
# PCOD9060943 Si02
#       8
#     2   2   2   2   2   2   2   2
#     4  12  24  44  72 108 142 183 240 293 360 426
#     4  11  25  47  72 107 147 188 233 306 355 427
#     4  12  26  48  75 103 151 187 238 304 347 434
#     4  11  23  48  72 105 146 185 243 292 363 422
#     4  12  27  47  75 102 141 197 238 295 363 425
#     4  11  25  47  76 105 151 188 242 301 357 431
#     4  11  23  44  70 105 146 186 233 295 363 421
#     4  12  26  50  71 109 145 190 248 296 356 431
#
# _framework density 24.862698000000002
#
# number of rings (size 3 to 8) (size 9 to 14) (size 15 to 20)
#    0.000    0.500    5.000    3.375    1.750    5.000 
#    4.500    0.000    0.000    0.000    0.000    0.000 
#    0.000    0.000    0.000    0.000    0.000    0.000 
#
# Total GULP energy -89700.105741 kJ/mol
# GULP energy per Si atom -5606.256609 kJ/mol
# Density = 2.480611 g / cm^3
# Si number density = 24.862698 Si / 1000 Ang^3
#
#
#
# Elastic Constant Matrix: (Units=GPa)
#
#
# Indices 1 2 3 4 5 6 
#
# 1 106.0662 24.3746 33.0485 -0.2006 8.9068 14.9439
# 2 24.3746 86.2485 22.8514 11.0923 -0.8119 6.4732
# 3 33.0485 22.8514 131.4740 13.8201 9.0059 -5.5625
# 4 -0.2006 11.0923 13.8201 53.7090 15.8691 1.5853
# 5 8.9068 -0.8119 9.0059 15.8691 50.2835 -3.0871
# 6 14.9439 6.4732 -5.5625 1.5853 -3.0871 37.8138
#
#
#
# Elastic Compliance Matrix: (Units=1/GPa)
#
#
# Indices 1 2 3 4 5 6 
#
# 1 0.011801 -0.002534 -0.002787 0.002209 -0.002633 -0.004947
# 2 -0.002534 0.013187 -0.001530 -0.002821 0.001751 -0.001220
# 3 -0.002787 -0.001530 0.008918 -0.001970 -0.000339 0.002730
# 4 0.002209 -0.002821 -0.001970 0.021886 -0.007125 -0.002179
# 5 -0.002633 0.001751 -0.000339 -0.007125 0.022867 0.002856
# 6 -0.004947 -0.001220 0.002730 -0.002179 0.002856 0.029336
#
#
# Mechanical properties :
#
#
# Convention : Reuss Voigt Hill
#
# Bulk Modulus (GPa) = 49.49600 53.81530 51.65565
# Shear Modulus (GPa) = 38.93128 44.59555 41.76341
#
# Velocity S-wave (km/s) = 3.96138 4.23977 4.10294
# Velocity P-wave (km/s) = 6.39330 6.75718 6.57776
#
# Compressibility (1/GPa) = 0.02020365
#
# Stress axis : x y z
#
# Youngs Moduli (GPa) = 84.73722 75.83373 112.12799
#
# Poissons Ratio (x) = 0.19218 0.31251
# Poissons Ratio (y) = 0.21474 0.17156
# Poissons Ratio (z) = 0.23617 0.11603
#
# Static dielectric constant tensor:
#      x y z
#    x 2.048610 -0.034910 0.006530 
#    y -0.034910 1.999220 -0.053820 
#    z 0.006530 -0.053820 1.961850 
# 
# From -- ./inp_files/405347.got.cif
#   From: 2010.05.17/outbox.cif.g08.bks.cpg/sg2_203_cif.got.tgz:405347.got - 2010.06.03 11:33:40.
