data_PCOD9060918
_publ_section_title
;
Structure prediction by ZEFSAII (Michael W. Deem and Ramdas Pophale) SiO2 
 PCOD9060918
Probable space group: P -1
;
_chemical_formula_sum "Si O2"
_cell_formula_units_Z 14
_cell_length_a 17.138434
_cell_length_b 15.738170
_cell_length_c 5.094301
_cell_angle_alpha 93.606131
_cell_angle_beta 89.168527
_cell_angle_gamma 154.434701
_cell_volume 588.941446
_symmetry_space_group_name_H-M "P -1"
_symmetry_group_IT_number 2
_symmetry_cell_setting 'triclinic'
loop_
_space_group_symop_operation_xyz
x,y,z
-x,-y,-z
loop_
_atom_site_type_symbol
_atom_site_label
_atom_site_fract_x
_atom_site_fract_y
_atom_site_fract_z
Si Si1 0.383559 0.661492 0.366873
Si Si2 0.738320 0.034790 0.704784
Si Si3 0.736375 0.853334 0.811925
Si Si4 0.181829 0.169760 0.687845
Si Si5 0.966613 0.526593 0.259453
Si Si6 0.426152 0.832014 0.985348
Si Si7 0.326362 0.499165 0.844049
O O1 0.301668 0.537227 0.605759
O O2 0.603163 0.872399 0.444331
O O3 0.372769 0.745895 0.260965
O O4 0.292166 0.516088 0.113785
O O5 0.891233 0.255493 0.689797
O O6 0.829625 0.036653 0.793930
O O7 0.587602 0.930911 0.883758
O O8 0.703705 0.769147 0.526141
O O9 0.538707 0.685192 0.886420
O O10 0.825413 0.887806 0.049125
O O11 0.237151 0.320201 0.778083
O O12 0.000000 0.000000 0.500000
O O13 0.000000 0.500000 0.500000
O O14 0.758840 0.351966 0.207921
O O15 0.000000 0.500000 0.000000
O O16 0.500000 0.000000 0.000000
#
# Coordination Sequence:
#
# PCOD9060918 Si02
#       7
#     2   2   2   2   2   2   2
#     4  11  23  44  72 105 136 182 238 293 352 422
#     4  11  26  48  75 106 148 188 243 298 363 421
#     4  11  23  44  70 100 140 186 229 286 353 421
#     4  12  26  43  70 106 141 182 233 288 349 426
#     4  12  29  46  71 109 142 186 244 298 357 425
#     4  12  25  47  78 104 144 193 243 298 358 430
#     4  11  23  44  73  98 137 183 232 282 354 424
#
# _framework density 23.771462
#
# number of rings (size 3 to 8) (size 9 to 14) (size 15 to 20)
#    0.000    0.571    4.286    4.714    2.000    3.429 
#    0.000    0.000    3.143    0.000    0.000    0.000 
#    0.000    0.000    0.000    0.000    0.000    0.000 
#
# Total GULP energy -78246.775441 kJ/mol
# GULP energy per Si atom -5589.055389 kJ/mol
# Density = 2.371736 g / cm^3
# Si number density = 23.771462 Si / 1000 Ang^3
#
#
#
# Elastic Constant Matrix: (Units=GPa)
#
#
# Indices 1 2 3 4 5 6 
#
# 1 124.6540 65.2192 72.0389 -14.6230 15.2408 -50.2295
# 2 65.2192 154.3147 74.9111 7.7641 15.4628 -61.7044
# 3 72.0389 74.9111 202.6999 -20.2821 19.6157 -42.7919
# 4 -14.6230 7.7641 -20.2821 31.0050 -11.3356 -0.2963
# 5 15.2408 15.4628 19.6157 -11.3356 48.2876 -1.5526
# 6 -50.2295 -61.7044 -42.7919 -0.2963 -1.5526 61.5697
#
#
#
# Elastic Compliance Matrix: (Units=1/GPa)
#
#
# Indices 1 2 3 4 5 6 
#
# 1 0.014374 -0.001848 -0.001922 0.005480 -0.001603 0.008524
# 2 -0.001848 0.013135 -0.002453 -0.007128 -0.003984 0.009817
# 3 -0.001922 -0.002453 0.007206 0.004246 -0.000507 0.000989
# 4 0.005480 -0.007128 0.004246 0.042647 0.008863 0.000706
# 5 -0.001603 -0.003984 -0.000507 0.008863 0.024617 -0.004990
# 6 0.008524 0.009817 0.000989 0.000706 -0.004990 0.033599
#
#
# Mechanical properties :
#
#
# Convention : Reuss Voigt Hill
#
# Bulk Modulus (GPa) = 44.90808 100.66744 72.78776
# Shear Modulus (GPa) = 32.16532 46.13908 39.15220
#
# Velocity S-wave (km/s) = 3.68245 4.41039 4.06276
# Velocity P-wave (km/s) = 6.08385 8.26894 7.25908
#
# Compressibility (1/GPa) = 0.02226771
#
# Stress axis : x y z
#
# Youngs Moduli (GPa) = 69.57114 76.13059 138.77803
#
# Poissons Ratio (x) = 0.14072 0.26678
# Poissons Ratio (y) = 0.12860 0.34039
# Poissons Ratio (z) = 0.13374 0.18673
#
# Static dielectric constant tensor:
#      x y z
#    x 1.845270 0.139590 0.029270 
#    y 0.139590 1.839960 -0.097360 
#    z 0.029270 -0.097360 1.879780 
# 
# From -- ./inp_files/110860.got.cif
#   From: 2010.05.17/outbox.cif.g08.bks.cpg/sg2_56_cif.got.tgz:110860.got - 2010.06.03 11:33:40.
