data_PCOD9060467
_publ_section_title
;
Structure prediction by ZEFSAII (Michael W. Deem and Ramdas Pophale) SiO2 
 PCOD9060467
Probable space group: P -1
;
_chemical_formula_sum "Si O2"
_cell_formula_units_Z 16
_cell_length_a 8.035364
_cell_length_b 9.371316
_cell_length_c 22.342157
_cell_angle_alpha 151.556847
_cell_angle_beta 61.267707
_cell_angle_gamma 119.952479
_cell_volume 690.730875
_symmetry_space_group_name_H-M "P -1"
_symmetry_group_IT_number 2
_symmetry_cell_setting 'triclinic'
loop_
_space_group_symop_operation_xyz
x,y,z
-x,-y,-z
loop_
_atom_site_type_symbol
_atom_site_label
_atom_site_fract_x
_atom_site_fract_y
_atom_site_fract_z
Si Si1 0.238443 0.065963 0.711208
Si Si2 0.060384 0.231967 0.521532
Si Si3 0.094353 0.280591 0.126734
Si Si4 0.535739 0.297997 0.063718
Si Si5 0.812044 0.145290 0.223640
Si Si6 0.430103 0.023176 0.179601
Si Si7 0.652047 0.280803 0.547083
Si Si8 0.130298 0.867808 0.270786
O O1 0.346271 0.414822 0.815859
O O2 0.023576 0.036510 0.712414
O O3 0.224676 0.020993 0.768347
O O4 0.328862 0.833481 0.567355
O O5 0.862194 0.296381 0.548704
O O6 0.197721 0.512922 0.630927
O O7 0.000000 0.000000 0.500000
O O8 0.179634 0.112085 0.404251
O O9 0.323242 0.366927 0.114638
O O10 0.027827 0.572383 0.216321
O O11 0.021324 0.188031 0.172028
O O12 0.000000 0.000000 0.000000
O O13 0.500000 0.000000 0.000000
O O14 0.624224 0.185964 0.946361
O O15 0.653796 0.029953 0.158783
O O16 0.398195 0.377540 0.312248
O O17 0.312545 0.856015 0.194207
O O18 0.500000 0.000000 0.500000
#
# Coordination Sequence:
#
# PCOD9060467 Si02
#       8
#     2   2   2   2   2   2   2   2
#     4  11  27  47  72 107 139 182 235 287 348 413
#     4  11  23  43  71 104 136 181 231 281 348 414
#     4  12  26  46  71  98 144 185 229 285 346 414
#     4  12  28  46  72 105 140 183 236 283 352 416
#     4  12  26  44  73 103 140 183 233 284 350 408
#     4  12  27  45  70 104 143 182 233 292 341 412
#     4  11  25  44  73 103 143 180 233 291 346 410
#     4  11  26  47  71 103 142 181 230 290 344 412
#
# _framework density 23.163871
#
# number of rings (size 3 to 8) (size 9 to 14) (size 15 to 20)
#    0.000    0.500    2.500    4.500    8.750    7.500 
#    0.000    0.000    0.000    0.000    0.000    0.000 
#    0.000    0.000    0.000    0.000    0.000    0.000 
#
# Total GULP energy -89429.238889 kJ/mol
# GULP energy per Si atom -5589.327431 kJ/mol
# Density = 2.311115 g / cm^3
# Si number density = 23.163871 Si / 1000 Ang^3
#
#
#
# Elastic Constant Matrix: (Units=GPa)
#
#
# Indices 1 2 3 4 5 6 
#
# 1 28.5268 1.6376 4.6080 -10.0510 1.5189 -6.5415
# 2 1.6376 88.5223 3.5041 -19.2525 -10.5507 -5.1950
# 3 4.6080 3.5041 88.7469 -26.4058 16.3277 -0.3888
# 4 -10.0510 -19.2525 -26.4058 41.7825 1.9778 -1.2947
# 5 1.5189 -10.5507 16.3277 1.9778 31.2826 2.1730
# 6 -6.5415 -5.1950 -0.3888 -1.2947 2.1730 35.6464
#
#
#
# Elastic Compliance Matrix: (Units=1/GPa)
#
#
# Indices 1 2 3 4 5 6 
#
# 1 0.041237 0.001948 0.002345 0.012753 -0.003971 0.008582
# 2 0.001948 0.013297 0.000875 0.007064 0.003323 0.002359
# 3 0.002345 0.000875 0.016312 0.011764 -0.009196 0.001724
# 4 0.012753 0.007064 0.011764 0.038195 -0.007162 0.005322
# 5 -0.003971 0.003323 -0.009196 -0.007162 0.038739 -0.002966
# 6 0.008582 0.002359 0.001724 0.005322 -0.002966 0.030365
#
#
# Mechanical properties :
#
#
# Convention : Reuss Voigt Hill
#
# Bulk Modulus (GPa) = 12.31820 25.03285 18.67552
# Shear Modulus (GPa) = 25.65827 34.81205 30.23516
#
# Velocity S-wave (km/s) = 3.33180 3.88088 3.61677
# Velocity P-wave (km/s) = 4.48671 5.55985 5.05186
#
# Compressibility (1/GPa) = 0.08118071
#
# Stress axis : x y z
#
# Youngs Moduli (GPa) = 24.25010 75.20624 61.30628
#
# Poissons Ratio (x) = -0.14653 -0.14375
# Poissons Ratio (y) = -0.04725 -0.05362
# Poissons Ratio (z) = -0.05686 -0.06578
#
# Static dielectric constant tensor:
#      x y z
#    x 2.085900 -0.003630 -0.166500 
#    y -0.003630 1.929150 0.026820 
#    z -0.166500 0.026820 1.933150 
# 
# From -- ./inp_files/352350.got.cif
#   From: 2010.05.17/outbox.cif.g08.bks.cpg/sg2_177_cif.got.tgz:352350.got - 2010.06.03 11:33:40.
