data_PCOD9060457
_publ_section_title
;
Structure prediction by ZEFSAII (Michael W. Deem and Ramdas Pophale) SiO2 
 PCOD9060457
Probable space group: P -1
;
_chemical_formula_sum "Si O2"
_cell_formula_units_Z 16
_cell_length_a 10.422066
_cell_length_b 11.945277
_cell_length_c 6.354392
_cell_angle_alpha 113.295925
_cell_angle_beta 106.054392
_cell_angle_gamma 90.075775
_cell_volume 692.742876
_symmetry_space_group_name_H-M "P -1"
_symmetry_group_IT_number 2
_symmetry_cell_setting 'triclinic'
loop_
_space_group_symop_operation_xyz
x,y,z
-x,-y,-z
loop_
_atom_site_type_symbol
_atom_site_label
_atom_site_fract_x
_atom_site_fract_y
_atom_site_fract_z
Si Si1 0.957132 0.616848 0.446775
Si Si2 0.558712 0.313906 0.832069
Si Si3 0.989711 0.041343 0.785830
Si Si4 0.370023 0.856144 0.942780
Si Si5 0.873377 0.165956 0.506516
Si Si6 0.304415 0.426264 0.000343
Si Si7 0.576428 0.875299 0.692532
Si Si8 0.182436 0.251934 0.169321
O O1 0.821710 0.584386 0.224532
O O2 0.925470 0.705072 0.689541
O O3 0.000000 0.500000 0.500000
O O4 0.067691 0.692822 0.400553
O O5 0.650836 0.266199 0.019944
O O6 0.423887 0.357522 0.904097
O O7 0.518630 0.198749 0.575855
O O8 0.635512 0.431828 0.839699
O O9 0.864459 0.108780 0.695829
O O10 0.015290 0.917600 0.588465
O O11 0.113275 0.150207 0.902823
O O12 0.000000 0.000000 0.000000
O O13 0.391303 0.978306 0.185165
O O14 0.255682 0.864601 0.722521
O O15 0.507223 0.850713 0.870696
O O16 0.255707 0.363789 0.150958
O O17 0.711871 0.813658 0.699717
#
# Coordination Sequence:
#
# PCOD9060457 Si02
#       8
#     2   2   2   2   2   2   2   2
#     4  12  26  45  70 100 140 186 230 289 346 416
#     4  11  24  44  70 100 139 190 236 285 349 408
#     4  11  23  43  71 103 134 186 228 280 354 417
#     4  11  24  44  68 108 141 175 236 292 346 421
#     4  11  24  42  70 102 142 176 227 288 346 417
#     4  11  25  44  70  99 138 186 241 285 339 424
#     4  11  24  43  71 101 136 185 226 297 352 406
#     4  12  23  46  72  95 141 179 233 288 352 411
#
# _framework density 23.096592999999999
#
# number of rings (size 3 to 8) (size 9 to 14) (size 15 to 20)
#    0.000    0.750    6.250    1.125    0.000    4.000 
#    6.750    0.000    0.000    0.000    0.000    0.000 
#    0.000    0.000    0.000    0.000    0.000    0.000 
#
# Total GULP energy -89425.358551 kJ/mol
# GULP energy per Si atom -5589.084909 kJ/mol
# Density = 2.304402 g / cm^3
# Si number density = 23.096593 Si / 1000 Ang^3
#
#
#
# Elastic Constant Matrix: (Units=GPa)
#
#
# Indices 1 2 3 4 5 6 
#
# 1 31.5819 28.0611 11.6588 17.4298 -4.8187 2.4698
# 2 28.0611 138.7570 24.3586 4.2604 0.1525 -6.6205
# 3 11.6588 24.3586 75.9660 2.6297 24.8187 -9.4201
# 4 17.4298 4.2604 2.6297 1.8900 16.6332 6.7577
# 5 -4.8187 0.1525 24.8187 16.6332 26.7918 -2.4442
# 6 2.4698 -6.6205 -9.4201 6.7577 -2.4442 34.8363
#
#
#
# Elastic Compliance Matrix: (Units=1/GPa)
#
#
# Indices 1 2 3 4 5 6 
#
# 1 0.017776 -0.005311 0.002711 0.028216 -0.017553 -0.008242
# 2 -0.005311 0.008927 -0.002753 -0.002316 0.003165 0.002000
# 3 0.002711 -0.002753 0.016736 -0.014115 -0.005676 0.006150
# 4 0.028216 -0.002316 -0.014115 -0.028283 0.035882 0.001747
# 5 -0.017553 0.003165 -0.005676 0.035882 0.016631 -0.005483
# 6 -0.008242 0.002000 0.006150 0.001747 -0.005483 0.030610
#
#
# Mechanical properties :
#
#
# Convention : Reuss Voigt Hill
#
# Bulk Modulus (GPa) = 30.55040 41.60687 36.07864
# Shear Modulus (GPa) = 59.51350 24.85205 42.18277
#
# Velocity S-wave (km/s) = 5.08165 3.28381 4.27823
# Velocity P-wave (km/s) = 6.90556 5.69485 6.32922
#
# Compressibility (1/GPa) = 0.03273279
#
# Stress axis : x y z
#
# Youngs Moduli (GPa) = 56.25563 112.01620 59.75034
#
# Poissons Ratio (x) = 0.59492 -0.16197
# Poissons Ratio (y) = 0.29878 0.16450
# Poissons Ratio (z) = -0.15250 0.30840
#
# Static dielectric constant tensor:
#      x y z
#    x 1.884320 0.026040 -0.035330 
#    y 0.026040 1.872180 -0.065040 
#    z -0.035330 -0.065040 1.959710 
# 
# From -- ./inp_files/72017.got.cif
#   From: 2010.05.17/outbox.cif.g08.bks.cpg/sg2_37_cif.got.tgz:72017.got - 2010.06.03 11:33:40.
