data_PCOD9060849
_publ_section_title
;
Structure prediction by ZEFSAII (Michael W. Deem and Ramdas Pophale) SiO2 
 PCOD9060849
Probable space group: P -1
;
_chemical_formula_sum "Si O2"
_cell_formula_units_Z 14
_cell_length_a 7.554544
_cell_length_b 20.838719
_cell_length_c 6.085266
_cell_angle_alpha 121.909413
_cell_angle_beta 67.479671
_cell_angle_gamma 123.618292
_cell_volume 671.648545
_symmetry_space_group_name_H-M "P -1"
_symmetry_group_IT_number 2
_symmetry_cell_setting 'triclinic'
loop_
_space_group_symop_operation_xyz
x,y,z
-x,-y,-z
loop_
_atom_site_type_symbol
_atom_site_label
_atom_site_fract_x
_atom_site_fract_y
_atom_site_fract_z
Si Si1 0.447418 0.455137 0.196330
Si Si2 0.330918 0.760586 0.024118
Si Si3 0.693630 0.822832 0.636786
Si Si4 0.822577 0.112905 0.572780
Si Si5 0.376202 0.672241 0.242984
Si Si6 0.576645 0.957062 0.695234
Si Si7 0.965567 0.405620 0.388352
O O1 0.500000 0.500000 0.500000
O O2 0.191346 0.406142 0.241859
O O3 0.500000 0.500000 0.000000
O O4 0.557489 0.392908 0.025421
O O5 0.566013 0.812606 0.905024
O O6 0.207692 0.667821 0.810574
O O7 0.196254 0.812724 0.146019
O O8 0.353010 0.740774 0.226808
O O9 0.568373 0.729517 0.419860
O O10 0.651996 0.891243 0.640109
O O11 0.945464 0.853108 0.584154
O O12 0.764540 0.031380 0.604039
O O13 0.628770 0.086092 0.443782
O O14 0.145595 0.620028 0.368981
O O15 0.500000 0.000000 0.000000
O O16 0.000000 0.500000 0.500000
#
# Coordination Sequence:
#
# PCOD9060849 Si02
#       7
#     2   2   2   2   2   2   2
#     4  12  27  45  70 104 138 183 245 297 363 435
#     4  11  24  43  67 101 137 178 235 287 350 429
#     4  11  24  44  68 101 137 182 233 280 357 422
#     4  11  24  43  69  97 138 179 226 290 350 417
#     4  11  25  44  70  98 140 182 233 293 355 429
#     4  11  23  44  68  99 135 177 232 284 346 428
#     4  11  24  44  70  96 136 182 230 295 356 414
#
# _framework density 20.844237
#
# number of rings (size 3 to 8) (size 9 to 14) (size 15 to 20)
#    0.000    0.857    4.286    2.143    4.000    4.000 
#    0.000    0.000    0.000    0.000    0.000    0.000 
#    0.000    0.000    0.000    0.000    0.000    0.000 
#
# Total GULP energy -78085.264876 kJ/mol
# GULP energy per Si atom -5577.518920 kJ/mol
# Density = 2.079679 g / cm^3
# Si number density = 20.844237 Si / 1000 Ang^3
#
#
#
# Elastic Constant Matrix: (Units=GPa)
#
#
# Indices 1 2 3 4 5 6 
#
# 1 53.8970 47.5559 20.5415 -25.9435 -27.5566 19.8789
# 2 47.5559 147.1586 48.8444 -26.0687 -16.5423 4.5487
# 3 20.5415 48.8444 78.2558 -6.6223 -22.3074 -1.7687
# 4 -25.9435 -26.0687 -6.6223 44.3589 7.5524 -10.6519
# 5 -27.5566 -16.5423 -22.3074 7.5524 38.5473 -8.4614
# 6 19.8789 4.5487 -1.7687 -10.6519 -8.4614 32.5013
#
#
#
# Elastic Compliance Matrix: (Units=1/GPa)
#
#
# Indices 1 2 3 4 5 6 
#
# 1 0.063256 -0.013549 0.002064 0.018535 0.032084 -0.022254
# 2 -0.013549 0.012364 -0.005976 0.000756 -0.006962 0.004667
# 3 0.002064 -0.005976 0.019063 -0.000511 0.010755 0.003244
# 4 0.018535 0.000756 -0.000511 0.032815 0.007098 0.001132
# 5 0.032084 -0.006962 0.010755 0.007098 0.050134 -0.002686
# 6 -0.022254 0.004667 0.003244 0.001132 -0.002686 0.043574
#
#
# Mechanical properties :
#
#
# Convention : Reuss Voigt Hill
#
# Bulk Modulus (GPa) = 16.73336 57.02167 36.87751
# Shear Modulus (GPa) = 18.11273 33.90615 26.00944
#
# Velocity S-wave (km/s) = 2.95100 4.03754 3.53625
# Velocity P-wave (km/s) = 4.43356 7.01079 5.86548
#
# Compressibility (1/GPa) = 0.05976087
#
# Stress axis : x y z
#
# Youngs Moduli (GPa) = 15.80878 80.87673 52.45876
#
# Poissons Ratio (x) = 1.09580 -0.10827
# Poissons Ratio (y) = 0.21419 0.31350
# Poissons Ratio (z) = -0.03263 0.48332
#
# Static dielectric constant tensor:
#      x y z
#    x 1.743280 -0.032370 0.037580 
#    y -0.032370 1.733650 0.014520 
#    z 0.037580 0.014520 1.852470 
# 
# From -- ./inp_files/53625.got.cif
#   From: 2010.05.17/outbox.cif.g08.bks.cpg/sg2_27_cif.got.tgz:53625.got - 2010.06.03 11:33:40.
