data_PCOD9060527
_publ_section_title
;
Structure prediction by ZEFSAII (Michael W. Deem and Ramdas Pophale) SiO2 
 PCOD9060527
Probable space group: P -1
;
_chemical_formula_sum "Si O2"
_cell_formula_units_Z 16
_cell_length_a 8.871794
_cell_length_b 16.610627
_cell_length_c 8.619741
_cell_angle_alpha 119.251568
_cell_angle_beta 84.764632
_cell_angle_gamma 139.050336
_cell_volume 634.869622
_symmetry_space_group_name_H-M "P -1"
_symmetry_group_IT_number 2
_symmetry_cell_setting 'triclinic'
loop_
_space_group_symop_operation_xyz
x,y,z
-x,-y,-z
loop_
_atom_site_type_symbol
_atom_site_label
_atom_site_fract_x
_atom_site_fract_y
_atom_site_fract_z
Si Si1 0.300201 0.003897 0.266988
Si Si2 0.129922 0.706541 0.005342
Si Si3 0.164232 0.992677 0.924357
Si Si4 0.030337 0.878262 0.495700
Si Si5 0.148845 0.720739 0.367156
Si Si6 0.648936 0.658612 0.707661
Si Si7 0.447826 0.517113 0.186391
Si Si8 0.221436 0.586150 0.684789
O O1 0.246230 0.866969 0.133071
O O2 0.109275 0.945028 0.372068
O O3 0.586901 0.167062 0.460461
O O4 0.301221 0.037681 0.120232
O O5 0.156186 0.687490 0.161036
O O6 0.819719 0.556668 0.850400
O O7 0.279910 0.709083 0.886460
O O8 0.184075 0.007832 0.745184
O O9 0.947418 0.802576 0.765546
O O10 0.000000 0.000000 0.000000
O O11 0.710249 0.707528 0.383384
O O12 0.121630 0.817070 0.443053
O O13 0.910641 0.554723 0.322281
O O14 0.500000 0.500000 0.500000
O O15 0.625468 0.615672 0.845227
O O16 0.490406 0.671108 0.691682
O O17 0.500000 0.500000 0.000000
O O18 0.000000 0.500000 0.500000
#
# Coordination Sequence:
#
# PCOD9060527 Si02
#       8
#     2   2   2   2   2   2   2   2
#     4  11  26  47  71 102 143 192 238 290 361 432
#     4  11  23  43  72 104 138 185 237 296 356 425
#     4  12  28  44  71 105 142 188 242 296 355 428
#     4  11  23  45  74 102 137 189 242 291 357 426
#     4  11  24  46  68 101 143 187 234 292 357 428
#     4  12  23  46  69  98 141 182 236 293 351 429
#     4  12  19  39  76 100 130 183 240 291 351 421
#     4  12  27  41  69 108 141 181 237 301 358 413
#
# _framework density 25.202024999999999
#
# number of rings (size 3 to 8) (size 9 to 14) (size 15 to 20)
#    0.000    0.500    6.250    2.625    3.500    3.000 
#    0.000    0.000    0.000    0.000    0.000    0.000 
#    0.000    0.000    0.000    0.000    0.000    0.000 
#
# Total GULP energy -89327.401122 kJ/mol
# GULP energy per Si atom -5582.962570 kJ/mol
# Density = 2.514466 g / cm^3
# Si number density = 25.202025 Si / 1000 Ang^3
#
#
#
# Elastic Constant Matrix: (Units=GPa)
#
#
# Indices 1 2 3 4 5 6 
#
# 1 73.1713 -4.4538 45.0518 -12.2119 3.0930 6.3507
# 2 -4.4538 66.4180 20.9405 -3.2333 11.5146 15.7261
# 3 45.0518 20.9405 146.2022 -26.3497 18.8362 1.2481
# 4 -12.2119 -3.2333 -26.3497 39.4033 12.8380 1.1217
# 5 3.0930 11.5146 18.8362 12.8380 55.6338 1.2515
# 6 6.3507 15.7261 1.2481 1.1217 1.2515 20.7068
#
#
#
# Elastic Compliance Matrix: (Units=1/GPa)
#
#
# Indices 1 2 3 4 5 6 
#
# 1 0.019112 0.005812 -0.006035 0.002864 -0.000657 -0.010027
# 2 0.005812 0.021667 -0.003745 0.002819 -0.003787 -0.017936
# 3 -0.006035 -0.003745 0.010872 0.006322 -0.004118 0.003947
# 4 0.002864 0.002819 0.006322 0.034344 -0.010705 -0.004614
# 5 -0.000657 -0.003787 -0.004118 -0.010705 0.022602 0.002539
# 6 -0.010027 -0.017936 0.003947 -0.004614 0.002539 0.064849
#
#
# Mechanical properties :
#
#
# Convention : Reuss Voigt Hill
#
# Bulk Modulus (GPa) = 22.87562 45.42984 34.15273
# Shear Modulus (GPa) = 25.51586 38.09898 31.80742
#
# Velocity S-wave (km/s) = 3.18536 3.89233 3.55646
# Velocity P-wave (km/s) = 4.75660 6.18593 5.51774
#
# Compressibility (1/GPa) = 0.04371465
#
# Stress axis : x y z
#
# Youngs Moduli (GPa) = 52.32196 46.15256 91.97616
#
# Poissons Ratio (x) = -0.26824 0.55512
# Poissons Ratio (y) = -0.30410 0.34448
# Poissons Ratio (z) = 0.31579 0.17286
#
# Static dielectric constant tensor:
#      x y z
#    x 1.892330 0.053820 -0.034670 
#    y 0.053820 2.078090 0.087570 
#    z -0.034670 0.087570 2.062300 
# 
# From -- ./inp_files/218293.got.cif
#   From: 2010.05.17/outbox.cif.g08.bks.cpg/sg2_110_cif.got.tgz:218293.got - 2010.06.03 11:33:40.
