data_PCOD9060066
_publ_section_title
;
Structure prediction by ZEFSAII (Michael W. Deem and Ramdas Pophale) SiO2 
 PCOD9060066
Probable space group: P -1
;
_chemical_formula_sum "Si O2"
_cell_formula_units_Z 16
_cell_length_a 12.376442
_cell_length_b 9.505242
_cell_length_c 14.180215
_cell_angle_alpha 48.391453
_cell_angle_beta 138.316619
_cell_angle_gamma 131.036597
_cell_volume 785.000392
_symmetry_space_group_name_H-M "P -1"
_symmetry_group_IT_number 2
_symmetry_cell_setting 'triclinic'
loop_
_space_group_symop_operation_xyz
x,y,z
-x,-y,-z
loop_
_atom_site_type_symbol
_atom_site_label
_atom_site_fract_x
_atom_site_fract_y
_atom_site_fract_z
Si Si1 0.500631 0.526831 0.601819
Si Si2 0.202060 0.013081 0.119801
Si Si3 0.845459 0.435587 0.677861
Si Si4 0.615856 0.681269 0.055988
Si Si5 0.211318 0.099703 0.296611
Si Si6 0.982832 0.323783 0.138948
Si Si7 0.585990 0.234539 0.939184
Si Si8 0.980722 0.650391 0.344108
O O1 0.500000 0.500000 0.500000
O O2 0.306596 0.521113 0.498009
O O3 0.629946 0.746456 0.613574
O O4 0.552024 0.358924 0.770361
O O5 0.265644 0.121911 0.212303
O O6 0.214241 0.791723 0.223081
O O7 0.308894 0.132638 0.048971
O O8 0.000000 0.000000 0.000000
O O9 0.906036 0.588650 0.734882
O O10 0.996833 0.435663 0.705591
O O11 0.492102 0.688065 0.057340
O O12 0.791915 0.664724 0.219746
O O13 0.500000 0.500000 0.000000
O O14 0.052673 0.170839 0.195545
O O15 0.132658 0.861323 0.362845
O O16 0.785218 0.257512 0.066200
O O17 0.000000 0.500000 0.000000
O O18 0.500000 0.000000 0.000000
O O19 0.000000 0.500000 0.500000
#
# Coordination Sequence:
#
# PCOD9060066 Si02
#       8
#     2   2   2   2   2   2   2   2
#     4  12  25  46  69 108 142 186 241 297 348 428
#     4  11  23  42  75 102 132 184 244 283 352 431
#     4  11  24  42  71 101 136 182 243 287 348 431
#     4  12  25  43  68 103 143 174 230 304 353 412
#     4  11  23  43  76  99 137 187 244 288 347 429
#     4  12  23  43  75 100 136 189 237 287 354 433
#     4  12  28  44  70 108 145 181 237 302 359 410
#     4  11  25  45  66  97 142 189 228 288 364 424
#
# _framework density 20.382155999999998
#
# number of rings (size 3 to 8) (size 9 to 14) (size 15 to 20)
#    0.000    0.500    5.000    3.750    3.500    3.000 
#    2.250    1.250    0.000    0.000    0.000    0.000 
#    0.000    0.000    0.000    0.000    0.000    0.000 
#
# Total GULP energy -89310.979614 kJ/mol
# GULP energy per Si atom -5581.936226 kJ/mol
# Density = 2.033577 g / cm^3
# Si number density = 20.382156 Si / 1000 Ang^3
#
#
#
# Elastic Constant Matrix: (Units=GPa)
#
#
# Indices 1 2 3 4 5 6 
#
# 1 103.3176 17.6597 15.5479 -1.9686 -7.0760 3.1817
# 2 17.6597 86.6341 39.2052 10.7554 -16.2628 1.3455
# 3 15.5479 39.2052 88.9815 -0.1424 -6.4321 7.8808
# 4 -1.9686 10.7554 -0.1424 36.1408 7.0623 4.9824
# 5 -7.0760 -16.2628 -6.4321 7.0623 42.1618 4.8135
# 6 3.1817 1.3455 7.8808 4.9824 4.8135 38.0369
#
#
#
# Elastic Compliance Matrix: (Units=1/GPa)
#
#
# Indices 1 2 3 4 5 6 
#
# 1 0.010198 -0.001594 -0.000939 0.000969 0.000887 -0.000841
# 2 -0.001594 0.016907 -0.006824 -0.006494 0.006185 0.001017
# 3 -0.000939 -0.006824 0.014629 0.002573 -0.000651 -0.002966
# 4 0.000969 -0.006494 0.002573 0.031499 -0.006809 -0.003649
# 5 0.000887 0.006185 -0.000651 -0.006809 0.027609 -0.002760
# 6 -0.000841 0.001017 -0.002966 -0.003649 -0.002760 0.027766
#
#
# Mechanical properties :
#
#
# Convention : Reuss Voigt Hill
#
# Bulk Modulus (GPa) = 43.44346 47.08430 45.26388
# Shear Modulus (GPa) = 32.25869 37.03591 34.64730
#
# Velocity S-wave (km/s) = 3.98262 4.26734 4.12744
# Velocity P-wave (km/s) = 6.51990 6.88703 6.70598
#
# Compressibility (1/GPa) = 0.02301842
#
# Stress axis : x y z
#
# Youngs Moduli (GPa) = 98.05959 59.14553 68.35785
#
# Poissons Ratio (x) = 0.09431 0.06420
# Poissons Ratio (y) = 0.15635 0.46649
# Poissons Ratio (z) = 0.09210 0.40362
#
# Static dielectric constant tensor:
#      x y z
#    x 1.697220 0.081410 0.049590 
#    y 0.081410 2.300260 0.289840 
#    z 0.049590 0.289840 1.878280 
# 
# From -- ./inp_files/515130.got.cif
#   From: 2010.05.17/outbox.cif.g08.bks.cpg/sg2_258_cif.got.tgz:515130.got - 2010.06.03 11:33:40.
