data_PCOD9060302
_publ_section_title
;
Structure prediction by ZEFSAII (Michael W. Deem and Ramdas Pophale) SiO2 
 PCOD9060302
Probable space group: P -1
;
_chemical_formula_sum "Si O2"
_cell_formula_units_Z 14
_cell_length_a 5.123758
_cell_length_b 13.153064
_cell_length_c 9.233284
_cell_angle_alpha 113.884369
_cell_angle_beta 97.418304
_cell_angle_gamma 104.181406
_cell_volume 533.025027
_symmetry_space_group_name_H-M "P -1"
_symmetry_group_IT_number 2
_symmetry_cell_setting 'triclinic'
loop_
_space_group_symop_operation_xyz
x,y,z
-x,-y,-z
loop_
_atom_site_type_symbol
_atom_site_label
_atom_site_fract_x
_atom_site_fract_y
_atom_site_fract_z
Si Si1 0.582415 0.656889 0.864832
Si Si2 0.644908 0.205757 0.866393
Si Si3 0.902304 0.111037 0.042318
Si Si4 0.879411 0.594584 0.111482
Si Si5 0.201687 0.448169 0.577014
Si Si6 0.605816 0.888977 0.479547
Si Si7 0.093548 0.820104 0.608080
O O1 0.838903 0.770682 0.905407
O O2 0.491192 0.558976 0.675425
O O3 0.362009 0.713769 0.948383
O O4 0.644414 0.598027 0.982930
O O5 0.395850 0.170542 0.713966
O O6 0.896912 0.277530 0.824911
O O7 0.698303 0.096416 0.883017
O O8 0.785094 0.129590 0.199234
O O9 0.000000 0.000000 0.000000
O O10 0.849343 0.567732 0.262219
O O11 0.000000 0.500000 0.000000
O O12 0.124776 0.310941 0.455330
O O13 0.000000 0.500000 0.500000
O O14 0.902678 0.894267 0.572136
O O15 0.354374 0.816894 0.527256
O O16 0.500000 0.000000 0.500000
#
# Coordination Sequence:
#
# PCOD9060302 Si02
#       7
#     2   2   2   2   2   2   2
#     4  11  26  44  75 105 141 202 246 305 372 456
#     4  11  24  45  74 104 142 193 252 299 375 448
#     4  11  28  49  73 105 149 194 256 309 377 448
#     4  11  23  43  69 103 140 187 244 295 368 445
#     4  12  26  45  72 108 156 190 251 311 381 449
#     4  12  28  50  80 111 151 198 256 317 380 448
#     4  12  29  49  76 115 154 197 250 318 385 441
#
# _framework density 26.265184999999999
#
# number of rings (size 3 to 8) (size 9 to 14) (size 15 to 20)
#    0.000    0.571    2.857    3.429   12.000    1.143 
#    0.000    0.000    0.000    0.000    0.000    0.000 
#    0.000    0.000    0.000    0.000    0.000    0.000 
#
# Total GULP energy -78253.461931 kJ/mol
# GULP energy per Si atom -5589.532995 kJ/mol
# Density = 2.620540 g / cm^3
# Si number density = 26.265185 Si / 1000 Ang^3
#
#
#
# Elastic Constant Matrix: (Units=GPa)
#
#
# Indices 1 2 3 4 5 6 
#
# 1 81.3055 26.0421 3.0430 -16.9007 7.8020 -0.5269
# 2 26.0421 143.8369 19.3938 -21.4671 8.4380 2.0239
# 3 3.0430 19.3938 114.0269 -20.4741 10.0256 1.7202
# 4 -16.9007 -21.4671 -20.4741 41.4670 -20.9808 9.0475
# 5 7.8020 8.4380 10.0256 -20.9808 32.0751 -5.2386
# 6 -0.5269 2.0239 1.7202 9.0475 -5.2386 54.5779
#
#
#
# Elastic Compliance Matrix: (Units=1/GPa)
#
#
# Indices 1 2 3 4 5 6 
#
# 1 0.013963 -0.001839 0.000911 0.005481 0.000272 -0.000708
# 2 -0.001839 0.007876 -0.000710 0.003551 0.000790 -0.000800
# 3 0.000911 -0.000710 0.009796 0.005119 0.000070 -0.001116
# 4 0.005481 0.003551 0.005119 0.044044 0.024089 -0.005229
# 5 0.000272 0.000790 0.000070 0.024089 0.046713 0.000462
# 6 -0.000708 -0.000800 -0.001116 -0.005229 0.000462 0.019292
#
#
# Mechanical properties :
#
#
# Convention : Reuss Voigt Hill
#
# Bulk Modulus (GPa) = 35.26225 48.45858 41.86041
# Shear Modulus (GPa) = 32.38064 45.00334 38.69199
#
# Velocity S-wave (km/s) = 3.51498 4.14384 3.84230
# Velocity P-wave (km/s) = 5.47066 6.43312 5.97131
#
# Compressibility (1/GPa) = 0.02835894
#
# Stress axis : x y z
#
# Youngs Moduli (GPa) = 71.61912 126.96857 102.08032
#
# Poissons Ratio (x) = 0.23347 -0.09300
# Poissons Ratio (y) = 0.13170 0.07249
# Poissons Ratio (z) = -0.06525 0.09017
#
# Static dielectric constant tensor:
#      x y z
#    x 1.941290 0.195390 -0.022950 
#    y 0.195390 2.043040 0.067260 
#    z -0.022950 0.067260 2.091340 
# 
# From -- ./inp_files/131853.got.cif
#   From: 2010.05.17/outbox.cif.g08.bks.cpg/sg2_66_cif.got.tgz:131853.got - 2010.06.03 11:33:40.
