data_PCOD9060913
_publ_section_title
;
Structure prediction by ZEFSAII (Michael W. Deem and Ramdas Pophale) SiO2 
 PCOD9060913
Probable space group: P -1
;
_chemical_formula_sum "Si O2"
_cell_formula_units_Z 16
_cell_length_a 16.422615
_cell_length_b 19.291912
_cell_length_c 10.952421
_cell_angle_alpha 156.027475
_cell_angle_beta 41.528267
_cell_angle_gamma 150.404386
_cell_volume 677.830384
_symmetry_space_group_name_H-M "P -1"
_symmetry_group_IT_number 2
_symmetry_cell_setting 'triclinic'
loop_
_space_group_symop_operation_xyz
x,y,z
-x,-y,-z
loop_
_atom_site_type_symbol
_atom_site_label
_atom_site_fract_x
_atom_site_fract_y
_atom_site_fract_z
Si Si1 0.907803 0.458566 0.248085
Si Si2 0.397375 0.002207 0.722402
Si Si3 0.182812 0.175757 0.635984
Si Si4 0.887118 0.513252 0.733064
Si Si5 0.350394 0.050072 0.391085
Si Si6 0.302993 0.456775 0.310338
Si Si7 0.477793 0.346646 0.386230
Si Si8 0.209962 0.976933 0.672437
O O1 0.838945 0.538427 0.544324
O O2 0.020509 0.426852 0.141870
O O3 0.036767 0.698465 0.407585
O O4 0.737505 0.201712 0.975878
O O5 0.284627 0.749919 0.497999
O O6 0.280356 0.018500 0.797530
O O7 0.500000 0.000000 0.500000
O O8 0.462605 0.161433 0.025084
O O9 0.218470 0.068182 0.523314
O O10 0.321804 0.263489 0.514601
O O11 0.173796 0.350992 0.992566
O O12 0.000000 0.000000 0.500000
O O13 0.000000 0.500000 0.500000
O O14 0.529469 0.309791 0.571681
O O15 0.337015 0.015079 0.493628
O O16 0.367243 0.522309 0.484257
O O17 0.223624 0.190495 0.965109
O O18 0.500000 0.500000 0.500000
#
# Coordination Sequence:
#
# PCOD9060913 Si02
#       8
#     2   2   2   2   2   2   2   2
#     4  11  25  46  66 104 139 183 231 281 354 409
#     4  11  25  43  70 102 140 182 232 288 346 413
#     4  11  23  44  69  99 138 180 232 282 348 411
#     4  11  25  43  70 102 140 182 232 288 346 413
#     4  11  25  44  71 101 138 182 232 285 348 414
#     4  11  25  44  71 101 138 182 232 285 348 414
#     4  11  23  44  69  99 138 180 232 282 348 411
#     4  11  25  46  66 104 139 183 231 281 354 409
#
# _framework density 23.604727
#
# number of rings (size 3 to 8) (size 9 to 14) (size 15 to 20)
#    0.000    1.000    2.500    3.000    7.000    2.000 
#    0.000    0.000    0.000    0.000    0.000    0.000 
#    0.000    0.000    0.000    0.000    0.000    0.000 
#
# Total GULP energy -89111.895502 kJ/mol
# GULP energy per Si atom -5569.493469 kJ/mol
# Density = 2.355100 g / cm^3
# Si number density = 23.604727 Si / 1000 Ang^3
#
#
#
# Elastic Constant Matrix: (Units=GPa)
#
#
# Indices 1 2 3 4 5 6 
#
# 1 76.8852 9.7723 19.6262 -1.8630 -5.5258 -0.4196
# 2 9.7723 104.8990 51.1055 -2.3825 -9.3325 -4.0371
# 3 19.6262 51.1055 161.3222 -4.8094 -27.2014 -10.2760
# 4 -1.8630 -2.3825 -4.8094 45.1249 -4.4858 -2.3565
# 5 -5.5258 -9.3325 -27.2014 -4.4858 30.4682 -15.2734
# 6 -0.4196 -4.0371 -10.2760 -2.3565 -15.2734 33.0330
#
#
#
# Elastic Compliance Matrix: (Units=1/GPa)
#
#
# Indices 1 2 3 4 5 6 
#
# 1 0.013500 -0.000517 -0.001153 0.000596 0.001619 0.000541
# 2 -0.000517 0.011310 -0.003321 0.000344 0.000833 0.000752
# 3 -0.001153 -0.003321 0.010148 0.002567 0.012594 0.008743
# 4 0.000596 0.000344 0.002567 0.023781 0.009479 0.006928
# 5 0.001619 0.000833 0.012594 0.009479 0.062968 0.033831
# 6 0.000541 0.000752 0.008743 0.006928 0.033831 0.049228
#
#
# Mechanical properties :
#
#
# Convention : Reuss Voigt Hill
#
# Bulk Modulus (GPa) = 40.04075 56.01272 48.02673
# Shear Modulus (GPa) = 26.42073 39.23205 32.82639
#
# Velocity S-wave (km/s) = 3.34922 4.08124 3.73321
# Velocity P-wave (km/s) = 5.65298 6.78157 6.24283
#
# Compressibility (1/GPa) = 0.02497456
#
# Stress axis : x y z
#
# Youngs Moduli (GPa) = 74.07218 88.41589 98.53872
#
# Poissons Ratio (x) = 0.04575 0.11364
# Poissons Ratio (y) = 0.03833 0.32729
# Poissons Ratio (z) = 0.08543 0.29367
#
# Static dielectric constant tensor:
#      x y z
#    x 1.889950 -0.000350 0.031280 
#    y -0.000350 1.842280 0.131240 
#    z 0.031280 0.131240 1.815150 
# 
# From -- ./inp_files/467224.got.cif
#   From: 2010.05.17/outbox.cif.g08.bks.cpg/sg2_234_cif.got.tgz:467224.got - 2010.06.03 11:33:40.
