data_PCOD9060813
_publ_section_title
;
Structure prediction by ZEFSAII (Michael W. Deem and Ramdas Pophale) SiO2 
 PCOD9060813
Probable space group: P -1
;
_chemical_formula_sum "Si O2"
_cell_formula_units_Z 15
_cell_length_a 9.073612
_cell_length_b 21.063160
_cell_length_c 15.023358
_cell_angle_alpha 160.322173
_cell_angle_beta 46.883074
_cell_angle_gamma 129.005440
_cell_volume 704.578059
_symmetry_space_group_name_H-M "P -1"
_symmetry_group_IT_number 2
_symmetry_cell_setting 'triclinic'
loop_
_space_group_symop_operation_xyz
x,y,z
-x,-y,-z
loop_
_atom_site_type_symbol
_atom_site_label
_atom_site_fract_x
_atom_site_fract_y
_atom_site_fract_z
Si Si1 0.492602 0.265944 0.532244
Si Si2 0.118101 0.880235 0.717444
Si Si3 0.500000 0.000000 0.000000
Si Si4 0.455964 0.696858 0.882607
Si Si5 0.151708 0.033046 0.400354
Si Si6 0.750550 0.666147 0.561468
Si Si7 0.166679 0.003551 0.667300
Si Si8 0.480233 0.291309 0.921608
O O1 0.660226 0.179345 0.417290
O O2 0.515615 0.157004 0.284552
O O3 0.269131 0.224070 0.604835
O O4 0.521474 0.487658 0.803913
O O5 0.117152 0.003437 0.791282
O O6 0.986142 0.700579 0.515238
O O7 0.000000 0.000000 0.000000
O O8 0.358250 0.154908 0.206530
O O9 0.652310 0.652122 0.681909
O O10 0.313268 0.521243 0.708445
O O11 0.509215 0.741299 0.019733
O O12 0.328052 0.869400 0.118163
O O13 0.030901 0.015728 0.335745
O O14 0.000000 0.000000 0.500000
O O15 0.323182 0.823639 0.350187
O O16 0.284208 0.186432 0.831538
#
# Coordination Sequence:
#
# PCOD9060813 Si02
#       8
#     2   2   1   2   2   2   2   2
#     4  12  27  44  73 101 140 183 235 288 345 417
#     4  12  25  45  69 100 143 183 232 284 355 406
#     4  12  20  44  70 104 134 180 234 280 346 402
#     4  11  23  44  68 103 140 179 233 281 352 411
#     4  12  25  45  72  99 138 185 231 286 349 412
#     4  11  24  41  71 100 140 183 228 292 338 419
#     4  11  27  45  71 100 141 184 232 290 348 416
#     4  11  25  48  68 100 141 183 233 290 348 414
#
# _framework density 21.289337
#
# number of rings (size 3 to 8) (size 9 to 14) (size 15 to 20)
#    0.000    0.533    5.333    2.400    3.733    2.133 
#    0.000    1.333    0.000    0.000    0.000    0.000 
#    0.000    0.000    0.000    0.000    0.000    0.000 
#
# Total GULP energy -83671.618461 kJ/mol
# GULP energy per Si atom -5578.107897 kJ/mol
# Density = 2.124088 g / cm^3
# Si number density = 21.289337 Si / 1000 Ang^3
#
#
#
# Elastic Constant Matrix: (Units=GPa)
#
#
# Indices 1 2 3 4 5 6 
#
# 1 121.1736 51.4738 8.1564 17.0324 4.0162 2.8505
# 2 51.4738 79.8689 24.5499 17.0865 6.2558 7.0138
# 3 8.1564 24.5499 74.2555 27.5879 6.4102 3.5465
# 4 17.0324 17.0865 27.5879 34.4634 -3.4409 15.2198
# 5 4.0162 6.2558 6.4102 -3.4409 19.6923 4.9608
# 6 2.8505 7.0138 3.5465 15.2198 4.9608 38.6313
#
#
#
# Elastic Compliance Matrix: (Units=1/GPa)
#
#
# Indices 1 2 3 4 5 6 
#
# 1 0.012300 -0.007606 0.004095 -0.007501 -0.003622 0.003518
# 2 -0.007606 0.019632 -0.004550 -0.002051 -0.003219 -0.001364
# 3 0.004095 -0.004550 0.024772 -0.025534 -0.014477 0.010169
# 4 -0.007501 -0.002051 -0.025534 0.069466 0.029661 -0.027907
# 5 -0.003622 -0.003219 -0.014477 0.029661 0.067000 -0.018109
# 6 0.003518 -0.001364 0.010169 -0.027907 -0.018109 0.038260
#
#
# Mechanical properties :
#
#
# Convention : Reuss Voigt Hill
#
# Bulk Modulus (GPa) = 24.64181 49.29537 36.96859
# Shear Modulus (GPa) = 19.15128 31.29860 25.22494
#
# Velocity S-wave (km/s) = 3.00254 3.83842 3.44592
# Velocity P-wave (km/s) = 4.86006 6.54598 5.76498
#
# Compressibility (1/GPa) = 0.04058143
#
# Stress axis : x y z
#
# Youngs Moduli (GPa) = 81.30299 50.93795 40.36765
#
# Poissons Ratio (x) = 0.38744 -0.16531
# Poissons Ratio (y) = 0.61840 0.18368
# Poissons Ratio (z) = -0.33295 0.23178
#
# Static dielectric constant tensor:
#      x y z
#    x 1.742010 0.016950 0.029690 
#    y 0.016950 1.812770 -0.000460 
#    z 0.029690 -0.000460 1.746530 
# 
# From -- ./inp_files/202145.got.cif
#   From: 2010.05.17/outbox.cif.g08.bks.cpg/sg2_102_cif.got.tgz:202145.got - 2010.06.03 11:33:40.
