data_PCOD9060927
_publ_section_title
;
Structure prediction by ZEFSAII (Michael W. Deem and Ramdas Pophale) SiO2 
 PCOD9060927
Probable space group: P -1
;
_chemical_formula_sum "Si O2"
_cell_formula_units_Z 12
_cell_length_a 6.599972
_cell_length_b 19.776488
_cell_length_c 9.687625
_cell_angle_alpha 33.095236
_cell_angle_beta 107.478202
_cell_angle_gamma 126.642690
_cell_volume 493.125309
_symmetry_space_group_name_H-M "P -1"
_symmetry_group_IT_number 2
_symmetry_cell_setting 'triclinic'
loop_
_space_group_symop_operation_xyz
x,y,z
-x,-y,-z
loop_
_atom_site_type_symbol
_atom_site_label
_atom_site_fract_x
_atom_site_fract_y
_atom_site_fract_z
Si Si1 0.373743 0.537566 0.826706
Si Si2 0.034946 0.392558 0.230099
Si Si3 0.530675 0.972345 0.278771
Si Si4 0.301020 0.099497 0.820691
Si Si5 0.876103 0.290278 0.947309
Si Si6 0.237669 0.480465 0.430001
O O1 0.680227 0.574901 0.839594
O O2 0.511549 0.705215 0.481415
O O3 0.155967 0.544370 0.873690
O O4 0.149029 0.384676 0.939826
O O5 0.127502 0.401098 0.392555
O O6 0.762468 0.209435 0.435593
O O7 0.715052 0.952975 0.252026
O O8 0.449969 0.053882 0.022020
O O9 0.693742 0.095891 0.228219
O O10 0.000000 0.000000 0.000000
O O11 0.707758 0.349988 0.853726
O O12 0.998934 0.364469 0.693414
O O13 0.500000 0.500000 0.500000
#
# Coordination Sequence:
#
# PCOD9060927 Si02
#       6
#     2   2   2   2   2   2
#     4  12  25  46  72 103 143 190 238 293 365 427
#     4  12  23  46  71  99 144 192 228 293 368 423
#     4  11  24  42  71 102 141 184 240 295 358 421
#     4  11  23  44  70 102 138 189 239 285 347 443
#     4  11  24  42  69 106 142 182 241 299 346 423
#     4  11  23  44  72 103 139 195 240 282 356 439
#
# _framework density 24.334586000000002
#
# number of rings (size 3 to 8) (size 9 to 14) (size 15 to 20)
#    0.000    0.667    3.333    6.000    0.000    4.667 
#    0.000    0.833    0.000    0.000    0.000    0.000 
#    0.000    0.000    0.000    0.000    0.000    0.000 
#
# Total GULP energy -67127.308956 kJ/mol
# GULP energy per Si atom -5593.942413 kJ/mol
# Density = 2.427920 g / cm^3
# Si number density = 24.334586 Si / 1000 Ang^3
#
#
#
# Elastic Constant Matrix: (Units=GPa)
#
#
# Indices 1 2 3 4 5 6 
#
# 1 157.5022 37.3518 61.2566 -16.4278 -31.8887 0.8069
# 2 37.3518 144.6358 86.2420 -24.6553 -10.6330 5.3566
# 3 61.2566 86.2420 171.4269 -36.8947 -17.7626 9.3436
# 4 -16.4278 -24.6553 -36.8947 59.9717 0.3158 3.1769
# 5 -31.8887 -10.6330 -17.7626 0.3158 39.3832 17.6689
# 6 0.8069 5.3566 9.3436 3.1769 17.6689 51.2272
#
#
#
# Elastic Compliance Matrix: (Units=1/GPa)
#
#
# Indices 1 2 3 4 5 6 
#
# 1 0.008732 -0.000354 -0.001807 0.001220 0.007194 -0.002328
# 2 -0.000354 0.009986 -0.004547 0.001233 0.000564 -0.000480
# 3 -0.001807 -0.004547 0.010069 0.003953 0.002989 -0.002609
# 4 0.001220 0.001233 0.003953 0.020120 0.004604 -0.003705
# 5 0.007194 0.000564 0.002989 0.004604 0.039195 -0.014522
# 6 -0.002328 -0.000480 -0.002609 -0.003705 -0.014522 0.025322
#
#
# Mechanical properties :
#
#
# Convention : Reuss Voigt Hill
#
# Bulk Modulus (GPa) = 65.06157 93.69620 79.37888
# Shear Modulus (GPa) = 37.88883 49.36406 43.62644
#
# Velocity S-wave (km/s) = 3.95016 4.50883 4.23871
# Velocity P-wave (km/s) = 6.89922 8.10512 7.52636
#
# Compressibility (1/GPa) = 0.01537006
#
# Stress axis : x y z
#
# Youngs Moduli (GPa) = 114.52610 100.13690 99.31103
#
# Poissons Ratio (x) = 0.03549 0.17945
# Poissons Ratio (y) = 0.04060 0.45159
# Poissons Ratio (z) = 0.20694 0.45535
#
# Static dielectric constant tensor:
#      x y z
#    x 2.066160 -0.040160 0.047600 
#    y -0.040160 1.887130 -0.015650 
#    z 0.047600 -0.015650 1.930810 
# 
# From -- ./inp_files/97216.got.cif
#   From: 2010.05.17/outbox.cif.g08.bks.cpg/sg2_49_cif.got.tgz:97216.got - 2010.06.03 11:33:40.
