data_PCOD9060466
_publ_section_title
;
Structure prediction by ZEFSAII (Michael W. Deem and Ramdas Pophale) SiO2 
 PCOD9060466
Probable space group: P -1
;
_chemical_formula_sum "Si O2"
_cell_formula_units_Z 12
_cell_length_a 13.642640
_cell_length_b 6.604036
_cell_length_c 11.770830
_cell_angle_alpha 116.126214
_cell_angle_beta 32.746573
_cell_angle_gamma 111.795344
_cell_volume 515.042191
_symmetry_space_group_name_H-M "P -1"
_symmetry_group_IT_number 2
_symmetry_cell_setting 'triclinic'
loop_
_space_group_symop_operation_xyz
x,y,z
-x,-y,-z
loop_
_atom_site_type_symbol
_atom_site_label
_atom_site_fract_x
_atom_site_fract_y
_atom_site_fract_z
Si Si1 0.033651 0.423467 0.150276
Si Si2 0.302819 0.842054 0.544771
Si Si3 0.389553 0.349935 0.659340
Si Si4 0.862985 0.804246 0.549033
Si Si5 0.382160 0.840911 0.214651
Si Si6 0.748424 0.627905 0.849875
O O1 0.131626 0.338019 0.148657
O O2 0.871983 0.248900 0.239522
O O3 0.938770 0.657456 0.335557
O O4 0.195268 0.448302 0.909316
O O5 0.474330 0.690261 0.377414
O O6 0.272842 0.821037 0.434458
O O7 0.348809 0.100244 0.589965
O O8 0.500000 0.500000 0.500000
O O9 0.845176 0.652904 0.640591
O O10 0.676398 0.926844 0.728132
O O11 0.000000 0.000000 0.500000
O O12 0.334037 0.625083 0.130591
O O13 0.589057 0.811726 0.042523
#
# Coordination Sequence:
#
# PCOD9060466 Si02
#       6
#     2   2   2   2   2   2
#     4  12  24  48  75 104 147 185 236 298 352 420
#     4  11  25  49  74 101 140 187 242 296 354 414
#     4  11  28  51  72 101 137 188 247 299 354 415
#     4  12  24  39  66 111 143 181 230 277 352 431
#     4  11  23  43  71 103 145 188 226 287 352 426
#     4  11  23  44  69 103 149 186 226 282 357 425
#
# _framework density 23.299060000000001
#
# number of rings (size 3 to 8) (size 9 to 14) (size 15 to 20)
#    0.000    0.667    5.000    2.500    2.333    2.000 
#    6.000    0.000    0.000    0.000    0.000    0.000 
#    0.000    0.000    0.000    0.000    0.000    0.000 
#
# Total GULP energy -67182.122763 kJ/mol
# GULP energy per Si atom -5598.510230 kJ/mol
# Density = 2.324603 g / cm^3
# Si number density = 23.299060 Si / 1000 Ang^3
#
#
#
# Elastic Constant Matrix: (Units=GPa)
#
#
# Indices 1 2 3 4 5 6 
#
# 1 57.5519 26.0774 2.2762 0.2004 -15.7323 -4.7362
# 2 26.0774 116.0081 47.3172 -0.4360 -9.8947 -0.7862
# 3 2.2762 47.3172 136.1446 -3.9267 -10.0973 -3.4934
# 4 0.2004 -0.4360 -3.9267 39.5471 -9.8455 -12.6784
# 5 -15.7323 -9.8947 -10.0973 -9.8455 37.5715 -1.9813
# 6 -4.7362 -0.7862 -3.4934 -12.6784 -1.9813 32.4504
#
#
#
# Elastic Compliance Matrix: (Units=1/GPa)
#
#
# Indices 1 2 3 4 5 6 
#
# 1 0.022966 -0.005233 0.002490 0.004561 0.010414 0.005911
# 2 -0.005233 0.011351 -0.003952 -0.000774 -0.000532 -0.001249
# 3 0.002490 -0.003952 0.009043 0.002395 0.003185 0.002371
# 4 0.004561 -0.000774 0.002395 0.033093 0.011789 0.014554
# 5 0.010414 -0.000532 0.003185 0.011789 0.035236 0.008607
# 6 0.005911 -0.001249 0.002371 0.014554 0.008607 0.038116
#
#
# Mechanical properties :
#
#
# Convention : Reuss Voigt Hill
#
# Bulk Modulus (GPa) = 33.36440 51.22736 42.29588
# Shear Modulus (GPa) = 28.87112 37.51605 33.19359
#
# Velocity S-wave (km/s) = 3.52398 4.01708 3.77858
# Velocity P-wave (km/s) = 5.55959 6.59928 6.10162
#
# Compressibility (1/GPa) = 0.02997207
#
# Stress axis : x y z
#
# Youngs Moduli (GPa) = 43.54348 88.09556 110.58288
#
# Poissons Ratio (x) = 0.46098 -0.27538
# Poissons Ratio (y) = 0.22785 0.43697
# Poissons Ratio (z) = -0.10844 0.34811
#
# Static dielectric constant tensor:
#      x y z
#    x 1.879600 -0.015610 -0.010490 
#    y -0.015610 1.853320 -0.011760 
#    z -0.010490 -0.011760 1.926720 
# 
# From -- ./inp_files/61247.got.cif
#   From: 2010.05.17/outbox.cif.g08.bks.cpg/sg2_31_cif.got.tgz:61247.got - 2010.06.03 11:33:40.
