data_PCOD9060887
_publ_section_title
;
Structure prediction by ZEFSAII (Michael W. Deem and Ramdas Pophale) SiO2 
 PCOD9060887
Probable space group: P -1
;
_chemical_formula_sum "Si O2"
_cell_formula_units_Z 16
_cell_length_a 8.662237
_cell_length_b 17.471030
_cell_length_c 11.510484
_cell_angle_alpha 139.730952
_cell_angle_beta 52.269405
_cell_angle_gamma 98.267884
_cell_volume 690.079923
_symmetry_space_group_name_H-M "P -1"
_symmetry_group_IT_number 2
_symmetry_cell_setting 'triclinic'
loop_
_space_group_symop_operation_xyz
x,y,z
-x,-y,-z
loop_
_atom_site_type_symbol
_atom_site_label
_atom_site_fract_x
_atom_site_fract_y
_atom_site_fract_z
Si Si1 0.578953 0.087521 0.495425
Si Si2 0.874254 0.652914 0.888047
Si Si3 0.734642 0.351262 0.153210
Si Si4 0.435836 0.229551 0.480714
Si Si5 0.404401 0.513087 0.878545
Si Si6 0.843707 0.077815 0.915292
Si Si7 0.003317 0.657564 0.580202
Si Si8 0.931030 0.778580 0.516875
O O1 0.504831 0.122507 0.435235
O O2 0.500000 0.000000 0.500000
O O3 0.410480 0.251633 0.827956
O O4 0.871910 0.999219 0.270973
O O5 0.007887 0.475590 0.606877
O O6 0.020895 0.675457 0.940416
O O7 0.889576 0.709777 0.821436
O O8 0.500000 0.500000 0.500000
O O9 0.697132 0.388905 0.079519
O O10 0.750556 0.208417 0.015589
O O11 0.366327 0.386543 0.740886
O O12 0.215270 0.257281 0.538004
O O13 0.669159 0.154397 0.197885
O O14 0.702053 0.422279 0.640609
O O15 0.227315 0.636968 0.201837
O O16 0.850398 0.941195 0.709517
O O17 0.872249 0.782582 0.684666
#
# Coordination Sequence:
#
# PCOD9060887 Si02
#       8
#     2   2   2   2   2   2   2   2
#     4  12  26  46  74 106 143 182 249 291 358 428
#     4  11  23  44  69 108 139 191 237 298 353 430
#     4  12  23  46  72 105 139 193 244 284 356 427
#     4  12  26  49  75 104 143 197 240 293 361 435
#     4  12  24  46  76 102 146 192 245 294 349 435
#     4  12  27  47  73 108 150 190 234 302 362 427
#     4  11  24  42  72 104 146 189 237 293 363 425
#     4  12  27  45  71 110 148 185 241 301 362 422
#
# _framework density 23.185721999999998
#
# number of rings (size 3 to 8) (size 9 to 14) (size 15 to 20)
#    0.000    0.250    3.750    5.250    1.750    0.500 
#    2.250    0.000    0.000    0.000    0.000    0.000 
#    0.000    0.000    0.000    0.000    0.000    0.000 
#
# Total GULP energy -89701.237680 kJ/mol
# GULP energy per Si atom -5606.327355 kJ/mol
# Density = 2.313295 g / cm^3
# Si number density = 23.185722 Si / 1000 Ang^3
#
#
#
# Elastic Constant Matrix: (Units=GPa)
#
#
# Indices 1 2 3 4 5 6 
#
# 1 60.1188 62.5906 4.8873 -3.7861 0.8091 -6.7701
# 2 62.5906 138.9112 11.9711 11.6430 0.9983 -6.3892
# 3 4.8873 11.9711 90.8304 -2.3783 -6.5455 10.1771
# 4 -3.7861 11.6430 -2.3783 40.3492 9.0567 7.4473
# 5 0.8091 0.9983 -6.5455 9.0567 32.2615 1.5272
# 6 -6.7701 -6.3892 10.1771 7.4473 1.5272 36.3779
#
#
#
# Elastic Compliance Matrix: (Units=1/GPa)
#
#
# Indices 1 2 3 4 5 6 
#
# 1 0.033864 -0.015821 0.000056 0.007982 -0.002683 0.001986
# 2 -0.015821 0.015037 -0.001348 -0.006467 0.001410 0.001338
# 3 0.000056 -0.001348 0.011817 0.001303 0.002256 -0.003894
# 4 0.007982 -0.006467 0.001303 0.030354 -0.007978 -0.005894
# 5 -0.002683 0.001410 0.002256 -0.007978 0.033749 -0.000667
# 6 0.001986 0.001338 -0.003894 -0.005894 -0.000667 0.030418
#
#
# Mechanical properties :
#
#
# Convention : Reuss Voigt Hill
#
# Bulk Modulus (GPa) = 37.74852 49.86204 43.80528
# Shear Modulus (GPa) = 25.21476 35.82516 30.51996
#
# Velocity S-wave (km/s) = 3.30132 3.93509 3.63206
# Velocity P-wave (km/s) = 5.55409 6.49606 6.04345
#
# Compressibility (1/GPa) = 0.02649111
#
# Stress axis : x y z
#
# Youngs Moduli (GPa) = 29.53026 66.50130 84.62233
#
# Poissons Ratio (x) = 1.05215 -0.00476
# Poissons Ratio (y) = 0.46721 0.11409
# Poissons Ratio (z) = -0.00166 0.08966
#
# Static dielectric constant tensor:
#      x y z
#    x 1.858070 0.012490 -0.003440 
#    y 0.012490 1.873160 0.000730 
#    z -0.003440 0.000730 1.884100 
# 
# From -- ./inp_files/383366.got.cif
#   From: 2010.05.17/outbox.cif.g08.bks.cpg/sg2_192_cif.got.tgz:383366.got - 2010.06.03 11:33:40.
