data_PCOD9060861
_publ_section_title
;
Structure prediction by ZEFSAII (Michael W. Deem and Ramdas Pophale) SiO2 
 PCOD9060861
Probable space group: P -1
;
_chemical_formula_sum "Si O2"
_cell_formula_units_Z 12
_cell_length_a 9.436229
_cell_length_b 17.673246
_cell_length_c 7.752489
_cell_angle_alpha 134.149805
_cell_angle_beta 114.996130
_cell_angle_gamma 34.545801
_cell_volume 488.395279
_symmetry_space_group_name_H-M "P -1"
_symmetry_group_IT_number 2
_symmetry_cell_setting 'triclinic'
loop_
_space_group_symop_operation_xyz
x,y,z
-x,-y,-z
loop_
_atom_site_type_symbol
_atom_site_label
_atom_site_fract_x
_atom_site_fract_y
_atom_site_fract_z
Si Si1 0.118011 0.551254 0.152861
Si Si2 0.122344 0.868146 0.693198
Si Si3 0.467370 0.529804 0.824868
Si Si4 0.068667 0.265617 0.283672
Si Si5 0.740862 0.921802 0.394938
Si Si6 0.432379 0.894814 0.773178
O O1 0.433924 0.405060 0.061781
O O2 0.035761 0.635539 0.433002
O O3 0.030767 0.294136 0.820370
O O4 0.000000 0.500000 0.000000
O O5 0.331153 0.655437 0.478555
O O6 0.307753 0.848732 0.652775
O O7 0.874916 0.949955 0.597459
O O8 0.000000 0.000000 0.000000
O O9 0.172543 0.654206 0.818835
O O10 0.500000 0.500000 0.000000
O O11 0.250143 0.259388 0.284350
O O12 0.276297 0.055031 0.081691
O O13 0.500000 0.000000 0.500000
O O14 0.643874 0.014784 0.307912
#
# Coordination Sequence:
#
# PCOD9060861 Si02
#       6
#     2   2   2   2   2   2
#     4  11  25  45  70 104 143 184 239 296 359 428
#     4  11  26  46  74 107 140 189 245 296 361 430
#     4  11  26  48  72 104 144 187 243 299 361 431
#     4  11  24  45  72 102 143 188 238 297 360 424
#     4  11  23  44  69 101 142 184 237 292 353 430
#     4  11  24  45  74 103 145 187 243 295 363 429
#
# _framework density 24.570262
#
# number of rings (size 3 to 8) (size 9 to 14) (size 15 to 20)
#    0.000    1.000    1.667    5.000    4.667    3.333 
#    0.000    0.000    0.000    0.000    0.000    0.000 
#    0.000    0.000    0.000    0.000    0.000    0.000 
#
# Total GULP energy -67123.174454 kJ/mol
# GULP energy per Si atom -5593.597871 kJ/mol
# Density = 2.451434 g / cm^3
# Si number density = 24.570262 Si / 1000 Ang^3
#
#
#
# Elastic Constant Matrix: (Units=GPa)
#
#
# Indices 1 2 3 4 5 6 
#
# 1 244.2093 69.4139 71.1205 -25.3324 41.4840 -48.6970
# 2 69.4139 102.6204 36.6737 -23.0498 14.4746 -38.7655
# 3 71.1205 36.6737 97.5334 -19.5903 16.5633 -10.3513
# 4 -25.3324 -23.0498 -19.5903 33.9772 -11.3927 7.0582
# 5 41.4840 14.4746 16.5633 -11.3927 53.6365 -3.2427
# 6 -48.6970 -38.7655 -10.3513 7.0582 -3.2427 49.2113
#
#
#
# Elastic Compliance Matrix: (Units=1/GPa)
#
#
# Indices 1 2 3 4 5 6 
#
# 1 0.007129 -0.000971 -0.003588 0.000230 -0.003777 0.005253
# 2 -0.000971 0.017286 -0.003149 0.006612 -0.000873 0.010987
# 3 -0.003588 -0.003149 0.014560 0.004269 -0.000182 -0.003593
# 4 0.000230 0.006612 0.004269 0.037923 0.004848 0.001214
# 5 -0.003777 -0.000873 -0.000182 0.004848 0.022665 -0.003665
# 6 0.005253 0.010987 -0.003593 0.001214 -0.003665 0.033002
#
#
# Mechanical properties :
#
#
# Convention : Reuss Voigt Hill
#
# Bulk Modulus (GPa) = 42.44823 88.75327 65.60075
# Shear Modulus (GPa) = 32.08544 45.17536 38.63040
#
# Velocity S-wave (km/s) = 3.61760 4.29256 3.96945
# Velocity P-wave (km/s) = 5.89602 7.79543 6.91129
#
# Compressibility (1/GPa) = 0.02355811
#
# Stress axis : x y z
#
# Youngs Moduli (GPa) = 140.27926 57.85156 68.67951
#
# Poissons Ratio (x) = 0.05618 0.24642
# Poissons Ratio (y) = 0.13622 0.21629
# Poissons Ratio (z) = 0.50331 0.18219
#
# Static dielectric constant tensor:
#      x y z
#    x 2.030450 -0.034850 0.010150 
#    y -0.034850 2.005330 0.026000 
#    z 0.010150 0.026000 1.980980 
# 
# From -- ./inp_files/216169.got.cif
#   From: 2010.05.17/outbox.cif.g08.bks.cpg/sg2_109_cif.got.tgz:216169.got - 2010.06.03 11:33:40.
