data_PCOD9060438
_publ_section_title
;
Structure prediction by ZEFSAII (Michael W. Deem and Ramdas Pophale) SiO2 
 PCOD9060438
Probable space group: P -1
;
_chemical_formula_sum "Si O2"
_cell_formula_units_Z 16
_cell_length_a 12.311158
_cell_length_b 28.082886
_cell_length_c 8.996101
_cell_angle_alpha 39.598577
_cell_angle_beta 147.175181
_cell_angle_gamma 152.886203
_cell_volume 765.193819
_symmetry_space_group_name_H-M "P -1"
_symmetry_group_IT_number 2
_symmetry_cell_setting 'triclinic'
loop_
_space_group_symop_operation_xyz
x,y,z
-x,-y,-z
loop_
_atom_site_type_symbol
_atom_site_label
_atom_site_fract_x
_atom_site_fract_y
_atom_site_fract_z
Si Si1 0.498942 0.081801 0.732648
Si Si2 0.116956 0.242958 0.966387
Si Si3 0.510095 0.514182 0.153320
Si Si4 0.354260 0.162590 0.606762
Si Si5 0.112135 0.674516 0.988455
Si Si6 0.095153 0.232145 0.627768
Si Si7 0.960023 0.053554 0.704154
Si Si8 0.712673 0.419740 0.772061
O O1 0.334980 0.092929 0.629559
O O2 0.820233 0.190437 0.820327
O O3 0.341413 0.035120 0.506928
O O4 0.500000 0.000000 0.000000
O O5 0.329617 0.367945 0.906684
O O6 0.053031 0.200068 0.827912
O O7 0.247483 0.210902 0.292038
O O8 0.668819 0.485007 0.476435
O O9 0.194056 0.430198 0.055047
O O10 0.500000 0.500000 0.000000
O O11 0.178900 0.104525 0.696101
O O12 0.679768 0.250675 0.818573
O O13 0.062998 0.732889 0.684517
O O14 0.256933 0.643626 0.146220
O O15 0.000914 0.142983 0.619908
O O16 0.429130 0.333804 0.746982
O O17 0.000000 0.000000 0.000000
O O18 0.000000 0.500000 0.000000
#
# Coordination Sequence:
#
# PCOD9060438 Si02
#       8
#     2   2   2   2   2   2   2   2
#     4  12  27  47  71  99 138 183 228 287 348 398
#     4  12  27  45  71 104 141 181 231 285 341 412
#     4  11  25  42  68 105 140 180 232 277 340 413
#     4  12  26  47  72 101 139 180 230 286 344 410
#     4  11  24  43  72  99 140 185 221 283 344 404
#     4  11  26  46  68 105 141 178 233 282 343 411
#     4  12  27  46  73 102 136 181 236 287 341 409
#     4  11  23  43  70  99 142 180 225 279 340 408
#
# _framework density 20.909734
#
# number of rings (size 3 to 8) (size 9 to 14) (size 15 to 20)
#    0.000    0.500    2.500    4.875    5.250    9.500 
#    0.000    0.000    0.000    0.000    0.000    0.000 
#    0.000    0.000    0.000    0.000    0.000    0.000 
#
# Total GULP energy -89587.384470 kJ/mol
# GULP energy per Si atom -5599.211529 kJ/mol
# Density = 2.086214 g / cm^3
# Si number density = 20.909734 Si / 1000 Ang^3
#
#
#
# Elastic Constant Matrix: (Units=GPa)
#
#
# Indices 1 2 3 4 5 6 
#
# 1 105.2277 21.6692 52.6028 -11.5317 -8.6730 -4.4256
# 2 21.6692 89.9705 51.7745 2.8421 -1.6913 -3.4519
# 3 52.6028 51.7745 153.9281 0.5217 -6.2626 15.5723
# 4 -11.5317 2.8421 0.5217 42.8261 -3.7347 -3.5137
# 5 -8.6730 -1.6913 -6.2626 -3.7347 33.8422 0.5074
# 6 -4.4256 -3.4519 15.5723 -3.5137 0.5074 35.5510
#
#
#
# Elastic Compliance Matrix: (Units=1/GPa)
#
#
# Indices 1 2 3 4 5 6 
#
# 1 0.012663 -0.000396 -0.004485 0.004050 0.002784 0.003863
# 2 -0.000396 0.014250 -0.005024 -0.000746 -0.000453 0.003468
# 3 -0.004485 -0.005024 0.010320 -0.001431 0.000437 -0.005714
# 4 0.004050 -0.000746 -0.001431 0.025095 0.003453 0.003490
# 5 0.002784 -0.000453 0.000437 0.003453 0.030702 0.000014
# 6 0.003863 0.003468 -0.005714 0.003490 0.000014 0.031794
#
#
# Mechanical properties :
#
#
# Convention : Reuss Voigt Hill
#
# Bulk Modulus (GPa) = 57.40228 66.80215 62.10221
# Shear Modulus (GPa) = 33.23549 37.31584 35.27566
#
# Velocity S-wave (km/s) = 3.99115 4.22905 4.11182
# Velocity P-wave (km/s) = 6.98219 7.47421 7.23238
#
# Compressibility (1/GPa) = 0.01742091
#
# Stress axis : x y z
#
# Youngs Moduli (GPa) = 78.97123 70.17777 96.89886
#
# Poissons Ratio (x) = 0.02779 0.43463
# Poissons Ratio (y) = 0.03127 0.48685
# Poissons Ratio (z) = 0.35422 0.35259
#
# Static dielectric constant tensor:
#      x y z
#    x 1.753170 -0.011990 0.000970 
#    y -0.011990 1.775240 0.015770 
#    z 0.000970 0.015770 1.692900 
# 
# From -- ./inp_files/107229.got.cif
#   From: 2010.05.17/outbox.cif.g08.bks.cpg/sg2_54_cif.got.tgz:107229.got - 2010.06.03 11:33:40.
