data_PCOD9060345
_publ_section_title
;
Structure prediction by ZEFSAII (Michael W. Deem and Ramdas Pophale) SiO2 
 PCOD9060345
Probable space group: P -1
;
_chemical_formula_sum "Si O2"
_cell_formula_units_Z 16
_cell_length_a 14.649029
_cell_length_b 9.039478
_cell_length_c 12.612061
_cell_angle_alpha 39.693087
_cell_angle_beta 116.201663
_cell_angle_gamma 137.038794
_cell_volume 697.983009
_symmetry_space_group_name_H-M "P -1"
_symmetry_group_IT_number 2
_symmetry_cell_setting 'triclinic'
loop_
_space_group_symop_operation_xyz
x,y,z
-x,-y,-z
loop_
_atom_site_type_symbol
_atom_site_label
_atom_site_fract_x
_atom_site_fract_y
_atom_site_fract_z
Si Si1 0.191866 0.692526 0.419972
Si Si2 0.337575 0.490788 0.704362
Si Si3 0.470153 0.182940 0.174385
Si Si4 0.235502 0.250956 0.229689
Si Si5 0.433578 0.305910 0.461770
Si Si6 0.982473 0.946458 0.399145
Si Si7 0.159614 0.853861 0.880260
Si Si8 0.330992 0.801047 0.840636
O O1 0.242951 0.568327 0.592855
O O2 0.058475 0.378740 0.469342
O O3 0.311770 0.901566 0.278895
O O4 0.180724 0.919344 0.344579
O O5 0.433999 0.704651 0.734786
O O6 0.443935 0.611343 0.593860
O O7 0.243081 0.108487 0.880264
O O8 0.514136 0.066852 0.170769
O O9 0.500000 0.500000 0.000000
O O10 0.361227 0.379419 0.304603
O O11 0.260673 0.445108 0.030632
O O12 0.122430 0.212030 0.260836
O O13 0.500000 0.500000 0.500000
O O14 0.320412 0.946294 0.650273
O O15 0.865963 0.951206 0.306669
O O16 0.000000 0.000000 0.500000
O O17 0.269978 0.862967 0.870461
O O18 0.000000 0.500000 0.000000
#
# Coordination Sequence:
#
# PCOD9060345 Si02
#       8
#     2   2   2   2   2   2   2   2
#     4  11  23  43  70  97 139 183 227 288 353 415
#     4  11  23  43  69  99 138 187 227 291 354 414
#     4  12  23  42  66 105 141 175 233 291 350 416
#     4  12  25  46  70 103 145 182 236 294 348 424
#     4  12  24  42  71 106 141 183 237 288 357 417
#     4  11  26  45  72  99 135 190 238 286 352 422
#     4  11  24  47  67  96 141 183 232 293 348 416
#     4  12  24  42  72 101 140 183 235 288 357 415
#
# _framework density 22.923193999999999
#
# number of rings (size 3 to 8) (size 9 to 14) (size 15 to 20)
#    0.000    0.500    6.250    2.250    1.750    1.500 
#    2.250    0.625    0.000    0.000    0.000    0.000 
#    0.000    0.000    0.000    0.000    0.000    0.000 
#
# Total GULP energy -89125.111888 kJ/mol
# GULP energy per Si atom -5570.319493 kJ/mol
# Density = 2.287102 g / cm^3
# Si number density = 22.923194 Si / 1000 Ang^3
#
#
#
# Elastic Constant Matrix: (Units=GPa)
#
#
# Indices 1 2 3 4 5 6 
#
# 1 133.0025 17.7866 15.8311 -10.3142 -0.1883 -18.8061
# 2 17.7866 75.8109 30.8426 -5.9338 -3.4564 -10.1765
# 3 15.8311 30.8426 91.6176 -23.3314 0.9615 -5.6714
# 4 -10.3142 -5.9338 -23.3314 23.9252 3.2373 -1.1657
# 5 -0.1883 -3.4564 0.9615 3.2373 43.6297 -8.6609
# 6 -18.8061 -10.1765 -5.6714 -1.1657 -8.6609 25.4704
#
#
#
# Elastic Compliance Matrix: (Units=1/GPa)
#
#
# Indices 1 2 3 4 5 6 
#
# 1 0.008884 -0.000894 0.000190 0.003986 0.001012 0.006770
# 2 -0.000894 0.016348 -0.005490 -0.001775 0.002628 0.005461
# 3 0.000190 -0.005490 0.016780 0.015387 -0.001578 0.001850
# 4 0.003986 -0.001775 0.015387 0.058892 -0.003403 0.007198
# 5 0.001012 0.002628 -0.001578 -0.003403 0.025390 0.009923
# 6 0.006770 0.005461 0.001850 0.007198 0.009923 0.050558
#
#
# Mechanical properties :
#
#
# Convention : Reuss Voigt Hill
#
# Bulk Modulus (GPa) = 33.75942 47.70573 40.73258
# Shear Modulus (GPa) = 25.11096 34.33642 29.72369
#
# Velocity S-wave (km/s) = 3.31333 3.87446 3.60483
# Velocity P-wave (km/s) = 5.42187 6.39308 5.92740
#
# Compressibility (1/GPa) = 0.02962136
#
# Stress axis : x y z
#
# Youngs Moduli (GPa) = 112.56761 61.16834 59.59409
#
# Poissons Ratio (x) = 0.05471 -0.01130
# Poissons Ratio (y) = 0.10069 0.32720
# Poissons Ratio (z) = -0.02134 0.33584
#
# Static dielectric constant tensor:
#      x y z
#    x 1.849290 0.017520 0.011950 
#    y 0.017520 1.951180 -0.032390 
#    z 0.011950 -0.032390 1.939400 
# 
# From -- ./inp_files/446674.got.cif
#   From: 2010.05.17/outbox.cif.g08.bks.cpg/sg2_224_cif.got.tgz:446674.got - 2010.06.03 11:33:40.
