data_PCOD9060730
_publ_section_title
;
Structure prediction by ZEFSAII (Michael W. Deem and Ramdas Pophale) SiO2 
 PCOD9060730
Probable space group: P -1
;
_chemical_formula_sum "Si O2"
_cell_formula_units_Z 16
_cell_length_a 5.482698
_cell_length_b 23.624383
_cell_length_c 14.365302
_cell_angle_alpha 150.154242
_cell_angle_beta 62.805568
_cell_angle_gamma 97.058370
_cell_volume 647.588586
_symmetry_space_group_name_H-M "P -1"
_symmetry_group_IT_number 2
_symmetry_cell_setting 'triclinic'
loop_
_space_group_symop_operation_xyz
x,y,z
-x,-y,-z
loop_
_atom_site_type_symbol
_atom_site_label
_atom_site_fract_x
_atom_site_fract_y
_atom_site_fract_z
Si Si1 0.271250 0.283829 0.575953
Si Si2 0.687002 0.017879 0.247050
Si Si3 0.377624 0.880528 0.110477
Si Si4 0.605282 0.098105 0.583925
Si Si5 0.650137 0.495824 0.114892
Si Si6 0.104236 0.431679 0.131982
Si Si7 0.684954 0.571922 0.584959
Si Si8 0.571866 0.106426 0.101541
O O1 0.386871 0.143320 0.412223
O O2 0.503993 0.337021 0.631119
O O3 0.311914 0.248449 0.410253
O O4 0.898366 0.411277 0.862765
O O5 0.630255 0.099421 0.468852
O O6 0.674423 0.891595 0.106511
O O7 0.034141 0.951816 0.034259
O O8 0.424824 0.734799 0.900944
O O9 0.427216 0.888064 0.001787
O O10 0.018316 0.011377 0.407507
O O11 0.324944 0.266660 0.898911
O O12 0.500000 0.000000 0.500000
O O13 0.388931 0.458081 0.107803
O O14 0.888532 0.446395 0.098031
O O15 0.846105 0.547571 0.420281
O O16 0.500000 0.500000 0.500000
O O17 0.000000 0.500000 0.500000
O O18 0.500000 0.000000 0.000000
#
# Coordination Sequence:
#
# PCOD9060730 Si02
#       8
#     2   2   2   2   2   2   2   2
#     4  11  23  44  65 105 143 188 239 287 365 430
#     4  11  24  43  68 104 140 182 248 298 356 436
#     4  11  26  46  73 106 142 190 246 303 364 437
#     4  11  26  46  75 102 142 188 246 311 364 425
#     4  11  27  44  73 102 148 196 230 299 356 449
#     4  12  26  50  73 108 146 191 245 297 368 433
#     4  12  29  50  77 107 146 192 246 306 370 437
#     4  11  24  39  70 101 142 187 231 296 362 428
#
# _framework density 24.707045999999998
#
# number of rings (size 3 to 8) (size 9 to 14) (size 15 to 20)
#    0.000    0.750    2.500    3.375    8.750    3.500 
#    0.000    0.000    0.000    0.000    0.000    0.000 
#    0.000    0.000    0.000    0.000    0.000    0.000 
#
# Total GULP energy -89375.403841 kJ/mol
# GULP energy per Si atom -5585.962740 kJ/mol
# Density = 2.465081 g / cm^3
# Si number density = 24.707046 Si / 1000 Ang^3
#
#
#
# Elastic Constant Matrix: (Units=GPa)
#
#
# Indices 1 2 3 4 5 6 
#
# 1 109.9100 42.3468 22.3619 4.2610 3.3963 21.2868
# 2 42.3468 106.4491 15.4101 -9.0177 1.7950 5.0975
# 3 22.3619 15.4101 90.3134 0.2984 14.4076 -4.7823
# 4 4.2610 -9.0177 0.2984 52.1763 7.6640 16.0360
# 5 3.3963 1.7950 14.4076 7.6640 27.4172 -4.8924
# 6 21.2868 5.0975 -4.7823 16.0360 -4.8924 53.4838
#
#
#
# Elastic Compliance Matrix: (Units=1/GPa)
#
#
# Indices 1 2 3 4 5 6 
#
# 1 0.012168 -0.004270 -0.002412 -0.000174 -0.000744 -0.004668
# 2 -0.004270 0.011446 -0.000834 0.002489 -0.000524 -0.000260
# 3 -0.002412 -0.000834 0.012891 0.000446 -0.006281 0.001484
# 4 -0.000174 0.002489 0.000446 0.023236 -0.008272 -0.007851
# 5 -0.000744 -0.000524 -0.006281 -0.008272 0.043324 0.006228
# 6 -0.004668 -0.000260 0.001484 -0.007851 0.006228 0.023636
#
#
# Mechanical properties :
#
#
# Convention : Reuss Voigt Hill
#
# Bulk Modulus (GPa) = 46.57126 51.87889 49.22507
# Shear Modulus (GPa) = 33.58173 41.71905 37.65039
#
# Velocity S-wave (km/s) = 3.69073 4.11365 3.90792
# Velocity P-wave (km/s) = 6.08706 6.60349 6.35052
#
# Compressibility (1/GPa) = 0.02147247
#
# Stress axis : x y z
#
# Youngs Moduli (GPa) = 82.18250 87.36905 77.57255
#
# Poissons Ratio (x) = 0.37307 0.18711
# Poissons Ratio (y) = 0.35093 0.06470
# Poissons Ratio (z) = 0.19823 0.07287
#
# Static dielectric constant tensor:
#      x y z
#    x 2.504450 0.166490 0.123210 
#    y 0.166490 2.119130 0.150990 
#    z 0.123210 0.150990 2.001270 
# 
# From -- ./inp_files/485969.got.cif
#   From: 2010.05.17/outbox.cif.g08.bks.cpg/sg2_243_cif.got.tgz:485969.got - 2010.06.03 11:33:40.
