data_PCOD9060914
_publ_section_title
;
Structure prediction by ZEFSAII (Michael W. Deem and Ramdas Pophale) SiO2 
 PCOD9060914
Probable space group: P -1
;
_chemical_formula_sum "Si O2"
_cell_formula_units_Z 13
_cell_length_a 12.913852
_cell_length_b 16.086188
_cell_length_c 5.617861
_cell_angle_alpha 69.516046
_cell_angle_beta 72.775934
_cell_angle_gamma 28.113428
_cell_volume 514.943888
_symmetry_space_group_name_H-M "P -1"
_symmetry_group_IT_number 2
_symmetry_cell_setting 'triclinic'
loop_
_space_group_symop_operation_xyz
x,y,z
-x,-y,-z
loop_
_atom_site_type_symbol
_atom_site_label
_atom_site_fract_x
_atom_site_fract_y
_atom_site_fract_z
Si Si1 0.101700 0.785887 0.768959
Si Si2 0.837031 0.885560 0.475182
Si Si3 0.211521 0.911595 0.985346
Si Si4 0.453280 0.636627 0.443005
Si Si5 0.137002 0.414390 0.241215
Si Si6 0.500000 0.000000 0.500000
Si Si7 0.804696 0.437347 0.764891
O O1 0.230334 0.780997 0.603922
O O2 0.042677 0.760683 0.625073
O O3 0.228325 0.637070 0.024674
O O4 0.865596 0.977267 0.844931
O O5 0.945269 0.750896 0.320977
O O6 0.640970 0.965293 0.616841
O O7 0.758768 0.037269 0.287267
O O8 0.405760 0.713580 0.144233
O O9 0.000000 0.000000 0.000000
O O10 0.500000 0.500000 0.500000
O O11 0.626020 0.568108 0.546744
O O12 0.340365 0.200523 0.327441
O O13 0.205068 0.469654 0.158215
O O14 0.000000 0.500000 0.500000
O O15 0.000000 0.500000 0.000000
#
# Coordination Sequence:
#
# PCOD9060914 Si02
#       7
#     2   2   2   2   2   1   2
#     4  11  23  44  69  99 149 190 246 309 392 469
#     4  11  24  48  70 107 144 195 257 319 392 476
#     4  11  24  42  68 103 147 193 250 315 380 479
#     4  12  23  42  70 105 147 191 244 309 397 470
#     4  12  29  55  83 117 162 211 280 345 404 487
#     4  12  28  50  84 112 156 216 270 336 416 470
#     4  11  25  45  73 109 149 199 252 329 394 478
#
# _framework density 25.245469
#
# number of rings (size 3 to 8) (size 9 to 14) (size 15 to 20)
#    0.000    0.615    4.615    2.769    2.154    3.077 
#    2.769    0.000    0.000    0.000    0.000    0.000 
#    0.000    0.000    0.000    0.000    0.000    0.000 
#
# Total GULP energy -72396.064511 kJ/mol
# GULP energy per Si atom -5568.928039 kJ/mol
# Density = 2.518801 g / cm^3
# Si number density = 25.245469 Si / 1000 Ang^3
#
#
#
# Elastic Constant Matrix: (Units=GPa)
#
#
# Indices 1 2 3 4 5 6 
#
# 1 134.5063 -6.3731 25.4109 -17.2873 19.6037 18.2799
# 2 -6.3731 77.4860 14.8539 -20.1902 3.4541 33.0395
# 3 25.4109 14.8539 89.9731 -27.4851 15.0342 5.1122
# 4 -17.2873 -20.1902 -27.4851 46.3963 -3.3785 -5.5748
# 5 19.6037 3.4541 15.0342 -3.3785 42.3799 -3.4078
# 6 18.2799 33.0395 5.1122 -5.5748 -3.4078 40.7837
#
#
#
# Elastic Compliance Matrix: (Units=1/GPa)
#
#
# Indices 1 2 3 4 5 6 
#
# 1 0.010771 0.006879 -0.001261 0.004647 -0.005535 -0.010070
# 2 0.006879 0.026733 -0.000794 0.010426 -0.006156 -0.023729
# 3 -0.001261 -0.000794 0.014550 0.007530 -0.003906 0.000088
# 4 0.004647 0.010426 0.007530 0.031100 -0.003797 -0.007539
# 5 -0.005535 -0.006156 -0.003906 -0.003797 0.028531 0.009822
# 6 -0.010070 -0.023729 0.000088 -0.007539 0.009822 0.048036
#
#
# Mechanical properties :
#
#
# Convention : Reuss Voigt Hill
#
# Bulk Modulus (GPa) = 16.20732 41.08320 28.64526
# Shear Modulus (GPa) = 29.30135 43.78356 36.54246
#
# Velocity S-wave (km/s) = 3.41054 4.16903 3.80871
# Velocity P-wave (km/s) = 4.68432 6.28357 5.54193
#
# Compressibility (1/GPa) = 0.06170051
#
# Stress axis : x y z
#
# Youngs Moduli (GPa) = 92.84010 37.40718 68.73019
#
# Poissons Ratio (x) = -0.25732 0.08669
# Poissons Ratio (y) = -0.63863 0.05458
# Poissons Ratio (z) = 0.11709 0.02971
#
# Static dielectric constant tensor:
#      x y z
#    x 1.967450 -0.012790 -0.017850 
#    y -0.012790 2.259580 0.147830 
#    z -0.017850 0.147830 2.100680 
# 
# From -- ./inp_files/35345.got.cif
#   From: 2010.05.17/outbox.cif.g08.bks.cpg/sg2_18_cif.got.tgz:35345.got - 2010.06.03 11:33:40.
