data_PCOD9060272
_publ_section_title
;
Structure prediction by ZEFSAII (Michael W. Deem and Ramdas Pophale) SiO2 
 PCOD9060272
Probable space group: P -1
;
_chemical_formula_sum "Si O2"
_cell_formula_units_Z 14
_cell_length_a 15.377885
_cell_length_b 14.150948
_cell_length_c 6.650853
_cell_angle_alpha 93.788990
_cell_angle_beta 103.599783
_cell_angle_gamma 27.638679
_cell_volume 619.255696
_symmetry_space_group_name_H-M "P -1"
_symmetry_group_IT_number 2
_symmetry_cell_setting 'triclinic'
loop_
_space_group_symop_operation_xyz
x,y,z
-x,-y,-z
loop_
_atom_site_type_symbol
_atom_site_label
_atom_site_fract_x
_atom_site_fract_y
_atom_site_fract_z
Si Si1 0.343722 0.577421 0.683141
Si Si2 0.296888 0.814364 0.451250
Si Si3 0.063726 0.374996 0.324921
Si Si4 0.719524 0.689535 0.853212
Si Si5 0.906376 0.186352 0.057750
Si Si6 0.702377 0.993543 0.337152
Si Si7 0.102204 0.663098 0.293020
O O1 0.281055 0.737267 0.572212
O O2 0.566264 0.344243 0.686920
O O3 0.299981 0.625137 0.901679
O O4 0.209533 0.620042 0.521920
O O5 0.383526 0.823322 0.612666
O O6 0.077953 0.052884 0.290164
O O7 0.220653 0.276175 0.242106
O O8 0.000000 0.500000 0.500000
O O9 0.171374 0.180175 0.445104
O O10 0.862357 0.549532 0.107357
O O11 0.484418 0.896844 0.806642
O O12 0.786038 0.539977 0.724689
O O13 0.885863 0.279208 0.882151
O O14 0.000000 0.000000 0.000000
O O15 0.869155 0.858832 0.240863
#
# Coordination Sequence:
#
# PCOD9060272 Si02
#       7
#     2   2   2   2   2   2   2
#     4  11  24  44  66  95 148 185 225 290 338 401
#     4  11  23  43  68  99 137 189 233 281 349 405
#     4  11  25  51  74 101 145 176 227 301 355 424
#     4  11  26  47  74 106 135 182 234 287 361 425
#     4  12  24  40  65  96 138 189 235 281 338 406
#     4  12  24  46  75 104 141 185 235 291 351 418
#     4  12  24  44  67 103 140 179 238 285 339 419
#
# _framework density 22.607786000000001
#
# number of rings (size 3 to 8) (size 9 to 14) (size 15 to 20)
#    0.000    0.571    5.714    2.571    0.000    2.286 
#    5.143    0.000    0.000    0.000    0.000    0.000 
#    0.000    0.000    0.000    0.000    0.000    0.000 
#
# Total GULP energy -78353.044569 kJ/mol
# GULP energy per Si atom -5596.646041 kJ/mol
# Density = 2.255633 g / cm^3
# Si number density = 22.607786 Si / 1000 Ang^3
#
#
#
# Elastic Constant Matrix: (Units=GPa)
#
#
# Indices 1 2 3 4 5 6 
#
# 1 110.8624 38.6499 39.6163 4.3943 -8.9580 -13.1047
# 2 38.6499 75.5096 27.4507 12.0816 -15.9127 -16.9017
# 3 39.6163 27.4507 69.4149 6.8110 -5.8705 -16.1809
# 4 4.3943 12.0816 6.8110 27.7122 -8.2258 -3.9073
# 5 -8.9580 -15.9127 -5.8705 -8.2258 41.4916 -1.1610
# 6 -13.1047 -16.9017 -16.1809 -3.9073 -1.1610 48.4796
#
#
#
# Elastic Compliance Matrix: (Units=1/GPa)
#
#
# Indices 1 2 3 4 5 6 
#
# 1 0.012545 -0.004553 -0.005436 0.001495 0.000493 0.000122
# 2 -0.004553 0.019581 -0.003235 -0.004870 0.005222 0.004249
# 3 -0.005436 -0.003235 0.019902 -0.002040 0.000106 0.003884
# 4 0.001495 -0.004870 -0.002040 0.040529 0.006242 0.001441
# 5 0.000493 0.005222 0.000106 0.006242 0.027551 0.003152
# 6 0.000122 0.004249 0.003884 0.001441 0.003152 0.023629
#
#
# Mechanical properties :
#
#
# Convention : Reuss Voigt Hill
#
# Bulk Modulus (GPa) = 39.09276 51.91338 45.50307
# Shear Modulus (GPa) = 27.97817 33.54136 30.75976
#
# Velocity S-wave (km/s) = 3.52169 3.85596 3.69261
# Velocity P-wave (km/s) = 5.81942 6.54500 6.19285
#
# Compressibility (1/GPa) = 0.02558018
#
# Stress axis : x y z
#
# Youngs Moduli (GPa) = 79.71341 51.07076 50.24612
#
# Poissons Ratio (x) = 0.23254 0.27312
# Poissons Ratio (y) = 0.36295 0.16254
# Poissons Ratio (z) = 0.43329 0.16521
#
# Static dielectric constant tensor:
#      x y z
#    x 1.531900 -0.263220 0.135690 
#    y -0.263220 1.656340 0.075420 
#    z 0.135690 0.075420 1.816220 
# 
# From -- ./inp_files/52596.got.cif
#   From: 2010.05.17/outbox.cif.g08.bks.cpg/sg2_27_cif.got.tgz:52596.got - 2010.06.03 11:33:40.
