data_PCOD9060831
_publ_section_title
;
Structure prediction by ZEFSAII (Michael W. Deem and Ramdas Pophale) SiO2 
 PCOD9060831
Probable space group: P -1
;
_chemical_formula_sum "Si O2"
_cell_formula_units_Z 12
_cell_length_a 11.206484
_cell_length_b 15.318243
_cell_length_c 9.523363
_cell_angle_alpha 142.985727
_cell_angle_beta 141.513295
_cell_angle_gamma 30.026472
_cell_volume 469.254937
_symmetry_space_group_name_H-M "P -1"
_symmetry_group_IT_number 2
_symmetry_cell_setting 'triclinic'
loop_
_space_group_symop_operation_xyz
x,y,z
-x,-y,-z
loop_
_atom_site_type_symbol
_atom_site_label
_atom_site_fract_x
_atom_site_fract_y
_atom_site_fract_z
Si Si1 0.303225 0.210524 0.409522
Si Si2 0.011690 0.766647 0.082920
Si Si3 0.218854 0.349173 0.822776
Si Si4 0.850273 0.883797 0.378689
Si Si5 0.444321 0.441167 0.731236
Si Si6 0.350705 0.681966 0.699623
O O1 0.266614 0.244573 0.584989
O O2 0.280466 0.381937 0.539571
O O3 0.409423 0.963079 0.587047
O O4 0.120486 0.190987 0.133719
O O5 0.832086 0.900812 0.216449
O O6 0.910268 0.142948 0.382679
O O7 0.098097 0.561847 0.945116
O O8 0.075061 0.314477 0.752452
O O9 0.475205 0.269326 0.034254
O O10 0.728309 0.270074 0.721506
O O11 0.315373 0.607478 0.714057
O O12 0.500000 0.500000 0.000000
O O13 0.500000 0.500000 0.500000
#
# Coordination Sequence:
#
# PCOD9060831 Si02
#       6
#     2   2   2   2   2   2
#     4  12  26  42  65  99 132 166 209 271 324 369
#     4  11  24  43  68  94 125 174 218 254 317 385
#     4  11  24  43  68  94 125 174 218 254 317 385
#     4  12  26  42  65  99 132 166 209 271 324 369
#     4  11  23  44  68  95 125 170 221 258 312 384
#     4  11  23  44  68  95 125 170 221 258 312 384
#
# _framework density 25.572451999999998
#
# number of rings (size 3 to 8) (size 9 to 14) (size 15 to 20)
#    0.000    0.667    6.667    3.000    4.667    2.667 
#    0.000    0.000    0.000    0.000    0.000    0.000 
#    0.000    0.000    0.000    0.000    0.000    0.000 
#
# Total GULP energy -67267.068430 kJ/mol
# GULP energy per Si atom -5605.589036 kJ/mol
# Density = 2.551425 g / cm^3
# Si number density = 25.572452 Si / 1000 Ang^3
#
#
#
# Elastic Constant Matrix: (Units=GPa)
#
#
# Indices 1 2 3 4 5 6 
#
# 1 107.0587 11.7987 39.5739 -21.7375 -12.0052 6.9347
# 2 11.7987 64.5364 33.3675 -26.8362 -7.5444 -10.7755
# 3 39.5739 33.3675 113.5629 -39.1541 -0.1863 2.6760
# 4 -21.7375 -26.8362 -39.1541 50.9040 -0.8757 4.7423
# 5 -12.0052 -7.5444 -0.1863 -0.8757 57.3517 -2.7586
# 6 6.9347 -10.7755 2.6760 4.7423 -2.7586 54.4312
#
#
#
# Elastic Compliance Matrix: (Units=1/GPa)
#
#
# Indices 1 2 3 4 5 6 
#
# 1 0.011386 0.000902 -0.003135 0.003087 0.002478 -0.001261
# 2 0.000902 0.021982 -0.003855 0.008709 0.003385 0.003839
# 3 -0.003135 -0.003855 0.013549 0.007191 -0.001092 -0.001712
# 4 0.003087 0.008709 0.007191 0.031276 0.002214 -0.001635
# 5 0.002478 0.003385 -0.001092 0.002214 0.018486 0.001152
# 6 -0.001261 0.003839 -0.001712 -0.001635 0.001152 0.019578
#
#
# Mechanical properties :
#
#
# Convention : Reuss Voigt Hill
#
# Bulk Modulus (GPa) = 28.78511 50.51534 39.65023
# Shear Modulus (GPa) = 35.71099 45.89858 40.80478
#
# Velocity S-wave (km/s) = 3.74098 4.24116 3.99890
# Velocity P-wave (km/s) = 5.47181 6.61664 6.07127
#
# Compressibility (1/GPa) = 0.03474018
#
# Stress axis : x y z
#
# Youngs Moduli (GPa) = 87.82398 45.49222 73.80793
#
# Poissons Ratio (x) = -0.04102 0.23138
# Poissons Ratio (y) = -0.07920 0.28455
# Poissons Ratio (z) = 0.27531 0.17538
#
# Static dielectric constant tensor:
#      x y z
#    x 1.985650 -0.047680 0.018320 
#    y -0.047680 2.057730 0.077470 
#    z 0.018320 0.077470 2.049290 
# 
# From -- ./inp_files/263769.got.cif
#   From: 2010.05.17/outbox.cif.g08.bks.cpg/sg2_132_cif.got.tgz:263769.got - 2010.06.03 11:33:40.
