data_PCOD9060711
_publ_section_title
;
Structure prediction by ZEFSAII (Michael W. Deem and Ramdas Pophale) SiO2 
 PCOD9060711
Probable space group: P -1
;
_chemical_formula_sum "Si O2"
_cell_formula_units_Z 12
_cell_length_a 9.421631
_cell_length_b 18.763973
_cell_length_c 6.623839
_cell_angle_alpha 104.026848
_cell_angle_beta 55.744147
_cell_angle_gamma 144.825486
_cell_volume 495.853923
_symmetry_space_group_name_H-M "P -1"
_symmetry_group_IT_number 2
_symmetry_cell_setting 'triclinic'
loop_
_space_group_symop_operation_xyz
x,y,z
-x,-y,-z
loop_
_atom_site_type_symbol
_atom_site_label
_atom_site_fract_x
_atom_site_fract_y
_atom_site_fract_z
Si Si1 0.302121 0.802772 0.344027
Si Si2 0.680574 0.783353 0.618674
Si Si3 0.200694 0.047581 0.676841
Si Si4 0.310087 0.633601 0.205121
Si Si5 0.163014 0.832357 0.116221
Si Si6 0.757764 0.659891 0.930321
O O1 0.565631 0.926045 0.379548
O O2 0.327118 0.725645 0.304984
O O3 0.292433 0.808457 0.117759
O O4 0.980018 0.729342 0.606223
O O5 0.646149 0.830277 0.496079
O O6 0.867703 0.779359 0.383606
O O7 0.369607 0.652725 0.923824
O O8 0.944569 0.915538 0.647047
O O9 0.000000 0.000000 0.000000
O O10 0.580374 0.673412 0.086944
O O11 0.000000 0.500000 0.500000
O O12 0.007911 0.745594 0.974558
O O13 0.500000 0.000000 0.000000
O O14 0.500000 0.500000 0.000000
#
# Coordination Sequence:
#
# PCOD9060711 Si02
#       6
#     2   2   2   2   2   2
#     4  12  26  47  76 113 157 205 262 332 398 471
#     4  11  25  45  75 118 155 209 263 327 398 481
#     4  11  23  43  78 112 161 200 261 328 408 469
#     4  12  26  51  76 112 157 216 265 326 388 475
#     4  12  28  47  79 121 157 202 266 334 406 473
#     4  12  28  54  76 110 160 211 267 326 392 477
#
# _framework density 24.200673999999999
#
# number of rings (size 3 to 8) (size 9 to 14) (size 15 to 20)
#    0.000    0.333    5.000    3.000    7.000    2.000 
#    0.000    4.167    0.000    0.000    0.000    0.000 
#    0.000    0.000    0.000    0.000    0.000    0.000 
#
# Total GULP energy -66800.833801 kJ/mol
# GULP energy per Si atom -5566.736150 kJ/mol
# Density = 2.414559 g / cm^3
# Si number density = 24.200674 Si / 1000 Ang^3
#
#
#
# Elastic Constant Matrix: (Units=GPa)
#
#
# Indices 1 2 3 4 5 6 
#
# 1 163.7749 48.8979 26.7086 0.3065 21.4802 3.0994
# 2 48.8979 79.9904 18.3582 10.3333 17.4216 4.2322
# 3 26.7086 18.3582 110.6010 -8.9353 -3.8078 0.1683
# 4 0.3065 10.3333 -8.9353 40.8399 3.3697 -0.5672
# 5 21.4802 17.4216 -3.8078 3.3697 54.2622 3.5986
# 6 3.0994 4.2322 0.1683 -0.5672 3.5986 23.5607
#
#
#
# Elastic Compliance Matrix: (Units=1/GPa)
#
#
# Indices 1 2 3 4 5 6 
#
# 1 0.007798 -0.004207 -0.001176 0.000904 -0.001878 0.000047
# 2 -0.004207 0.017071 -0.002303 -0.004526 -0.003559 -0.002062
# 3 -0.001176 -0.002303 0.009980 0.002637 0.001722 0.000298
# 4 0.000904 -0.004526 0.002637 0.026257 -0.000441 0.001375
# 5 -0.001878 -0.003559 0.001722 -0.000441 0.020615 -0.002285
# 6 0.000047 -0.002062 0.000298 0.001375 -0.002285 0.043188
#
#
# Mechanical properties :
#
#
# Convention : Reuss Voigt Hill
#
# Bulk Modulus (GPa) = 51.34546 60.25509 55.80027
# Shear Modulus (GPa) = 34.06664 41.09267 37.57966
#
# Velocity S-wave (km/s) = 3.75597 4.12515 3.94488
# Velocity P-wave (km/s) = 6.33027 6.90227 6.62245
#
# Compressibility (1/GPa) = 0.01947592
#
# Stress axis : x y z
#
# Youngs Moduli (GPa) = 128.24540 58.58013 100.20378
#
# Poissons Ratio (x) = 0.24644 0.11788
# Poissons Ratio (y) = 0.53952 0.23073
# Poissons Ratio (z) = 0.15087 0.13489
#
# Static dielectric constant tensor:
#      x y z
#    x 2.037950 0.071170 0.151040 
#    y 0.071170 2.068490 -0.123020 
#    z 0.151040 -0.123020 2.055570 
# 
# From -- ./inp_files/48183.got.cif
#   From: 2010.05.17/outbox.cif.g08.bks.cpg/sg2_25_cif.got.tgz:48183.got - 2010.06.03 11:33:40.
