data_PCOD9060857
_publ_section_title
;
Structure prediction by ZEFSAII (Michael W. Deem and Ramdas Pophale) SiO2 
 PCOD9060857
Probable space group: P -1
;
_chemical_formula_sum "Si O2"
_cell_formula_units_Z 16
_cell_length_a 9.226471
_cell_length_b 12.713077
_cell_length_c 27.463040
_cell_angle_alpha 150.876542
_cell_angle_beta 151.322352
_cell_angle_gamma 36.556915
_cell_volume 742.932805
_symmetry_space_group_name_H-M "P -1"
_symmetry_group_IT_number 2
_symmetry_cell_setting 'triclinic'
loop_
_space_group_symop_operation_xyz
x,y,z
-x,-y,-z
loop_
_atom_site_type_symbol
_atom_site_label
_atom_site_fract_x
_atom_site_fract_y
_atom_site_fract_z
Si Si1 0.573381 0.593470 0.710086
Si Si2 0.405363 0.220749 0.436654
Si Si3 0.653348 0.935014 0.467877
Si Si4 0.738042 0.360664 0.049984
Si Si5 0.315513 0.067829 0.189862
Si Si6 0.759155 0.428399 0.294653
Si Si7 0.233496 0.081696 0.652123
Si Si8 0.257668 0.564572 0.814450
O O1 0.463326 0.413197 0.568776
O O2 0.491589 0.820173 0.747921
O O3 0.423321 0.605948 0.723991
O O4 0.940302 0.551524 0.811187
O O5 0.095791 0.293308 0.345712
O O6 0.391809 0.009824 0.381167
O O7 0.676315 0.128522 0.441735
O O8 0.788028 0.683137 0.406077
O O9 0.500000 0.000000 0.500000
O O10 0.926232 0.061305 0.582621
O O11 0.594437 0.360575 0.061902
O O12 0.500000 0.500000 0.000000
O O13 0.823019 0.121341 0.955161
O O14 0.069056 0.274264 0.217270
O O15 0.504536 0.952787 0.243744
O O16 0.614259 0.398560 0.186635
O O17 0.234585 0.309108 0.715332
#
# Coordination Sequence:
#
# PCOD9060857 Si02
#       8
#     2   2   2   2   2   2   2   2
#     4  11  25  44  68 102 142 181 224 283 348 401
#     4  12  25  44  66 105 142 184 228 266 345 419
#     4  12  26  39  62  98 147 181 224 272 333 411
#     4  11  24  47  74  98 129 179 243 285 336 405
#     4  11  24  45  72  94 132 176 236 283 339 399
#     4  12  26  43  66 103 147 179 223 281 345 413
#     4  12  25  42  71 103 134 187 226 280 337 407
#     4  11  23  44  69 101 134 176 231 282 332 411
#
# _framework density 21.536269000000001
#
# number of rings (size 3 to 8) (size 9 to 14) (size 15 to 20)
#    0.000    0.500    5.000    4.500    5.250    1.000 
#    0.000    3.125    0.000    0.000    0.000    0.000 
#    0.000    0.000    0.000    0.000    0.000    0.000 
#
# Total GULP energy -89276.021358 kJ/mol
# GULP energy per Si atom -5579.751335 kJ/mol
# Density = 2.148725 g / cm^3
# Si number density = 21.536269 Si / 1000 Ang^3
#
#
#
# Elastic Constant Matrix: (Units=GPa)
#
#
# Indices 1 2 3 4 5 6 
#
# 1 157.0673 32.8272 34.7756 -1.9042 -29.0555 16.4156
# 2 32.8272 135.3441 14.6848 -2.7561 -10.5134 12.2502
# 3 34.7756 14.6848 45.6179 -4.6353 -21.4303 3.6254
# 4 -1.9042 -2.7561 -4.6353 31.4648 11.0008 -7.7081
# 5 -29.0555 -10.5134 -21.4303 11.0008 27.0663 -5.3923
# 6 16.4156 12.2502 3.6254 -7.7081 -5.3923 32.8937
#
#
#
# Elastic Compliance Matrix: (Units=1/GPa)
#
#
# Indices 1 2 3 4 5 6 
#
# 1 0.008956 -0.001026 -0.003036 -0.003449 0.007552 -0.003323
# 2 -0.001026 0.008036 -0.001366 -0.000341 0.000617 -0.002309
# 3 -0.003036 -0.001366 0.037071 -0.004101 0.027526 0.001489
# 4 -0.003449 -0.000341 -0.004101 0.040630 -0.021958 0.008222
# 5 0.007552 0.000617 0.027526 -0.021958 0.076070 0.000292
# 6 -0.003323 -0.002309 0.001489 0.008222 0.000292 0.034730
#
#
# Mechanical properties :
#
#
# Convention : Reuss Voigt Hill
#
# Bulk Modulus (GPa) = 23.14400 55.84495 39.49448
# Shear Modulus (GPa) = 21.66853 35.33440 28.50146
#
# Velocity S-wave (km/s) = 3.17541 4.05494 3.64183
# Velocity P-wave (km/s) = 4.92079 6.92173 6.00519
#
# Compressibility (1/GPa) = 0.04320773
#
# Stress axis : x y z
#
# Youngs Moduli (GPa) = 111.66122 124.44722 26.97513
#
# Poissons Ratio (x) = 0.12764 0.08189
# Poissons Ratio (y) = 0.11452 0.03685
# Poissons Ratio (z) = 0.33896 0.17000
#
# Static dielectric constant tensor:
#      x y z
#    x 1.850260 0.001880 -0.038030 
#    y 0.001880 1.815250 -0.003700 
#    z -0.038030 -0.003700 1.811440 
# 
# From -- ./inp_files/617075.got.cif
#   From: 2010.05.17/outbox.cif.g08.bks.cpg/sg2_309_cif.got.tgz:617075.got - 2010.06.03 11:33:40.
