data_PCOD9060054
_publ_section_title
;
Structure prediction by ZEFSAII (Michael W. Deem and Ramdas Pophale) SiO2 
 PCOD9060054
Probable space group: P -1
;
_chemical_formula_sum "Si O2"
_cell_formula_units_Z 12
_cell_length_a 7.598719
_cell_length_b 18.187151
_cell_length_c 12.270774
_cell_angle_alpha 29.752261
_cell_angle_beta 138.931307
_cell_angle_gamma 120.168707
_cell_volume 489.106652
_symmetry_space_group_name_H-M "P -1"
_symmetry_group_IT_number 2
_symmetry_cell_setting 'triclinic'
loop_
_space_group_symop_operation_xyz
x,y,z
-x,-y,-z
loop_
_atom_site_type_symbol
_atom_site_label
_atom_site_fract_x
_atom_site_fract_y
_atom_site_fract_z
Si Si1 0.295391 0.651237 0.484197
Si Si2 0.091380 0.727670 0.530945
Si Si3 0.376350 0.611977 0.191262
Si Si4 0.877960 0.712736 0.666231
Si Si5 0.578752 0.068475 0.131691
Si Si6 0.303382 0.009153 0.292244
O O1 0.231716 0.632483 0.605685
O O2 0.377536 0.487319 0.660334
O O3 0.569909 0.698999 0.536465
O O4 0.998978 0.812635 0.091278
O O5 0.098454 0.634606 0.765870
O O6 0.222294 0.857526 0.443022
O O7 0.732770 0.831286 0.207044
O O8 0.500000 0.500000 0.500000
O O9 0.933675 0.364950 0.036381
O O10 0.321507 0.795865 0.959563
O O11 0.805793 0.907017 0.379993
O O12 0.499523 0.996042 0.294806
O O13 0.500000 0.000000 0.500000
#
# Coordination Sequence:
#
# PCOD9060054 Si02
#       6
#     2   2   2   2   2   2
#     4  11  25  47  71 104 152 185 237 300 355 426
#     4  11  23  44  76 107 138 188 246 295 353 419
#     4  12  29  44  69 113 149 189 236 298 366 416
#     4  12  24  47  78 103 141 196 243 288 354 435
#     4  11  23  46  72 106 142 189 244 290 350 434
#     4  11  23  42  74 110 139 185 242 300 353 420
#
# _framework density 24.534527000000001
#
# number of rings (size 3 to 8) (size 9 to 14) (size 15 to 20)
#    0.000    0.667    3.333    4.500    4.667    3.333 
#    0.000    1.667    0.000    0.000    0.000    0.000 
#    0.000    0.000    0.000    0.000    0.000    0.000 
#
# Total GULP energy -67246.852189 kJ/mol
# GULP energy per Si atom -5603.904349 kJ/mol
# Density = 2.447869 g / cm^3
# Si number density = 24.534527 Si / 1000 Ang^3
#
#
#
# Elastic Constant Matrix: (Units=GPa)
#
#
# Indices 1 2 3 4 5 6 
#
# 1 101.5657 42.0065 47.7646 4.6990 -6.9069 -14.1231
# 2 42.0065 131.2175 49.8842 -6.2660 -3.6393 -11.7313
# 3 47.7646 49.8842 84.0544 10.2074 14.5826 -13.8648
# 4 4.6990 -6.2660 10.2074 67.8257 -8.8500 -1.2481
# 5 -6.9069 -3.6393 14.5826 -8.8500 34.5768 -7.2860
# 6 -14.1231 -11.7313 -13.8648 -1.2481 -7.2860 41.3185
#
#
#
# Elastic Compliance Matrix: (Units=1/GPa)
#
#
# Indices 1 2 3 4 5 6 
#
# 1 0.015530 -0.000837 -0.009323 0.001357 0.008009 0.003396
# 2 -0.000837 0.010940 -0.006976 0.002790 0.004943 0.001435
# 3 -0.009323 -0.006976 0.024552 -0.005551 -0.014291 0.000384
# 4 0.001357 0.002790 -0.005551 0.016737 0.007445 0.001212
# 5 0.008009 0.004943 -0.014291 0.007445 0.040384 0.006692
# 6 0.003396 0.001435 0.000384 0.001212 0.006692 0.027116
#
#
# Mechanical properties :
#
#
# Convention : Reuss Voigt Hill
#
# Bulk Modulus (GPa) = 59.70289 66.23870 62.97079
# Shear Modulus (GPa) = 28.55292 40.55634 34.55463
#
# Velocity S-wave (km/s) = 3.41513 4.07016 3.75695
# Velocity P-wave (km/s) = 6.31964 7.01035 6.67394
#
# Compressibility (1/GPa) = 0.01674961
#
# Stress axis : x y z
#
# Youngs Moduli (GPa) = 64.39013 91.41025 40.73019
#
# Poissons Ratio (x) = 0.07652 0.37971
# Poissons Ratio (y) = 0.05390 0.28415
# Poissons Ratio (z) = 0.60028 0.63772
#
# Static dielectric constant tensor:
#      x y z
#    x 1.941220 -0.072170 -0.000870 
#    y -0.072170 2.028920 -0.017690 
#    z -0.000870 -0.017690 1.981900 
# 
# From -- ./inp_files/151915.got.cif
#   From: 2010.05.17/outbox.cif.g08.bks.cpg/sg2_76_cif.got.tgz:151915.got - 2010.06.03 11:33:40.
