data_PCOD9060636
_publ_section_title
;
Structure prediction by ZEFSAII (Michael W. Deem and Ramdas Pophale) SiO2 
 PCOD9060636
Probable space group: P -1
;
_chemical_formula_sum "Si O2"
_cell_formula_units_Z 16
_cell_length_a 11.505804
_cell_length_b 23.417152
_cell_length_c 23.105336
_cell_angle_alpha 17.668398
_cell_angle_beta 24.314098
_cell_angle_gamma 29.095292
_cell_volume 777.201873
_symmetry_space_group_name_H-M "P -1"
_symmetry_group_IT_number 2
_symmetry_cell_setting 'triclinic'
loop_
_space_group_symop_operation_xyz
x,y,z
-x,-y,-z
loop_
_atom_site_type_symbol
_atom_site_label
_atom_site_fract_x
_atom_site_fract_y
_atom_site_fract_z
Si Si1 0.299567 0.763565 0.673138
Si Si2 0.136252 0.074382 0.775315
Si Si3 0.373233 0.824149 0.012429
Si Si4 0.780421 0.771392 0.631356
Si Si5 0.869085 0.093423 0.552351
Si Si6 0.850093 0.065411 0.219869
Si Si7 0.049483 0.645414 0.014682
Si Si8 0.190935 0.489193 0.860490
O O1 0.614844 0.786572 0.487787
O O2 0.404618 0.028591 0.206165
O O3 0.268223 0.744466 0.775810
O O4 0.122594 0.952352 0.551502
O O5 0.261524 0.911178 0.918797
O O6 0.045813 0.979101 0.848596
O O7 0.885687 0.179758 0.822134
O O8 0.547040 0.626927 0.118784
O O9 0.468995 0.839615 0.729229
O O10 0.816090 0.546540 0.834534
O O11 0.015650 0.845626 0.496709
O O12 0.831634 0.871824 0.450605
O O13 0.885174 0.411847 0.092590
O O14 0.809493 0.287125 0.358543
O O15 0.022348 0.208107 0.043430
O O16 0.812550 0.585928 0.133514
#
# Coordination Sequence:
#
# PCOD9060636 Si02
#       8
#     2   2   2   2   2   2   2   2
#     4   9  17  35  59  89 111 136 185 238 281 334
#     4  11  23  38  58  81 117 157 194 230 279 333
#     4  10  23  43  55  76 118 160 193 235 274 328
#     4  10  18  32  58  90 118 138 179 232 294 341
#     4  10  17  39  63  84 111 149 186 236 290 333
#     4  11  18  33  54  85 120 150 178 228 283 343
#     4   9  18  33  58  91 116 140 174 238 291 339
#     4   8  19  37  63  84 111 147 187 236 288 334
#
# _framework density 20.586672
#
# number of rings (size 3 to 8) (size 9 to 14) (size 15 to 20)
#    0.750    1.500    2.500    1.125    0.000    2.000 
#    0.000   13.750    0.000    3.000    0.000    0.000 
#    0.000    0.000    0.000    0.000    0.000    0.000 
#
# Total GULP energy -89296.980330 kJ/mol
# GULP energy per Si atom -5581.061271 kJ/mol
# Density = 2.053982 g / cm^3
# Si number density = 20.586672 Si / 1000 Ang^3
#
#
#
# Elastic Constant Matrix: (Units=GPa)
#
#
# Indices 1 2 3 4 5 6 
#
# 1 67.6122 25.8270 18.9240 -1.6598 5.5549 13.5008
# 2 25.8270 105.5077 66.4227 -11.9804 8.4606 -0.4030
# 3 18.9240 66.4227 94.9195 -21.6845 2.1650 4.6778
# 4 -1.6598 -11.9804 -21.6845 40.4603 -3.5389 5.6745
# 5 5.5549 8.4606 2.1650 -3.5389 34.1426 -2.1135
# 6 13.5008 -0.4030 4.6778 5.6745 -2.1135 28.5691
#
#
#
# Elastic Compliance Matrix: (Units=1/GPa)
#
#
# Indices 1 2 3 4 5 6 
#
# 1 0.018457 -0.004237 -0.000098 0.000504 -0.002455 -0.009048
# 2 -0.004237 0.018633 -0.012925 -0.002506 -0.003080 0.004651
# 3 -0.000098 -0.012925 0.021818 0.008815 0.002422 -0.005280
# 4 0.000504 -0.002506 0.008815 0.029997 0.002626 -0.007481
# 5 -0.002455 -0.003080 0.002422 0.002626 0.030723 0.002471
# 6 -0.009048 0.004651 -0.005280 -0.007481 0.002471 0.041877
#
#
# Mechanical properties :
#
#
# Convention : Reuss Voigt Hill
#
# Bulk Modulus (GPa) = 41.00443 54.48742 47.74593
# Shear Modulus (GPa) = 24.49125 31.09211 27.79168
#
# Velocity S-wave (km/s) = 3.45289 3.89048 3.67820
# Velocity P-wave (km/s) = 5.98814 6.83417 6.42510
#
# Compressibility (1/GPa) = 0.02438761
#
# Stress axis : x y z
#
# Youngs Moduli (GPa) = 54.18094 53.66942 45.83307
#
# Poissons Ratio (x) = 0.22739 0.00448
# Poissons Ratio (y) = 0.22956 0.59241
# Poissons Ratio (z) = 0.00529 0.69370
#
# Static dielectric constant tensor:
#      x y z
#    x 1.857830 0.050750 0.018990 
#    y 0.050750 1.722900 -0.002190 
#    z 0.018990 -0.002190 1.726630 
# 
# From -- ./inp_files/596356.got.cif
#   From: 2010.05.17/outbox.cif.g08.bks.cpg/sg2_299_cif.got.tgz:596356.got - 2010.06.03 11:33:40.
