data_PCOD9060041
_publ_section_title
;
Structure prediction by ZEFSAII (Michael W. Deem and Ramdas Pophale) SiO2 
 PCOD9060041
Probable space group: P -1
;
_chemical_formula_sum "Si O2"
_cell_formula_units_Z 12
_cell_length_a 13.292444
_cell_length_b 14.562066
_cell_length_c 4.754865
_cell_angle_alpha 89.350121
_cell_angle_beta 90.862106
_cell_angle_gamma 145.830230
_cell_volume 516.867709
_symmetry_space_group_name_H-M "P -1"
_symmetry_group_IT_number 2
_symmetry_cell_setting 'triclinic'
loop_
_space_group_symop_operation_xyz
x,y,z
-x,-y,-z
loop_
_atom_site_type_symbol
_atom_site_label
_atom_site_fract_x
_atom_site_fract_y
_atom_site_fract_z
Si Si1 0.823372 0.346077 0.812184
Si Si2 0.665774 0.929625 0.998485
Si Si3 0.426990 0.695426 0.488701
Si Si4 0.504245 0.574232 0.742826
Si Si5 0.110801 0.041906 0.248594
Si Si6 0.683630 0.132481 0.324403
O O1 0.702873 0.047387 0.183400
O O2 0.730697 0.364600 0.660580
O O3 0.694586 0.205382 0.048424
O O4 0.000000 0.500000 0.000000
O O5 0.830986 0.278544 0.555999
O O6 0.844982 0.028769 0.845437
O O7 0.571198 0.791345 0.234762
O O8 0.373034 0.559614 0.646791
O O9 0.527371 0.828085 0.734645
O O10 0.500000 0.500000 0.500000
O O11 0.692063 0.767856 0.745127
O O12 0.500000 0.500000 0.000000
O O13 0.000000 0.000000 0.500000
O O14 0.000000 0.000000 0.000000
O O15 0.500000 0.000000 0.500000
#
# Coordination Sequence:
#
# PCOD9060041 Si02
#       6
#     2   2   2   2   2   2
#     4  12  27  46  72 108 160 196 237 310 380 422
#     4  11  23  42  74 112 141 194 258 296 363 445
#     4  11  23  42  74 105 149 198 245 300 367 446
#     4  11  23  44  73 105 139 191 247 294 362 450
#     4  11  23  44  73 103 146 182 232 317 373 415
#     4  12  25  45  77 107 144 197 257 299 347 463
#
# _framework density 23.216773
#
# number of rings (size 3 to 8) (size 9 to 14) (size 15 to 20)
#    0.000    0.667    1.667    8.000    0.000    0.000 
#    3.000    0.000    3.667    0.000    0.000    0.000 
#    0.000    0.000    0.000    0.000    0.000    0.000 
#
# Total GULP energy -66876.152471 kJ/mol
# GULP energy per Si atom -5573.012706 kJ/mol
# Density = 2.316393 g / cm^3
# Si number density = 23.216773 Si / 1000 Ang^3
#
#
#
# Elastic Constant Matrix: (Units=GPa)
#
#
# Indices 1 2 3 4 5 6 
#
# 1 169.4867 60.4305 81.3187 13.3681 -5.0717 -30.5856
# 2 60.4305 83.5432 47.8223 31.4872 7.2764 -16.5208
# 3 81.3187 47.8223 234.5337 22.7084 3.6279 -17.0200
# 4 13.3681 31.4872 22.7084 61.7846 -7.3994 -1.2540
# 5 -5.0717 7.2764 3.6279 -7.3994 66.2080 7.3324
# 6 -30.5856 -16.5208 -17.0200 -1.2540 7.3324 34.3503
#
#
#
# Elastic Compliance Matrix: (Units=1/GPa)
#
#
# Indices 1 2 3 4 5 6 
#
# 1 0.009627 -0.005643 -0.002038 0.001775 0.001151 0.004667
# 2 -0.005643 0.021929 -0.001072 -0.009989 -0.004519 0.005591
# 3 -0.002038 -0.001072 0.005322 -0.001019 -0.000485 0.000373
# 4 0.001775 -0.009989 -0.001019 0.021684 0.004136 -0.003820
# 5 0.001151 -0.004519 -0.000485 0.004136 0.016710 -0.004805
# 6 0.004667 0.005591 0.000373 -0.003820 -0.004805 0.037028
#
#
# Mechanical properties :
#
#
# Convention : Reuss Voigt Hill
#
# Bulk Modulus (GPa) = 51.62101 96.30075 73.96088
# Shear Modulus (GPa) = 36.69364 52.33471 44.51418
#
# Velocity S-wave (km/s) = 3.97984 4.75297 4.38348
# Velocity P-wave (km/s) = 6.58798 8.46699 7.58589
#
# Compressibility (1/GPa) = 0.01937196
#
# Stress axis : x y z
#
# Youngs Moduli (GPa) = 103.87776 45.60122 187.88707
#
# Poissons Ratio (x) = 0.25732 0.38294
# Poissons Ratio (y) = 0.58617 0.20144
# Poissons Ratio (z) = 0.21172 0.04889
#
# Static dielectric constant tensor:
#      x y z
#    x 2.160450 -0.069080 0.134610 
#    y -0.069080 1.916280 -0.078310 
#    z 0.134610 -0.078310 1.935460 
# 
# From -- ./inp_files/69313.got.cif
#   From: 2010.05.17/outbox.cif.g08.bks.cpg/sg2_35_cif.got.tgz:69313.got - 2010.06.03 11:33:40.
