data_PCOD9060100
_publ_section_title
;
Structure prediction by ZEFSAII (Michael W. Deem and Ramdas Pophale) SiO2 
 PCOD9060100
Probable space group: P -1
;
_chemical_formula_sum "Si O2"
_cell_formula_units_Z 16
_cell_length_a 19.429055
_cell_length_b 17.850954
_cell_length_c 6.034885
_cell_angle_alpha 73.827990
_cell_angle_beta 107.923283
_cell_angle_gamma 159.467436
_cell_volume 698.199278
_symmetry_space_group_name_H-M "P -1"
_symmetry_group_IT_number 2
_symmetry_cell_setting 'triclinic'
loop_
_space_group_symop_operation_xyz
x,y,z
-x,-y,-z
loop_
_atom_site_type_symbol
_atom_site_label
_atom_site_fract_x
_atom_site_fract_y
_atom_site_fract_z
Si Si1 0.396520 0.411377 0.226018
Si Si2 0.073250 0.321578 0.297738
Si Si3 0.228890 0.408554 0.969312
Si Si4 0.311242 0.914508 0.401247
Si Si5 0.010057 0.417184 0.021899
Si Si6 0.502367 0.263427 0.389784
Si Si7 0.367556 0.831583 0.811878
Si Si8 0.141286 0.010863 0.346268
O O1 0.500000 0.500000 0.500000
O O2 0.202370 0.162049 0.265222
O O3 0.500000 0.500000 0.000000
O O4 0.336614 0.441651 0.149723
O O5 0.297461 0.533901 0.433824
O O6 0.099350 0.333663 0.055954
O O7 0.921401 0.102213 0.406620
O O8 0.005012 0.342156 0.257798
O O9 0.401174 0.631493 0.842853
O O10 0.061147 0.204959 0.810549
O O11 0.378440 0.060603 0.464220
O O12 0.504630 0.078717 0.326549
O O13 0.150796 0.762033 0.176580
O O14 0.253416 0.788921 0.618891
O O15 0.224826 0.627286 0.951378
O O16 0.000000 0.500000 0.000000
O O17 0.345994 0.175575 0.337082
O O18 0.500000 0.000000 0.000000
#
# Coordination Sequence:
#
# PCOD9060100 Si02
#       8
#     2   2   2   2   2   2   2   2
#     4  12  27  48  82 117 158 204 250 307 378 453
#     4  11  27  44  70 104 141 194 242 308 365 449
#     4  11  25  48  75 106 151 190 247 300 369 444
#     4  11  25  40  68  93 131 182 231 295 366 428
#     4  12  25  43  66  98 139 182 242 299 370 436
#     4  11  24  45  70 100 143 188 241 302 367 442
#     4  11  23  43  63  93 128 174 233 295 357 435
#     4  11  26  46  75 109 145 194 246 297 372 436
#
# _framework density 22.916093
#
# number of rings (size 3 to 8) (size 9 to 14) (size 15 to 20)
#    0.000    0.750    2.500    3.750    7.000    5.500 
#    0.000    0.000    0.000    0.000    0.000    0.000 
#    0.000    0.000    0.000    0.000    0.000    0.000 
#
# Total GULP energy -89212.905557 kJ/mol
# GULP energy per Si atom -5575.806597 kJ/mol
# Density = 2.286393 g / cm^3
# Si number density = 22.916093 Si / 1000 Ang^3
#
#
#
# Elastic Constant Matrix: (Units=GPa)
#
#
# Indices 1 2 3 4 5 6 
#
# 1 61.9125 -6.8996 11.1489 -9.3939 9.8001 -4.0460
# 2 -6.8996 102.6990 15.3237 -24.3985 2.2059 -6.4022
# 3 11.1489 15.3237 64.3586 -16.8207 13.5418 3.4282
# 4 -9.3939 -24.3985 -16.8207 44.8059 5.4930 7.0393
# 5 9.8001 2.2059 13.5418 5.4930 29.5127 -1.3104
# 6 -4.0460 -6.4022 3.4282 7.0393 -1.3104 34.8428
#
#
#
# Elastic Compliance Matrix: (Units=1/GPa)
#
#
# Indices 1 2 3 4 5 6 
#
# 1 0.018765 0.003041 -0.001052 0.005833 -0.006999 0.001400
# 2 0.003041 0.011852 -0.001074 0.006828 -0.002622 0.001159
# 3 -0.001052 -0.001074 0.020948 0.009148 -0.011091 -0.004646
# 4 0.005833 0.006828 0.009148 0.033273 -0.013113 -0.006183
# 5 -0.006999 -0.002622 -0.011091 -0.013113 0.044116 0.004105
# 6 0.001400 0.001159 -0.004646 -0.006183 0.004105 0.030936
#
#
# Mechanical properties :
#
#
# Convention : Reuss Voigt Hill
#
# Bulk Modulus (GPa) = 18.72837 29.79068 24.25952
# Shear Modulus (GPa) = 28.43181 35.79209 32.11195
#
# Velocity S-wave (km/s) = 3.52617 3.95635 3.74743
# Velocity P-wave (km/s) = 4.97683 5.82223 5.41605
#
# Compressibility (1/GPa) = 0.05339494
#
# Stress axis : x y z
#
# Youngs Moduli (GPa) = 53.29182 84.37075 47.73678
#
# Poissons Ratio (x) = -0.25658 0.05021
# Poissons Ratio (y) = -0.16206 0.05129
# Poissons Ratio (z) = 0.05606 0.09064
#
# Static dielectric constant tensor:
#      x y z
#    x 1.678630 0.253240 0.193880 
#    y 0.253240 1.533580 -0.177980 
#    z 0.193880 -0.177980 1.912800 
# 
# From -- ./inp_files/106095.got.cif
#   From: 2010.05.17/outbox.cif.g08.bks.cpg/sg2_54_cif.got.tgz:106095.got - 2010.06.03 11:33:40.
