data_PCOD9060281
_publ_section_title
;
Structure prediction by ZEFSAII (Michael W. Deem and Ramdas Pophale) SiO2 
 PCOD9060281
Probable space group: P -1
;
_chemical_formula_sum "Si O2"
_cell_formula_units_Z 12
_cell_length_a 13.212349
_cell_length_b 11.374477
_cell_length_c 5.022958
_cell_angle_alpha 116.592817
_cell_angle_beta 112.005208
_cell_angle_gamma 40.633887
_cell_volume 438.788987
_symmetry_space_group_name_H-M "P -1"
_symmetry_group_IT_number 2
_symmetry_cell_setting 'triclinic'
loop_
_space_group_symop_operation_xyz
x,y,z
-x,-y,-z
loop_
_atom_site_type_symbol
_atom_site_label
_atom_site_fract_x
_atom_site_fract_y
_atom_site_fract_z
Si Si1 0.198216 0.205965 0.820692
Si Si2 0.265853 0.400420 0.808884
Si Si3 0.935091 0.261352 0.420506
Si Si4 0.620248 0.029255 0.755451
Si Si5 0.188346 0.899407 0.981740
Si Si6 0.613068 0.424796 0.778108
O O1 0.164010 0.378695 0.837083
O O2 0.050762 0.235234 0.708884
O O3 0.311294 0.043544 0.545531
O O4 0.291739 0.140129 0.120520
O O5 0.435285 0.188020 0.723757
O O6 0.182307 0.528940 0.596143
O O7 0.309198 0.498679 0.098595
O O8 0.851493 0.194108 0.328010
O O9 0.043739 0.116498 0.134353
O O10 0.677918 0.121149 0.016186
O O11 0.250244 0.790625 0.214911
O O12 0.500000 0.500000 0.500000
O O13 0.500000 0.500000 0.000000
#
# Coordination Sequence:
#
# PCOD9060281 Si02
#       6
#     2   2   2   2   2   2
#     4  11  25  45  66  99 135 182 217 271 332 397
#     4  11  23  43  69 101 135 174 225 272 333 394
#     4   9  21  41  70  95 138 176 218 274 329 400
#     4  11  24  42  72  95 137 173 226 276 324 390
#     4   9  20  43  66  99 131 174 222 271 335 383
#     4  11  24  40  68  98 128 165 217 278 321 386
#
# _framework density 27.348001
#
# number of rings (size 3 to 8) (size 9 to 14) (size 15 to 20)
#    0.000    1.667    1.667    1.500    4.667    2.000 
#    0.000   25.833    0.000    0.000    0.000    0.000 
#    0.000    0.000    0.000    0.000    0.000    0.000 
#
# Total GULP energy -67218.215044 kJ/mol
# GULP energy per Si atom -5601.517920 kJ/mol
# Density = 2.728576 g / cm^3
# Si number density = 27.348001 Si / 1000 Ang^3
#
#
#
# Elastic Constant Matrix: (Units=GPa)
#
#
# Indices 1 2 3 4 5 6 
#
# 1 129.5367 18.9070 49.5110 -6.9801 33.6770 23.4208
# 2 18.9070 116.0088 35.4865 -8.7345 4.9794 4.9694
# 3 49.5110 35.4865 144.0170 -26.9897 10.4315 -4.5618
# 4 -6.9801 -8.7345 -26.9897 47.1326 3.8081 10.4808
# 5 33.6770 4.9794 10.4315 3.8081 58.4699 -2.2131
# 6 23.4208 4.9694 -4.5618 10.4808 -2.2131 45.5869
#
#
#
# Elastic Compliance Matrix: (Units=1/GPa)
#
#
# Indices 1 2 3 4 5 6 
#
# 1 0.012356 -0.000155 -0.003579 0.001969 -0.006876 -0.007476
# 2 -0.000155 0.009437 -0.002124 0.000852 -0.000443 -0.001379
# 3 -0.003579 -0.002124 0.009489 0.004010 0.000368 0.002116
# 4 0.001969 0.000852 0.004010 0.025791 -0.003860 -0.006820
# 5 -0.006876 -0.000443 0.000368 -0.003860 0.021497 0.005549
# 6 -0.007476 -0.001379 0.002116 -0.006820 0.005549 0.027976
#
#
# Mechanical properties :
#
#
# Convention : Reuss Voigt Hill
#
# Bulk Modulus (GPa) = 51.10963 66.37463 58.74213
# Shear Modulus (GPa) = 40.06876 49.28174 44.67525
#
# Velocity S-wave (km/s) = 3.83187 4.24963 4.04615
# Velocity P-wave (km/s) = 6.18925 6.95717 6.58442
#
# Compressibility (1/GPa) = 0.01956579
#
# Stress axis : x y z
#
# Youngs Moduli (GPa) = 80.93250 105.96278 105.38194
#
# Poissons Ratio (x) = 0.01645 0.37719
# Poissons Ratio (y) = 0.01256 0.22382
# Poissons Ratio (z) = 0.28968 0.22506
#
# Static dielectric constant tensor:
#      x y z
#    x 2.151640 -0.048290 0.053540 
#    y -0.048290 2.230970 0.108620 
#    z 0.053540 0.108620 2.156750 
# 
# From -- ./inp_files/93958.got.cif
#   From: 2010.05.17/outbox.cif.g08.bks.cpg/sg2_47_cif.got.tgz:93958.got - 2010.06.03 11:33:40.
