data_PCOD9060057
_publ_section_title
;
Structure prediction by ZEFSAII (Michael W. Deem and Ramdas Pophale) SiO2 
 PCOD9060057
Probable space group: P -1
;
_chemical_formula_sum "Si O2"
_cell_formula_units_Z 16
_cell_length_a 5.682790
_cell_length_b 11.112577
_cell_length_c 12.704901
_cell_angle_alpha 63.049492
_cell_angle_beta 70.244195
_cell_angle_gamma 73.606581
_cell_volume 665.082561
_symmetry_space_group_name_H-M "P -1"
_symmetry_group_IT_number 2
_symmetry_cell_setting 'triclinic'
loop_
_space_group_symop_operation_xyz
x,y,z
-x,-y,-z
loop_
_atom_site_type_symbol
_atom_site_label
_atom_site_fract_x
_atom_site_fract_y
_atom_site_fract_z
Si Si1 0.323430 0.439425 0.801180
Si Si2 0.519915 0.741107 0.964705
Si Si3 0.697526 0.017999 0.786211
Si Si4 0.638847 0.732482 0.334902
Si Si5 0.756588 0.592584 0.781709
Si Si6 0.851794 0.049049 0.397083
Si Si7 0.915094 0.141847 0.898108
Si Si8 0.364322 0.224706 0.457120
O O1 0.411562 0.379507 0.697285
O O2 0.547686 0.515260 0.784588
O O3 0.038979 0.519501 0.797183
O O4 0.316505 0.318465 0.935740
O O5 0.535978 0.898288 0.874582
O O6 0.616083 0.652666 0.884767
O O7 0.231128 0.748255 0.043282
O O8 0.586307 0.139018 0.676839
O O9 0.724306 0.099008 0.856788
O O10 0.959836 0.941336 0.731055
O O11 0.682062 0.684780 0.466989
O O12 0.871044 0.796120 0.222482
O O13 0.788198 0.710997 0.645762
O O14 0.712243 0.920669 0.441854
O O15 0.653860 0.184650 0.392149
O O16 0.000000 0.000000 0.500000
O O17 0.000000 0.000000 0.000000
#
# Coordination Sequence:
#
# PCOD9060057 Si02
#       8
#     2   2   2   2   2   2   2   2
#     4  12  29  53  77 109 153 213 268 314 375 453
#     4  12  26  49  78 113 154 198 257 326 385 461
#     4  12  24  42  74 117 147 192 242 317 402 454
#     4  12  25  48  74 112 154 198 256 314 390 461
#     4  12  31  52  78 111 151 214 265 316 378 452
#     4  11  23  42  74 110 152 188 239 313 392 468
#     4  12  24  41  71 113 156 193 238 312 398 463
#     4  11  27  46  73 112 152 199 252 317 385 460
#
# _framework density 24.057162999999999
#
# number of rings (size 3 to 8) (size 9 to 14) (size 15 to 20)
#    0.000    0.250    5.000    3.375    7.000    2.000 
#    0.000    0.000    0.000    0.000    0.000    0.000 
#    0.000    0.000    0.000    0.000    0.000    0.000 
#
# Total GULP energy -89531.723527 kJ/mol
# GULP energy per Si atom -5595.732720 kJ/mol
# Density = 2.400241 g / cm^3
# Si number density = 24.057163 Si / 1000 Ang^3
#
#
#
# Elastic Constant Matrix: (Units=GPa)
#
#
# Indices 1 2 3 4 5 6 
#
# 1 99.2511 47.1052 19.7877 12.8363 1.7107 -11.3313
# 2 47.1052 75.8106 37.6644 21.6787 1.0128 -9.2318
# 3 19.7877 37.6644 113.1226 31.8868 7.5825 -21.8694
# 4 12.8363 21.6787 31.8868 41.2263 -1.2133 7.7562
# 5 1.7107 1.0128 7.5825 -1.2133 48.1592 -1.1175
# 6 -11.3313 -9.2318 -21.8694 7.7562 -1.1175 47.6395
#
#
#
# Elastic Compliance Matrix: (Units=1/GPa)
#
#
# Indices 1 2 3 4 5 6 
#
# 1 0.014559 -0.009024 0.001360 -0.001334 -0.000516 0.002544
# 2 -0.009024 0.022756 -0.003927 -0.006394 0.000334 0.001510
# 3 0.001360 -0.003927 0.014902 -0.011503 -0.002411 0.008220
# 4 -0.001334 -0.006394 -0.011503 0.039493 0.002681 -0.013204
# 5 -0.000516 0.000334 -0.002411 0.002681 0.021197 -0.001104
# 6 0.002544 0.001510 0.008220 -0.013204 -0.001104 0.027786
#
#
# Mechanical properties :
#
#
# Convention : Reuss Voigt Hill
#
# Bulk Modulus (GPa) = 34.43894 55.25544 44.84719
# Shear Modulus (GPa) = 28.80949 39.64680 34.22815
#
# Velocity S-wave (km/s) = 3.46431 4.06399 3.77607
# Velocity P-wave (km/s) = 5.50894 6.71116 6.13955
#
# Compressibility (1/GPa) = 0.02903690
#
# Stress axis : x y z
#
# Youngs Moduli (GPa) = 68.68659 43.94368 67.10323
#
# Poissons Ratio (x) = 0.39655 -0.09127
# Poissons Ratio (y) = 0.61983 0.26348
# Poissons Ratio (z) = -0.09342 0.17255
#
# Static dielectric constant tensor:
#      x y z
#    x 1.980160 0.025360 -0.003550 
#    y 0.025360 1.942240 -0.028790 
#    z -0.003550 -0.028790 1.911640 
# 
# From -- ./inp_files/69398.got.cif
#   From: 2010.05.17/outbox.cif.g08.bks.cpg/sg2_35_cif.got.tgz:69398.got - 2010.06.03 11:33:40.
