data_PCOD9060568
_publ_section_title
;
Structure prediction by ZEFSAII (Michael W. Deem and Ramdas Pophale) SiO2 
 PCOD9060568
Probable space group: P -1
;
_chemical_formula_sum "Si O2"
_cell_formula_units_Z 14
_cell_length_a 10.463703
_cell_length_b 15.529917
_cell_length_c 7.101290
_cell_angle_alpha 68.427382
_cell_angle_beta 66.905168
_cell_angle_gamma 31.773327
_cell_volume 557.537436
_symmetry_space_group_name_H-M "P -1"
_symmetry_group_IT_number 2
_symmetry_cell_setting 'triclinic'
loop_
_space_group_symop_operation_xyz
x,y,z
-x,-y,-z
loop_
_atom_site_type_symbol
_atom_site_label
_atom_site_fract_x
_atom_site_fract_y
_atom_site_fract_z
Si Si1 0.627090 0.337185 0.690578
Si Si2 0.275784 0.753325 0.696959
Si Si3 0.880356 0.427199 0.027368
Si Si4 0.098875 0.379925 0.292366
Si Si5 0.607264 0.738928 0.450784
Si Si6 0.957938 0.226319 0.871288
Si Si7 0.266782 0.937784 0.163667
O O1 0.595195 0.362403 0.464294
O O2 0.366366 0.482656 0.825915
O O3 0.707118 0.184882 0.796099
O O4 0.849534 0.278033 0.685805
O O5 0.401967 0.783210 0.619358
O O6 0.259658 0.708113 0.938148
O O7 0.985535 0.915270 0.689061
O O8 0.974073 0.316925 0.885340
O O9 0.063973 0.331522 0.175930
O O10 0.826029 0.561754 0.886281
O O11 0.285483 0.255491 0.452499
O O12 0.833279 0.549659 0.401869
O O13 0.489088 0.845616 0.243901
O O14 0.201303 0.034609 0.940485
#
# Coordination Sequence:
#
# PCOD9060568 Si02
#       7
#     2   2   2   2   2   2   2
#     4  11  18  37  61  86 120 156 186 237 300 343
#     4   9  20  36  61  90 116 143 193 244 291 348
#     4  11  22  40  53  89 118 153 201 236 281 350
#     4  10  22  36  62  77 117 162 199 230 276 349
#     4  10  17  39  60  86 106 159 200 232 283 347
#     4  10  23  36  58  91 125 142 188 252 297 338
#     4   9  20  38  60  91 118 143 196 241 294 353
#
# _framework density 25.110420999999999
#
# number of rings (size 3 to 8) (size 9 to 14) (size 15 to 20)
#    0.857    1.143    2.857    3.429    0.000    0.571 
#    7.714    1.429    0.000    0.000    0.000    0.000 
#    0.000    0.000    0.000    0.000    0.000    0.000 
#
# Total GULP energy -78229.026668 kJ/mol
# GULP energy per Si atom -5587.787619 kJ/mol
# Density = 2.505327 g / cm^3
# Si number density = 25.110421 Si / 1000 Ang^3
#
#
#
# Elastic Constant Matrix: (Units=GPa)
#
#
# Indices 1 2 3 4 5 6 
#
# 1 91.2278 29.4425 38.2076 -23.3219 43.5341 -15.3069
# 2 29.4425 51.7902 18.4095 -19.1328 9.0814 -17.0399
# 3 38.2076 18.4095 69.0273 -16.2086 27.8213 -14.5599
# 4 -23.3219 -19.1328 -16.2086 36.6697 -16.9547 8.5261
# 5 43.5341 9.0814 27.8213 -16.9547 59.8151 -10.4593
# 6 -15.3069 -17.0399 -14.5599 8.5261 -10.4593 36.2953
#
#
#
# Elastic Compliance Matrix: (Units=1/GPa)
#
#
# Indices 1 2 3 4 5 6 
#
# 1 0.021567 -0.007847 -0.004658 0.002203 -0.011779 -0.000369
# 2 -0.007847 0.030470 -0.001908 0.010955 0.006757 0.009604
# 3 -0.004658 -0.001908 0.020749 0.002197 -0.004721 0.003587
# 4 0.002203 0.010955 0.002197 0.038441 0.006576 -0.000182
# 5 -0.011779 0.006757 -0.004721 0.006576 0.028864 0.003084
# 6 -0.000369 0.009604 0.003587 -0.000182 0.003084 0.034275
#
#
# Mechanical properties :
#
#
# Convention : Reuss Voigt Hill
#
# Bulk Modulus (GPa) = 22.74773 42.68495 32.71634
# Shear Modulus (GPa) = 22.95176 34.95504 28.95340
#
# Velocity S-wave (km/s) = 3.02658 3.73507 3.39933
# Velocity P-wave (km/s) = 4.61436 5.96966 5.33522
#
# Compressibility (1/GPa) = 0.04396044
#
# Stress axis : x y z
#
# Youngs Moduli (GPa) = 46.36660 32.81892 48.19397
#
# Poissons Ratio (x) = 0.25754 0.22448
# Poissons Ratio (y) = 0.36385 0.09196
# Poissons Ratio (z) = 0.21597 0.06262
#
# Static dielectric constant tensor:
#      x y z
#    x 1.986100 0.034950 -0.016910 
#    y 0.034950 2.003240 -0.030980 
#    z -0.016910 -0.030980 2.023140 
# 
# From -- ./inp_files/276598.got.cif
#   From: 2010.05.17/outbox.cif.g08.bks.cpg/sg2_139_cif.got.tgz:276598.got - 2010.06.03 11:33:40.
