data_PCOD9060092
_publ_section_title
;
Structure prediction by ZEFSAII (Michael W. Deem and Ramdas Pophale) SiO2 
 PCOD9060092
Probable space group: P -1
;
_chemical_formula_sum "Si O2"
_cell_formula_units_Z 14
_cell_length_a 13.010160
_cell_length_b 8.309251
_cell_length_c 8.434331
_cell_angle_alpha 54.495989
_cell_angle_beta 56.434184
_cell_angle_gamma 73.353852
_cell_volume 617.687056
_symmetry_space_group_name_H-M "P -1"
_symmetry_group_IT_number 2
_symmetry_cell_setting 'triclinic'
loop_
_space_group_symop_operation_xyz
x,y,z
-x,-y,-z
loop_
_atom_site_type_symbol
_atom_site_label
_atom_site_fract_x
_atom_site_fract_y
_atom_site_fract_z
Si Si1 0.337649 0.382225 0.059257
Si Si2 0.491985 0.947453 0.847316
Si Si3 0.853967 0.299014 0.364764
Si Si4 0.063959 0.374548 0.385074
Si Si5 0.013006 0.954846 0.830824
Si Si6 0.399275 0.633977 0.588148
Si Si7 0.241887 0.034201 0.108074
O O1 0.440554 0.254365 0.129843
O O2 0.209308 0.431328 0.221098
O O3 0.294011 0.224044 0.050787
O O4 0.391688 0.571790 0.812465
O O5 0.560812 0.135333 0.598255
O O6 0.344474 0.947684 0.954548
O O7 0.500000 0.000000 0.000000
O O8 0.732039 0.411940 0.361599
O O9 0.803808 0.130486 0.629475
O O10 0.977854 0.390341 0.292683
O O11 0.895811 0.206550 0.215543
O O12 0.000000 0.500000 0.500000
O O13 0.054719 0.149133 0.583017
O O14 0.875695 0.898789 0.922815
O O15 0.000000 0.000000 0.000000
O O16 0.500000 0.500000 0.500000
#
# Coordination Sequence:
#
# PCOD9060092 Si02
#       7
#     2   2   2   2   2   2   2
#     4  11  20  37  63  91 126 162 208 256 313 371
#     4  10  18  35  60  93 123 161 206 255 314 370
#     4  11  21  40  65  88 125 170 208 252 322 375
#     4  11  24  42  61  92 130 165 205 266 317 365
#     4  11  23  39  65  93 123 165 215 254 315 382
#     4  12  21  32  63 100 118 161 219 253 303 384
#     4  10  17  38  64  88 121 167 204 249 314 374
#
# _framework density 22.665196999999999
#
# number of rings (size 3 to 8) (size 9 to 14) (size 15 to 20)
#    0.000    1.143    8.571    0.857    2.000    1.714 
#    0.000    0.000    3.143    4.286    3.714    0.000 
#    0.000    0.000    0.000    0.000    0.000    0.000 
#
# Total GULP energy -78204.944040 kJ/mol
# GULP energy per Si atom -5586.067431 kJ/mol
# Density = 2.261361 g / cm^3
# Si number density = 22.665197 Si / 1000 Ang^3
#
#
#
# Elastic Constant Matrix: (Units=GPa)
#
#
# Indices 1 2 3 4 5 6 
#
# 1 58.4864 26.2245 10.1232 21.6067 -2.1560 -27.4128
# 2 26.2245 88.3277 36.7920 28.4602 -1.7269 -34.9893
# 3 10.1232 36.7920 110.3773 -2.3701 -18.7557 -18.9632
# 4 21.6067 28.4602 -2.3701 45.8467 -10.9285 -10.0047
# 5 -2.1560 -1.7269 -18.7557 -10.9285 25.4730 10.3418
# 6 -27.4128 -34.9893 -18.9632 -10.0047 10.3418 42.9141
#
#
#
# Elastic Compliance Matrix: (Units=1/GPa)
#
#
# Indices 1 2 3 4 5 6 
#
# 1 0.033062 0.008953 -0.005359 -0.020472 -0.019910 0.026076
# 2 0.008953 0.032403 -0.012244 -0.025693 -0.028269 0.027550
# 3 -0.005359 -0.012244 0.015910 0.013903 0.019584 -0.007854
# 4 -0.020472 -0.025693 0.013903 0.051992 0.039313 -0.025235
# 5 -0.019910 -0.028269 0.019584 0.039313 0.082278 -0.037775
# 6 0.026076 0.027550 -0.007854 -0.025235 -0.037775 0.062171
#
#
# Mechanical properties :
#
#
# Convention : Reuss Voigt Hill
#
# Bulk Modulus (GPa) = 15.60702 44.83008 30.21855
# Shear Modulus (GPa) = 15.79903 35.11689 25.45796
#
# Velocity S-wave (km/s) = 2.64306 3.94048 3.35508
# Velocity P-wave (km/s) = 4.02681 6.36595 5.32638
#
# Compressibility (1/GPa) = 0.06407375
#
# Stress axis : x y z
#
# Youngs Moduli (GPa) = 30.24589 30.86148 62.85534
#
# Poissons Ratio (x) = -0.27630 0.33686
# Poissons Ratio (y) = -0.27079 0.76960
# Poissons Ratio (z) = 0.16210 0.37787
#
# Static dielectric constant tensor:
#      x y z
#    x 2.140830 0.245950 -0.305070 
#    y 0.245950 2.393140 -0.446390 
#    z -0.305070 -0.446390 2.277230 
# 
# From -- ./inp_files/203536.got.cif
#   From: 2010.05.17/outbox.cif.g08.bks.cpg/sg2_102_cif.got.tgz:203536.got - 2010.06.03 11:33:40.
