data_PCOD9060487
_publ_section_title
;
Structure prediction by ZEFSAII (Michael W. Deem and Ramdas Pophale) SiO2 
 PCOD9060487
Probable space group: P -1
;
_chemical_formula_sum "Si O2"
_cell_formula_units_Z 15
_cell_length_a 15.070336
_cell_length_b 11.243012
_cell_length_c 5.547080
_cell_angle_alpha 117.819051
_cell_angle_beta 53.112741
_cell_angle_gamma 127.333816
_cell_volume 589.872333
_symmetry_space_group_name_H-M "P -1"
_symmetry_group_IT_number 2
_symmetry_cell_setting 'triclinic'
loop_
_space_group_symop_operation_xyz
x,y,z
-x,-y,-z
loop_
_atom_site_type_symbol
_atom_site_label
_atom_site_fract_x
_atom_site_fract_y
_atom_site_fract_z
Si Si1 0.107179 0.461905 0.377751
Si Si2 0.791245 0.302105 0.190596
Si Si3 0.033240 0.815307 0.419625
Si Si4 0.500000 0.500000 0.500000
Si Si5 0.386949 0.959361 0.460660
Si Si6 0.179450 0.173801 0.500143
Si Si7 0.367992 0.693243 0.932605
Si Si8 0.332046 0.242476 0.805634
O O1 0.134236 0.531759 0.667858
O O2 0.000000 0.500000 0.500000
O O3 0.054316 0.282370 0.310867
O O4 0.236192 0.562004 0.126800
O O5 0.743796 0.168394 0.336313
O O6 0.668140 0.298113 0.274396
O O7 0.873794 0.256940 0.840074
O O8 0.936495 0.792420 0.338960
O O9 0.115262 0.993760 0.486610
O O10 0.465825 0.633851 0.769248
O O11 0.449383 0.406192 0.751467
O O12 0.500000 0.000000 0.500000
O O13 0.366786 0.104908 0.581536
O O14 0.405083 0.859097 0.128818
O O15 0.262052 0.250928 0.675036
O O16 0.258434 0.212227 0.153997
#
# Coordination Sequence:
#
# PCOD9060487 Si02
#       8
#     2   2   2   1   2   2   2   2
#     4  11  24  40  73 108 151 194 253 313 378 458
#     4  11  23  43  71 108 144 198 254 314 375 463
#     4  11  23  44  71 109 150 197 250 314 382 457
#     4  12  30  48  80 106 160 198 252 326 398 462
#     4  11  26  48  80 105 148 200 267 322 382 460
#     4  11  28  47  77 109 155 202 253 314 390 464
#     4  11  26  49  73 115 148 203 259 319 389 465
#     4  12  28  53  76 113 154 205 257 323 387 469
#
# _framework density 25.42923
#
# number of rings (size 3 to 8) (size 9 to 14) (size 15 to 20)
#    0.000    0.800    2.667    2.800    5.600    4.800 
#    0.000    0.000    0.000    0.000    0.000    0.000 
#    0.000    0.000    0.000    0.000    0.000    0.000 
#
# Total GULP energy -83633.363528 kJ/mol
# GULP energy per Si atom -5575.557569 kJ/mol
# Density = 2.537135 g / cm^3
# Si number density = 25.429230 Si / 1000 Ang^3
#
#
#
# Elastic Constant Matrix: (Units=GPa)
#
#
# Indices 1 2 3 4 5 6 
#
# 1 80.9225 -8.2660 26.9349 18.2149 0.0403 -4.5839
# 2 -8.2660 136.6004 46.3875 -31.9721 2.0884 -45.7810
# 3 26.9349 46.3875 77.3655 -2.8471 -5.8916 -6.4727
# 4 18.2149 -31.9721 -2.8471 38.3963 -2.2829 -0.6362
# 5 0.0403 2.0884 -5.8916 -2.2829 36.5494 6.9892
# 6 -4.5839 -45.7810 -6.4727 -0.6362 6.9892 45.7376
#
#
#
# Elastic Compliance Matrix: (Units=1/GPa)
#
#
# Indices 1 2 3 4 5 6 
#
# 1 0.017236 0.004932 -0.008888 -0.004820 -0.003147 0.005820
# 2 0.004932 0.025211 -0.014664 0.017535 -0.007504 0.025045
# 3 -0.008888 -0.014664 0.024002 -0.006026 0.006885 -0.013308
# 4 -0.004820 0.017535 -0.006026 0.042616 -0.002596 0.017206
# 5 -0.003147 -0.007504 0.006885 -0.002596 0.030962 -0.011619
# 6 0.005820 0.025045 -0.013308 0.017206 -0.011619 0.047647
#
#
# Mechanical properties :
#
#
# Convention : Reuss Voigt Hill
#
# Bulk Modulus (GPa) = 34.23716 47.22237 40.72976
# Shear Modulus (GPa) = 21.30829 39.45879 30.38354
#
# Velocity S-wave (km/s) = 2.89787 3.94345 3.46038
# Velocity P-wave (km/s) = 4.96888 6.27254 5.65838
#
# Compressibility (1/GPa) = 0.02920803
#
# Stress axis : x y z
#
# Youngs Moduli (GPa) = 58.01953 39.66454 41.66396
#
# Poissons Ratio (x) = -0.19561 0.37030
# Poissons Ratio (y) = -0.28613 0.61097
# Poissons Ratio (z) = 0.51566 0.58165
#
# Static dielectric constant tensor:
#      x y z
#    x 2.109030 0.174030 -0.017810 
#    y 0.174030 2.172320 -0.116140 
#    z -0.017810 -0.116140 2.068050 
# 
# From -- ./inp_files/95441.got.cif
#   From: 2010.05.17/outbox.cif.g08.bks.cpg/sg2_48_cif.got.tgz:95441.got - 2010.06.03 11:33:40.
