data_PCOD9060638
_publ_section_title
;
Structure prediction by ZEFSAII (Michael W. Deem and Ramdas Pophale) SiO2 
 PCOD9060638
Probable space group: P -1
;
_chemical_formula_sum "Si O2"
_cell_formula_units_Z 16
_cell_length_a 12.787584
_cell_length_b 11.243305
_cell_length_c 4.986318
_cell_angle_alpha 90.236321
_cell_angle_beta 72.639113
_cell_angle_gamma 60.171480
_cell_volume 583.435813
_symmetry_space_group_name_H-M "P -1"
_symmetry_group_IT_number 2
_symmetry_cell_setting 'triclinic'
loop_
_space_group_symop_operation_xyz
x,y,z
-x,-y,-z
loop_
_atom_site_type_symbol
_atom_site_label
_atom_site_fract_x
_atom_site_fract_y
_atom_site_fract_z
Si Si1 0.891350 0.235636 0.829846
Si Si2 0.114259 0.485586 0.223694
Si Si3 0.628307 0.617419 0.610354
Si Si4 0.140857 0.090116 0.377282
Si Si5 0.155074 0.229481 0.894293
Si Si6 0.282818 0.685102 0.557611
Si Si7 0.397062 0.803500 0.134044
Si Si8 0.577334 0.866584 0.261531
O O1 0.920424 0.361548 0.848746
O O2 0.791615 0.289505 0.664014
O O3 0.022386 0.100869 0.634115
O O4 0.817499 0.225415 0.137245
O O5 0.251096 0.420889 0.278640
O O6 0.122973 0.384929 0.976274
O O7 0.000000 0.500000 0.500000
O O8 0.660583 0.476936 0.430147
O O9 0.616587 0.733008 0.416981
O O10 0.491228 0.676692 0.866270
O O11 0.080742 0.185702 0.158848
O O12 0.253452 0.936343 0.207260
O O13 0.180918 0.165161 0.576057
O O14 0.294588 0.143958 0.932108
O O15 0.381096 0.733711 0.413271
O O16 0.485814 0.867821 0.106624
O O17 0.500000 0.000000 0.500000
#
# Coordination Sequence:
#
# PCOD9060638 Si02
#       8
#     2   2   2   2   2   2   2   2
#     4  11  26  49  71 111 142 191 249 306 363 432
#     4  11  23  43  74 108 145 192 237 300 370 430
#     4  11  26  48  70 108 147 193 245 307 359 437
#     4  12  27  44  74 104 149 193 240 299 372 435
#     4  12  24  43  67 109 148 186 232 295 367 448
#     4  11  28  50  77 102 144 194 257 304 359 420
#     4  12  28  46  74 105 144 201 245 302 362 435
#     4  12  25  43  71 108 149 186 234 296 369 443
#
# _framework density 27.423756000000001
#
# number of rings (size 3 to 8) (size 9 to 14) (size 15 to 20)
#    0.000    0.500    3.750    3.375    5.250    4.000 
#    0.000    0.000    0.000    0.000    0.000    0.000 
#    0.000    0.000    0.000    0.000    0.000    0.000 
#
# Total GULP energy -89653.557481 kJ/mol
# GULP energy per Si atom -5603.347343 kJ/mol
# Density = 2.736134 g / cm^3
# Si number density = 27.423756 Si / 1000 Ang^3
#
#
#
# Elastic Constant Matrix: (Units=GPa)
#
#
# Indices 1 2 3 4 5 6 
#
# 1 71.1861 26.4702 38.0578 15.6610 1.5266 2.3487
# 2 26.4702 133.4831 19.5032 4.9114 -0.4454 -4.0329
# 3 38.0578 19.5032 151.0541 -7.1212 -29.1680 -3.5322
# 4 15.6610 4.9114 -7.1212 50.7823 -5.4837 -0.6104
# 5 1.5266 -0.4454 -29.1680 -5.4837 57.8822 9.6989
# 6 2.3487 -4.0329 -3.5322 -0.6104 9.6989 41.6672
#
#
#
# Elastic Compliance Matrix: (Units=1/GPa)
#
#
# Indices 1 2 3 4 5 6 
#
# 1 0.019880 -0.002886 -0.005757 -0.007097 -0.003940 -0.001075
# 2 -0.002886 0.008140 -0.000335 0.000047 -0.000188 0.000966
# 3 -0.005757 -0.000335 0.009287 0.003670 0.005189 -0.000075
# 4 -0.007097 0.000047 0.003670 0.022844 0.004188 0.000075
# 5 -0.003940 -0.000188 0.005189 0.004188 0.021095 -0.004205
# 6 -0.001075 0.000966 -0.000075 0.000075 -0.004205 0.025127
#
#
# Mechanical properties :
#
#
# Convention : Reuss Voigt Hill
#
# Bulk Modulus (GPa) = 51.67585 58.19842 54.93714
# Shear Modulus (GPa) = 38.23259 48.17914 43.20586
#
# Velocity S-wave (km/s) = 3.73787 4.19601 3.97355
# Velocity P-wave (km/s) = 6.12481 6.68905 6.41314
#
# Compressibility (1/GPa) = 0.01935140
#
# Stress axis : x y z
#
# Youngs Moduli (GPa) = 50.30283 122.85537 107.67643
#
# Poissons Ratio (x) = 0.35451 0.61984
# Poissons Ratio (y) = 0.14515 0.03611
# Poissons Ratio (z) = 0.28957 0.04120
#
# Static dielectric constant tensor:
#      x y z
#    x 2.368350 -0.028060 -0.034470 
#    y -0.028060 2.126450 0.013180 
#    z -0.034470 0.013180 2.066470 
# 
# From -- ./inp_files/94886.got.cif
#   From: 2010.05.17/outbox.cif.g08.bks.cpg/sg2_48_cif.got.tgz:94886.got - 2010.06.03 11:33:40.
