data_PCOD9060970
_publ_section_title
;
Structure prediction by ZEFSAII (Michael W. Deem and Ramdas Pophale) SiO2 
 PCOD9060970
Probable space group: P -1
;
_chemical_formula_sum "Si O2"
_cell_formula_units_Z 16
_cell_length_a 8.902540
_cell_length_b 5.095583
_cell_length_c 19.528010
_cell_angle_alpha 65.484925
_cell_angle_beta 117.132036
_cell_angle_gamma 123.586503
_cell_volume 640.760143
_symmetry_space_group_name_H-M "P -1"
_symmetry_group_IT_number 2
_symmetry_cell_setting 'triclinic'
loop_
_space_group_symop_operation_xyz
x,y,z
-x,-y,-z
loop_
_atom_site_type_symbol
_atom_site_label
_atom_site_fract_x
_atom_site_fract_y
_atom_site_fract_z
Si Si1 0.884815 0.983747 0.181949
Si Si2 0.385202 0.671936 0.424454
Si Si3 0.806088 0.184036 0.996833
Si Si4 0.382834 0.704904 0.656213
Si Si5 0.039956 0.675998 0.415963
Si Si6 0.295798 0.740448 0.779487
Si Si7 0.254309 0.332179 0.299877
Si Si8 0.599574 0.599693 0.935668
O O1 0.816251 0.028256 0.088349
O O2 0.749963 0.038295 0.202769
O O3 0.091145 0.252319 0.218884
O O4 0.874037 0.627604 0.219285
O O5 0.500000 0.500000 0.500000
O O6 0.330209 0.624078 0.337574
O O7 0.179469 0.538526 0.429318
O O8 0.542652 0.047641 0.418966
O O9 0.651399 0.321626 0.951048
O O10 0.000000 0.500000 0.000000
O O11 0.776208 0.939236 0.955163
O O12 0.177431 0.410263 0.635880
O O13 0.340521 0.858058 0.698756
O O14 0.561384 0.632308 0.706769
O O15 0.000000 0.500000 0.500000
O O16 0.159921 0.033663 0.368160
O O17 0.467380 0.678856 0.849770
O O18 0.500000 0.500000 0.000000
#
# Coordination Sequence:
#
# PCOD9060970 Si02
#       8
#     2   2   2   2   2   2   2   2
#     4  12  25  46  70 102 145 188 239 296 366 426
#     4  11  25  44  69 105 141 182 240 300 351 432
#     4  12  26  44  69 105 144 188 238 302 359 425
#     4  11  26  44  67 104 137 187 240 287 366 426
#     4  11  23  44  70  98 138 183 232 289 358 426
#     4  12  26  44  75 101 141 191 241 300 359 434
#     4  11  26  43  68 100 143 180 238 299 353 430
#     4  12  23  46  70 101 138 186 247 290 356 430
#
# _framework density 24.970344999999998
#
# number of rings (size 3 to 8) (size 9 to 14) (size 15 to 20)
#    0.000    0.500    3.750    3.750    5.250    7.000 
#    0.000    0.000    0.000    0.000    0.000    0.000 
#    0.000    0.000    0.000    0.000    0.000    0.000 
#
# Total GULP energy -89290.287825 kJ/mol
# GULP energy per Si atom -5580.642989 kJ/mol
# Density = 2.491351 g / cm^3
# Si number density = 24.970345 Si / 1000 Ang^3
#
#
#
# Elastic Constant Matrix: (Units=GPa)
#
#
# Indices 1 2 3 4 5 6 
#
# 1 121.9279 22.8624 10.7605 5.8010 7.1994 20.3212
# 2 22.8624 91.3074 -3.2433 4.5651 0.0062 21.0921
# 3 10.7605 -3.2433 48.4845 2.8663 13.4577 1.8729
# 4 5.8010 4.5651 2.8663 31.4183 6.3753 -2.2018
# 5 7.1994 0.0062 13.4577 6.3753 43.3864 4.6309
# 6 20.3212 21.0921 1.8729 -2.2018 4.6309 45.8225
#
#
#
# Elastic Compliance Matrix: (Units=1/GPa)
#
#
# Indices 1 2 3 4 5 6 
#
# 1 0.009310 -0.001543 -0.001842 -0.001483 -0.000395 -0.003375
# 2 -0.001543 0.012749 0.001329 -0.002220 0.000747 -0.005420
# 3 -0.001842 0.001329 0.023033 -0.000592 -0.006743 -0.000083
# 4 -0.001483 -0.002220 -0.000592 0.033749 -0.004937 0.003824
# 5 -0.000395 0.000747 -0.006743 -0.004937 0.026228 -0.002781
# 6 -0.003375 -0.005420 -0.000083 0.003824 -0.002781 0.026283
#
#
# Mechanical properties :
#
#
# Convention : Reuss Voigt Hill
#
# Bulk Modulus (GPa) = 24.40270 35.83101 30.11686
# Shear Modulus (GPa) = 33.52952 39.54813 36.53882
#
# Velocity S-wave (km/s) = 3.66836 3.98402 3.82945
# Velocity P-wave (km/s) = 5.26654 5.96186 5.62495
#
# Compressibility (1/GPa) = 0.04097907
#
# Stress axis : x y z
#
# Youngs Moduli (GPa) = 107.41501 78.44015 43.41679
#
# Poissons Ratio (x) = 0.12101 0.07996
# Poissons Ratio (y) = 0.16572 -0.05768
# Poissons Ratio (z) = 0.19782 -0.10421
#
# Static dielectric constant tensor:
#      x y z
#    x 1.966730 -0.026340 0.013230 
#    y -0.026340 2.148910 -0.034570 
#    z 0.013230 -0.034570 2.073120 
# 
# From -- ./inp_files/55583.got.cif
#   From: 2010.05.17/outbox.cif.g08.bks.cpg/sg2_28_cif.got.tgz:55583.got - 2010.06.03 11:33:40.
