data_PCOD9060199
_publ_section_title
;
Structure prediction by ZEFSAII (Michael W. Deem and Ramdas Pophale) SiO2 
 PCOD9060199
Probable space group: P -1
;
_chemical_formula_sum "Si O2"
_cell_formula_units_Z 12
_cell_length_a 7.595574
_cell_length_b 21.896284
_cell_length_c 7.438778
_cell_angle_alpha 136.151037
_cell_angle_beta 73.961264
_cell_angle_gamma 137.847270
_cell_volume 478.197752
_symmetry_space_group_name_H-M "P -1"
_symmetry_group_IT_number 2
_symmetry_cell_setting 'triclinic'
loop_
_space_group_symop_operation_xyz
x,y,z
-x,-y,-z
loop_
_atom_site_type_symbol
_atom_site_label
_atom_site_fract_x
_atom_site_fract_y
_atom_site_fract_z
Si Si1 0.458950 0.016546 0.776517
Si Si2 0.637654 0.200978 0.796827
Si Si3 0.384560 0.292846 0.170111
Si Si4 0.320469 0.512806 0.162752
Si Si5 0.818839 0.986857 0.864945
Si Si6 0.257094 0.229177 0.676982
O O1 0.534666 0.942634 0.579814
O O2 0.086523 0.876054 0.521009
O O3 0.666910 0.153074 0.867943
O O4 0.458217 0.070545 0.075414
O O5 0.506827 0.240741 0.999063
O O6 0.950777 0.350392 0.918836
O O7 0.600784 0.435053 0.541302
O O8 0.334785 0.305041 0.006152
O O9 0.064159 0.154410 0.077649
O O10 0.466636 0.646896 0.282392
O O11 0.500000 0.500000 0.000000
O O12 0.754466 0.880681 0.522795
O O13 0.000000 0.000000 0.000000
#
# Coordination Sequence:
#
# PCOD9060199 Si02
#       6
#     2   2   2   2   2   2
#     4  10  20  41  67  90 124 166 203 250 308 367
#     4  11  22  38  65  95 123 161 208 254 306 363
#     4  12  23  38  69  94 122 161 211 256 304 363
#     4  12  24  44  64  87 128 169 202 253 316 368
#     4  10  17  38  65  90 121 167 199 245 307 368
#     4  11  22  40  68  92 120 166 210 249 306 372
#
# _framework density 25.09422
#
# number of rings (size 3 to 8) (size 9 to 14) (size 15 to 20)
#    0.000    1.000    8.333    1.000    0.000    1.333 
#    0.000    0.833    7.333    0.000    0.000    0.000 
#    0.000    0.000    0.000    0.000    0.000    0.000 
#
# Total GULP energy -67063.274217 kJ/mol
# GULP energy per Si atom -5588.606185 kJ/mol
# Density = 2.503710 g / cm^3
# Si number density = 25.094220 Si / 1000 Ang^3
#
#
#
# Elastic Constant Matrix: (Units=GPa)
#
#
# Indices 1 2 3 4 5 6 
#
# 1 75.4095 -9.4947 14.5096 1.3184 -28.2530 16.8214
# 2 -9.4947 115.1961 1.5049 -7.1000 9.5874 7.0026
# 3 14.5096 1.5049 90.0123 -28.1233 -8.1292 -7.2531
# 4 1.3184 -7.1000 -28.1233 70.9512 5.1446 -2.1425
# 5 -28.2530 9.5874 -8.1292 5.1446 36.2514 -14.9162
# 6 16.8214 7.0026 -7.2531 -2.1425 -14.9162 33.4328
#
#
#
# Elastic Compliance Matrix: (Units=1/GPa)
#
#
# Indices 1 2 3 4 5 6 
#
# 1 0.020082 0.000796 -0.003385 -0.002730 0.012823 -0.005459
# 2 0.000796 0.009381 -0.000725 0.000790 -0.003861 -0.004195
# 3 -0.003385 -0.000725 0.014175 0.005616 0.002587 0.006444
# 4 -0.002730 0.000790 0.005616 0.016701 -0.002460 0.002399
# 5 0.012823 -0.003861 0.002587 -0.002460 0.045777 0.015184
# 6 -0.005459 -0.004195 0.006444 0.002399 0.015184 0.041862
#
#
# Mechanical properties :
#
#
# Convention : Reuss Voigt Hill
#
# Bulk Modulus (GPa) = 27.02036 32.62860 29.82448
# Shear Modulus (GPa) = 29.95020 46.40030 38.17525
#
# Velocity S-wave (km/s) = 3.45847 4.30472 3.90459
# Velocity P-wave (km/s) = 5.17097 6.14313 5.67790
#
# Compressibility (1/GPa) = 0.03700914
#
# Stress axis : x y z
#
# Youngs Moduli (GPa) = 49.79522 106.59882 70.54706
#
# Poissons Ratio (x) = -0.08484 0.23882
# Poissons Ratio (y) = -0.03963 0.05115
# Poissons Ratio (z) = 0.16857 0.07729
#
# Static dielectric constant tensor:
#      x y z
#    x 2.177390 -0.156590 0.074570 
#    y -0.156590 2.200670 -0.089640 
#    z 0.074570 -0.089640 2.020300 
# 
# From -- ./inp_files/225070.got.cif
#   From: 2010.05.17/outbox.cif.g08.bks.cpg/sg2_113_cif.got.tgz:225070.got - 2010.06.03 11:33:40.
