data_PCOD9060881
_publ_section_title
;
Structure prediction by ZEFSAII (Michael W. Deem and Ramdas Pophale) SiO2 
 PCOD9060881
Probable space group: P -1
;
_chemical_formula_sum "Si O2"
_cell_formula_units_Z 16
_cell_length_a 11.222642
_cell_length_b 12.006392
_cell_length_c 9.010507
_cell_angle_alpha 59.002240
_cell_angle_beta 128.135236
_cell_angle_gamma 130.607746
_cell_volume 711.874417
_symmetry_space_group_name_H-M "P -1"
_symmetry_group_IT_number 2
_symmetry_cell_setting 'triclinic'
loop_
_space_group_symop_operation_xyz
x,y,z
-x,-y,-z
loop_
_atom_site_type_symbol
_atom_site_label
_atom_site_fract_x
_atom_site_fract_y
_atom_site_fract_z
Si Si1 0.844259 0.863446 0.563716
Si Si2 0.104552 0.022552 0.891907
Si Si3 0.959474 0.202007 0.756236
Si Si4 0.655069 0.228890 0.347208
Si Si5 0.406140 0.985410 0.090381
Si Si6 0.807903 0.548598 0.702490
Si Si7 0.877952 0.500946 0.125890
Si Si8 0.455694 0.750020 0.426035
O O1 0.827058 0.710592 0.595619
O O2 0.651763 0.841203 0.451683
O O3 0.925628 0.898710 0.767157
O O4 0.000000 0.000000 0.500000
O O5 0.127102 0.951548 0.110079
O O6 0.260758 0.030085 0.913313
O O7 0.102559 0.176436 0.797555
O O8 0.817829 0.210061 0.538780
O O9 0.040929 0.344116 0.828255
O O10 0.731976 0.375825 0.204105
O O11 0.560461 0.237727 0.418084
O O12 0.529582 0.092224 0.240754
O O13 0.343712 0.819328 0.216993
O O14 0.500000 0.000000 0.000000
O O15 0.636076 0.420790 0.578915
O O16 0.971698 0.542839 0.758743
O O17 0.808748 0.512923 0.902781
#
# Coordination Sequence:
#
# PCOD9060881 Si02
#       8
#     2   2   2   2   2   2   2   2
#     4  12  28  47  75 110 149 197 245 307 372 442
#     4  11  25  43  72 101 141 191 240 302 364 434
#     4  11  23  44  69 104 143 187 245 297 363 429
#     4  12  26  43  75 108 145 196 248 308 364 441
#     4  12  26  46  70 106 147 192 247 300 371 440
#     4  11  25  47  75 107 152 193 247 303 368 442
#     4  11  24  45  75 107 146 199 247 301 371 438
#     4  12  26  47  72 110 150 191 251 309 365 436
#
# _framework density 22.475874999999998
#
# number of rings (size 3 to 8) (size 9 to 14) (size 15 to 20)
#    0.000    0.500    3.750    3.375   10.500    0.000 
#    0.000    3.750    0.000    0.000    0.000    0.000 
#    0.000    0.000    0.000    0.000    0.000    0.000 
#
# Total GULP energy -89526.089761 kJ/mol
# GULP energy per Si atom -5595.380610 kJ/mol
# Density = 2.242472 g / cm^3
# Si number density = 22.475875 Si / 1000 Ang^3
#
#
#
# Elastic Constant Matrix: (Units=GPa)
#
#
# Indices 1 2 3 4 5 6 
#
# 1 148.6327 57.9073 33.1937 -13.1027 7.0922 -12.1635
# 2 57.9073 141.2264 37.1049 -1.7157 -5.4394 -25.0691
# 3 33.1937 37.1049 67.4626 3.2746 -2.1859 -5.4814
# 4 -13.1027 -1.7157 3.2746 35.4145 -1.1350 -8.6396
# 5 7.0922 -5.4394 -2.1859 -1.1350 32.3419 -9.8925
# 6 -12.1635 -25.0691 -5.4814 -8.6396 -9.8925 42.6133
#
#
#
# Elastic Compliance Matrix: (Units=1/GPa)
#
#
# Indices 1 2 3 4 5 6 
#
# 1 0.008987 -0.002796 -0.003074 0.003575 -0.002305 0.000715
# 2 -0.002796 0.010494 -0.003839 0.001450 0.004039 0.006114
# 3 -0.003074 -0.003839 0.018533 -0.003315 0.000785 -0.001242
# 4 0.003575 0.001450 -0.003315 0.032147 0.003014 0.008664
# 5 -0.002305 0.004039 0.000785 0.003014 0.035530 0.010679
# 6 0.000715 0.006114 -0.001242 0.008664 0.010679 0.031343
#
#
# Mechanical properties :
#
#
# Convention : Reuss Voigt Hill
#
# Bulk Modulus (GPa) = 53.77586 68.19259 60.98423
# Shear Modulus (GPa) = 30.74062 37.34831 34.04447
#
# Velocity S-wave (km/s) = 3.70228 4.08083 3.89615
# Velocity P-wave (km/s) = 6.50029 7.25330 6.88710
#
# Compressibility (1/GPa) = 0.01859570
#
# Stress axis : x y z
#
# Youngs Moduli (GPa) = 111.26624 95.29010 53.95868
#
# Poissons Ratio (x) = 0.26641 0.16589
# Poissons Ratio (y) = 0.31108 0.20715
# Poissons Ratio (z) = 0.34209 0.36582
#
# Static dielectric constant tensor:
#      x y z
#    x 1.960000 -0.009620 -0.017840 
#    y -0.009620 1.807570 -0.019650 
#    z -0.017840 -0.019650 1.845090 
# 
# From -- ./inp_files/262197.got.cif
#   From: 2010.05.17/outbox.cif.g08.bks.cpg/sg2_132_cif.got.tgz:262197.got - 2010.06.03 11:33:40.
