data_PCOD9060782
_publ_section_title
;
Structure prediction by ZEFSAII (Michael W. Deem and Ramdas Pophale) SiO2 
 PCOD9060782
Probable space group: P -1
;
_chemical_formula_sum "Si O2"
_cell_formula_units_Z 16
_cell_length_a 8.915307
_cell_length_b 5.244671
_cell_length_c 24.190332
_cell_angle_alpha 89.045099
_cell_angle_beta 133.868058
_cell_angle_gamma 119.735978
_cell_volume 603.740466
_symmetry_space_group_name_H-M "P -1"
_symmetry_group_IT_number 2
_symmetry_cell_setting 'triclinic'
loop_
_space_group_symop_operation_xyz
x,y,z
-x,-y,-z
loop_
_atom_site_type_symbol
_atom_site_label
_atom_site_fract_x
_atom_site_fract_y
_atom_site_fract_z
Si Si1 0.819558 0.742417 0.713799
Si Si2 0.215699 0.872924 0.452369
Si Si3 0.915559 0.515211 0.039061
Si Si4 0.629949 0.754035 0.860436
Si Si5 0.832347 0.278858 0.285549
Si Si6 0.598987 0.688138 0.084478
Si Si7 0.217583 0.366006 0.519800
Si Si8 0.382247 0.653854 0.233944
O O1 0.532704 0.653672 0.625761
O O2 0.690561 0.417353 0.720797
O O3 0.978136 0.751346 0.702044
O O4 0.070667 0.055548 0.817113
O O5 0.139780 0.590363 0.479844
O O6 0.002556 0.661978 0.348012
O O7 0.500000 0.000000 0.500000
O O8 0.251068 0.192427 0.478417
O O9 0.108353 0.542122 0.134077
O O10 0.586049 0.204266 0.965355
O O11 0.047453 0.909292 0.069418
O O12 0.000000 0.500000 0.000000
O O13 0.438983 0.848468 0.816164
O O14 0.540843 0.534067 0.893449
O O15 0.559549 0.553136 0.785974
O O16 0.676874 0.034845 0.299473
O O17 0.500000 0.500000 0.000000
O O18 0.000000 0.000000 0.500000
#
# Coordination Sequence:
#
# PCOD9060782 Si02
#       8
#     2   2   2   2   2   2   2   2
#     4  12  27  48  75 110 151 198 257 322 383 472
#     4  12  27  50  85 115 160 208 259 331 407 482
#     4  11  23  44  67  96 138 196 248 306 377 445
#     4  11  24  45  71 100 151 194 245 314 380 457
#     4  11  26  47  76 110 148 199 251 318 391 470
#     4  12  26  42  70 108 145 199 256 312 379 455
#     4  12  29  53  82 122 163 206 267 332 406 486
#     4  11  25  47  71 104 147 195 251 309 388 453
#
# _framework density 26.501455
#
# number of rings (size 3 to 8) (size 9 to 14) (size 15 to 20)
#    0.000    0.500    3.750    3.375    8.750    0.500 
#    2.250    0.000    0.000    0.000    0.000    0.000 
#    0.000    0.000    0.000    0.000    0.000    0.000 
#
# Total GULP energy -89233.009857 kJ/mol
# GULP energy per Si atom -5577.063116 kJ/mol
# Density = 2.644114 g / cm^3
# Si number density = 26.501455 Si / 1000 Ang^3
#
#
#
# Elastic Constant Matrix: (Units=GPa)
#
#
# Indices 1 2 3 4 5 6 
#
# 1 54.0936 13.9329 24.1206 5.1253 8.6038 16.9490
# 2 13.9329 83.6859 6.7580 -3.1641 -3.1286 16.6785
# 3 24.1206 6.7580 145.3575 21.1732 13.6931 3.8872
# 4 5.1253 -3.1641 21.1732 46.7254 -1.5454 -5.8272
# 5 8.6038 -3.1286 13.6931 -1.5454 37.7000 7.4433
# 6 16.9490 16.6785 3.8872 -5.8272 7.4433 39.9271
#
#
#
# Elastic Compliance Matrix: (Units=1/GPa)
#
#
# Indices 1 2 3 4 5 6 
#
# 1 0.023824 -0.002192 -0.002963 -0.002607 -0.002923 -0.008744
# 2 -0.002192 0.013505 -0.000521 0.000853 0.002845 -0.005066
# 3 -0.002963 -0.000521 0.008115 -0.003389 -0.002586 0.000673
# 4 -0.002607 0.000853 -0.003389 0.023870 0.002050 0.004182
# 5 -0.002923 0.002845 -0.002586 0.002050 0.029415 -0.004880
# 6 -0.008744 -0.005066 0.000673 0.004182 -0.004880 0.032328
#
#
# Mechanical properties :
#
#
# Convention : Reuss Voigt Hill
#
# Bulk Modulus (GPa) = 29.33248 41.41778 35.37513
# Shear Modulus (GPa) = 32.51545 40.75888 36.63717
#
# Velocity S-wave (km/s) = 3.50656 3.92597 3.72218
# Velocity P-wave (km/s) = 5.24279 6.01776 5.64359
#
# Compressibility (1/GPa) = 0.03409190
#
# Stress axis : x y z
#
# Youngs Moduli (GPa) = 41.97458 74.04794 123.23295
#
# Poissons Ratio (x) = 0.16234 0.36508
# Poissons Ratio (y) = 0.09202 0.06420
# Poissons Ratio (z) = 0.12435 0.03858
#
# Static dielectric constant tensor:
#      x y z
#    x 2.051630 -0.172990 -0.140770 
#    y -0.172990 1.588490 -0.412440 
#    z -0.140770 -0.412440 2.242330 
# 
# From -- ./inp_files/605873.got.cif
#   From: 2010.05.17/outbox.cif.g08.bks.cpg/sg2_303_cif.got.tgz:605873.got - 2010.06.03 11:33:40.
