data_PCOD9060743
_publ_section_title
;
Structure prediction by ZEFSAII (Michael W. Deem and Ramdas Pophale) SiO2 
 PCOD9060743
Probable space group: P -1
;
_chemical_formula_sum "Si O2"
_cell_formula_units_Z 14
_cell_length_a 22.486524
_cell_length_b 5.313103
_cell_length_c 24.939968
_cell_angle_alpha 101.705415
_cell_angle_beta 10.945161
_cell_angle_gamma 102.980909
_cell_volume 548.770970
_symmetry_space_group_name_H-M "P -1"
_symmetry_group_IT_number 2
_symmetry_cell_setting 'triclinic'
loop_
_space_group_symop_operation_xyz
x,y,z
-x,-y,-z
loop_
_atom_site_type_symbol
_atom_site_label
_atom_site_fract_x
_atom_site_fract_y
_atom_site_fract_z
Si Si1 0.005138 0.114091 0.758555
Si Si2 0.776751 0.175698 0.733306
Si Si3 0.389302 0.208501 0.566006
Si Si4 0.744616 0.613915 0.043210
Si Si5 0.341976 0.960664 0.791934
Si Si6 0.548452 0.792401 0.084835
Si Si7 0.894208 0.458288 0.451946
O O1 0.374065 0.093662 0.421939
O O2 0.961439 0.389914 0.834489
O O3 0.881251 0.869869 0.897590
O O4 0.777792 0.060085 0.905194
O O5 0.609624 0.293317 0.835942
O O6 0.974661 0.341636 0.610017
O O7 0.000000 0.000000 0.500000
O O8 0.500000 0.000000 0.000000
O O9 0.500000 0.500000 0.500000
O O10 0.531403 0.126376 0.380495
O O11 0.500000 0.000000 0.500000
O O12 0.010836 0.180602 0.895964
O O13 0.400612 0.494577 0.320725
O O14 0.698692 0.738105 0.147526
O O15 0.270916 0.775348 0.373421
O O16 0.815989 0.602283 0.843119
#
# Coordination Sequence:
#
# PCOD9060743 Si02
#       7
#     2   2   2   2   2   2   2
#     4  11  26  47  76 114 153 200 253 313 376 446
#     4  12  24  40  64  98 138 198 251 313 378 439
#     4  12  30  52  82 114 156 199 248 303 368 448
#     4  11  26  47  76 114 153 200 253 313 376 446
#     4  12  26  54  80 117 156 200 250 306 374 449
#     4  11  23  44  66 100 142 195 251 312 374 444
#     4  11  23  44  66 100 142 195 251 312 374 444
#
# _framework density 25.511554
#
# number of rings (size 3 to 8) (size 9 to 14) (size 15 to 20)
#    0.000    0.571    2.857    4.286    2.000    5.714 
#    0.000    0.000    0.000    0.000    0.000    0.000 
#    0.000    0.000    0.000    0.000    0.000    0.000 
#
# Total GULP energy -78352.757761 kJ/mol
# GULP energy per Si atom -5596.625554 kJ/mol
# Density = 2.545349 g / cm^3
# Si number density = 25.511554 Si / 1000 Ang^3
#
#
#
# Elastic Constant Matrix: (Units=GPa)
#
#
# Indices 1 2 3 4 5 6 
#
# 1 107.4041 51.9787 33.0653 -11.0981 7.5622 28.8374
# 2 51.9787 176.8686 78.4958 9.8868 -4.8793 35.9279
# 3 33.0653 78.4958 188.0622 -4.5838 -4.8277 22.6358
# 4 -11.0981 9.8868 -4.5838 48.0737 20.2145 -4.4483
# 5 7.5622 -4.8793 -4.8277 20.2145 43.5681 1.9178
# 6 28.8374 35.9279 22.6358 -4.4483 1.9178 60.5190
#
#
#
# Elastic Compliance Matrix: (Units=1/GPa)
#
#
# Indices 1 2 3 4 5 6 
#
# 1 0.012900 -0.003328 -0.000462 0.005412 -0.005023 -0.003442
# 2 -0.003328 0.008836 -0.002754 -0.004623 0.003543 -0.003082
# 3 -0.000462 -0.002754 0.006641 0.001016 0.000061 -0.000556
# 4 0.005412 -0.004623 0.001016 0.029738 -0.015250 0.002455
# 5 -0.005023 0.003543 0.000061 -0.015250 0.031385 -0.001848
# 6 -0.003442 -0.003082 -0.000556 0.002455 -0.001848 0.020440
#
#
# Mechanical properties :
#
#
# Convention : Reuss Voigt Hill
#
# Bulk Modulus (GPa) = 65.40064 88.82384 77.11224
# Shear Modulus (GPa) = 39.02395 51.01849 45.02122
#
# Velocity S-wave (km/s) = 3.91533 4.47679 4.20544
# Velocity P-wave (km/s) = 6.79199 7.84951 7.33982
#
# Compressibility (1/GPa) = 0.01529037
#
# Stress axis : x y z
#
# Youngs Moduli (GPa) = 77.51678 113.16760 150.57273
#
# Poissons Ratio (x) = 0.37666 0.06953
# Poissons Ratio (y) = 0.25800 0.41466
# Poissons Ratio (z) = 0.03579 0.31165
#
# Static dielectric constant tensor:
#      x y z
#    x 2.149930 -0.027030 -0.086150 
#    y -0.027030 2.029540 -0.014500 
#    z -0.086150 -0.014500 1.939300 
# 
# From -- ./inp_files/620871.got.cif
#   From: 2010.05.17/outbox.cif.g08.bks.cpg/sg2_311_cif.got.tgz:620871.got - 2010.06.03 11:33:40.
