data_PCOD9060496
_publ_section_title
;
Structure prediction by ZEFSAII (Michael W. Deem and Ramdas Pophale) SiO2 
 PCOD9060496
Probable space group: P -1
;
_chemical_formula_sum "Si O2"
_cell_formula_units_Z 16
_cell_length_a 11.511870
_cell_length_b 9.034332
_cell_length_c 9.371254
_cell_angle_alpha 95.646026
_cell_angle_beta 117.759290
_cell_angle_gamma 61.730757
_cell_volume 750.200974
_symmetry_space_group_name_H-M "P -1"
_symmetry_group_IT_number 2
_symmetry_cell_setting 'triclinic'
loop_
_space_group_symop_operation_xyz
x,y,z
-x,-y,-z
loop_
_atom_site_type_symbol
_atom_site_label
_atom_site_fract_x
_atom_site_fract_y
_atom_site_fract_z
Si Si1 0.192804 0.075195 0.286407
Si Si2 0.123526 0.062376 0.580762
Si Si3 0.579977 0.235289 0.776499
Si Si4 0.930498 0.410632 0.052026
Si Si5 0.400812 0.438371 0.212030
Si Si6 0.341757 0.295176 0.434853
Si Si7 0.572661 0.123494 0.078661
Si Si8 0.991034 0.436118 0.643487
O O1 0.160056 0.078940 0.436930
O O2 0.305952 0.152504 0.339433
O O3 0.043548 0.213770 0.132821
O O4 0.275045 0.889243 0.246993
O O5 0.047620 0.239172 0.640383
O O6 0.278759 0.952155 0.744204
O O7 0.000000 0.000000 0.500000
O O8 0.535133 0.432609 0.756541
O O9 0.438754 0.227850 0.626014
O O10 0.607498 0.171492 0.947653
O O11 0.907903 0.514499 0.194755
O O12 0.776843 0.443823 0.899833
O O13 0.000000 0.500000 0.000000
O O14 0.426653 0.348166 0.371650
O O15 0.457419 0.294102 0.110967
O O16 0.179456 0.455759 0.389280
O O17 0.500000 0.000000 0.000000
O O18 0.000000 0.500000 0.500000
#
# Coordination Sequence:
#
# PCOD9060496 Si02
#       8
#     2   2   2   2   2   2   2   2
#     4  11  24  46  68  99 136 181 226 275 337 412
#     4  12  28  44  70 103 141 177 227 286 340 399
#     4  12  28  42  70 101 138 172 227 287 340 396
#     4  11  23  43  72 100 131 178 231 275 336 413
#     4  12  26  45  70 100 138 175 224 285 345 400
#     4  11  23  45  71  95 134 185 224 270 340 415
#     4  12  28  48  71  99 138 186 229 278 337 416
#     4  11  23  43  71  97 131 180 229 274 333 405
#
# _framework density 21.327618000000001
#
# number of rings (size 3 to 8) (size 9 to 14) (size 15 to 20)
#    0.000    0.500    5.000    4.125    8.750    0.500 
#    0.000    0.000    0.000    0.000    0.000    0.000 
#    0.000    0.000    0.000    0.000    0.000    0.000 
#
# Total GULP energy -89463.573248 kJ/mol
# GULP energy per Si atom -5591.473328 kJ/mol
# Density = 2.127908 g / cm^3
# Si number density = 21.327618 Si / 1000 Ang^3
#
#
#
# Elastic Constant Matrix: (Units=GPa)
#
#
# Indices 1 2 3 4 5 6 
#
# 1 50.4887 21.5937 17.6495 -3.0026 -5.2274 2.2125
# 2 21.5937 112.6651 7.9682 6.4098 -1.8060 -5.3715
# 3 17.6495 7.9682 103.0715 -24.0939 -7.3985 -8.4118
# 4 -3.0026 6.4098 -24.0939 33.1268 -7.3532 0.1810
# 5 -5.2274 -1.8060 -7.3985 -7.3532 46.3874 -0.8536
# 6 2.2125 -5.3715 -8.4118 0.1810 -0.8536 29.1812
#
#
#
# Elastic Compliance Matrix: (Units=1/GPa)
#
#
# Indices 1 2 3 4 5 6 
#
# 1 0.023364 -0.004405 -0.003631 0.000780 0.001940 -0.003577
# 2 -0.004405 0.010012 -0.000580 -0.002908 -0.000623 0.002010
# 3 -0.003631 -0.000580 0.013328 0.010206 0.003386 0.004046
# 4 0.000780 -0.002908 0.010206 0.040004 0.007987 0.002333
# 5 0.001940 -0.000623 0.003386 0.007987 0.023583 0.001355
# 6 -0.003577 0.002010 0.004046 0.002333 0.001355 0.036101
#
#
# Mechanical properties :
#
#
# Convention : Reuss Voigt Hill
#
# Bulk Modulus (GPa) = 33.93036 40.07199 37.00117
# Shear Modulus (GPa) = 28.82726 36.34001 32.58363
#
# Velocity S-wave (km/s) = 3.68045 4.13230 3.91291
# Velocity P-wave (km/s) = 5.83135 6.44961 6.14826
#
# Compressibility (1/GPa) = 0.02947213
#
# Stress axis : x y z
#
# Youngs Moduli (GPa) = 42.80179 99.87595 75.03214
#
# Poissons Ratio (x) = 0.43995 0.27241
# Poissons Ratio (y) = 0.18854 0.04354
# Poissons Ratio (z) = 0.15539 0.05795
#
# Static dielectric constant tensor:
#      x y z
#    x 1.787640 0.003690 0.025970 
#    y 0.003690 1.840770 0.001810 
#    z 0.025970 0.001810 1.723960 
# 
# From -- ./inp_files/244735.got.cif
#   From: 2010.05.17/outbox.cif.g08.bks.cpg/sg2_123_cif.got.tgz:244735.got - 2010.06.03 11:33:40.
