data_PCOD9060257
_publ_section_title
;
Structure prediction by ZEFSAII (Michael W. Deem and Ramdas Pophale) SiO2 
 PCOD9060257
Probable space group: P -1
;
_chemical_formula_sum "Si O2"
_cell_formula_units_Z 16
_cell_length_a 9.257957
_cell_length_b 20.855525
_cell_length_c 9.455796
_cell_angle_alpha 63.003140
_cell_angle_beta 58.151994
_cell_angle_gamma 31.675344
_cell_volume 814.316504
_symmetry_space_group_name_H-M "P -1"
_symmetry_group_IT_number 2
_symmetry_cell_setting 'triclinic'
loop_
_space_group_symop_operation_xyz
x,y,z
-x,-y,-z
loop_
_atom_site_type_symbol
_atom_site_label
_atom_site_fract_x
_atom_site_fract_y
_atom_site_fract_z
Si Si1 0.611561 0.380007 0.077876
Si Si2 0.341047 0.771610 0.278533
Si Si3 0.224807 0.124802 0.601823
Si Si4 0.804585 0.888517 0.035082
Si Si5 0.702497 0.624387 0.961255
Si Si6 0.342650 0.370824 0.459320
Si Si7 0.994507 0.018925 0.151338
Si Si8 0.369035 0.233542 0.372251
O O1 0.507465 0.377013 0.280026
O O2 0.500000 0.500000 0.000000
O O3 0.451053 0.386986 0.034401
O O4 0.957061 0.250238 0.006651
O O5 0.496963 0.716544 0.102837
O O6 0.542519 0.674294 0.396131
O O7 0.056029 0.820685 0.362494
O O8 0.235627 0.889469 0.234612
O O9 0.254016 0.103249 0.776690
O O10 0.195796 0.220134 0.498515
O O11 0.500000 0.000000 0.500000
O O12 0.960695 0.912317 0.917186
O O13 0.500000 0.000000 0.000000
O O14 0.752192 0.673395 0.780339
O O15 0.000000 0.500000 0.000000
O O16 0.398356 0.275252 0.450183
O O17 0.000000 0.500000 0.500000
O O18 0.686365 0.102844 0.287712
O O19 0.000000 0.000000 0.000000
#
# Coordination Sequence:
#
# PCOD9060257 Si02
#       8
#     2   2   2   2   2   2   2   2
#     4  11  25  49  68  96 142 181 227 281 341 413
#     4  12  24  42  73 100 138 175 226 285 343 401
#     4  12  25  42  66 107 137 170 225 285 342 404
#     4  12  27  44  70 103 140 182 229 280 344 413
#     4  11  23  46  70  95 127 187 231 271 342 412
#     4  11  27  46  68 101 134 180 232 280 340 405
#     4  12  20  45  70  97 134 180 221 279 341 410
#     4  11  23  43  68  95 142 170 224 280 338 407
#
# _framework density 19.64838
#
# number of rings (size 3 to 8) (size 9 to 14) (size 15 to 20)
#    0.000    0.500    7.500    1.500    5.250    2.500 
#    0.000    1.875    0.000    0.000    0.000    0.000 
#    0.000    0.000    0.000    0.000    0.000    0.000 
#
# Total GULP energy -89445.358998 kJ/mol
# GULP energy per Si atom -5590.334937 kJ/mol
# Density = 1.960366 g / cm^3
# Si number density = 19.648380 Si / 1000 Ang^3
#
#
#
# Elastic Constant Matrix: (Units=GPa)
#
#
# Indices 1 2 3 4 5 6 
#
# 1 62.0839 37.0862 42.9656 -19.6178 -1.4381 2.6300
# 2 37.0862 120.5795 34.1179 -15.9696 -1.0271 -8.0077
# 3 42.9656 34.1179 103.9720 -17.2017 5.0020 -0.1003
# 4 -19.6178 -15.9696 -17.2017 38.6887 -1.8176 -2.0201
# 5 -1.4381 -1.0271 5.0020 -1.8176 34.8954 -13.0772
# 6 2.6300 -8.0077 -0.1003 -2.0201 -13.0772 41.8672
#
#
#
# Elastic Compliance Matrix: (Units=1/GPa)
#
#
# Indices 1 2 3 4 5 6 
#
# 1 0.027797 -0.005148 -0.008543 0.008175 0.001995 -0.001734
# 2 -0.005148 0.010605 -0.001177 0.001460 0.001417 0.002862
# 3 -0.008543 -0.001177 0.013851 0.001207 -0.002444 -0.000360
# 4 0.008175 0.001460 0.001207 0.031366 0.002629 0.002103
# 5 0.001995 0.001417 -0.002444 0.002629 0.033262 0.010656
# 6 -0.001734 0.002862 -0.000360 0.002103 0.010656 0.027970
#
#
# Mechanical properties :
#
#
# Convention : Reuss Voigt Hill
#
# Bulk Modulus (GPa) = 44.40645 57.21940 50.81292
# Shear Modulus (GPa) = 27.45863 34.58796 31.02330
#
# Velocity S-wave (km/s) = 3.74237 4.20020 3.97788
# Velocity P-wave (km/s) = 6.42833 7.25997 6.85677
#
# Compressibility (1/GPa) = 0.02251925
#
# Stress axis : x y z
#
# Youngs Moduli (GPa) = 35.97469 94.29538 72.19507
#
# Poissons Ratio (x) = 0.48541 0.61676
# Poissons Ratio (y) = 0.18519 0.08494
# Poissons Ratio (z) = 0.30733 0.11095
#
# Static dielectric constant tensor:
#      x y z
#    x 1.729890 0.087260 -0.014340 
#    y 0.087260 1.780180 0.012900 
#    z -0.014340 0.012900 1.664000 
# 
# From -- ./inp_files/177379.got.cif
#   From: 2010.05.17/outbox.cif.g08.bks.cpg/sg2_89_cif.got.tgz:177379.got - 2010.06.03 11:33:40.
