data_PCOD9060012
_publ_section_title
;
Structure prediction by ZEFSAII (Michael W. Deem and Ramdas Pophale) SiO2 
 PCOD9060012
Probable space group: P -1
;
_chemical_formula_sum "Si O2"
_cell_formula_units_Z 14
_cell_length_a 8.925102
_cell_length_b 11.304385
_cell_length_c 17.582070
_cell_angle_alpha 35.984111
_cell_angle_beta 39.759694
_cell_angle_gamma 63.607272
_cell_volume 587.536616
_symmetry_space_group_name_H-M "P -1"
_symmetry_group_IT_number 2
_symmetry_cell_setting 'triclinic'
loop_
_space_group_symop_operation_xyz
x,y,z
-x,-y,-z
loop_
_atom_site_type_symbol
_atom_site_label
_atom_site_fract_x
_atom_site_fract_y
_atom_site_fract_z
Si Si1 0.700549 0.525693 0.789661
Si Si2 0.254445 0.108149 0.789677
Si Si3 0.762753 0.443797 0.498850
Si Si4 0.036464 0.657310 0.012877
Si Si5 0.203549 0.956435 0.651852
Si Si6 0.811518 0.732284 0.795440
Si Si7 0.421346 0.446127 0.348281
O O1 0.794811 0.721572 0.716387
O O2 0.564804 0.532365 0.759632
O O3 0.958766 0.514042 0.665552
O O4 0.468497 0.313506 0.035685
O O5 0.531773 0.216470 0.669844
O O6 0.264682 0.332451 0.629973
O O7 0.204232 0.897123 0.865595
O O8 0.000000 0.000000 0.000000
O O9 0.708875 0.425603 0.620037
O O10 0.145772 0.486077 0.084128
O O11 0.719973 0.535906 0.216773
O O12 0.066486 0.735139 0.873148
O O13 0.046716 0.927943 0.649779
O O14 0.500000 0.000000 0.500000
O O15 0.231869 0.176292 0.570592
#
# Coordination Sequence:
#
# PCOD9060012 Si02
#       7
#     2   2   2   2   2   2   2
#     4  11  26  47  67  99 150 184 221 286 350 417
#     4  11  23  42  73 104 132 176 230 292 340 395
#     4  11  25  45  70 105 139 178 235 279 346 426
#     4  12  23  45  73 104 136 178 234 291 340 402
#     4  12  24  41  74 105 132 184 235 288 340 403
#     4  11  25  47  70 101 144 182 232 285 345 410
#     4  12  24  46  71 105 141 179 233 285 346 415
#
# _framework density 23.828302000000001
#
# number of rings (size 3 to 8) (size 9 to 14) (size 15 to 20)
#    0.000    0.571    5.714    2.571    4.000    0.571 
#    7.714    1.429    0.000    0.000    0.000    0.000 
#    0.000    0.000    0.000    0.000    0.000    0.000 
#
# Total GULP energy -78267.761735 kJ/mol
# GULP energy per Si atom -5590.554410 kJ/mol
# Density = 2.377407 g / cm^3
# Si number density = 23.828302 Si / 1000 Ang^3
#
#
#
# Elastic Constant Matrix: (Units=GPa)
#
#
# Indices 1 2 3 4 5 6 
#
# 1 107.7489 43.4548 57.7620 1.9298 -19.9615 31.0342
# 2 43.4548 103.1269 56.6566 1.3620 -21.5240 32.6494
# 3 57.7620 56.6566 111.0038 3.3502 -21.7530 10.7271
# 4 1.9298 1.3620 3.3502 57.2621 4.5300 -7.2664
# 5 -19.9615 -21.5240 -21.7530 4.5300 60.0007 -1.0753
# 6 31.0342 32.6494 10.7271 -7.2664 -1.0753 39.9167
#
#
#
# Elastic Compliance Matrix: (Units=1/GPa)
#
#
# Indices 1 2 3 4 5 6 
#
# 1 0.017230 0.002088 -0.008001 -0.002120 0.003503 -0.013245
# 2 0.002088 0.019363 -0.008531 -0.002347 0.004447 -0.015476
# 3 -0.008001 -0.008531 0.016748 0.000575 0.000464 0.008815
# 4 -0.002120 -0.002347 0.000575 0.018619 -0.002624 0.006733
# 5 0.003503 0.004447 0.000464 -0.002624 0.019679 -0.006434
# 6 -0.013245 -0.015476 0.008815 0.006733 -0.006434 0.046691
#
#
# Mechanical properties :
#
#
# Convention : Reuss Voigt Hill
#
# Bulk Modulus (GPa) = 40.89631 70.84739 55.87185
# Shear Modulus (GPa) = 28.51129 42.36963 35.44046
#
# Velocity S-wave (km/s) = 3.46284 4.22135 3.86077
# Velocity P-wave (km/s) = 5.76095 7.31825 6.58579
#
# Compressibility (1/GPa) = 0.02445208
#
# Stress axis : x y z
#
# Youngs Moduli (GPa) = 58.03937 51.64544 59.70768
#
# Poissons Ratio (x) = -0.10783 0.47771
# Poissons Ratio (y) = -0.12118 0.50938
# Poissons Ratio (z) = 0.46437 0.44060
#
# Static dielectric constant tensor:
#      x y z
#    x 1.965180 0.021320 0.047910 
#    y 0.021320 1.935350 -0.007490 
#    z 0.047910 -0.007490 1.921960 
# 
# From -- ./inp_files/68937.got.cif
#   From: 2010.05.17/outbox.cif.g08.bks.cpg/sg2_35_cif.got.tgz:68937.got - 2010.06.03 11:33:40.
