data_PCOD9060997
_publ_section_title
;
Structure prediction by ZEFSAII (Michael W. Deem and Ramdas Pophale) SiO2 
 PCOD9060997
Probable space group: P -1
;
_chemical_formula_sum "Si O2"
_cell_formula_units_Z 14
_cell_length_a 8.705143
_cell_length_b 14.498895
_cell_length_c 7.685975
_cell_angle_alpha 91.792640
_cell_angle_beta 110.624615
_cell_angle_gamma 39.453833
_cell_volume 527.575340
_symmetry_space_group_name_H-M "P -1"
_symmetry_group_IT_number 2
_symmetry_cell_setting 'triclinic'
loop_
_space_group_symop_operation_xyz
x,y,z
-x,-y,-z
loop_
_atom_site_type_symbol
_atom_site_label
_atom_site_fract_x
_atom_site_fract_y
_atom_site_fract_z
Si Si1 0.907025 0.235028 0.625362
Si Si2 0.184848 0.829380 0.751399
Si Si3 0.065132 0.585136 0.186179
Si Si4 0.352910 0.470040 0.917916
Si Si5 0.259999 0.867107 0.227879
Si Si6 0.511964 0.121694 0.208186
Si Si7 0.803975 0.668488 0.586066
O O1 0.803579 0.255800 0.392412
O O2 0.833053 0.369246 0.674047
O O3 0.779323 0.214071 0.698979
O O4 0.248767 0.063323 0.745952
O O5 0.316358 0.861148 0.726130
O O6 0.378969 0.719967 0.991408
O O7 0.865720 0.997175 0.679098
O O8 0.141341 0.456169 0.308016
O O9 0.203526 0.515248 0.045218
O O10 0.733738 0.753518 0.025548
O O11 0.117419 0.566107 0.682664
O O12 0.500000 0.500000 0.000000
O O13 0.587809 0.748085 0.348074
O O14 0.000000 0.000000 0.000000
O O15 0.340845 0.196130 0.324661
#
# Coordination Sequence:
#
# PCOD9060997 Si02
#       7
#     2   2   2   2   2   2   2
#     4  11  22  38  69 106 133 171 234 285 331 397
#     4  11  20  43  68  94 134 181 226 275 340 406
#     4  11  22  38  71 105 132 172 240 281 327 403
#     4  11  24  41  67  99 141 180 222 284 349 400
#     4  11  24  41  69  97 140 183 224 276 349 412
#     4  10  17  40  66  98 127 176 229 277 327 399
#     4  11  20  45  71  96 132 186 230 278 335 406
#
# _framework density 26.536494000000001
#
# number of rings (size 3 to 8) (size 9 to 14) (size 15 to 20)
#    0.000    1.143    5.714    2.143    2.000    2.286 
#    0.000    5.714    0.000    0.000    0.000    0.000 
#    0.000    0.000    0.000    0.000    0.000    0.000 
#
# Total GULP energy -78333.995499 kJ/mol
# GULP energy per Si atom -5595.285393 kJ/mol
# Density = 2.647610 g / cm^3
# Si number density = 26.536494 Si / 1000 Ang^3
#
#
#
# Elastic Constant Matrix: (Units=GPa)
#
#
# Indices 1 2 3 4 5 6 
#
# 1 64.6025 23.3160 47.9204 -8.9556 13.5791 6.9298
# 2 23.3160 85.8686 0.1121 -8.4661 21.1932 2.0123
# 3 47.9204 0.1121 180.1111 -33.0153 29.8650 0.8607
# 4 -8.9556 -8.4661 -33.0153 50.8358 -7.2559 16.8017
# 5 13.5791 21.1932 29.8650 -7.2559 42.9901 2.2431
# 6 6.9298 2.0123 0.8607 16.8017 2.2431 36.7811
#
#
#
# Elastic Compliance Matrix: (Units=1/GPa)
#
#
# Indices 1 2 3 4 5 6 
#
# 1 0.022479 -0.006021 -0.005915 0.000477 0.000266 -0.004001
# 2 -0.006021 0.015427 0.003361 0.002821 -0.007530 -0.000617
# 3 -0.005915 0.003361 0.008879 0.004973 -0.005053 -0.001241
# 4 0.000477 0.002821 0.004973 0.027840 0.000387 -0.013101
# 5 0.000266 -0.007530 -0.005053 0.000387 0.030546 -0.001559
# 6 -0.004001 -0.000617 -0.001241 -0.013101 -0.001559 0.034084
#
#
# Mechanical properties :
#
#
# Convention : Reuss Voigt Hill
#
# Bulk Modulus (GPa) = 33.74287 52.58657 43.16472
# Shear Modulus (GPa) = 30.06911 43.40367 36.73639
#
# Velocity S-wave (km/s) = 3.36984 4.04867 3.72475
# Velocity P-wave (km/s) = 5.28056 6.45874 5.89914
#
# Compressibility (1/GPa) = 0.02963589
#
# Stress axis : x y z
#
# Youngs Moduli (GPa) = 44.48599 64.82056 112.62479
#
# Poissons Ratio (x) = 0.39028 0.66614
# Poissons Ratio (y) = 0.26785 -0.37852
# Poissons Ratio (z) = 0.26312 -0.21785
#
# Static dielectric constant tensor:
#      x y z
#    x 2.032000 -0.035830 -0.034210 
#    y -0.035830 2.365380 0.172600 
#    z -0.034210 0.172600 2.255330 
# 
# From -- ./inp_files/207964.got.cif
#   From: 2010.05.17/outbox.cif.g08.bks.cpg/sg2_104_cif.got.tgz:207964.got - 2010.06.03 11:33:40.
