data_PCOD9060180
_publ_section_title
;
Structure prediction by ZEFSAII (Michael W. Deem and Ramdas Pophale) SiO2 
 PCOD9060180
Probable space group: P -1
;
_chemical_formula_sum "Si O2"
_cell_formula_units_Z 14
_cell_length_a 9.508733
_cell_length_b 6.879594
_cell_length_c 20.061032
_cell_angle_alpha 130.412666
_cell_angle_beta 43.624568
_cell_angle_gamma 131.062773
_cell_volume 643.910649
_symmetry_space_group_name_H-M "P -1"
_symmetry_group_IT_number 2
_symmetry_cell_setting 'triclinic'
loop_
_space_group_symop_operation_xyz
x,y,z
-x,-y,-z
loop_
_atom_site_type_symbol
_atom_site_label
_atom_site_fract_x
_atom_site_fract_y
_atom_site_fract_z
Si Si1 0.170531 0.847414 0.392840
Si Si2 0.602411 0.381547 0.998089
Si Si3 0.476509 0.265234 0.275096
Si Si4 0.048633 0.744731 0.736193
Si Si5 0.352265 0.169790 0.154620
Si Si6 0.507794 0.867916 0.397007
Si Si7 0.940498 0.247969 0.106158
O O1 0.297227 0.820405 0.410961
O O2 0.049141 0.552600 0.333037
O O3 0.350978 0.048220 0.325549
O O4 0.000000 0.000000 0.500000
O O5 0.861854 0.498768 0.933781
O O6 0.543159 0.062469 0.934895
O O7 0.500000 0.500000 0.000000
O O8 0.506748 0.416990 0.110599
O O9 0.328777 0.226253 0.251751
O O10 0.533233 0.581136 0.342852
O O11 0.698303 0.226487 0.167922
O O12 0.049102 0.721295 0.810510
O O13 0.882572 0.900826 0.812776
O O14 0.284662 0.926352 0.668115
O O15 0.500000 0.000000 0.500000
O O16 0.000000 0.000000 0.000000
#
# Coordination Sequence:
#
# PCOD9060180 Si02
#       7
#     2   2   2   2   2   2   2
#     4  12  29  51  80 110 150 197 252 319 389 449
#     4  11  23  43  67 101 146 195 247 297 364 430
#     4  12  27  48  75 110 151 195 253 311 377 452
#     4  12  26  50  76 109 154 198 250 311 379 450
#     4  11  25  42  73 102 141 198 247 300 363 445
#     4  12  29  50  78 114 150 191 255 319 387 455
#     4  12  27  43  75 107 156 201 246 306 370 441
#
# _framework density 21.742146999999999
#
# number of rings (size 3 to 8) (size 9 to 14) (size 15 to 20)
#    0.000    0.286    4.286    3.429   10.000    2.857 
#    0.000    0.000    0.000    0.000    0.000    0.000 
#    0.000    0.000    0.000    0.000    0.000    0.000 
#
# Total GULP energy -78242.178915 kJ/mol
# GULP energy per Si atom -5588.727065 kJ/mol
# Density = 2.169266 g / cm^3
# Si number density = 21.742147 Si / 1000 Ang^3
#
#
#
# Elastic Constant Matrix: (Units=GPa)
#
#
# Indices 1 2 3 4 5 6 
#
# 1 95.5210 23.9406 13.8906 1.5137 -2.0301 -2.7007
# 2 23.9406 91.1324 28.2057 18.7075 1.1121 -3.8118
# 3 13.8906 28.2057 75.0307 8.5130 -0.0943 -3.7913
# 4 1.5137 18.7075 8.5130 40.4524 2.1863 -6.0940
# 5 -2.0301 1.1121 -0.0943 2.1863 50.9556 0.9158
# 6 -2.7007 -3.8118 -3.7913 -6.0940 0.9158 27.8066
#
#
#
# Elastic Compliance Matrix: (Units=1/GPa)
#
#
# Indices 1 2 3 4 5 6 
#
# 1 0.011363 -0.002861 -0.001126 0.001233 0.000446 0.000813
# 2 -0.002861 0.014155 -0.004166 -0.005570 -0.000189 -0.000120
# 3 -0.001126 -0.004166 0.015284 -0.001078 0.000100 0.001164
# 4 0.001233 -0.005570 -0.001078 0.028362 -0.001146 0.005463
# 5 0.000446 -0.000189 0.000100 -0.001146 0.019712 -0.000870
# 6 0.000813 -0.000120 0.001164 0.005463 -0.000870 0.037410
#
#
# Mechanical properties :
#
#
# Convention : Reuss Voigt Hill
#
# Bulk Modulus (GPa) = 40.82498 43.75088 42.28793
# Shear Modulus (GPa) = 33.16631 36.88608 35.02619
#
# Velocity S-wave (km/s) = 3.90992 4.12336 4.01806
# Velocity P-wave (km/s) = 6.26107 6.54490 6.40456
#
# Compressibility (1/GPa) = 0.02449481
#
# Stress axis : x y z
#
# Youngs Moduli (GPa) = 88.00748 70.64826 65.42955
#
# Poissons Ratio (x) = 0.20212 0.07370
# Poissons Ratio (y) = 0.25179 0.27256
# Poissons Ratio (z) = 0.09913 0.29430
#
# Static dielectric constant tensor:
#      x y z
#    x 1.765600 0.021070 -0.015240 
#    y 0.021070 1.858110 0.008440 
#    z -0.015240 0.008440 1.752710 
# 
# From -- ./inp_files/106186.got.cif
#   From: 2010.05.17/outbox.cif.g08.bks.cpg/sg2_54_cif.got.tgz:106186.got - 2010.06.03 11:33:40.
