data_PCOD9060237
_publ_section_title
;
Structure prediction by ZEFSAII (Michael W. Deem and Ramdas Pophale) SiO2 
 PCOD9060237
Probable space group: P -1
;
_chemical_formula_sum "Si O2"
_cell_formula_units_Z 16
_cell_length_a 14.858967
_cell_length_b 12.062285
_cell_length_c 9.440082
_cell_angle_alpha 85.658943
_cell_angle_beta 105.601235
_cell_angle_gamma 149.797189
_cell_volume 775.730059
_symmetry_space_group_name_H-M "P -1"
_symmetry_group_IT_number 2
_symmetry_cell_setting 'triclinic'
loop_
_space_group_symop_operation_xyz
x,y,z
-x,-y,-z
loop_
_atom_site_type_symbol
_atom_site_label
_atom_site_fract_x
_atom_site_fract_y
_atom_site_fract_z
Si Si1 0.286762 0.557698 0.490049
Si Si2 0.475222 0.820349 0.264516
Si Si3 0.185440 0.182592 0.161893
Si Si4 0.200479 0.742968 0.139976
Si Si5 0.020874 0.934039 0.640368
Si Si6 0.390917 0.181811 0.180650
Si Si7 0.548152 0.690198 0.122070
Si Si8 0.196084 0.713312 0.474626
O O1 0.348681 0.620740 0.345875
O O2 0.434187 0.652258 0.650058
O O3 0.293217 0.693450 0.520267
O O4 0.074057 0.280575 0.432661
O O5 0.355322 0.805211 0.171168
O O6 0.533652 0.800316 0.165614
O O7 0.662223 0.053612 0.410684
O O8 0.241562 0.111438 0.197230
O O9 0.371151 0.438975 0.145676
O O10 0.114645 0.160149 0.281696
O O11 0.000000 0.000000 0.000000
O O12 0.164420 0.707641 0.297476
O O13 0.288099 0.956246 0.122208
O O14 0.000000 0.500000 0.000000
O O15 0.242553 0.144450 0.764028
O O16 0.000000 0.000000 0.500000
O O17 0.464271 0.313425 0.052428
O O18 0.000000 0.500000 0.500000
#
# Coordination Sequence:
#
# PCOD9060237 Si02
#       8
#     2   2   2   2   2   2   2   2
#     4  11  23  46  70 101 143 184 232 294 351 413
#     4  11  23  47  70 100 146 185 232 292 349 416
#     4  12  28  49  72 104 147 186 233 297 357 412
#     4  11  26  43  69 106 139 187 234 289 352 418
#     4  12  28  47  75 107 137 187 245 292 351 421
#     4  12  26  46  74 101 146 186 238 291 353 426
#     4  12  28  47  74 107 143 188 236 291 357 422
#     4  11  23  43  68 103 143 186 234 285 353 422
#
# _framework density 20.625733
#
# number of rings (size 3 to 8) (size 9 to 14) (size 15 to 20)
#    0.000    0.500    5.000    2.625   10.500    3.500 
#    0.000    0.000    0.000    0.000    0.000    0.000 
#    0.000    0.000    0.000    0.000    0.000    0.000 
#
# Total GULP energy -89487.584051 kJ/mol
# GULP energy per Si atom -5592.974003 kJ/mol
# Density = 2.057879 g / cm^3
# Si number density = 20.625733 Si / 1000 Ang^3
#
#
#
# Elastic Constant Matrix: (Units=GPa)
#
#
# Indices 1 2 3 4 5 6 
#
# 1 113.0865 35.4055 43.6144 -2.4925 -9.6827 7.5497
# 2 35.4055 121.4057 24.6664 5.4122 11.0996 -1.2618
# 3 43.6144 24.6664 58.4795 8.8371 17.5984 -3.1745
# 4 -2.4925 5.4122 8.8371 35.8996 1.4521 -2.7525
# 5 -9.6827 11.0996 17.5984 1.4521 36.1387 5.3920
# 6 7.5497 -1.2618 -3.1745 -2.7525 5.3920 32.7050
#
#
#
# Elastic Compliance Matrix: (Units=1/GPa)
#
#
# Indices 1 2 3 4 5 6 
#
# 1 0.019733 -0.003665 -0.019611 0.005372 0.017085 -0.008965
# 2 -0.003665 0.009734 0.000244 -0.001468 -0.004305 0.001832
# 3 -0.019611 0.000244 0.041936 -0.009680 -0.027193 0.012276
# 4 0.005372 -0.001468 -0.009680 0.030568 0.005460 -0.000564
# 5 0.017085 -0.004305 -0.027193 0.005460 0.048731 -0.014324
# 6 -0.008965 0.001832 0.012276 -0.000564 -0.014324 0.036222
#
#
# Mechanical properties :
#
#
# Convention : Reuss Voigt Hill
#
# Bulk Modulus (GPa) = 39.46420 55.59381 47.52900
# Shear Modulus (GPa) = 20.70949 33.56768 27.13858
#
# Velocity S-wave (km/s) = 3.17213 4.03856 3.63128
# Velocity P-wave (km/s) = 5.70890 6.98275 6.37771
#
# Compressibility (1/GPa) = 0.02533942
#
# Stress axis : x y z
#
# Youngs Moduli (GPa) = 50.67530 102.73177 23.84606
#
# Poissons Ratio (x) = 0.37652 0.46765
# Poissons Ratio (y) = 0.18573 -0.00583
# Poissons Ratio (z) = 0.99380 -0.02510
#
# Static dielectric constant tensor:
#      x y z
#    x 1.757610 -0.040470 -0.008910 
#    y -0.040470 1.731630 -0.010360 
#    z -0.008910 -0.010360 1.730480 
# 
# From -- ./inp_files/188928.got.cif
#   From: 2010.05.17/outbox.cif.g08.bks.cpg/sg2_95_cif.got.tgz:188928.got - 2010.06.03 11:33:40.
