data_PCOD9060422
_publ_section_title
;
Structure prediction by ZEFSAII (Michael W. Deem and Ramdas Pophale) SiO2 
 PCOD9060422
Probable space group: P -1
;
_chemical_formula_sum "Si O2"
_cell_formula_units_Z 14
_cell_length_a 10.893478
_cell_length_b 9.251378
_cell_length_c 9.044494
_cell_angle_alpha 65.410205
_cell_angle_beta 125.807696
_cell_angle_gamma 119.494434
_cell_volume 632.736468
_symmetry_space_group_name_H-M "P -1"
_symmetry_group_IT_number 2
_symmetry_cell_setting 'triclinic'
loop_
_space_group_symop_operation_xyz
x,y,z
-x,-y,-z
loop_
_atom_site_type_symbol
_atom_site_label
_atom_site_fract_x
_atom_site_fract_y
_atom_site_fract_z
Si Si1 0.964364 0.815849 0.490126
Si Si2 0.843428 0.029726 0.938865
Si Si3 0.313570 0.304745 0.845322
Si Si4 0.590663 0.340505 0.217355
Si Si5 0.602955 0.656317 0.615078
Si Si6 0.724792 0.055297 0.532289
Si Si7 0.967596 0.663995 0.856040
O O1 0.776166 0.750400 0.347194
O O2 0.995681 0.697454 0.687153
O O3 0.089904 0.854569 0.427933
O O4 0.000000 0.000000 0.500000
O O5 0.736740 0.060430 0.716881
O O6 0.907161 0.180149 0.035461
O O7 0.756504 0.854570 0.031364
O O8 0.000000 0.000000 0.000000
O O9 0.273558 0.475057 0.777044
O O10 0.498294 0.337141 0.999057
O O11 0.490540 0.360234 0.285992
O O12 0.637364 0.176686 0.349759
O O13 0.500000 0.500000 0.500000
O O14 0.782985 0.649587 0.763630
O O15 0.642967 0.857020 0.514768
O O16 0.000000 0.500000 0.000000
#
# Coordination Sequence:
#
# PCOD9060422 Si02
#       7
#     2   2   2   2   2   2   2
#     4  12  23  47  71 101 140 182 232 295 349 399
#     4  12  21  45  74  99 140 186 235 289 341 408
#     4  11  23  43  70  97 144 183 226 290 345 408
#     4  11  27  44  70 105 142 186 236 279 352 427
#     4  12  25  45  69 100 149 184 228 291 351 410
#     4  12  26  45  76 105 136 191 237 287 344 422
#     4  12  28  45  74 107 138 182 239 293 351 410
#
# _framework density 22.126117000000001
#
# number of rings (size 3 to 8) (size 9 to 14) (size 15 to 20)
#    0.000    0.286    7.143    1.286    4.000    4.000 
#    0.000    0.714    0.000    0.000    0.000    0.000 
#    0.000    0.000    0.000    0.000    0.000    0.000 
#
# Total GULP energy -78091.760748 kJ/mol
# GULP energy per Si atom -5577.982911 kJ/mol
# Density = 2.207576 g / cm^3
# Si number density = 22.126117 Si / 1000 Ang^3
#
#
#
# Elastic Constant Matrix: (Units=GPa)
#
#
# Indices 1 2 3 4 5 6 
#
# 1 43.5595 15.9194 9.7615 -9.1657 -1.3369 0.1333
# 2 15.9194 159.1717 93.5530 -10.1144 11.8680 4.2405
# 3 9.7615 93.5530 170.6498 -20.1388 0.1827 -11.3464
# 4 -9.1657 -10.1144 -20.1388 62.9461 -0.4427 1.9778
# 5 -1.3369 11.8680 0.1827 -0.4427 30.0291 -7.8761
# 6 0.1333 4.2405 -11.3464 1.9778 -7.8761 21.2262
#
#
#
# Elastic Compliance Matrix: (Units=1/GPa)
#
#
# Indices 1 2 3 4 5 6 
#
# 1 0.024634 -0.002871 0.000648 0.003306 0.002654 0.001442
# 2 -0.002871 0.011052 -0.006483 -0.000510 -0.006575 -0.008047
# 3 0.000648 -0.006483 0.010168 0.002079 0.004734 0.008289
# 4 0.003306 -0.000510 0.002079 0.016961 0.000536 -0.000189
# 5 0.002654 -0.006575 0.004734 0.000536 0.040975 0.018981
# 6 0.001442 -0.008047 0.008289 -0.000189 0.018981 0.060202
#
#
# Mechanical properties :
#
#
# Convention : Reuss Voigt Hill
#
# Bulk Modulus (GPa) = 35.15825 67.98319 51.57072
# Shear Modulus (GPa) = 26.19374 39.78343 32.98858
#
# Velocity S-wave (km/s) = 3.44443 4.24492 3.86545
# Velocity P-wave (km/s) = 5.63411 7.40390 6.57879
#
# Compressibility (1/GPa) = 0.02844283
#
# Stress axis : x y z
#
# Youngs Moduli (GPa) = 40.59453 90.47960 98.34423
#
# Poissons Ratio (x) = 0.25975 -0.06372
# Poissons Ratio (y) = 0.11654 0.63756
# Poissons Ratio (z) = -0.02630 0.58658
#
# Static dielectric constant tensor:
#      x y z
#    x 1.831230 0.054440 -0.009000 
#    y 0.054440 1.851030 0.085070 
#    z -0.009000 0.085070 1.892880 
# 
# From -- ./inp_files/204975.got.cif
#   From: 2010.05.17/outbox.cif.g08.bks.cpg/sg2_103_cif.got.tgz:204975.got - 2010.06.03 11:33:40.
