data_PCOD9060105
_publ_section_title
;
Structure prediction by ZEFSAII (Michael W. Deem and Ramdas Pophale) SiO2 
 PCOD9060105
Probable space group: P -1
;
_chemical_formula_sum "Si O2"
_cell_formula_units_Z 12
_cell_length_a 13.886211
_cell_length_b 8.818424
_cell_length_c 7.803514
_cell_angle_alpha 69.558068
_cell_angle_beta 137.978716
_cell_angle_gamma 121.167956
_cell_volume 546.298682
_symmetry_space_group_name_H-M "P -1"
_symmetry_group_IT_number 2
_symmetry_cell_setting 'triclinic'
loop_
_space_group_symop_operation_xyz
x,y,z
-x,-y,-z
loop_
_atom_site_type_symbol
_atom_site_label
_atom_site_fract_x
_atom_site_fract_y
_atom_site_fract_z
Si Si1 0.339649 0.341166 0.800482
Si Si2 0.830116 0.388674 0.003086
Si Si3 0.494649 0.328370 0.658770
Si Si4 0.642373 0.045786 0.310220
Si Si5 0.156589 0.965464 0.728688
Si Si6 0.179211 0.584137 0.423121
O O1 0.380850 0.308053 0.675708
O O2 0.209825 0.420796 0.604569
O O3 0.287392 0.152976 0.897931
O O4 0.500000 0.500000 0.000000
O O5 0.678369 0.371301 0.918605
O O6 0.798094 0.417977 0.751367
O O7 0.851055 0.204437 0.111551
O O8 0.994998 0.542097 0.220998
O O9 0.500000 0.500000 0.500000
O O10 0.419438 0.123535 0.575819
O O11 0.790150 0.062140 0.380930
O O12 0.698553 0.231841 0.408638
O O13 0.500000 0.000000 0.000000
O O14 0.000000 0.000000 0.500000
#
# Coordination Sequence:
#
# PCOD9060105 Si02
#       6
#     2   2   2   2   2   2
#     4  11  24  39  65  96 130 166 223 262 313 383
#     4  11  24  43  68  94 136 167 216 267 330 380
#     4  11  23  43  64  93 131 170 212 262 321 390
#     4  11  24  43  66  96 132 165 218 269 317 378
#     4  11  23  43  64  93 131 170 212 262 321 390
#     4  11  24  43  66  98 131 171 213 273 322 382
#
# _framework density 21.966006
#
# number of rings (size 3 to 8) (size 9 to 14) (size 15 to 20)
#    0.000    1.000    5.000    2.000    0.000    4.000 
#    0.000    1.667    0.000    0.000    0.000    0.000 
#    0.000    0.000    0.000    0.000    0.000    0.000 
#
# Total GULP energy -66948.540009 kJ/mol
# GULP energy per Si atom -5579.045001 kJ/mol
# Density = 2.191601 g / cm^3
# Si number density = 21.966006 Si / 1000 Ang^3
#
#
#
# Elastic Constant Matrix: (Units=GPa)
#
#
# Indices 1 2 3 4 5 6 
#
# 1 47.0546 -12.5402 14.1300 0.6902 26.1876 -9.0093
# 2 -12.5402 154.6363 37.6246 8.8551 -7.1664 -7.7250
# 3 14.1300 37.6246 80.0472 14.3791 15.7062 -15.8375
# 4 0.6902 8.8551 14.3791 42.5270 -3.6256 1.1889
# 5 26.1876 -7.1664 15.7062 -3.6256 32.4842 -4.6169
# 6 -9.0093 -7.7250 -15.8375 1.1889 -4.6169 30.0876
#
#
#
# Elastic Compliance Matrix: (Units=1/GPa)
#
#
# Indices 1 2 3 4 5 6 
#
# 1 0.041481 0.002459 0.000298 -0.004277 -0.032323 0.008418
# 2 0.002459 0.007856 -0.004348 -0.000060 0.001955 0.000767
# 3 0.000298 -0.004348 0.019212 -0.006677 -0.010126 0.007796
# 4 -0.004277 -0.000060 -0.006677 0.026748 0.009011 -0.004485
# 5 -0.032323 0.001955 -0.010126 0.009011 0.062424 -0.005284
# 6 0.008418 0.000767 0.007796 -0.004485 -0.005284 0.039424
#
#
# Mechanical properties :
#
#
# Convention : Reuss Voigt Hill
#
# Bulk Modulus (GPa) = 15.29795 40.01852 27.65824
# Shear Modulus (GPa) = 22.51065 37.18800 29.84933
#
# Velocity S-wave (km/s) = 3.20471 4.11905 3.69031
# Velocity P-wave (km/s) = 4.54677 6.39375 5.54766
#
# Compressibility (1/GPa) = 0.06536822
#
# Stress axis : x y z
#
# Youngs Moduli (GPa) = 24.10720 127.28341 52.05018
#
# Poissons Ratio (x) = -0.31298 -0.01551
# Poissons Ratio (y) = -0.05928 0.22631
# Poissons Ratio (z) = -0.00718 0.55341
#
# Static dielectric constant tensor:
#      x y z
#    x 1.708240 0.097280 0.038580 
#    y 0.097280 1.783650 -0.011770 
#    z 0.038580 -0.011770 1.835550 
# 
# From -- ./inp_files/146840.got.cif
#   From: 2010.05.17/outbox.cif.g08.bks.cpg/sg2_74_cif.got.tgz:146840.got - 2010.06.03 11:33:40.
