data_PCOD9060995
_publ_section_title
;
Structure prediction by ZEFSAII (Michael W. Deem and Ramdas Pophale) SiO2 
 PCOD9060995
Probable space group: P -1
;
_chemical_formula_sum "Si O2"
_cell_formula_units_Z 15
_cell_length_a 11.558101
_cell_length_b 9.322612
_cell_length_c 12.377103
_cell_angle_alpha 118.231500
_cell_angle_beta 91.677218
_cell_angle_gamma 39.656248
_cell_volume 602.323445
_symmetry_space_group_name_H-M "P -1"
_symmetry_group_IT_number 2
_symmetry_cell_setting 'triclinic'
loop_
_space_group_symop_operation_xyz
x,y,z
-x,-y,-z
loop_
_atom_site_type_symbol
_atom_site_label
_atom_site_fract_x
_atom_site_fract_y
_atom_site_fract_z
Si Si1 0.673907 0.813755 0.535753
Si Si2 0.081840 0.089065 0.699302
Si Si3 0.918470 0.276594 0.995302
Si Si4 0.000000 0.000000 0.500000
Si Si5 0.870337 0.906985 0.657408
Si Si6 0.673728 0.905009 0.212562
Si Si7 0.437312 0.261683 0.125306
Si Si8 0.294995 0.796610 0.012145
O O1 0.905192 0.435473 0.401395
O O2 0.742780 0.914977 0.596550
O O3 0.500000 0.000000 0.500000
O O4 0.544204 0.901383 0.666646
O O5 0.206524 0.827872 0.523460
O O6 0.833102 0.393441 0.739337
O O7 0.181107 0.148690 0.730392
O O8 0.042774 0.073405 0.814632
O O9 0.815886 0.574584 0.067097
O O10 0.733872 0.364965 0.055526
O O11 0.081344 0.104222 0.040042
O O12 0.068512 0.038095 0.412742
O O13 0.731617 0.137215 0.838374
O O14 0.585658 0.108617 0.180314
O O15 0.515072 0.307464 0.062100
O O16 0.500000 0.000000 0.000000
#
# Coordination Sequence:
#
# PCOD9060995 Si02
#       8
#     2   2   2   1   2   2   2   2
#     4  11  25  47  73 104 141 194 242 288 353 423
#     4  12  25  46  71 104 141 184 238 288 349 423
#     4  11  23  44  71 103 144 182 232 295 356 411
#     4  12  26  48  74  98 146 194 230 292 360 420
#     4  11  25  48  71 104 145 186 240 294 349 433
#     4  12  24  46  73 104 140 186 236 296 349 420
#     4  12  24  41  73 109 140 185 234 288 358 420
#     4  11  24  44  71 106 145 184 231 297 361 415
#
# _framework density 24.903563999999999
#
# number of rings (size 3 to 8) (size 9 to 14) (size 15 to 20)
#    0.000    0.533    4.000    4.400    0.000    4.800 
#    0.000    8.667    0.000    0.000    0.000    0.000 
#    0.000    0.000    0.000    0.000    0.000    0.000 
#
# Total GULP energy -83752.501498 kJ/mol
# GULP energy per Si atom -5583.500100 kJ/mol
# Density = 2.484688 g / cm^3
# Si number density = 24.903564 Si / 1000 Ang^3
#
#
#
# Elastic Constant Matrix: (Units=GPa)
#
#
# Indices 1 2 3 4 5 6 
#
# 1 155.4288 58.8794 26.1649 -7.7177 -0.8028 8.1410
# 2 58.8794 141.3965 28.7014 -24.9197 7.7329 -1.5396
# 3 26.1649 28.7014 52.9095 -29.9628 1.6117 13.2811
# 4 -7.7177 -24.9197 -29.9628 39.8954 2.6792 -4.5944
# 5 -0.8028 7.7329 1.6117 2.6792 32.8128 -9.5640
# 6 8.1410 -1.5396 13.2811 -4.5944 -9.5640 47.9907
#
#
#
# Elastic Compliance Matrix: (Units=1/GPa)
#
#
# Indices 1 2 3 4 5 6 
#
# 1 0.008278 -0.003318 -0.004509 -0.003995 0.001427 -0.000361
# 2 -0.003318 0.009674 -0.001047 0.004907 -0.002372 0.001160
# 3 -0.004509 -0.001047 0.039963 0.027903 -0.006727 -0.008998
# 4 -0.003995 0.004907 0.027903 0.048394 -0.007679 -0.003784
# 5 0.001427 -0.002372 -0.006727 -0.007679 0.034253 0.007635
# 6 -0.000361 0.001160 -0.008998 -0.003784 0.007635 0.024585
#
#
# Mechanical properties :
#
#
# Convention : Reuss Voigt Hill
#
# Bulk Modulus (GPa) = 24.89579 64.13625 44.51602
# Shear Modulus (GPa) = 25.47370 39.87238 32.67304
#
# Velocity S-wave (km/s) = 3.20174 4.00568 3.62606
# Velocity P-wave (km/s) = 4.86691 6.87050 5.95359
#
# Compressibility (1/GPa) = 0.04016744
#
# Stress axis : x y z
#
# Youngs Moduli (GPa) = 120.80901 103.37513 25.02332
#
# Poissons Ratio (x) = 0.34296 0.11282
# Poissons Ratio (y) = 0.40080 0.02619
# Poissons Ratio (z) = 0.54470 0.10821
#
# Static dielectric constant tensor:
#      x y z
#    x 1.964520 0.034270 0.080210 
#    y 0.034270 2.002650 0.139440 
#    z 0.080210 0.139440 2.391200 
# 
# From -- ./inp_files/417841.got.cif
#   From: 2010.05.17/outbox.cif.g08.bks.cpg/sg2_209_cif.got.tgz:417841.got - 2010.06.03 11:33:40.
