data_PCOD9060829
_publ_section_title
;
Structure prediction by ZEFSAII (Michael W. Deem and Ramdas Pophale) SiO2 
 PCOD9060829
Probable space group: P -1
;
_chemical_formula_sum "Si O2"
_cell_formula_units_Z 16
_cell_length_a 19.764164
_cell_length_b 8.486246
_cell_length_c 22.971202
_cell_angle_alpha 41.770047
_cell_angle_beta 157.990296
_cell_angle_gamma 148.118426
_cell_volume 745.720515
_symmetry_space_group_name_H-M "P -1"
_symmetry_group_IT_number 2
_symmetry_cell_setting 'triclinic'
loop_
_space_group_symop_operation_xyz
x,y,z
-x,-y,-z
loop_
_atom_site_type_symbol
_atom_site_label
_atom_site_fract_x
_atom_site_fract_y
_atom_site_fract_z
Si Si1 0.958339 0.922737 0.055180
Si Si2 0.181115 0.973994 0.621085
Si Si3 0.395843 0.122264 0.421791
Si Si4 0.674254 0.810784 0.455801
Si Si5 0.541887 0.285567 0.925561
Si Si6 0.954039 0.273059 0.650353
Si Si7 0.254603 0.822324 0.119592
Si Si8 0.391487 0.353987 0.015445
O O1 0.808432 0.562946 0.045925
O O2 0.199091 0.099819 0.233557
O O3 0.793746 0.002662 0.922794
O O4 0.000000 0.000000 0.000000
O O5 0.066195 0.617970 0.629645
O O6 0.252022 0.102258 0.576812
O O7 0.401053 0.172478 0.784713
O O8 0.000000 0.000000 0.500000
O O9 0.592922 0.477194 0.496355
O O10 0.500000 0.000000 0.500000
O O11 0.270359 0.906648 0.437290
O O12 0.451748 0.794257 0.297165
O O13 0.881100 0.073332 0.589339
O O14 0.472519 0.419427 0.883613
O O15 0.500000 0.000000 0.000000
O O16 0.143697 0.279733 0.835359
O O17 0.000000 0.500000 0.000000
O O18 0.346545 0.040733 0.076159
O O19 0.500000 0.500000 0.000000
#
# Coordination Sequence:
#
# PCOD9060829 Si02
#       8
#     2   2   2   2   2   2   2   2
#     4  11  24  43  69  99 134 179 231 285 344 407
#     4  12  27  45  68 103 141 185 236 284 351 416
#     4  12  25  48  68 102 141 182 231 288 350 422
#     4  12  27  45  71 104 141 188 229 291 356 413
#     4  11  23  44  68  94 133 178 229 286 335 404
#     4  12  25  48  65 103 144 179 235 286 349 422
#     4  11  23  44  69  97 136 176 233 285 338 410
#     4  11  24  43  70  97 133 180 230 284 344 409
#
# _framework density 21.455759
#
# number of rings (size 3 to 8) (size 9 to 14) (size 15 to 20)
#    0.000    0.500    5.000    3.000    7.000    0.000 
#    0.000    0.000    0.000    0.000    0.000    0.000 
#    0.000    0.000    0.000    0.000    0.000    0.000 
#
# Total GULP energy -89462.191871 kJ/mol
# GULP energy per Si atom -5591.386992 kJ/mol
# Density = 2.140693 g / cm^3
# Si number density = 21.455759 Si / 1000 Ang^3
#
#
#
# Elastic Constant Matrix: (Units=GPa)
#
#
# Indices 1 2 3 4 5 6 
#
# 1 130.3907 16.6438 18.8365 16.6213 -10.9140 8.3583
# 2 16.6438 125.7124 6.8961 19.8350 -4.7535 -7.0794
# 3 18.8365 6.8961 43.2139 11.7442 -2.1668 -16.2181
# 4 16.6213 19.8350 11.7442 29.9135 -16.6374 -1.1261
# 5 -10.9140 -4.7535 -2.1668 -16.6374 37.0100 -3.7286
# 6 8.3583 -7.0794 -16.2181 -1.1261 -3.7286 35.5268
#
#
#
# Elastic Compliance Matrix: (Units=1/GPa)
#
#
# Indices 1 2 3 4 5 6 
#
# 1 0.009131 -0.000793 -0.004866 -0.002371 0.000785 -0.004521
# 2 -0.000793 0.009180 0.001642 -0.007326 -0.002018 0.002321
# 3 -0.004866 0.001642 0.034632 -0.013320 -0.003523 0.016490
# 4 -0.002371 -0.007326 -0.013320 0.057647 0.023221 -0.002718
# 5 0.000785 -0.002018 -0.003523 0.023221 0.037473 0.002474
# 6 -0.004521 0.002321 0.016490 -0.002718 0.002474 0.037375
#
#
# Mechanical properties :
#
#
# Convention : Reuss Voigt Hill
#
# Bulk Modulus (GPa) = 22.26805 42.67438 32.47122
# Shear Modulus (GPa) = 23.98742 37.61945 30.80344
#
# Velocity S-wave (km/s) = 3.34727 4.19184 3.79314
# Velocity P-wave (km/s) = 5.03389 6.58494 5.86095
#
# Compressibility (1/GPa) = 0.04490738
#
# Stress axis : x y z
#
# Youngs Moduli (GPa) = 109.51468 108.93392 28.87524
#
# Poissons Ratio (x) = 0.08636 0.14052
# Poissons Ratio (y) = 0.08682 -0.04740
# Poissons Ratio (z) = 0.53295 -0.17882
#
# Static dielectric constant tensor:
#      x y z
#    x 2.260260 -0.590010 -0.667010 
#    y -0.590010 2.510760 0.861670 
#    z -0.667010 0.861670 2.823630 
# 
# From -- ./inp_files/329056.got.cif
#   From: 2010.05.17/outbox.cif.g08.bks.cpg/sg2_165_cif.got.tgz:329056.got - 2010.06.03 11:33:40.
