data_PCOD9060026
_publ_section_title
;
Structure prediction by ZEFSAII (Michael W. Deem and Ramdas Pophale) SiO2 
 PCOD9060026
Probable space group: P -1
;
_chemical_formula_sum "Si O2"
_cell_formula_units_Z 16
_cell_length_a 12.552518
_cell_length_b 12.658453
_cell_length_c 21.916021
_cell_angle_alpha 149.461932
_cell_angle_beta 24.205553
_cell_angle_gamma 144.039728
_cell_volume 720.710898
_symmetry_space_group_name_H-M "P -1"
_symmetry_group_IT_number 2
_symmetry_cell_setting 'triclinic'
loop_
_space_group_symop_operation_xyz
x,y,z
-x,-y,-z
loop_
_atom_site_type_symbol
_atom_site_label
_atom_site_fract_x
_atom_site_fract_y
_atom_site_fract_z
Si Si1 0.697194 0.269417 0.470801
Si Si2 0.160791 0.901282 0.418669
Si Si3 0.868525 0.012571 0.856933
Si Si4 0.055939 0.378240 0.023804
Si Si5 0.111177 0.446110 0.255580
Si Si6 0.110067 0.185388 0.698033
Si Si7 0.588173 0.561159 0.780200
Si Si8 0.750462 0.833355 0.060490
O O1 0.399281 0.189686 0.575914
O O2 0.701904 0.462636 0.611522
O O3 0.835629 0.331559 0.365095
O O4 0.868437 0.098368 0.323308
O O5 0.079068 0.655073 0.340957
O O6 0.476671 0.926675 0.259626
O O7 0.079530 0.004052 0.574500
O O8 0.000000 0.000000 0.500000
O O9 0.866873 0.187835 0.997518
O O10 0.909580 0.130431 0.830338
O O11 0.646681 0.814106 0.873659
O O12 0.295635 0.450157 0.888015
O O13 0.176079 0.298287 0.983880
O O14 0.919897 0.590164 0.205113
O O15 0.262348 0.496655 0.265248
O O16 0.270257 0.307897 0.059898
O O17 0.000000 0.000000 0.000000
#
# Coordination Sequence:
#
# PCOD9060026 Si02
#       8
#     2   2   2   2   2   2   2   2
#     4  11  23  43  72 102 135 182 228 286 345 416
#     4  12  26  44  70 103 137 180 236 292 345 410
#     4  11  23  43  69 103 137 184 230 279 353 412
#     4  12  26  45  68 102 142 183 230 285 346 418
#     4  11  23  44  70 100 134 181 232 281 349 417
#     4  12  25  43  67 101 145 179 228 286 346 410
#     4  11  23  42  74 100 139 180 233 281 347 412
#     4  12  26  48  74  98 138 187 235 286 352 419
#
# _framework density 22.200303000000002
#
# number of rings (size 3 to 8) (size 9 to 14) (size 15 to 20)
#    0.000    0.500    2.500    7.875    1.750    1.500 
#    2.250    2.500    0.000    0.000    0.000    0.000 
#    0.000    0.000    0.000    0.000    0.000    0.000 
#
# Total GULP energy -89525.639634 kJ/mol
# GULP energy per Si atom -5595.352477 kJ/mol
# Density = 2.214977 g / cm^3
# Si number density = 22.200303 Si / 1000 Ang^3
#
#
#
# Elastic Constant Matrix: (Units=GPa)
#
#
# Indices 1 2 3 4 5 6 
#
# 1 77.1516 13.1104 12.1076 -6.1067 -6.4897 -10.4333
# 2 13.1104 86.9185 0.0390 1.7974 -25.1469 -25.3261
# 3 12.1076 0.0390 57.1364 -0.2554 -14.5693 -10.1093
# 4 -6.1067 1.7974 -0.2554 33.6502 -2.4696 4.7537
# 5 -6.4897 -25.1469 -14.5693 -2.4696 40.0612 3.9030
# 6 -10.4333 -25.3261 -10.1093 4.7537 3.9030 23.7559
#
#
#
# Elastic Compliance Matrix: (Units=1/GPa)
#
#
# Indices 1 2 3 4 5 6 
#
# 1 0.014192 -0.000823 -0.002111 0.002107 0.000764 0.003910
# 2 -0.000823 0.024162 0.008917 -0.004131 0.015342 0.027498
# 3 -0.002111 0.008917 0.024101 -0.002221 0.012200 0.017275
# 4 0.002107 -0.004131 -0.002221 0.031824 -0.000047 -0.010784
# 5 0.000764 0.015342 0.012200 -0.000047 0.037619 0.015713
# 6 0.003910 0.027498 0.017275 -0.010784 0.015713 0.080055
#
#
# Mechanical properties :
#
#
# Convention : Reuss Voigt Hill
#
# Bulk Modulus (GPa) = 13.43708 30.19117 21.81412
# Shear Modulus (GPa) = 22.24256 32.55676 27.39966
#
# Velocity S-wave (km/s) = 3.16872 3.83365 3.51693
# Velocity P-wave (km/s) = 4.41061 5.76409 5.13217
#
# Compressibility (1/GPa) = 0.07442095
#
# Stress axis : x y z
#
# Youngs Moduli (GPa) = 70.46007 41.38791 41.49230
#
# Poissons Ratio (x) = 0.03406 0.08759
# Poissons Ratio (y) = 0.05799 -0.36998
# Poissons Ratio (z) = 0.14873 -0.36905
#
# Static dielectric constant tensor:
#      x y z
#    x 1.807120 0.012710 0.001080 
#    y 0.012710 1.820450 -0.002120 
#    z 0.001080 -0.002120 1.802750 
# 
# From -- ./inp_files/467036.got.cif
#   From: 2010.05.17/outbox.cif.g08.bks.cpg/sg2_234_cif.got.tgz:467036.got - 2010.06.03 11:33:40.
