data_PCOD9060791
_publ_section_title
;
Structure prediction by ZEFSAII (Michael W. Deem and Ramdas Pophale) SiO2 
 PCOD9060791
Probable space group: P -1
;
_chemical_formula_sum "Si O2"
_cell_formula_units_Z 16
_cell_length_a 15.797873
_cell_length_b 11.921498
_cell_length_c 9.240110
_cell_angle_alpha 113.344899
_cell_angle_beta 26.779618
_cell_angle_gamma 121.757383
_cell_volume 654.267644
_symmetry_space_group_name_H-M "P -1"
_symmetry_group_IT_number 2
_symmetry_cell_setting 'triclinic'
loop_
_space_group_symop_operation_xyz
x,y,z
-x,-y,-z
loop_
_atom_site_type_symbol
_atom_site_label
_atom_site_fract_x
_atom_site_fract_y
_atom_site_fract_z
Si Si1 0.805307 0.505318 0.221300
Si Si2 0.726920 0.193769 0.688250
Si Si3 0.874897 0.559925 0.819115
Si Si4 0.674013 0.144881 0.076323
Si Si5 0.689827 0.860937 0.847241
Si Si6 0.997632 0.201718 0.837305
Si Si7 0.777318 0.000597 0.312865
Si Si8 0.578266 0.607104 0.068404
O O1 0.834147 0.659022 0.284932
O O2 0.617078 0.403317 0.547785
O O3 0.790331 0.486585 0.062112
O O4 0.000000 0.500000 0.000000
O O5 0.707879 0.049026 0.591261
O O6 0.945838 0.294633 0.342334
O O7 0.724055 0.201298 0.867555
O O8 0.533141 0.213096 0.928141
O O9 0.000000 0.500000 0.500000
O O10 0.709776 0.570255 0.967244
O O11 0.439610 0.121963 0.462277
O O12 0.859959 0.231175 0.941303
O O13 0.688324 0.998915 0.978511
O O14 0.876639 0.878298 0.463145
O O15 0.699201 0.756599 0.898472
O O16 0.832235 0.111575 0.160664
O O17 0.000000 0.000000 0.000000
O O18 0.500000 0.500000 0.000000
#
# Coordination Sequence:
#
# PCOD9060791 Si02
#       8
#     2   2   2   2   2   2   2   2
#     4  12  27  48  70 105 143 183 241 292 353 421
#     4  11  23  45  70 102 138 186 234 284 353 418
#     4  12  27  48  74 103 139 187 240 291 356 426
#     4  11  25  43  70 106 138 189 234 280 357 416
#     4  11  23  44  75 100 146 184 234 287 350 423
#     4  12  24  44  68 103 143 177 234 293 346 416
#     4  11  23  44  67  98 143 181 231 288 345 414
#     4  12  25  47  75 105 141 187 232 295 356 414
#
# _framework density 24.454825
#
# number of rings (size 3 to 8) (size 9 to 14) (size 15 to 20)
#    0.000    0.500    2.500    7.125    3.500    1.000 
#    2.250    0.000    0.000    0.000    0.000    0.000 
#    0.000    0.000    0.000    0.000    0.000    0.000 
#
# Total GULP energy -89579.106865 kJ/mol
# GULP energy per Si atom -5598.694179 kJ/mol
# Density = 2.439916 g / cm^3
# Si number density = 24.454825 Si / 1000 Ang^3
#
#
#
# Elastic Constant Matrix: (Units=GPa)
#
#
# Indices 1 2 3 4 5 6 
#
# 1 147.3806 7.4028 38.1388 20.7523 5.3144 -8.3696
# 2 7.4028 53.2370 1.7588 4.6963 10.0392 6.2214
# 3 38.1388 1.7588 120.0266 11.0729 -0.7371 0.2105
# 4 20.7523 4.6963 11.0729 33.6977 -17.6656 -4.0288
# 5 5.3144 10.0392 -0.7371 -17.6656 52.5871 -3.9959
# 6 -8.3696 6.2214 0.2105 -4.0288 -3.9959 38.3321
#
#
#
# Elastic Compliance Matrix: (Units=1/GPa)
#
#
# Indices 1 2 3 4 5 6 
#
# 1 0.008294 -0.000198 -0.002129 -0.005655 -0.002655 0.000984
# 2 -0.000198 0.021293 0.000376 -0.007134 -0.006813 -0.004961
# 3 -0.002129 0.000376 0.009198 -0.002132 -0.000509 -0.000854
# 4 -0.005655 -0.007134 -0.002132 0.044763 0.017431 0.006457
# 5 -0.002655 -0.006813 -0.000509 0.017431 0.026825 0.005157
# 6 0.000984 -0.004961 -0.000854 0.006457 0.005157 0.028329
#
#
# Mechanical properties :
#
#
# Convention : Reuss Voigt Hill
#
# Bulk Modulus (GPa) = 28.66830 46.13834 37.40332
# Shear Modulus (GPa) = 32.41886 43.14630 37.78258
#
# Velocity S-wave (km/s) = 3.64492 4.20495 3.93491
# Velocity P-wave (km/s) = 5.42792 6.51791 5.99773
#
# Compressibility (1/GPa) = 0.03488173
#
# Stress axis : x y z
#
# Youngs Moduli (GPa) = 120.57136 46.96397 108.72486
#
# Poissons Ratio (x) = 0.00932 0.23146
# Poissons Ratio (y) = 0.02392 -0.04088
# Poissons Ratio (z) = 0.25668 -0.01766
#
# Static dielectric constant tensor:
#      x y z
#    x 1.922580 0.031620 0.014950 
#    y 0.031620 2.186750 0.031640 
#    z 0.014950 0.031640 1.830740 
# 
# From -- ./inp_files/245951.got.cif
#   From: 2010.05.17/outbox.cif.g08.bks.cpg/sg2_123_cif.got.tgz:245951.got - 2010.06.03 11:33:40.
