data_PCOD9060102
_publ_section_title
;
Structure prediction by ZEFSAII (Michael W. Deem and Ramdas Pophale) SiO2 
 PCOD9060102
Probable space group: P -1
;
_chemical_formula_sum "Si O2"
_cell_formula_units_Z 14
_cell_length_a 6.477163
_cell_length_b 14.115446
_cell_length_c 13.131192
_cell_angle_alpha 30.885078
_cell_angle_beta 93.105013
_cell_angle_gamma 89.266242
_cell_volume 611.232692
_symmetry_space_group_name_H-M "P -1"
_symmetry_group_IT_number 2
_symmetry_cell_setting 'triclinic'
loop_
_space_group_symop_operation_xyz
x,y,z
-x,-y,-z
loop_
_atom_site_type_symbol
_atom_site_label
_atom_site_fract_x
_atom_site_fract_y
_atom_site_fract_z
Si Si1 0.200367 0.886444 0.355726
Si Si2 0.325564 0.116073 0.955361
Si Si3 0.251072 0.524750 0.017395
Si Si4 0.362302 0.632576 0.235996
Si Si5 0.940936 0.300081 0.659329
Si Si6 0.375504 0.272650 0.442790
Si Si7 0.811478 0.115831 0.189200
O O1 0.078150 0.746319 0.416139
O O2 0.378257 0.770672 0.529854
O O3 0.051157 0.033440 0.278035
O O4 0.292037 0.002339 0.160594
O O5 0.405678 0.310443 0.810468
O O6 0.118308 0.157520 0.846363
O O7 0.500000 0.000000 0.000000
O O8 0.271759 0.381608 0.244229
O O9 0.500000 0.500000 0.000000
O O10 0.240905 0.736817 0.859709
O O11 0.000000 0.500000 0.000000
O O12 0.270291 0.690446 0.290165
O O13 0.352233 0.419466 0.400863
O O14 0.238077 0.767418 0.024333
O O15 0.000000 0.500000 0.500000
O O16 0.302213 0.070336 0.643094
#
# Coordination Sequence:
#
# PCOD9060102 Si02
#       7
#     2   2   2   2   2   2   2
#     4  12  24  41  68 103 144 196 252 304 363 429
#     4  12  23  38  62  91 143 200 256 306 355 409
#     4  11  30  56  84 116 151 187 238 310 394 477
#     4  11  23  43  63  99 145 196 247 301 350 426
#     4  12  25  38  60  94 143 199 251 293 351 418
#     4  11  27  45  76 108 143 190 246 301 380 451
#     4  11  25  47  75 107 147 186 241 310 376 448
#
# _framework density 22.904534999999999
#
# number of rings (size 3 to 8) (size 9 to 14) (size 15 to 20)
#    0.000    0.571    4.286    3.000    6.000    2.286 
#    0.000    0.000    0.000    0.000    0.000    0.000 
#    0.000    0.000    0.000    0.000    0.000    0.000 
#
# Total GULP energy -78083.732418 kJ/mol
# GULP energy per Si atom -5577.409458 kJ/mol
# Density = 2.285240 g / cm^3
# Si number density = 22.904535 Si / 1000 Ang^3
#
#
#
# Elastic Constant Matrix: (Units=GPa)
#
#
# Indices 1 2 3 4 5 6 
#
# 1 91.4096 33.6997 38.7856 -26.4448 15.9035 9.8118
# 2 33.6997 92.1846 37.4576 -42.8919 13.3640 -9.4057
# 3 38.7856 37.4576 109.5656 -37.2118 13.3476 16.6517
# 4 -26.4448 -42.8919 -37.2118 40.8931 14.3682 9.8847
# 5 15.9035 13.3640 13.3476 14.3682 62.3330 -7.0478
# 6 9.8118 -9.4057 16.6517 9.8847 -7.0478 36.5794
#
#
#
# Elastic Compliance Matrix: (Units=1/GPa)
#
#
# Indices 1 2 3 4 5 6 
#
# 1 0.048033 0.049563 0.052335 0.182783 -0.086397 -0.090003
# 2 0.049563 0.101811 0.084005 0.294416 -0.135133 -0.130952
# 3 0.052335 0.084005 0.103623 0.301070 -0.139671 -0.147877
# 4 0.182783 0.294416 0.301070 0.999492 -0.457603 -0.468634
# 5 -0.086397 -0.135133 -0.139671 -0.457603 0.227259 0.219451
# 6 -0.090003 -0.130952 -0.147877 -0.468634 0.219451 0.254044
#
#
# Mechanical properties :
#
#
# Convention : Reuss Voigt Hill
#
# Bulk Modulus (GPa) = 1.59930 57.00507 29.30219
# Shear Modulus (GPa) = 3.18293 40.17554 21.67924
#
# Velocity S-wave (km/s) = 1.18011 4.19267 3.07987
# Velocity P-wave (km/s) = 1.59895 6.95558 5.04662
#
# Compressibility (1/GPa) = 0.62527324
#
# Stress axis : x y z
#
# Youngs Moduli (GPa) = 20.81906 9.82215 9.65033
#
# Poissons Ratio (x) = -0.48682 -0.50505
# Poissons Ratio (y) = -1.03186 -0.81068
# Poissons Ratio (z) = -1.08956 -0.82511
#
# Static dielectric constant tensor:
#      x y z
#    x 2.060550 0.007300 -0.066240 
#    y 0.007300 1.823280 -0.007420 
#    z -0.066240 -0.007420 1.894790 
# 
# From -- ./inp_files/38322.got.cif
#   From: 2010.05.17/outbox.cif.g08.bks.cpg/sg2_20_cif.got.tgz:38322.got - 2010.06.03 11:33:40.
