data_PCOD9060507
_publ_section_title
;
Structure prediction by ZEFSAII (Michael W. Deem and Ramdas Pophale) SiO2 
 PCOD9060507
Probable space group: P -1
;
_chemical_formula_sum "Si O2"
_cell_formula_units_Z 12
_cell_length_a 7.397133
_cell_length_b 11.776861
_cell_length_c 11.136616
_cell_angle_alpha 143.079909
_cell_angle_beta 55.374714
_cell_angle_gamma 132.983078
_cell_volume 425.743872
_symmetry_space_group_name_H-M "P -1"
_symmetry_group_IT_number 2
_symmetry_cell_setting 'triclinic'
loop_
_space_group_symop_operation_xyz
x,y,z
-x,-y,-z
loop_
_atom_site_type_symbol
_atom_site_label
_atom_site_fract_x
_atom_site_fract_y
_atom_site_fract_z
Si Si1 0.952963 0.979488 0.758163
Si Si2 0.410377 0.677495 0.677284
Si Si3 0.748395 0.177942 0.644597
Si Si4 0.708284 0.555987 0.869568
Si Si5 0.401704 0.699941 0.961155
Si Si6 0.740881 0.130107 0.296740
O O1 0.086967 0.935776 0.553775
O O2 0.003479 0.834953 0.714980
O O3 0.670444 0.895014 0.759781
O O4 0.089370 0.210932 0.964859
O O5 0.500000 0.500000 0.500000
O O6 0.290474 0.656289 0.834960
O O7 0.258751 0.682521 0.623299
O O8 0.470473 0.990399 0.622697
O O9 0.780667 0.366046 0.697558
O O10 0.783613 0.294869 0.861113
O O11 0.500000 0.500000 0.000000
O O12 0.540607 0.558295 0.822208
O O13 0.637348 0.934759 0.076102
#
# Coordination Sequence:
#
# PCOD9060507 Si02
#       6
#     2   2   2   2   2   2
#     4  11  23  43  72 101 129 176 225 271 338 391
#     4  12  27  44  62  98 139 179 224 272 324 401
#     4   9  20  41  71 101 130 171 217 282 330 392
#     4   9  18  37  72 102 126 169 219 274 335 393
#     4   8  20  41  65  92 136 172 211 277 330 382
#     4   9  22  42  71  91 136 171 218 280 329 391
#
# _framework density 28.185960999999999
#
# number of rings (size 3 to 8) (size 9 to 14) (size 15 to 20)
#    1.000    1.333    1.667    1.000    2.333    5.333 
#    6.000    1.667    0.000    0.000    0.000    0.000 
#    0.000    0.000    0.000    0.000    0.000    0.000 
#
# Total GULP energy -67026.082187 kJ/mol
# GULP energy per Si atom -5585.506849 kJ/mol
# Density = 2.812181 g / cm^3
# Si number density = 28.185961 Si / 1000 Ang^3
#
#
#
# Elastic Constant Matrix: (Units=GPa)
#
#
# Indices 1 2 3 4 5 6 
#
# 1 138.8057 66.1494 47.7777 -12.4067 -2.3489 -13.3967
# 2 66.1494 123.1923 30.5047 -2.9246 -2.3890 -25.4776
# 3 47.7777 30.5047 125.8988 6.8517 -15.8942 -19.9122
# 4 -12.4067 -2.9246 6.8517 52.9499 7.8110 2.1803
# 5 -2.3489 -2.3890 -15.8942 7.8110 24.1827 14.0967
# 6 -13.3967 -25.4776 -19.9122 2.1803 14.0967 44.9426
#
#
#
# Elastic Compliance Matrix: (Units=1/GPa)
#
#
# Indices 1 2 3 4 5 6 
#
# 1 0.011056 -0.005159 -0.003514 0.003142 -0.002423 -0.000578
# 2 -0.005159 0.012195 -0.000391 -0.000287 -0.003061 0.006177
# 3 -0.003514 -0.000391 0.010644 -0.003289 0.006824 0.001466
# 4 0.003142 -0.000287 -0.003289 0.021386 -0.009532 0.001269
# 5 -0.002423 -0.003061 0.006824 -0.009532 0.058469 -0.017311
# 6 -0.000578 0.006177 0.001466 0.001269 -0.017311 0.031597
#
#
# Mechanical properties :
#
#
# Convention : Reuss Voigt Hill
#
# Bulk Modulus (GPa) = 63.42216 75.19559 69.30887
# Shear Modulus (GPa) = 29.63301 40.64606 35.13953
#
# Velocity S-wave (km/s) = 3.24595 3.80158 3.53470
# Velocity P-wave (km/s) = 6.04967 6.78274 6.42667
#
# Compressibility (1/GPa) = 0.01576736
#
# Stress axis : x y z
#
# Youngs Moduli (GPa) = 90.44599 81.99819 93.95356
#
# Poissons Ratio (x) = 0.42299 0.33017
# Poissons Ratio (y) = 0.46657 0.03675
# Poissons Ratio (z) = 0.31785 0.03208
#
# Static dielectric constant tensor:
#      x y z
#    x 2.184930 -0.079860 0.001680 
#    y -0.079860 2.311200 0.057650 
#    z 0.001680 0.057650 2.376810 
# 
# From -- ./inp_files/393276.got.cif
#   From: 2010.05.17/outbox.cif.g08.bks.cpg/sg2_197_cif.got.tgz:393276.got - 2010.06.03 11:33:40.
