data_PCOD9060551
_publ_section_title
;
Structure prediction by ZEFSAII (Michael W. Deem and Ramdas Pophale) SiO2 
 PCOD9060551
Probable space group: P -1
;
_chemical_formula_sum "Si O2"
_cell_formula_units_Z 16
_cell_length_a 12.648313
_cell_length_b 5.235481
_cell_length_c 14.123196
_cell_angle_alpha 105.740094
_cell_angle_beta 129.452390
_cell_angle_gamma 97.307392
_cell_volume 636.100929
_symmetry_space_group_name_H-M "P -1"
_symmetry_group_IT_number 2
_symmetry_cell_setting 'triclinic'
loop_
_space_group_symop_operation_xyz
x,y,z
-x,-y,-z
loop_
_atom_site_type_symbol
_atom_site_label
_atom_site_fract_x
_atom_site_fract_y
_atom_site_fract_z
Si Si1 0.662349 0.736022 0.581230
Si Si2 0.519245 0.388202 0.102620
Si Si3 0.890189 0.235690 0.061744
Si Si4 0.812289 0.695581 0.838847
Si Si5 0.394792 0.741738 0.198249
Si Si6 0.679158 0.183120 0.469664
Si Si7 0.248177 0.834851 0.835423
Si Si8 0.898733 0.164103 0.430938
O O1 0.500000 0.500000 0.500000
O O2 0.767144 0.859552 0.745251
O O3 0.664626 0.981388 0.533617
O O4 0.729540 0.520952 0.551634
O O5 0.485329 0.581996 0.180037
O O6 0.677488 0.363532 0.191309
O O7 0.500000 0.500000 0.000000
O O8 0.385263 0.068113 0.996849
O O9 0.754552 0.296241 0.946206
O O10 0.856252 0.904973 0.976644
O O11 0.881567 0.291564 0.173646
O O12 0.054069 0.392263 0.126279
O O13 0.666383 0.417806 0.754434
O O14 0.513948 0.063964 0.316199
O O15 0.788426 0.139563 0.451588
O O16 0.192865 0.966761 0.730383
O O17 0.000000 0.500000 0.500000
O O18 0.000000 0.000000 0.500000
#
# Coordination Sequence:
#
# PCOD9060551 Si02
#       8
#     2   2   2   2   2   2   2   2
#     4  12  26  50  75 114 146 207 254 319 368 450
#     4  11  23  43  72 109 140 187 248 317 374 446
#     4  11  25  46  70 109 146 199 243 317 386 450
#     4  11  26  45  72 104 157 190 262 306 382 447
#     4  12  24  44  75 108 148 196 253 315 378 451
#     4  12  29  48  81 107 154 198 261 312 379 448
#     4  11  26  45  74 107 146 192 252 309 390 454
#     4  12  31  53  77 113 155 204 253 316 389 468
#
# _framework density 25.153241999999999
#
# number of rings (size 3 to 8) (size 9 to 14) (size 15 to 20)
#    0.000    0.500    3.750    3.000   12.250    0.000 
#    0.000    0.000    0.000    0.000    0.000    0.000 
#    0.000    0.000    0.000    0.000    0.000    0.000 
#
# Total GULP energy -89662.660910 kJ/mol
# GULP energy per Si atom -5603.916307 kJ/mol
# Density = 2.509599 g / cm^3
# Si number density = 25.153242 Si / 1000 Ang^3
#
#
#
# Elastic Constant Matrix: (Units=GPa)
#
#
# Indices 1 2 3 4 5 6 
#
# 1 191.1740 39.8536 40.3963 -13.0117 -2.5678 -18.0879
# 2 39.8536 94.3303 23.3930 -15.7167 -1.5224 -8.4321
# 3 40.3963 23.3930 85.9546 -19.5699 -0.4965 -8.9158
# 4 -13.0117 -15.7167 -19.5699 51.9025 2.0551 2.3599
# 5 -2.5678 -1.5224 -0.4965 2.0551 31.5469 -1.6492
# 6 -18.0879 -8.4321 -8.9158 2.3599 -1.6492 44.1209
#
#
#
# Elastic Compliance Matrix: (Units=1/GPa)
#
#
# Indices 1 2 3 4 5 6 
#
# 1 0.006281 -0.001926 -0.002229 0.000051 0.000472 0.001771
# 2 -0.001926 0.012379 -0.001771 0.002536 0.000305 0.001094
# 3 -0.002229 -0.001771 0.014271 0.004232 -0.000245 0.001396
# 4 0.000051 0.002536 0.004232 0.021684 -0.001211 0.000156
# 5 0.000472 0.000305 -0.000245 -0.001211 0.031903 0.001460
# 6 0.001771 0.001094 0.001396 0.000156 0.001460 0.023929
#
#
# Mechanical properties :
#
#
# Convention : Reuss Voigt Hill
#
# Bulk Modulus (GPa) = 47.44451 64.30496 55.87474
# Shear Modulus (GPa) = 38.66181 43.36845 41.01513
#
# Velocity S-wave (km/s) = 3.92478 4.15682 4.04246
# Velocity P-wave (km/s) = 6.28026 6.97564 6.63706
#
# Compressibility (1/GPa) = 0.02107725
#
# Stress axis : x y z
#
# Youngs Moduli (GPa) = 159.21229 80.77966 70.07356
#
# Poissons Ratio (x) = 0.15560 0.15623
# Poissons Ratio (y) = 0.30668 0.12411
# Poissons Ratio (z) = 0.35496 0.14308
#
# Static dielectric constant tensor:
#      x y z
#    x 1.996630 0.007480 0.015960 
#    y 0.007480 2.042540 0.075180 
#    z 0.015960 0.075180 2.033510 
# 
# From -- ./inp_files/511187.got.cif
#   From: 2010.05.17/outbox.cif.g08.bks.cpg/sg2_256_cif.got.tgz:511187.got - 2010.06.03 11:33:40.
