data_PCOD9060749
_publ_section_title
;
Structure prediction by ZEFSAII (Michael W. Deem and Ramdas Pophale) SiO2 
 PCOD9060749
Probable space group: P -1
;
_chemical_formula_sum "Si O2"
_cell_formula_units_Z 15
_cell_length_a 7.382549
_cell_length_b 8.501438
_cell_length_c 18.530342
_cell_angle_alpha 67.909375
_cell_angle_beta 141.892634
_cell_angle_gamma 116.635323
_cell_volume 640.993654
_symmetry_space_group_name_H-M "P -1"
_symmetry_group_IT_number 2
_symmetry_cell_setting 'triclinic'
loop_
_space_group_symop_operation_xyz
x,y,z
-x,-y,-z
loop_
_atom_site_type_symbol
_atom_site_label
_atom_site_fract_x
_atom_site_fract_y
_atom_site_fract_z
Si Si1 0.399258 0.988652 0.224071
Si Si2 0.000000 0.000000 0.000000
Si Si3 0.945296 0.388959 0.929040
Si Si4 0.099348 0.676660 0.657757
Si Si5 0.843890 0.004834 0.128135
Si Si6 0.671050 0.668060 0.390844
Si Si7 0.777309 0.691869 0.269781
Si Si8 0.108492 0.351650 0.242065
O O1 0.033944 0.978005 0.119880
O O2 0.612935 0.159544 0.297315
O O3 0.379603 0.009057 0.129029
O O4 0.481847 0.816102 0.307729
O O5 0.926258 0.778220 0.003469
O O6 0.579312 0.336613 0.823431
O O7 0.049183 0.511664 0.870446
O O8 0.000000 0.500000 0.000000
O O9 0.169196 0.488180 0.710993
O O10 0.843253 0.672155 0.518855
O O11 0.999979 0.707258 0.701915
O O12 0.028848 0.186168 0.191850
O O13 0.876012 0.849056 0.217544
O O14 0.500000 0.000000 0.000000
O O15 0.900806 0.722997 0.385284
O O16 0.455492 0.472192 0.341559
#
# Coordination Sequence:
#
# PCOD9060749 Si02
#       8
#     2   1   2   2   2   2   2   2
#     4  12  25  44  72 104 142 188 243 293 370 431
#     4  12  22  42  76  92 148 180 236 294 372 416
#     4  11  23  45  69 104 143 192 237 306 364 441
#     4  12  26  45  74 105 144 193 238 305 358 432
#     4  12  27  45  71 103 148 190 239 305 364 443
#     4  11  24  49  71 104 146 187 244 298 360 437
#     4  11  23  44  66 103 141 184 246 289 361 431
#     4  11  24  45  70 104 145 183 249 289 363 434
#
# _framework density 23.401164999999999
#
# number of rings (size 3 to 8) (size 9 to 14) (size 15 to 20)
#    0.000    0.533    2.667    7.600    1.867    0.000 
#    0.000    4.667    0.000    0.000    0.000    0.000 
#    0.000    0.000    0.000    0.000    0.000    0.000 
#
# Total GULP energy -83675.009502 kJ/mol
# GULP energy per Si atom -5578.333967 kJ/mol
# Density = 2.334790 g / cm^3
# Si number density = 23.401165 Si / 1000 Ang^3
#
#
#
# Elastic Constant Matrix: (Units=GPa)
#
#
# Indices 1 2 3 4 5 6 
#
# 1 74.1749 39.6227 41.8194 2.4660 -19.8087 -8.5546
# 2 39.6227 187.6909 90.4566 -1.9141 4.0821 -20.6367
# 3 41.8194 90.4566 136.6788 10.6105 -7.3033 -13.4056
# 4 2.4660 -1.9141 10.6105 40.4838 -4.5741 -3.1023
# 5 -19.8087 4.0821 -7.3033 -4.5741 40.5331 -1.5420
# 6 -8.5546 -20.6367 -13.4056 -3.1023 -1.5420 37.0031
#
#
#
# Elastic Compliance Matrix: (Units=1/GPa)
#
#
# Indices 1 2 3 4 5 6 
#
# 1 0.019558 -0.002191 -0.003881 0.000951 0.009277 0.002360
# 2 -0.002191 0.008557 -0.005021 0.001757 -0.002544 0.002488
# 3 -0.003881 -0.005021 0.012137 -0.003094 0.000464 0.000459
# 4 0.000951 0.001757 -0.003094 0.026031 0.002758 0.002376
# 5 0.009277 -0.002544 0.000464 0.002758 0.029946 0.002373
# 6 0.002360 0.002488 0.000459 0.002376 0.002373 0.029422
#
#
# Mechanical properties :
#
#
# Convention : Reuss Voigt Hill
#
# Bulk Modulus (GPa) = 55.35235 82.48243 68.91739
# Shear Modulus (GPa) = 32.49704 38.71374 35.60539
#
# Velocity S-wave (km/s) = 3.73056 4.07178 3.90490
# Velocity P-wave (km/s) = 6.50086 7.57823 7.06012
#
# Compressibility (1/GPa) = 0.01806608
#
# Stress axis : x y z
#
# Youngs Moduli (GPa) = 51.13022 116.85979 82.39223
#
# Poissons Ratio (x) = 0.25605 0.31974
# Poissons Ratio (y) = 0.11203 0.41372
# Poissons Ratio (z) = 0.19842 0.58679
#
# Static dielectric constant tensor:
#      x y z
#    x 2.090480 0.010140 -0.199720 
#    y 0.010140 1.924010 0.049470 
#    z -0.199720 0.049470 2.144520 
# 
# From -- ./inp_files/377894.got.cif
#   From: 2010.05.17/outbox.cif.g08.bks.cpg/sg2_189_cif.got.tgz:377894.got - 2010.06.03 11:33:40.
