data_PCOD9060671
_publ_section_title
;
Structure prediction by ZEFSAII (Michael W. Deem and Ramdas Pophale) SiO2 
 PCOD9060671
Probable space group: P -1
;
_chemical_formula_sum "Si O2"
_cell_formula_units_Z 11
_cell_length_a 8.235225
_cell_length_b 8.373501
_cell_length_c 11.303185
_cell_angle_alpha 103.484896
_cell_angle_beta 74.613530
_cell_angle_gamma 145.061826
_cell_volume 430.207217
_symmetry_space_group_name_H-M "P -1"
_symmetry_group_IT_number 2
_symmetry_cell_setting 'triclinic'
loop_
_space_group_symop_operation_xyz
x,y,z
-x,-y,-z
loop_
_atom_site_type_symbol
_atom_site_label
_atom_site_fract_x
_atom_site_fract_y
_atom_site_fract_z
Si Si1 0.500000 0.500000 0.500000
Si Si2 0.907463 0.561561 0.704880
Si Si3 0.686409 0.867047 0.147738
Si Si4 0.288134 0.452555 0.778582
Si Si5 0.699191 0.012154 0.916982
Si Si6 0.375886 0.733460 0.530804
O O1 0.302787 0.389233 0.634665
O O2 0.605098 0.779192 0.527879
O O3 0.624479 0.300152 0.789039
O O4 0.792230 0.497025 0.581702
O O5 0.143975 0.606503 0.650086
O O6 0.071613 0.844852 0.776544
O O7 0.667165 0.667659 0.163260
O O8 0.747692 0.937825 0.010604
O O9 0.538829 0.777776 0.810867
O O10 0.995839 0.302512 0.854677
O O11 0.500000 0.000000 0.000000
O O12 0.500000 0.000000 0.500000
#
# Coordination Sequence:
#
# PCOD9060671 Si02
#       6
#     1   2   2   2   2   2
#     4  12  28  48  82 118 158 198 260 326 386 466
#     4  11  23  43  75 107 150 199 254 305 392 456
#     4  12  24  48  77 107 145 203 251 319 384 453
#     4  12  27  51  73 115 150 198 259 315 387 461
#     4  12  29  49  77 108 152 203 256 318 382 456
#     4  11  24  47  71 112 159 207 251 314 386 462
#
# _framework density 25.569071999999998
#
# number of rings (size 3 to 8) (size 9 to 14) (size 15 to 20)
#    0.000    0.364    3.636    3.818    5.091    0.727 
#    3.273    0.000    0.000    0.000    0.000    0.000 
#    0.000    0.000    0.000    0.000    0.000    0.000 
#
# Total GULP energy -61403.574862 kJ/mol
# GULP energy per Si atom -5582.143169 kJ/mol
# Density = 2.551088 g / cm^3
# Si number density = 25.569072 Si / 1000 Ang^3
#
#
#
# Elastic Constant Matrix: (Units=GPa)
#
#
# Indices 1 2 3 4 5 6 
#
# 1 74.5805 4.7500 21.0616 -7.1207 -20.3003 -6.6171
# 2 4.7500 88.8322 12.2764 13.3243 5.7096 -0.5395
# 3 21.0616 12.2764 122.8103 -8.7862 -14.1061 6.2155
# 4 -7.1207 13.3243 -8.7862 58.4278 0.2087 -0.2794
# 5 -20.3003 5.7096 -14.1061 0.2087 31.3528 -3.6389
# 6 -6.6171 -0.5395 6.2155 -0.2794 -3.6389 29.0809
#
#
#
# Elastic Compliance Matrix: (Units=1/GPa)
#
#
# Indices 1 2 3 4 5 6 
#
# 1 0.017981 -0.001810 -0.001669 0.002339 0.011893 0.005925
# 2 -0.001810 0.012332 -0.001615 -0.003263 -0.004168 -0.000391
# 3 -0.001669 -0.001615 0.009154 0.001521 0.003094 -0.001965
# 4 0.002339 -0.003263 0.001521 0.018366 0.002748 0.000667
# 5 0.011893 -0.004168 0.003094 0.002748 0.042578 0.007322
# 6 0.005925 -0.000391 -0.001965 0.000667 0.007322 0.037070
#
#
# Mechanical properties :
#
#
# Convention : Reuss Voigt Hill
#
# Bulk Modulus (GPa) = 34.15400 40.26657 37.21028
# Shear Modulus (GPa) = 31.76019 40.31464 36.03741
#
# Velocity S-wave (km/s) = 3.52821 3.97507 3.75829
# Velocity P-wave (km/s) = 5.47579 6.07047 5.78078
#
# Compressibility (1/GPa) = 0.02927915
#
# Stress axis : x y z
#
# Youngs Moduli (GPa) = 55.61317 81.08979 109.24316
#
# Poissons Ratio (x) = 0.14678 0.18236
# Poissons Ratio (y) = 0.10067 0.17639
# Poissons Ratio (z) = 0.09283 0.13093
#
# Static dielectric constant tensor:
#      x y z
#    x 2.384850 0.053360 0.125110 
#    y 0.053360 2.029530 0.040040 
#    z 0.125110 0.040040 2.030380 
# 
# From -- ./inp_files/379913.got.cif
#   From: 2010.05.17/outbox.cif.g08.bks.cpg/sg2_190_cif.got.tgz:379913.got - 2010.06.03 11:33:40.
