data_PCOD9060473
_publ_section_title
;
Structure prediction by ZEFSAII (Michael W. Deem and Ramdas Pophale) SiO2 
 PCOD9060473
Probable space group: P -1
;
_chemical_formula_sum "Si O2"
_cell_formula_units_Z 15
_cell_length_a 20.783219
_cell_length_b 5.306580
_cell_length_c 8.886242
_cell_angle_alpha 89.046627
_cell_angle_beta 141.665493
_cell_angle_gamma 86.442704
_cell_volume 603.317127
_symmetry_space_group_name_H-M "P -1"
_symmetry_group_IT_number 2
_symmetry_cell_setting 'triclinic'
loop_
_space_group_symop_operation_xyz
x,y,z
-x,-y,-z
loop_
_atom_site_type_symbol
_atom_site_label
_atom_site_fract_x
_atom_site_fract_y
_atom_site_fract_z
Si Si1 0.636159 0.587434 0.538309
Si Si2 0.766030 0.360342 0.024950
Si Si3 0.489761 0.893228 0.652316
Si Si4 0.952392 0.072928 0.244817
Si Si5 0.692245 0.039145 0.133704
Si Si6 0.878439 0.618877 0.476324
Si Si7 0.778740 0.312092 0.548925
Si Si8 0.000000 0.000000 0.000000
O O1 0.580414 0.867310 0.401474
O O2 0.715488 0.474614 0.557702
O O3 0.559516 0.370030 0.427918
O O4 0.705773 0.583971 0.816430
O O5 0.828675 0.144412 0.038287
O O6 0.685015 0.248615 0.987429
O O7 0.853748 0.457939 0.289667
O O8 0.500000 0.000000 0.500000
O O9 0.601148 0.868450 0.940857
O O10 0.003570 0.328773 0.292141
O O11 0.990521 0.910825 0.168574
O O12 0.000000 0.000000 0.500000
O O13 0.698329 0.171967 0.303423
O O14 0.806351 0.886226 0.321063
O O15 0.830954 0.505775 0.536265
O O16 0.877149 0.114750 0.779967
#
# Coordination Sequence:
#
# PCOD9060473 Si02
#       8
#     2   2   2   2   2   2   2   1
#     4  12  28  48  76 113 146 201 257 317 392 455
#     4  11  23  43  71 105 142 196 248 315 375 473
#     4  12  27  47  78 112 149 196 260 325 383 461
#     4  12  23  45  73 109 147 197 253 316 389 468
#     4  11  24  46  74 102 150 191 249 318 386 455
#     4  11  24  45  71 105 146 201 248 312 392 457
#     4  11  27  48  71 107 150 197 250 316 388 466
#     4  12  24  48  72 108 154 194 252 316 382 462
#
# _framework density 24.862546999999999
#
# number of rings (size 3 to 8) (size 9 to 14) (size 15 to 20)
#    0.000    0.533    5.333    2.400    5.600    1.600 
#    4.800    0.000    0.000    0.000    0.000    0.000 
#    0.000    0.000    0.000    0.000    0.000    0.000 
#
# Total GULP energy -83694.566589 kJ/mol
# GULP energy per Si atom -5579.637773 kJ/mol
# Density = 2.480596 g / cm^3
# Si number density = 24.862547 Si / 1000 Ang^3
#
#
#
# Elastic Constant Matrix: (Units=GPa)
#
#
# Indices 1 2 3 4 5 6 
#
# 1 80.6258 13.8377 37.8298 -3.8391 -10.5770 -22.2060
# 2 13.8377 62.8049 9.2961 4.5131 1.4845 -1.9378
# 3 37.8298 9.2961 77.3535 -0.2368 5.3386 7.5252
# 4 -3.8391 4.5131 -0.2368 21.4731 3.9669 7.8724
# 5 -10.5770 1.4845 5.3386 3.9669 34.3252 0.7230
# 6 -22.2060 -1.9378 7.5252 7.8724 0.7230 40.8507
#
#
#
# Elastic Compliance Matrix: (Units=1/GPa)
#
#
# Indices 1 2 3 4 5 6 
#
# 1 0.025544 -0.002990 -0.014485 -0.003021 0.010248 0.016813
# 2 -0.002990 0.016967 -0.000516 -0.003917 -0.001123 0.000049
# 3 -0.014485 -0.000516 0.021857 0.003832 -0.008020 -0.012521
# 4 -0.003021 -0.003917 0.003832 0.052841 -0.007199 -0.012590
# 5 0.010248 -0.001123 -0.008020 -0.007199 0.034255 0.007776
# 6 0.016813 0.000049 -0.012521 -0.012590 0.007776 0.038216
#
#
# Mechanical properties :
#
#
# Convention : Reuss Voigt Hill
#
# Bulk Modulus (GPa) = 35.22950 38.07906 36.65428
# Shear Modulus (GPa) = 21.26544 29.98450 25.62497
#
# Velocity S-wave (km/s) = 2.92776 3.47653 3.21388
# Velocity P-wave (km/s) = 5.06256 5.60929 5.34292
#
# Compressibility (1/GPa) = 0.02838530
#
# Stress axis : x y z
#
# Youngs Moduli (GPa) = 39.14868 58.93768 45.75234
#
# Poissons Ratio (x) = 0.17625 0.66272
# Poissons Ratio (y) = 0.11707 0.02360
# Poissons Ratio (z) = 0.56706 0.03040
#
# Static dielectric constant tensor:
#      x y z
#    x 1.965110 -0.003690 -0.085750 
#    y -0.003690 1.992040 0.028430 
#    z -0.085750 0.028430 1.987280 
# 
# From -- ./inp_files/45973.got.cif
#   From: 2010.05.17/outbox.cif.g08.bks.cpg/sg2_23_cif.got.tgz:45973.got - 2010.06.03 11:33:40.
