data_PCOD9060655
_publ_section_title
;
Structure prediction by ZEFSAII (Michael W. Deem and Ramdas Pophale) SiO2 
 PCOD9060655
Probable space group: P -1
;
_chemical_formula_sum "Si O2"
_cell_formula_units_Z 14
_cell_length_a 7.358686
_cell_length_b 14.085694
_cell_length_c 18.091591
_cell_angle_alpha 159.765542
_cell_angle_beta 64.746268
_cell_angle_gamma 121.275014
_cell_volume 542.599656
_symmetry_space_group_name_H-M "P -1"
_symmetry_group_IT_number 2
_symmetry_cell_setting 'triclinic'
loop_
_space_group_symop_operation_xyz
x,y,z
-x,-y,-z
loop_
_atom_site_type_symbol
_atom_site_label
_atom_site_fract_x
_atom_site_fract_y
_atom_site_fract_z
Si Si1 0.754035 0.842718 0.460008
Si Si2 0.298930 0.663504 0.638146
Si Si3 0.157945 0.234799 0.888068
Si Si4 0.031162 0.108310 0.195815
Si Si5 0.539463 0.671701 0.225771
Si Si6 0.286358 0.701412 0.829351
Si Si7 0.304103 0.865027 0.164469
O O1 0.587421 0.827693 0.410940
O O2 0.717006 0.517006 0.262944
O O3 0.711369 0.006489 0.658418
O O4 0.000000 0.000000 0.500000
O O5 0.129567 0.829130 0.786698
O O6 0.273648 0.538646 0.634165
O O7 0.229644 0.411708 0.403118
O O8 0.534018 0.899362 0.748269
O O9 0.283980 0.165081 0.747388
O O10 0.938722 0.258642 0.915172
O O11 0.100786 0.969904 0.762158
O O12 0.308417 0.527270 0.120231
O O13 0.100153 0.834665 0.967857
O O14 0.601523 0.386440 0.023631
O O15 0.500000 0.000000 0.000000
#
# Coordination Sequence:
#
# PCOD9060655 Si02
#       7
#     2   2   2   2   2   2   2
#     4  12  27  46  75 115 149 195 252 310 375 446
#     4  11  25  46  73 110 143 194 249 303 370 445
#     4  11  23  43  75 102 142 200 240 296 374 445
#     4  11  24  45  72 107 148 187 247 309 366 440
#     4  11  25  47  69 107 152 193 245 301 379 442
#     4  12  26  45  75 106 146 197 245 303 372 442
#     4  12  24  48  79 103 153 192 250 310 369 445
#
# _framework density 25.801711000000001
#
# number of rings (size 3 to 8) (size 9 to 14) (size 15 to 20)
#    0.000    0.571    2.857    5.143    2.000    1.714 
#    5.143    4.286    0.000    0.000    0.000    0.000 
#    0.000    0.000    0.000    0.000    0.000    0.000 
#
# Total GULP energy -78509.682956 kJ/mol
# GULP energy per Si atom -5607.834497 kJ/mol
# Density = 2.574299 g / cm^3
# Si number density = 25.801711 Si / 1000 Ang^3
#
#
#
# Elastic Constant Matrix: (Units=GPa)
#
#
# Indices 1 2 3 4 5 6 
#
# 1 118.7459 42.7075 27.4916 -12.2090 30.6132 -6.5665
# 2 42.7075 182.3026 30.0697 -9.2133 20.4260 -2.0234
# 3 27.4916 30.0697 68.3243 -13.5779 6.8554 3.0845
# 4 -12.2090 -9.2133 -13.5779 54.2751 -4.3832 8.0846
# 5 30.6132 20.4260 6.8554 -4.3832 41.3352 -0.6914
# 6 -6.5665 -2.0234 3.0845 8.0846 -0.6914 42.5402
#
#
#
# Elastic Compliance Matrix: (Units=1/GPa)
#
#
# Indices 1 2 3 4 5 6 
#
# 1 0.011743 -0.001317 -0.003338 0.000728 -0.007386 0.001734
# 2 -0.001317 0.006345 -0.002074 0.000086 -0.001804 0.000203
# 3 -0.003338 -0.002074 0.017667 0.003779 0.000924 -0.002598
# 4 0.000728 0.000086 0.003779 0.020212 0.000868 -0.003985
# 5 -0.007386 -0.001804 0.000924 0.000868 0.030477 -0.000963
# 6 0.001734 0.000203 -0.002598 -0.003985 -0.000963 0.024714
#
#
# Mechanical properties :
#
#
# Convention : Reuss Voigt Hill
#
# Bulk Modulus (GPa) = 44.84667 63.32337 54.08502
# Shear Modulus (GPa) = 37.86551 45.57039 41.71795
#
# Velocity S-wave (km/s) = 3.83503 4.20715 4.02539
# Velocity P-wave (km/s) = 6.08514 6.94232 6.52781
#
# Compressibility (1/GPa) = 0.02229820
#
# Stress axis : x y z
#
# Youngs Moduli (GPa) = 85.16006 157.61541 56.60215
#
# Poissons Ratio (x) = 0.20754 0.18893
# Poissons Ratio (y) = 0.11213 0.11737
# Poissons Ratio (z) = 0.28425 0.32682
#
# Static dielectric constant tensor:
#      x y z
#    x 2.038580 -0.024590 0.030440 
#    y -0.024590 1.988570 -0.022780 
#    z 0.030440 -0.022780 2.099980 
# 
# From -- ./inp_files/590356.got.cif
#   From: 2010.05.17/outbox.cif.g08.bks.cpg/sg2_296_cif.got.tgz:590356.got - 2010.06.03 11:33:40.
