data_PCOD9060452
_publ_section_title
;
Structure prediction by ZEFSAII (Michael W. Deem and Ramdas Pophale) SiO2 
 PCOD9060452
Probable space group: P -1
;
_chemical_formula_sum "Si O2"
_cell_formula_units_Z 16
_cell_length_a 10.375042
_cell_length_b 17.577880
_cell_length_c 8.381592
_cell_angle_alpha 54.008686
_cell_angle_beta 136.267957
_cell_angle_gamma 141.872381
_cell_volume 651.742397
_symmetry_space_group_name_H-M "P -1"
_symmetry_group_IT_number 2
_symmetry_cell_setting 'triclinic'
loop_
_space_group_symop_operation_xyz
x,y,z
-x,-y,-z
loop_
_atom_site_type_symbol
_atom_site_label
_atom_site_fract_x
_atom_site_fract_y
_atom_site_fract_z
Si Si1 0.468039 0.694258 0.865015
Si Si2 0.219216 0.401670 0.313383
Si Si3 0.933062 0.893678 0.685573
Si Si4 0.334800 0.064157 0.379645
Si Si5 0.820391 0.206958 0.817050
Si Si6 0.045786 0.554142 0.182681
Si Si7 0.522475 0.635109 0.629056
Si Si8 0.959911 0.776430 0.337014
O O1 0.503629 0.818873 0.738400
O O2 0.200632 0.575526 0.820253
O O3 0.499140 0.654849 0.767680
O O4 0.689019 0.730054 0.126302
O O5 0.500000 0.500000 0.500000
O O6 0.301514 0.394370 0.215326
O O7 0.072041 0.287949 0.444915
O O8 0.032756 0.423622 0.080664
O O9 0.858844 0.921922 0.747233
O O10 0.688376 0.772047 0.536833
O O11 0.000000 0.000000 0.500000
O O12 0.099523 0.858127 0.924926
O O13 0.533679 0.101994 0.644826
O O14 0.176448 0.924396 0.357027
O O15 0.857656 0.322435 0.783176
O O16 0.976523 0.256510 0.730450
O O17 0.264318 0.552059 0.413387
#
# Coordination Sequence:
#
# PCOD9060452 Si02
#       8
#     2   2   2   2   2   2   2   2
#     4  11  23  45  75 100 136 191 233 293 340 417
#     4  12  27  45  67 102 146 186 230 290 362 416
#     4  11  23  43  71 102 139 185 228 289 349 410
#     4  11  25  45  68 106 141 180 238 284 353 418
#     4  12  25  45  75 105 136 187 239 290 347 418
#     4  12  25  47  72 105 139 182 248 285 349 421
#     4  11  24  46  69 103 134 186 236 291 344 414
#     4  12  25  47  69 102 147 186 227 291 358 418
#
# _framework density 24.549578
#
# number of rings (size 3 to 8) (size 9 to 14) (size 15 to 20)
#    0.000    0.500    7.500    1.875    1.750    3.000 
#    2.250    0.000    0.000    0.000    0.000    0.000 
#    0.000    0.000    0.000    0.000    0.000    0.000 
#
# Total GULP energy -89325.795883 kJ/mol
# GULP energy per Si atom -5582.862243 kJ/mol
# Density = 2.449370 g / cm^3
# Si number density = 24.549578 Si / 1000 Ang^3
#
#
#
# Elastic Constant Matrix: (Units=GPa)
#
#
# Indices 1 2 3 4 5 6 
#
# 1 72.2890 21.3077 38.0912 -11.8601 17.7565 -1.5620
# 2 21.3077 137.0013 59.3096 3.7874 5.4527 11.5441
# 3 38.0912 59.3096 155.2231 0.7311 23.3644 11.3688
# 4 -11.8601 3.7874 0.7311 48.5508 2.5253 -4.8482
# 5 17.7565 5.4527 23.3644 2.5253 37.6042 -2.6457
# 6 -1.5620 11.5441 11.3688 -4.8482 -2.6457 25.3960
#
#
#
# Elastic Compliance Matrix: (Units=1/GPa)
#
#
# Indices 1 2 3 4 5 6 
#
# 1 0.018642 -0.001704 -0.003218 0.005452 -0.006661 0.003709
# 2 -0.001704 0.009121 -0.003024 -0.001451 0.001245 -0.003044
# 3 -0.003218 -0.003024 0.009250 -0.000836 -0.003982 -0.003539
# 4 0.005452 -0.001451 -0.000836 0.022750 -0.002993 0.005400
# 5 -0.006661 0.001245 -0.003982 -0.002993 0.032488 0.003620
# 6 0.003709 -0.003044 -0.003539 0.005400 0.003620 0.043980
#
#
# Mechanical properties :
#
#
# Convention : Reuss Voigt Hill
#
# Bulk Modulus (GPa) = 47.34953 66.88117 57.11535
# Shear Modulus (GPa) = 31.41414 38.69719 35.05567
#
# Velocity S-wave (km/s) = 3.58106 3.97456 3.78293
# Velocity P-wave (km/s) = 6.03555 6.95451 6.51126
#
# Compressibility (1/GPa) = 0.02111953
#
# Stress axis : x y z
#
# Youngs Moduli (GPa) = 53.64109 109.64205 108.10713
#
# Poissons Ratio (x) = 0.18687 0.34791
# Poissons Ratio (y) = 0.09142 0.32694
# Poissons Ratio (z) = 0.17263 0.33158
#
# Static dielectric constant tensor:
#      x y z
#    x 2.136300 -0.088410 -0.037430 
#    y -0.088410 2.069180 -0.029790 
#    z -0.037430 -0.029790 1.975040 
# 
# From -- ./inp_files/282952.got.cif
#   From: 2010.05.17/outbox.cif.g08.bks.cpg/sg2_142_cif.got.tgz:282952.got - 2010.06.03 11:33:40.
