data_PCOD9060616
_publ_section_title
;
Structure prediction by ZEFSAII (Michael W. Deem and Ramdas Pophale) SiO2 
 PCOD9060616
Probable space group: P -1
;
_chemical_formula_sum "Si O2"
_cell_formula_units_Z 16
_cell_length_a 14.533419
_cell_length_b 9.571042
_cell_length_c 5.233258
_cell_angle_alpha 123.901126
_cell_angle_beta 94.673632
_cell_angle_gamma 83.415735
_cell_volume 600.075458
_symmetry_space_group_name_H-M "P -1"
_symmetry_group_IT_number 2
_symmetry_cell_setting 'triclinic'
loop_
_space_group_symop_operation_xyz
x,y,z
-x,-y,-z
loop_
_atom_site_type_symbol
_atom_site_label
_atom_site_fract_x
_atom_site_fract_y
_atom_site_fract_z
Si Si1 0.345234 0.110393 0.206759
Si Si2 0.336667 0.766868 0.593926
Si Si3 0.081666 0.608300 0.543168
Si Si4 0.151648 0.116656 0.370575
Si Si5 0.874899 0.071038 0.329322
Si Si6 0.647738 0.599950 0.841901
Si Si7 0.500054 0.798547 0.328302
Si Si8 0.824187 0.516469 0.086011
O O1 0.264866 0.082896 0.362104
O O2 0.305964 0.242039 0.115723
O O3 0.427339 0.214503 0.434861
O O4 0.374926 0.923512 0.917460
O O5 0.228513 0.828186 0.596389
O O6 0.350741 0.573525 0.495761
O O7 0.398700 0.758436 0.343847
O O8 0.056961 0.795897 0.622565
O O9 0.146572 0.615361 0.816991
O O10 0.000000 0.500000 0.500000
O O11 0.131189 0.522304 0.219350
O O12 0.138543 0.311248 0.633711
O O13 0.110920 0.003103 0.463096
O O14 0.125457 0.070961 0.031490
O O15 0.548840 0.679872 0.002327
O O16 0.715402 0.543862 0.036237
O O17 0.500000 0.000000 0.500000
#
# Coordination Sequence:
#
# PCOD9060616 Si02
#       8
#     2   2   2   2   2   2   2   2
#     4  11  24  45  66  99 151 195 250 314 376 415
#     4  11  24  42  67 101 142 195 250 308 363 436
#     4  12  27  50  78 112 151 186 235 310 378 452
#     4  11  23  43  74 104 143 194 241 299 354 445
#     4  11  24  45  71 107 143 189 247 294 379 436
#     4  12  25  44  70 104 143 197 260 302 366 446
#     4  12  24  44  65  99 151 196 251 313 378 414
#     4  12  24  48  76 110 147 193 244 298 374 446
#
# _framework density 26.663312999999999
#
# number of rings (size 3 to 8) (size 9 to 14) (size 15 to 20)
#    0.000    0.500    3.750    5.625    0.000    0.500 
#    4.500    3.750    0.000    0.000    0.000    0.000 
#    0.000    0.000    0.000    0.000    0.000    0.000 
#
# Total GULP energy -89636.415504 kJ/mol
# GULP energy per Si atom -5602.275969 kJ/mol
# Density = 2.660263 g / cm^3
# Si number density = 26.663313 Si / 1000 Ang^3
#
#
#
# Elastic Constant Matrix: (Units=GPa)
#
#
# Indices 1 2 3 4 5 6 
#
# 1 89.4889 29.6834 28.7004 -8.7579 -17.3312 10.5722
# 2 29.6834 149.4614 54.1486 -2.5405 -11.5467 10.7491
# 3 28.7004 54.1486 135.8693 11.2192 -19.0598 -0.4646
# 4 -8.7579 -2.5405 11.2192 58.9360 3.0180 1.2032
# 5 -17.3312 -11.5467 -19.0598 3.0180 39.3871 0.5890
# 6 10.5722 10.7491 -0.4646 1.2032 0.5890 45.9704
#
#
#
# Elastic Compliance Matrix: (Units=1/GPa)
#
#
# Indices 1 2 3 4 5 6 
#
# 1 0.013697 -0.001443 -0.001864 0.002153 0.004581 -0.002947
# 2 -0.001443 0.008215 -0.002994 0.000728 0.000294 -0.001642
# 3 -0.001864 -0.002994 0.009586 -0.002416 0.003108 0.001249
# 4 0.002153 0.000728 -0.002416 0.017872 -0.001360 -0.001140
# 5 0.004581 0.000294 0.003108 -0.001360 0.029120 -0.001428
# 6 -0.002947 -0.001642 0.001249 -0.001140 -0.001428 0.022876
#
#
# Mechanical properties :
#
#
# Convention : Reuss Voigt Hill
#
# Bulk Modulus (GPa) = 52.91461 66.65382 59.78421
# Shear Modulus (GPa) = 41.57474 46.34451 43.95963
#
# Velocity S-wave (km/s) = 3.95302 4.17362 4.06482
# Velocity P-wave (km/s) = 6.38151 6.94824 6.67090
#
# Compressibility (1/GPa) = 0.01889837
#
# Stress axis : x y z
#
# Youngs Moduli (GPa) = 73.00943 121.72878 104.31371
#
# Poissons Ratio (x) = 0.17561 0.19439
# Poissons Ratio (y) = 0.10533 0.31229
# Poissons Ratio (z) = 0.13606 0.36443
#
# Static dielectric constant tensor:
#      x y z
#    x 2.285290 -0.102790 0.102230 
#    y -0.102790 2.137320 -0.028340 
#    z 0.102230 -0.028340 2.107160 
# 
# From -- ./inp_files/105762.got.cif
#   From: 2010.05.17/outbox.cif.g08.bks.cpg/sg2_53_cif.got.tgz:105762.got - 2010.06.03 11:33:40.
