data_PCOD9060778
_publ_section_title
;
Structure prediction by ZEFSAII (Michael W. Deem and Ramdas Pophale) SiO2 
 PCOD9060778
Probable space group: P -1
;
_chemical_formula_sum "Si O2"
_cell_formula_units_Z 16
_cell_length_a 8.850032
_cell_length_b 8.316473
_cell_length_c 11.433404
_cell_angle_alpha 108.464932
_cell_angle_beta 74.726168
_cell_angle_gamma 67.977961
_cell_volume 666.400537
_symmetry_space_group_name_H-M "P -1"
_symmetry_group_IT_number 2
_symmetry_cell_setting 'triclinic'
loop_
_space_group_symop_operation_xyz
x,y,z
-x,-y,-z
loop_
_atom_site_type_symbol
_atom_site_label
_atom_site_fract_x
_atom_site_fract_y
_atom_site_fract_z
Si Si1 0.865437 0.509593 0.265380
Si Si2 0.619996 0.084527 0.213752
Si Si3 0.245664 0.267656 0.055736
Si Si4 0.845941 0.911057 0.346746
Si Si5 0.095141 0.724789 0.559932
Si Si6 0.611581 0.554361 0.752210
Si Si7 0.432213 0.351837 0.838421
Si Si8 0.309905 0.071650 0.382700
O O1 0.925575 0.678275 0.298889
O O2 0.851961 0.411540 0.366556
O O3 0.682465 0.607416 0.249083
O O4 0.035396 0.337108 0.123559
O O5 0.779626 0.950251 0.236709
O O6 0.442843 0.151911 0.346532
O O7 0.581308 0.295063 0.233158
O O8 0.649462 0.954144 0.063305
O O9 0.309475 0.317905 0.175645
O O10 0.290941 0.383474 0.975161
O O11 0.927544 0.056455 0.377167
O O12 0.693863 0.987575 0.496667
O O13 0.244019 0.605711 0.402134
O O14 0.893416 0.778058 0.578024
O O15 0.544461 0.462232 0.842846
O O16 0.591471 0.126417 0.757181
#
# Coordination Sequence:
#
# PCOD9060778 Si02
#       8
#     2   2   2   2   2   2   2   2
#     4  12  26  48  74 105 145 188 234 298 351 422
#     4  11  25  44  72 103 141 190 238 292 352 420
#     4  11  25  48  69 101 143 192 239 284 354 423
#     4  12  24  44  74 104 145 187 230 297 355 420
#     4  12  28  45  73 113 143 181 238 295 360 420
#     4  12  25  45  71 107 145 184 237 295 353 424
#     4  11  25  45  74 100 145 188 236 289 353 424
#     4  11  23  44  67 106 144 181 230 287 359 419
#
# _framework density 24.009582999999999
#
# number of rings (size 3 to 8) (size 9 to 14) (size 15 to 20)
#    0.000    0.500    3.750    4.875    3.500    3.500 
#    2.250    1.250    0.000    0.000    0.000    0.000 
#    0.000    0.000    0.000    0.000    0.000    0.000 
#
# Total GULP energy -89275.249281 kJ/mol
# GULP energy per Si atom -5579.703080 kJ/mol
# Density = 2.395494 g / cm^3
# Si number density = 24.009583 Si / 1000 Ang^3
#
#
#
# Elastic Constant Matrix: (Units=GPa)
#
#
# Indices 1 2 3 4 5 6 
#
# 1 29.5068 12.2227 34.0761 21.3667 3.3554 -15.7325
# 2 12.2227 87.1963 20.4133 3.1831 3.1605 -1.8248
# 3 34.0761 20.4133 94.6361 -10.4913 -13.5065 0.2313
# 4 21.3667 3.1831 -10.4913 29.4594 -2.9209 3.0711
# 5 3.3554 3.1605 -13.5065 -2.9209 33.2798 -3.8013
# 6 -15.7325 -1.8248 0.2313 3.0711 -3.8013 33.0891
#
#
#
# Elastic Compliance Matrix: (Units=1/GPa)
#
#
# Indices 1 2 3 4 5 6 
#
# 1 -0.051857 -0.002351 0.027639 0.052397 0.018096 -0.027763
# 2 -0.002351 0.012380 -0.002156 -0.000530 -0.001928 -0.000592
# 3 0.027639 -0.002156 -0.001964 -0.022408 -0.003667 0.014694
# 4 0.052397 -0.000530 -0.022408 -0.015866 -0.012860 0.025035
# 5 0.018096 -0.001928 -0.003667 -0.012860 0.027257 0.012848
# 6 -0.027763 -0.000592 0.014694 0.025035 0.012848 0.016038
#
#
# Mechanical properties :
#
#
# Convention : Reuss Voigt Hill
#
# Bulk Modulus (GPa) = 207.37676 38.30705 122.84190
# Shear Modulus (GPa) = -85.22785 28.80748 -28.21019
#
# Velocity S-wave (km/s) = -5.96444 3.46762 -3.43148
# Velocity P-wave (km/s) = 6.25519 5.65880 5.96445
#
# Compressibility (1/GPa) = 0.00482214
#
# Stress axis : x y z
#
# Youngs Moduli (GPa) = -19.28388 80.77860 -509.29249
#
# Poissons Ratio (x) = 0.18992 14.07617
# Poissons Ratio (y) = -0.04534 -1.09811
# Poissons Ratio (z) = 0.53298 0.17417
#
# Static dielectric constant tensor:
#      x y z
#    x 1.968600 0.012840 0.060730 
#    y 0.012840 2.032620 0.017580 
#    z 0.060730 0.017580 1.898380 
# 
# From -- ./inp_files/382917.got.cif
#   From: 2010.05.17/outbox.cif.g08.bks.cpg/sg2_192_cif.got.tgz:382917.got - 2010.06.03 11:33:40.
