data_PCOD9060681
_publ_section_title
;
Structure prediction by ZEFSAII (Michael W. Deem and Ramdas Pophale) SiO2 
 PCOD9060681
Probable space group: P -1
;
_chemical_formula_sum "Si O2"
_cell_formula_units_Z 12
_cell_length_a 16.991043
_cell_length_b 9.742015
_cell_length_c 13.261184
_cell_angle_alpha 47.394837
_cell_angle_beta 35.035731
_cell_angle_gamma 26.953138
_cell_volume 559.252869
_symmetry_space_group_name_H-M "P -1"
_symmetry_group_IT_number 2
_symmetry_cell_setting 'triclinic'
loop_
_space_group_symop_operation_xyz
x,y,z
-x,-y,-z
loop_
_atom_site_type_symbol
_atom_site_label
_atom_site_fract_x
_atom_site_fract_y
_atom_site_fract_z
Si Si1 0.339349 0.750770 0.807527
Si Si2 0.847191 0.442233 0.929338
Si Si3 0.459779 0.138503 0.363857
Si Si4 0.803497 0.565041 0.148937
Si Si5 0.314010 0.673883 0.521212
Si Si6 0.949986 0.662198 0.574672
O O1 0.412321 0.801402 0.798037
O O2 0.546325 0.535721 0.619435
O O3 0.284314 0.593360 0.959613
O O4 0.112427 0.089831 0.829391
O O5 0.823953 0.653901 0.784334
O O6 0.780864 0.553615 0.059354
O O7 0.193093 0.447631 0.474388
O O8 0.500000 0.000000 0.500000
O O9 0.574471 0.889517 0.280460
O O10 0.848893 0.315594 0.276788
O O11 0.000000 0.500000 0.000000
O O12 0.500000 0.500000 0.500000
O O13 0.187207 0.002851 0.470032
O O14 0.000000 0.500000 0.500000
#
# Coordination Sequence:
#
# PCOD9060681 Si02
#       6
#     2   2   2   2   2   2
#     4  11  23  43  75  98 147 181 237 286 363 410
#     4  11  24  45  74 109 137 190 240 296 352 423
#     4  12  23  47  72 106 143 189 232 294 360 420
#     4  12  23  43  75 106 141 186 237 293 355 421
#     4  12  25  47  71 102 142 196 234 289 364 424
#     4  12  28  47  73 106 146 190 241 290 361 432
#
# _framework density 21.457198000000002
#
# number of rings (size 3 to 8) (size 9 to 14) (size 15 to 20)
#    0.000    0.333    6.667    2.000    2.333    1.333 
#    0.000    1.667    0.000    0.000    0.000    0.000 
#    0.000    0.000    0.000    0.000    0.000    0.000 
#
# Total GULP energy -67190.366059 kJ/mol
# GULP energy per Si atom -5599.197172 kJ/mol
# Density = 2.140836 g / cm^3
# Si number density = 21.457198 Si / 1000 Ang^3
#
#
#
# Elastic Constant Matrix: (Units=GPa)
#
#
# Indices 1 2 3 4 5 6 
#
# 1 94.7163 57.4947 43.6139 -16.5726 -16.1803 15.8003
# 2 57.4947 149.3285 71.7927 -26.9210 8.6704 13.2303
# 3 43.6139 71.7927 145.3741 -34.7944 -11.2621 13.9745
# 4 -16.5726 -26.9210 -34.7944 37.7153 16.4796 -3.3963
# 5 -16.1803 8.6704 -11.2621 16.4796 52.5853 7.9658
# 6 15.8003 13.2303 13.9745 -3.3963 7.9658 40.8925
#
#
#
# Elastic Compliance Matrix: (Units=1/GPa)
#
#
# Indices 1 2 3 4 5 6 
#
# 1 0.016708 -0.006043 -0.001390 -0.001949 0.007300 -0.005609
# 2 -0.006043 0.011926 -0.003336 0.005768 -0.006556 0.001372
# 3 -0.001390 -0.003336 0.010692 0.006447 0.000638 -0.001626
# 4 -0.001949 0.005768 0.006447 0.041993 -0.013762 0.002852
# 5 0.007300 -0.006556 0.000638 -0.013762 0.027930 -0.007501
# 6 -0.005609 0.001372 -0.001626 0.002852 -0.007501 0.028432
#
#
# Mechanical properties :
#
#
# Convention : Reuss Voigt Hill
#
# Bulk Modulus (GPa) = 56.21712 81.69126 68.95419
# Shear Modulus (GPa) = 30.27602 40.67313 35.47458
#
# Velocity S-wave (km/s) = 3.76040 4.35851 4.07046
# Velocity P-wave (km/s) = 6.71645 7.96764 7.36865
#
# Compressibility (1/GPa) = 0.01778818
#
# Stress axis : x y z
#
# Youngs Moduli (GPa) = 59.85218 83.85047 93.52748
#
# Poissons Ratio (x) = 0.50669 0.13001
# Poissons Ratio (y) = 0.36168 0.31201
# Poissons Ratio (z) = 0.08320 0.27972
#
# Static dielectric constant tensor:
#      x y z
#    x 1.789550 0.023250 -0.024130 
#    y 0.023250 1.768190 0.003590 
#    z -0.024130 0.003590 1.804280 
# 
# From -- ./inp_files/148951.got.cif
#   From: 2010.05.17/outbox.cif.g08.bks.cpg/sg2_75_cif.got.tgz:148951.got - 2010.06.03 11:33:40.
