data_PCOD9060546
_publ_section_title
;
Structure prediction by ZEFSAII (Michael W. Deem and Ramdas Pophale) SiO2 
 PCOD9060546
Probable space group: P -1
;
_chemical_formula_sum "Si O2"
_cell_formula_units_Z 16
_cell_length_a 12.265124
_cell_length_b 11.708805
_cell_length_c 11.600220
_cell_angle_alpha 40.161228
_cell_angle_beta 77.784760
_cell_angle_gamma 107.237000
_cell_volume 721.436724
_symmetry_space_group_name_H-M "P -1"
_symmetry_group_IT_number 2
_symmetry_cell_setting 'triclinic'
loop_
_space_group_symop_operation_xyz
x,y,z
-x,-y,-z
loop_
_atom_site_type_symbol
_atom_site_label
_atom_site_fract_x
_atom_site_fract_y
_atom_site_fract_z
Si Si1 0.239837 0.978426 0.458819
Si Si2 0.587107 0.250721 0.106981
Si Si3 0.318938 0.020989 0.661644
Si Si4 0.948428 0.598258 0.093156
Si Si5 0.396648 0.721830 0.182400
Si Si6 0.203245 0.286502 0.117294
Si Si7 0.839654 0.694467 0.259344
Si Si8 0.578091 0.565241 0.265878
O O1 0.298310 0.089604 0.489211
O O2 0.136353 0.679375 0.714943
O O3 0.407220 0.124830 0.243422
O O4 0.147364 0.034240 0.376361
O O5 0.588481 0.057560 0.311944
O O6 0.644253 0.292982 0.930571
O O7 0.702020 0.504776 0.963009
O O8 0.421356 0.259194 0.539763
O O9 0.137063 0.780625 0.929519
O O10 0.871429 0.583832 0.239143
O O11 0.921258 0.721025 0.908794
O O12 0.235036 0.485132 0.472975
O O13 0.515828 0.691082 0.182397
O O14 0.500000 0.000000 0.000000
O O15 0.328175 0.380601 0.914229
O O16 0.698948 0.658045 0.269431
O O17 0.000000 0.000000 0.000000
#
# Coordination Sequence:
#
# PCOD9060546 Si02
#       8
#     2   2   2   2   2   2   2   2
#     4  12  22  42  71 104 148 183 237 293 369 433
#     4  12  23  43  69 109 145 182 247 298 359 433
#     4  12  24  43  72 107 144 192 227 297 370 438
#     4  11  26  46  66 104 151 185 242 295 366 429
#     4  12  25  44  71 106 142 188 249 299 352 433
#     4  11  23  43  72 107 140 188 234 307 365 426
#     4  11  26  49  73  98 142 194 243 300 359 427
#     4  11  23  46  75 100 135 185 246 295 360 431
#
# _framework density 22.177966999999999
#
# number of rings (size 3 to 8) (size 9 to 14) (size 15 to 20)
#    0.000    0.500    3.750    6.000    0.000    1.500 
#    6.750    1.250    0.000    0.000    0.000    0.000 
#    0.000    0.000    0.000    0.000    0.000    0.000 
#
# Total GULP energy -89602.747193 kJ/mol
# GULP energy per Si atom -5600.171700 kJ/mol
# Density = 2.212749 g / cm^3
# Si number density = 22.177967 Si / 1000 Ang^3
#
#
#
# Elastic Constant Matrix: (Units=GPa)
#
#
# Indices 1 2 3 4 5 6 
#
# 1 99.3043 33.9455 27.9989 -23.1309 13.7131 -0.1773
# 2 33.9455 100.1396 48.2618 3.4012 -1.4163 0.4424
# 3 27.9989 48.2618 93.1122 -3.4872 -1.8612 11.4781
# 4 -23.1309 3.4012 -3.4872 47.3757 2.0424 5.0886
# 5 13.7131 -1.4163 -1.8612 2.0424 33.1659 -5.3511
# 6 -0.1773 0.4424 11.4781 5.0886 -5.3511 34.2548
#
#
#
# Elastic Compliance Matrix: (Units=1/GPa)
#
#
# Indices 1 2 3 4 5 6 
#
# 1 0.015007 -0.004598 -0.001779 0.008010 -0.007251 -0.001589
# 2 -0.004598 0.015051 -0.006915 -0.004304 0.002936 0.003197
# 3 -0.001779 -0.006915 0.015566 0.001324 0.000381 -0.005273
# 4 0.008010 -0.004304 0.001324 0.026232 -0.005869 -0.005160
# 5 -0.007251 0.002936 0.000381 -0.005869 0.034639 0.006080
# 6 -0.001589 0.003197 -0.005273 -0.005160 0.006080 0.032627
#
#
# Mechanical properties :
#
#
# Convention : Reuss Voigt Hill
#
# Bulk Modulus (GPa) = 52.51773 56.99650 54.75711
# Shear Modulus (GPa) = 29.06093 35.11592 32.08843
#
# Velocity S-wave (km/s) = 3.62380 3.98347 3.80789
# Velocity P-wave (km/s) = 6.42190 6.84929 6.63904
#
# Compressibility (1/GPa) = 0.01904119
#
# Stress axis : x y z
#
# Youngs Moduli (GPa) = 66.63417 66.44105 64.24192
#
# Poissons Ratio (x) = 0.30546 0.11427
# Poissons Ratio (y) = 0.30635 0.44425
# Poissons Ratio (z) = 0.11853 0.45946
#
# Static dielectric constant tensor:
#      x y z
#    x 1.787960 -0.017600 0.009950 
#    y -0.017600 1.812740 0.047100 
#    z 0.009950 0.047100 1.838460 
# 
# From -- ./inp_files/306142.got.cif
#   From: 2010.05.17/outbox.cif.g08.bks.cpg/sg2_154_cif.got.tgz:306142.got - 2010.06.03 11:33:40.
