data_PCOD9060378
_publ_section_title
;
Structure prediction by ZEFSAII (Michael W. Deem and Ramdas Pophale) SiO2 
 PCOD9060378
Probable space group: P -1
;
_chemical_formula_sum "Si O2"
_cell_formula_units_Z 16
_cell_length_a 15.317872
_cell_length_b 11.349030
_cell_length_c 7.760467
_cell_angle_alpha 94.932408
_cell_angle_beta 92.835989
_cell_angle_gamma 150.206773
_cell_volume 646.524303
_symmetry_space_group_name_H-M "P -1"
_symmetry_group_IT_number 2
_symmetry_cell_setting 'triclinic'
loop_
_space_group_symop_operation_xyz
x,y,z
-x,-y,-z
loop_
_atom_site_type_symbol
_atom_site_label
_atom_site_fract_x
_atom_site_fract_y
_atom_site_fract_z
Si Si1 0.185696 0.519935 0.626584
Si Si2 0.522496 0.660548 0.450537
Si Si3 0.028900 0.210768 0.030920
Si Si4 0.664536 0.888248 0.852594
Si Si5 0.357450 0.916583 0.879395
Si Si6 0.657124 0.338836 0.696792
Si Si7 0.133427 0.001684 0.634464
Si Si8 0.275780 0.395406 0.809916
O O1 0.291850 0.665638 0.475399
O O2 0.285082 0.538042 0.752134
O O3 0.188404 0.641422 0.753935
O O4 0.999337 0.232820 0.524976
O O5 0.500000 0.500000 0.500000
O O6 0.604353 0.830849 0.641015
O O7 0.354152 0.535485 0.346813
O O8 0.672194 0.829087 0.338454
O O9 0.183028 0.490379 0.127646
O O10 0.948224 0.093806 0.196347
O O11 0.147483 0.254941 0.945787
O O12 0.852526 0.039659 0.886370
O O13 0.486534 0.612043 0.883473
O O14 0.693046 0.037864 0.990685
O O15 0.471198 0.093212 0.745021
O O16 0.500000 0.000000 0.000000
O O17 0.182000 0.197493 0.637363
#
# Coordination Sequence:
#
# PCOD9060378 Si02
#       8
#     2   2   2   2   2   2   2   2
#     4  11  23  43  70 104 138 195 241 298 366 431
#     4  12  24  46  75 108 147 196 245 297 370 443
#     4  11  26  44  70 112 145 188 246 299 374 437
#     4  12  25  45  73 105 141 195 241 298 371 428
#     4  12  23  46  74 103 149 195 246 302 365 435
#     4  11  23  45  71 106 149 191 242 307 363 429
#     4  11  25  42  70 104 145 186 244 304 364 437
#     4  12  22  47  70 102 149 186 240 307 372 427
#
# _framework density 24.747717000000002
#
# number of rings (size 3 to 8) (size 9 to 14) (size 15 to 20)
#    0.000    0.500    5.000    2.625    0.000    4.500 
#    0.000   12.500    0.000    0.000    0.000    0.000 
#    0.000    0.000    0.000    0.000    0.000    0.000 
#
# Total GULP energy -89365.730435 kJ/mol
# GULP energy per Si atom -5585.358152 kJ/mol
# Density = 2.469139 g / cm^3
# Si number density = 24.747717 Si / 1000 Ang^3
#
#
#
# Elastic Constant Matrix: (Units=GPa)
#
#
# Indices 1 2 3 4 5 6 
#
# 1 47.9533 33.7966 36.7352 8.8518 -13.7628 10.1322
# 2 33.7966 84.6494 56.4677 -5.2755 -15.1115 10.5985
# 3 36.7352 56.4677 132.6371 17.0870 -31.6642 4.3249
# 4 8.8518 -5.2755 17.0870 42.8806 -0.9500 -10.2141
# 5 -13.7628 -15.1115 -31.6642 -0.9500 50.6495 4.3079
# 6 10.1322 10.5985 4.3249 -10.2141 4.3079 40.9705
#
#
#
# Elastic Compliance Matrix: (Units=1/GPa)
#
#
# Indices 1 2 3 4 5 6 
#
# 1 0.035794 -0.011357 -0.002207 -0.009861 0.005514 -0.008720
# 2 -0.011357 0.021492 -0.007284 0.007890 -0.001088 0.000099
# 3 -0.002207 -0.007284 0.013373 -0.005893 0.005565 -0.001036
# 4 -0.009861 0.007890 -0.005893 0.030757 -0.004209 0.009130
# 5 0.005514 -0.001088 0.005565 -0.004209 0.024770 -0.005324
# 6 -0.008720 0.000099 -0.001036 0.009130 -0.005324 0.029484
#
#
# Mechanical properties :
#
#
# Convention : Reuss Voigt Hill
#
# Bulk Modulus (GPa) = 34.52688 57.69320 46.11004
# Shear Modulus (GPa) = 24.15234 36.11614 30.13424
#
# Velocity S-wave (km/s) = 3.12740 3.82432 3.49328
# Velocity P-wave (km/s) = 5.19833 6.54704 5.91127
#
# Compressibility (1/GPa) = 0.02896294
#
# Stress axis : x y z
#
# Youngs Moduli (GPa) = 27.93755 46.52996 74.77741
#
# Poissons Ratio (x) = 0.52843 0.16507
# Poissons Ratio (y) = 0.31728 0.54465
# Poissons Ratio (z) = 0.06167 0.33891
#
# Static dielectric constant tensor:
#      x y z
#    x 1.987510 -0.000630 0.025920 
#    y -0.000630 2.050470 0.029480 
#    z 0.025920 0.029480 1.970550 
# 
# From -- ./inp_files/308008.got.cif
#   From: 2010.05.17/outbox.cif.g08.bks.cpg/sg2_155_cif.got.tgz:308008.got - 2010.06.03 11:33:40.
