data_PCOD9060056
_publ_section_title
;
Structure prediction by ZEFSAII (Michael W. Deem and Ramdas Pophale) SiO2 
 PCOD9060056
Probable space group: P -1
;
_chemical_formula_sum "Si O2"
_cell_formula_units_Z 14
_cell_length_a 9.413044
_cell_length_b 6.957912
_cell_length_c 12.028218
_cell_angle_alpha 51.157970
_cell_angle_beta 108.035844
_cell_angle_gamma 88.972258
_cell_volume 558.999947
_symmetry_space_group_name_H-M "P -1"
_symmetry_group_IT_number 2
_symmetry_cell_setting 'triclinic'
loop_
_space_group_symop_operation_xyz
x,y,z
-x,-y,-z
loop_
_atom_site_type_symbol
_atom_site_label
_atom_site_fract_x
_atom_site_fract_y
_atom_site_fract_z
Si Si1 0.319884 0.511834 0.439892
Si Si2 0.176647 0.375642 0.655401
Si Si3 0.872395 0.085965 0.594535
Si Si4 0.849576 0.400399 0.107252
Si Si5 0.306174 0.546757 0.173793
Si Si6 0.857914 0.910906 0.047449
Si Si7 0.648735 0.317583 0.274394
O O1 0.500000 0.500000 0.500000
O O2 0.267277 0.321984 0.580802
O O3 0.279485 0.467718 0.320371
O O4 0.227538 0.793912 0.364567
O O5 0.113674 0.183949 0.783091
O O6 0.308988 0.438918 0.744969
O O7 0.059919 0.670431 0.510056
O O8 0.754380 0.094779 0.460320
O O9 0.996311 0.818653 0.740440
O O10 0.823131 0.435947 0.957251
O O11 0.152506 0.329277 0.939301
O O12 0.709973 0.312816 0.165817
O O13 0.467025 0.365926 0.230761
O O14 0.296050 0.847890 0.077868
O O15 0.000000 0.000000 0.000000
#
# Coordination Sequence:
#
# PCOD9060056 Si02
#       7
#     2   2   2   2   2   2   2
#     4   9  17  40  71 111 147 188 235 289 363 451
#     4   7  18  39  72 102 136 191 243 282 345 441
#     4   8  18  38  75 106 144 186 243 291 358 441
#     4  11  23  42  74 110 146 183 245 313 357 423
#     4  12  23  41  72 110 151 177 238 308 373 430
#     4  11  27  46  69 105 148 198 239 296 364 432
#     4   8  18  39  71 106 147 185 232 297 369 438
#
# _framework density 25.044726000000001
#
# number of rings (size 3 to 8) (size 9 to 14) (size 15 to 20)
#    1.714    0.571    2.857    0.857    2.000    2.857 
#    0.000    2.857    0.000    4.286    0.000    0.000 
#    0.000    0.000    0.000    0.000    0.000    0.000 
#
# Total GULP energy -78216.437026 kJ/mol
# GULP energy per Si atom -5586.888359 kJ/mol
# Density = 2.498772 g / cm^3
# Si number density = 25.044726 Si / 1000 Ang^3
#
#
#
# Elastic Constant Matrix: (Units=GPa)
#
#
# Indices 1 2 3 4 5 6 
#
# 1 84.7701 24.7105 59.8536 2.8315 -11.0282 -23.0100
# 2 24.7105 95.4662 43.8747 9.1913 -5.9370 -7.3088
# 3 59.8536 43.8747 151.9736 26.1390 -17.6616 -6.3988
# 4 2.8315 9.1913 26.1390 51.5485 -8.1442 -12.3771
# 5 -11.0282 -5.9370 -17.6616 -8.1442 35.8513 2.6191
# 6 -23.0100 -7.3088 -6.3988 -12.3771 2.6191 36.4337
#
#
#
# Elastic Compliance Matrix: (Units=1/GPa)
#
#
# Indices 1 2 3 4 5 6 
#
# 1 0.022540 -0.001167 -0.008857 0.007481 0.002998 0.014772
# 2 -0.001167 0.012261 -0.002969 -0.000350 0.000051 0.001079
# 3 -0.008857 -0.002969 0.011938 -0.006295 0.001699 -0.006353
# 4 0.007481 -0.000350 -0.006295 0.025777 0.004121 0.012010
# 5 0.002998 0.000051 0.001699 0.004121 0.030494 0.001410
# 6 0.014772 0.001079 -0.006353 0.012010 0.001410 0.039856
#
#
# Mechanical properties :
#
#
# Convention : Reuss Voigt Hill
#
# Bulk Modulus (GPa) = 48.18322 65.45417 56.81870
# Shear Modulus (GPa) = 28.44660 38.35142 33.39901
#
# Velocity S-wave (km/s) = 3.37387 3.91745 3.65578
# Velocity P-wave (km/s) = 5.87009 6.83034 6.36834
#
# Compressibility (1/GPa) = 0.02075411
#
# Stress axis : x y z
#
# Youngs Moduli (GPa) = 44.36555 81.56148 83.76636
#
# Poissons Ratio (x) = 0.09517 0.74190
# Poissons Ratio (y) = 0.05177 0.24867
# Poissons Ratio (z) = 0.39294 0.24213
#
# Static dielectric constant tensor:
#      x y z
#    x 2.039410 0.062260 0.005760 
#    y 0.062260 2.022060 0.018240 
#    z 0.005760 0.018240 2.018390 
# 
# From -- ./inp_files/418908.got.cif
#   From: 2010.05.17/outbox.cif.g08.bks.cpg/sg2_210_cif.got.tgz:418908.got - 2010.06.03 11:33:40.
