data_PCOD9060783
_publ_section_title
;
Structure prediction by ZEFSAII (Michael W. Deem and Ramdas Pophale) SiO2 
 PCOD9060783
Probable space group: P -1
;
_chemical_formula_sum "Si O2"
_cell_formula_units_Z 16
_cell_length_a 16.915748
_cell_length_b 11.579571
_cell_length_c 8.583600
_cell_angle_alpha 55.931617
_cell_angle_beta 54.139534
_cell_angle_gamma 34.391312
_cell_volume 758.769080
_symmetry_space_group_name_H-M "P -1"
_symmetry_group_IT_number 2
_symmetry_cell_setting 'triclinic'
loop_
_space_group_symop_operation_xyz
x,y,z
-x,-y,-z
loop_
_atom_site_type_symbol
_atom_site_label
_atom_site_fract_x
_atom_site_fract_y
_atom_site_fract_z
Si Si1 0.096970 0.296424 0.144589
Si Si2 0.617051 0.490114 0.667627
Si Si3 0.079779 0.776490 0.633010
Si Si4 0.627990 0.159196 0.864665
Si Si5 0.880064 0.203555 0.087987
Si Si6 0.162450 0.296642 0.410383
Si Si7 0.681406 0.153288 0.440264
Si Si8 0.334189 0.383338 0.175515
O O1 0.156593 0.308505 0.220015
O O2 0.994248 0.275629 0.326865
O O3 0.234161 0.079519 0.066176
O O4 0.000000 0.500000 0.000000
O O5 0.752205 0.387940 0.479369
O O6 0.627746 0.313289 0.824339
O O7 0.466003 0.678725 0.613700
O O8 0.632838 0.564914 0.746641
O O9 0.058790 0.787827 0.834174
O O10 0.000000 0.000000 0.500000
O O11 0.643875 0.170999 0.652306
O O12 0.480243 0.236424 0.016306
O O13 0.770895 0.199774 0.278334
O O14 0.792140 0.404114 0.933012
O O15 0.000000 0.000000 0.000000
O O16 0.275274 0.291710 0.344927
O O17 0.000000 0.500000 0.500000
O O18 0.220240 0.081661 0.547063
#
# Coordination Sequence:
#
# PCOD9060783 Si02
#       8
#     2   2   2   2   2   2   2   2
#     4  11  25  42  68  95 130 174 215 272 327 385
#     4  12  23  42  69  99 132 169 223 274 322 391
#     4  12  22  41  68  94 128 175 222 263 324 391
#     4  11  23  44  67  97 135 166 222 281 320 388
#     4  12  24  39  65  99 129 170 219 270 324 385
#     4  11  25  48  63  94 138 173 217 270 329 391
#     4  11  24  43  69  93 132 179 212 273 334 380
#     4  12  26  40  68  99 133 174 217 271 332 386
#
# _framework density 21.086783
#
# number of rings (size 3 to 8) (size 9 to 14) (size 15 to 20)
#    0.000    0.500    3.750    5.250    0.000    4.500 
#    0.000    0.000    0.000    0.000    0.000    0.000 
#    0.000    0.000    0.000    0.000    0.000    0.000 
#
# Total GULP energy -89587.316093 kJ/mol
# GULP energy per Si atom -5599.207256 kJ/mol
# Density = 2.103879 g / cm^3
# Si number density = 21.086783 Si / 1000 Ang^3
#
#
#
# Elastic Constant Matrix: (Units=GPa)
#
#
# Indices 1 2 3 4 5 6 
#
# 1 101.4899 19.6687 5.3822 0.0598 -0.2256 6.4697
# 2 19.6687 106.6949 0.7183 -8.9054 3.9231 -10.0363
# 3 5.3822 0.7183 26.9157 2.5425 1.6424 5.4727
# 4 0.0598 -8.9054 2.5425 47.1933 -6.1403 -4.5659
# 5 -0.2256 3.9231 1.6424 -6.1403 41.4474 -5.0032
# 6 6.4697 -10.0363 5.4727 -4.5659 -5.0032 32.7379
#
#
#
# Elastic Compliance Matrix: (Units=1/GPa)
#
#
# Indices 1 2 3 4 5 6 
#
# 1 0.010529 -0.002226 -0.001450 -0.000620 -0.000083 -0.002620
# 2 -0.002226 0.010377 -0.000881 0.002389 -0.000112 0.004084
# 3 -0.001450 -0.000881 0.039489 -0.003395 -0.002898 -0.007501
# 4 -0.000620 0.002389 -0.003395 0.022837 0.003917 0.005206
# 5 -0.000083 -0.000112 -0.002898 0.003917 0.025423 0.004898
# 6 -0.002620 0.004084 -0.007501 0.005206 0.004898 0.035044
#
#
# Mechanical properties :
#
#
# Convention : Reuss Voigt Hill
#
# Bulk Modulus (GPa) = 19.50059 31.84876 25.67468
# Shear Modulus (GPa) = 29.42795 38.23114 33.82954
#
# Velocity S-wave (km/s) = 3.73978 4.26260 4.00972
# Velocity P-wave (km/s) = 5.28354 6.27398 5.79994
#
# Compressibility (1/GPa) = 0.05128050
#
# Stress axis : x y z
#
# Youngs Moduli (GPa) = 94.97828 96.37096 25.32342
#
# Poissons Ratio (x) = 0.21455 0.03671
# Poissons Ratio (y) = 0.21145 0.02231
# Poissons Ratio (z) = 0.13769 0.08490
#
# Static dielectric constant tensor:
#      x y z
#    x 1.728380 0.014160 0.027520 
#    y 0.014160 1.743540 0.015850 
#    z 0.027520 0.015850 1.727170 
# 
# From -- ./inp_files/207713.got.cif
#   From: 2010.05.17/outbox.cif.g08.bks.cpg/sg2_104_cif.got.tgz:207713.got - 2010.06.03 11:33:40.
