data_PCOD9060939
_publ_section_title
;
Structure prediction by ZEFSAII (Michael W. Deem and Ramdas Pophale) SiO2 
 PCOD9060939
Probable space group: P -1
;
_chemical_formula_sum "Si O2"
_cell_formula_units_Z 16
_cell_length_a 12.159670
_cell_length_b 17.598114
_cell_length_c 9.339434
_cell_angle_alpha 131.422067
_cell_angle_beta 29.636675
_cell_angle_gamma 134.885635
_cell_volume 693.537017
_symmetry_space_group_name_H-M "P -1"
_symmetry_group_IT_number 2
_symmetry_cell_setting 'triclinic'
loop_
_space_group_symop_operation_xyz
x,y,z
-x,-y,-z
loop_
_atom_site_type_symbol
_atom_site_label
_atom_site_fract_x
_atom_site_fract_y
_atom_site_fract_z
Si Si1 0.366640 0.115723 0.919327
Si Si2 0.628335 0.185954 0.250812
Si Si3 0.804163 0.705354 0.793486
Si Si4 0.136592 0.308769 0.761370
Si Si5 0.836753 0.550139 0.340926
Si Si6 0.816107 0.112531 0.230553
Si Si7 0.741676 0.906820 0.666639
Si Si8 0.562832 0.625544 0.237689
O O1 0.599631 0.111117 0.574443
O O2 0.162889 0.005306 0.955585
O O3 0.316694 0.224252 0.073619
O O4 0.384213 0.101919 0.050369
O O5 0.745707 0.141287 0.189235
O O6 0.433455 0.093686 0.265558
O O7 0.503163 0.265615 0.552958
O O8 0.853422 0.260612 0.996630
O O9 0.937444 0.648075 0.465620
O O10 0.966575 0.792936 0.830123
O O11 0.623686 0.616182 0.991101
O O12 0.263509 0.393514 0.600543
O O13 0.218161 0.206544 0.537016
O O14 0.209215 0.359988 0.900134
O O15 0.648782 0.459649 0.538009
O O16 0.000000 0.500000 0.000000
O O17 0.000000 0.000000 0.500000
#
# Coordination Sequence:
#
# PCOD9060939 Si02
#       8
#     2   2   2   2   2   2   2   2
#     4  11  25  43  68 105 143 186 231 280 359 425
#     4  11  23  44  70 104 145 178 242 287 348 420
#     4  12  25  47  72 103 148 184 242 289 359 428
#     4  11  23  45  70 101 142 188 233 298 352 419
#     4  12  26  47  73 105 140 188 244 306 356 414
#     4  11  25  44  71 104 143 191 227 292 347 431
#     4  11  26  42  72 106 143 188 228 286 358 423
#     4  11  24  45  72  99 138 194 237 291 364 416
#
# _framework density 23.070146000000001
#
# number of rings (size 3 to 8) (size 9 to 14) (size 15 to 20)
#    0.000    0.750    5.000    1.875    3.500    4.000 
#    2.250    1.250    0.000    0.000    0.000    0.000 
#    0.000    0.000    0.000    0.000    0.000    0.000 
#
# Total GULP energy -89357.254052 kJ/mol
# GULP energy per Si atom -5584.828378 kJ/mol
# Density = 2.301764 g / cm^3
# Si number density = 23.070146 Si / 1000 Ang^3
#
#
#
# Elastic Constant Matrix: (Units=GPa)
#
#
# Indices 1 2 3 4 5 6 
#
# 1 75.9773 12.9776 26.7689 -4.6781 16.9516 -16.0810
# 2 12.9776 82.3853 41.9761 -6.2980 9.8510 -16.2267
# 3 26.7689 41.9761 103.4537 5.8443 30.5848 1.5514
# 4 -4.6781 -6.2980 5.8443 34.3427 -0.9765 2.9696
# 5 16.9516 9.8510 30.5848 -0.9765 36.2594 -8.8497
# 6 -16.0810 -16.2267 1.5514 2.9696 -8.8497 32.2440
#
#
#
# Elastic Compliance Matrix: (Units=1/GPa)
#
#
# Indices 1 2 3 4 5 6 
#
# 1 0.017075 0.002023 -0.004887 0.002695 -0.002158 0.008929
# 2 0.002023 0.019284 -0.010528 0.004698 0.005846 0.012392
# 3 -0.004887 -0.010528 0.020119 -0.005381 -0.014976 -0.012318
# 4 0.002695 0.004698 -0.005381 0.031184 0.003333 0.002010
# 5 -0.002158 0.005846 -0.014976 0.003333 0.043170 0.014128
# 6 0.008929 0.012392 -0.012318 0.002010 0.014128 0.045988
#
#
# Mechanical properties :
#
#
# Convention : Reuss Voigt Hill
#
# Bulk Modulus (GPa) = 33.67595 47.25127 40.46361
# Shear Modulus (GPa) = 23.41904 32.57547 27.99725
#
# Velocity S-wave (km/s) = 3.18956 3.76176 3.48741
# Velocity P-wave (km/s) = 5.30973 6.27645 5.81322
#
# Compressibility (1/GPa) = 0.02969478
#
# Stress axis : x y z
#
# Youngs Moduli (GPa) = 58.56346 51.85595 49.70542
#
# Poissons Ratio (x) = -0.10491 0.24292
# Poissons Ratio (y) = -0.11848 0.52328
# Poissons Ratio (z) = 0.28621 0.54591
#
# Static dielectric constant tensor:
#      x y z
#    x 1.878760 0.034440 0.011390 
#    y 0.034440 1.966320 -0.025700 
#    z 0.011390 -0.025700 1.880980 
# 
# From -- ./inp_files/139583.got.cif
#   From: 2010.05.17/outbox.cif.g08.bks.cpg/sg2_70_cif.got.tgz:139583.got - 2010.06.03 11:33:40.
