data_PCOD9060862
_publ_section_title
;
Structure prediction by ZEFSAII (Michael W. Deem and Ramdas Pophale) SiO2 
 PCOD9060862
Probable space group: P -1
;
_chemical_formula_sum "Si O2"
_cell_formula_units_Z 16
_cell_length_a 12.424118
_cell_length_b 7.407407
_cell_length_c 15.383824
_cell_angle_alpha 106.771202
_cell_angle_beta 43.685867
_cell_angle_gamma 74.559894
_cell_volume 651.609011
_symmetry_space_group_name_H-M "P -1"
_symmetry_group_IT_number 2
_symmetry_cell_setting 'triclinic'
loop_
_space_group_symop_operation_xyz
x,y,z
-x,-y,-z
loop_
_atom_site_type_symbol
_atom_site_label
_atom_site_fract_x
_atom_site_fract_y
_atom_site_fract_z
Si Si1 0.795394 0.008259 0.579701
Si Si2 0.901823 0.343731 0.811268
Si Si3 0.419005 0.205760 0.374412
Si Si4 0.256767 0.294130 0.668970
Si Si5 0.742214 0.882926 0.924206
Si Si6 0.044483 0.654450 0.545861
Si Si7 0.471894 0.584217 0.926014
Si Si8 0.919885 0.862811 0.002512
O O1 0.640414 0.954549 0.647128
O O2 0.963455 0.846694 0.377748
O O3 0.940373 0.879404 0.565647
O O4 0.631008 0.324475 0.735803
O O5 0.082475 0.276379 0.759889
O O6 0.744369 0.659098 0.918162
O O7 0.773991 0.288626 0.925487
O O8 0.288411 0.350597 0.561127
O O9 0.294748 0.444962 0.409251
O O10 0.683209 0.010113 0.205597
O O11 0.140211 0.538905 0.837193
O O12 0.500000 0.000000 0.500000
O O13 0.846398 0.892963 0.949299
O O14 0.525498 0.196116 0.067297
O O15 0.891727 0.776505 0.737046
O O16 0.000000 0.500000 0.500000
O O17 0.500000 0.500000 0.000000
O O18 0.000000 0.000000 0.000000
#
# Coordination Sequence:
#
# PCOD9060862 Si02
#       8
#     2   2   2   2   2   2   2   2
#     4  10  20  41  65  96 133 170 221 268 330 398
#     4  10  23  45  66  90 134 179 218 269 330 402
#     4  10  21  41  70  93 128 180 225 268 332 404
#     4  10  22  44  67  94 124 171 227 277 336 391
#     4  11  22  46  64  96 138 170 227 273 324 400
#     4  10  17  39  69  95 127 175 221 267 326 400
#     4  12  26  39  61 104 138 170 219 275 324 396
#     4  11  25  43  64  96 130 174 227 276 335 395
#
# _framework density 24.554600000000001
#
# number of rings (size 3 to 8) (size 9 to 14) (size 15 to 20)
#    0.000    1.500    6.250    1.500    0.000    6.000 
#    4.500    0.000    0.000    0.000    0.000    0.000 
#    0.000    0.000    0.000    0.000    0.000    0.000 
#
# Total GULP energy -89396.088586 kJ/mol
# GULP energy per Si atom -5587.255537 kJ/mol
# Density = 2.449871 g / cm^3
# Si number density = 24.554600 Si / 1000 Ang^3
#
#
#
# Elastic Constant Matrix: (Units=GPa)
#
#
# Indices 1 2 3 4 5 6 
#
# 1 80.9528 -3.5569 11.6009 4.6329 -7.2650 25.2603
# 2 -3.5569 72.9315 14.2309 20.5518 -6.3164 9.9833
# 3 11.6009 14.2309 116.5964 3.8249 -3.4372 20.8461
# 4 4.6329 20.5518 3.8249 46.4328 -0.0661 3.5580
# 5 -7.2650 -6.3164 -3.4372 -0.0661 50.4037 2.5604
# 6 25.2603 9.9833 20.8461 3.5580 2.5604 36.6526
#
#
#
# Elastic Compliance Matrix: (Units=1/GPa)
#
#
# Indices 1 2 3 4 5 6 
#
# 1 0.016901 0.003450 0.000369 -0.002256 0.003542 -0.012826
# 2 0.003450 0.017244 -0.001055 -0.007429 0.002879 -0.005955
# 3 0.000369 -0.001055 0.009683 0.000058 0.000863 -0.005540
# 4 -0.002256 -0.007429 0.000058 0.024950 -0.001281 0.001213
# 5 0.003542 0.002879 0.000863 -0.001281 0.021025 -0.005060
# 6 -0.012826 -0.005955 -0.005540 0.001213 -0.005060 0.041131
#
#
# Mechanical properties :
#
#
# Convention : Reuss Voigt Hill
#
# Bulk Modulus (GPa) = 20.26091 35.00339 27.63215
# Shear Modulus (GPa) = 35.24690 43.24488 39.24589
#
# Velocity S-wave (km/s) = 3.79284 4.20118 4.00223
# Velocity P-wave (km/s) = 5.23929 6.14976 5.71269
#
# Compressibility (1/GPa) = 0.04935613
#
# Stress axis : x y z
#
# Youngs Moduli (GPa) = 59.16901 57.99250 103.27800
#
# Poissons Ratio (x) = -0.20010 -0.03809
# Poissons Ratio (y) = -0.20416 0.10893
# Poissons Ratio (z) = -0.02182 0.06117
#
# Static dielectric constant tensor:
#      x y z
#    x 1.991980 0.057100 -0.091010 
#    y 0.057100 2.251330 -0.046260 
#    z -0.091010 -0.046260 2.038130 
# 
# From -- ./inp_files/515867.got.cif
#   From: 2010.05.17/outbox.cif.g08.bks.cpg/sg2_258_cif.got.tgz:515867.got - 2010.06.03 11:33:40.
