data_PCOD9060101
_publ_section_title
;
Structure prediction by ZEFSAII (Michael W. Deem and Ramdas Pophale) SiO2 
 PCOD9060101
Probable space group: P -1
;
_chemical_formula_sum "Si O2"
_cell_formula_units_Z 14
_cell_length_a 24.285457
_cell_length_b 9.911868
_cell_length_c 7.054431
_cell_angle_alpha 47.335009
_cell_angle_beta 45.689223
_cell_angle_gamma 35.417647
_cell_volume 679.690505
_symmetry_space_group_name_H-M "P -1"
_symmetry_group_IT_number 2
_symmetry_cell_setting 'triclinic'
loop_
_space_group_symop_operation_xyz
x,y,z
-x,-y,-z
loop_
_atom_site_type_symbol
_atom_site_label
_atom_site_fract_x
_atom_site_fract_y
_atom_site_fract_z
Si Si1 0.507739 0.397436 0.373829
Si Si2 0.609154 0.906294 0.760115
Si Si3 0.779729 0.379028 0.684825
Si Si4 0.750010 0.876684 0.762007
Si Si5 0.127907 0.963530 0.844288
Si Si6 0.352858 0.669043 0.198125
Si Si7 0.107333 0.655034 0.899899
O O1 0.500000 0.500000 0.500000
O O2 0.400976 0.512615 0.424255
O O3 0.579206 0.112584 0.490833
O O4 0.559779 0.459054 0.047729
O O5 0.684716 0.643969 0.735176
O O6 0.671407 0.901802 0.785875
O O7 0.500000 0.000000 0.000000
O O8 0.735774 0.303859 0.711350
O O9 0.858312 0.373463 0.374192
O O10 0.828370 0.200802 0.916020
O O11 0.807852 0.956899 0.444651
O O12 0.686629 0.070653 0.896292
O O13 0.827787 0.607375 0.911408
O O14 0.126994 0.810464 0.826915
O O15 0.011826 0.198217 0.937472
#
# Coordination Sequence:
#
# PCOD9060101 Si02
#       7
#     2   2   2   2   2   2   2
#     4  11  23  43  63  96 138 185 238 286 343 405
#     4  12  27  41  71 101 146 188 232 289 346 422
#     4  12  25  46  71 106 143 185 237 295 355 419
#     4  12  24  48  72 105 143 191 235 287 363 423
#     4  11  25  48  75 105 145 184 232 305 362 418
#     4  11  25  40  71  97 136 189 235 285 346 423
#     4  11  25  47  75 109 140 182 241 298 360 423
#
# _framework density 20.597611000000001
#
# number of rings (size 3 to 8) (size 9 to 14) (size 15 to 20)
#    0.000    0.571    4.286    3.429    6.000    0.571 
#    0.000    1.429    0.000    0.000    0.000    0.000 
#    0.000    0.000    0.000    0.000    0.000    0.000 
#
# Total GULP energy -78267.274007 kJ/mol
# GULP energy per Si atom -5590.519572 kJ/mol
# Density = 2.055073 g / cm^3
# Si number density = 20.597611 Si / 1000 Ang^3
#
#
#
# Elastic Constant Matrix: (Units=GPa)
#
#
# Indices 1 2 3 4 5 6 
#
# 1 100.5169 40.9593 45.9544 9.6648 9.2500 -5.8696
# 2 40.9593 144.6438 46.5846 1.9929 11.5643 -8.1829
# 3 45.9544 46.5846 128.0754 18.4254 0.9877 -8.6362
# 4 9.6648 1.9929 18.4254 33.9102 4.1072 2.4705
# 5 9.2500 11.5643 0.9877 4.1072 20.3259 2.0259
# 6 -5.8696 -8.1829 -8.6362 2.4705 2.0259 33.2872
#
#
#
# Elastic Compliance Matrix: (Units=1/GPa)
#
#
# Indices 1 2 3 4 5 6 
#
# 1 0.013056 -0.002083 -0.003644 -0.001166 -0.004464 0.001203
# 2 -0.002083 0.008733 -0.002590 0.001932 -0.004408 0.001233
# 3 -0.003644 -0.002590 0.010908 -0.005286 0.003497 0.001730
# 4 -0.001166 0.001932 -0.005286 0.033635 -0.006791 -0.003185
# 5 -0.004464 -0.004408 0.003497 -0.006791 0.055322 -0.003826
# 6 0.001203 0.001233 0.001730 -0.003185 -0.003826 0.031475
#
#
# Mechanical properties :
#
#
# Convention : Reuss Voigt Hill
#
# Bulk Modulus (GPa) = 62.25190 71.13697 66.69444
# Shear Modulus (GPa) = 28.55258 33.48718 31.01988
#
# Velocity S-wave (km/s) = 3.72722 4.03647 3.88492
# Velocity P-wave (km/s) = 6.98651 7.50571 7.25076
#
# Compressibility (1/GPa) = 0.01606377
#
# Stress axis : x y z
#
# Youngs Moduli (GPa) = 76.59140 114.50889 91.67999
#
# Poissons Ratio (x) = 0.23847 0.33408
# Poissons Ratio (y) = 0.15951 0.23745
# Poissons Ratio (z) = 0.27909 0.29657
#
# Static dielectric constant tensor:
#      x y z
#    x 1.745100 -0.008830 -0.036250 
#    y -0.008830 1.724300 0.017120 
#    z -0.036250 0.017120 1.776070 
# 
# From -- ./inp_files/48382.got.cif
#   From: 2010.05.17/outbox.cif.g08.bks.cpg/sg2_25_cif.got.tgz:48382.got - 2010.06.03 11:33:40.
