data_PCOD9060143
_publ_section_title
;
Structure prediction by ZEFSAII (Michael W. Deem and Ramdas Pophale) SiO2 
 PCOD9060143
Probable space group: P -1
;
_chemical_formula_sum "Si O2"
_cell_formula_units_Z 16
_cell_length_a 6.374864
_cell_length_b 18.611896
_cell_length_c 9.214024
_cell_angle_alpha 103.021438
_cell_angle_beta 125.285294
_cell_angle_gamma 103.011696
_cell_volume 777.849490
_symmetry_space_group_name_H-M "P -1"
_symmetry_group_IT_number 2
_symmetry_cell_setting 'triclinic'
loop_
_space_group_symop_operation_xyz
x,y,z
-x,-y,-z
loop_
_atom_site_type_symbol
_atom_site_label
_atom_site_fract_x
_atom_site_fract_y
_atom_site_fract_z
Si Si1 0.486286 0.346801 0.075268
Si Si2 0.361952 0.408343 0.337885
Si Si3 0.513565 0.089993 0.069947
Si Si4 0.806311 0.263070 0.785558
Si Si5 0.172654 0.584504 0.025982
Si Si6 0.869706 0.251663 0.142865
Si Si7 0.955629 0.037074 0.649194
Si Si8 0.489468 0.894115 0.582111
O O1 0.541092 0.395163 0.272252
O O2 0.608517 0.406361 0.010921
O O3 0.650490 0.289423 0.119774
O O4 0.143097 0.297474 0.894808
O O5 0.500000 0.500000 0.500000
O O6 0.079123 0.404141 0.148696
O O7 0.198817 0.323481 0.325995
O O8 0.797166 0.167757 0.160793
O O9 0.479212 0.101946 0.231291
O O10 0.255352 0.090680 0.871694
O O11 0.500000 0.000000 0.000000
O O12 0.600648 0.194134 0.564139
O O13 0.711723 0.336732 0.787458
O O14 0.799047 0.230629 0.933345
O O15 0.000000 0.500000 0.000000
O O16 0.770055 0.084755 0.558781
O O17 0.771481 0.963053 0.650969
O O18 0.000000 0.000000 0.500000
#
# Coordination Sequence:
#
# PCOD9060143 Si02
#       8
#     2   2   2   2   2   2   2   2
#     4   8  17  37  61  79 115 165 189 241 311 359
#     4   9  19  37  59  88 116 155 198 244 304 366
#     4  12  24  43  62  95 130 162 213 261 308 376
#     4   9  19  37  61  83 118 158 207 245 303 372
#     4   9  19  36  56  87 116 152 194 245 303 372
#     4   9  20  38  60  83 123 162 202 251 303 369
#     4  11  23  43  66  85 127 169 202 264 312 367
#     4  11  24  41  64  95 119 165 214 256 317 366
#
# _framework density 20.569531000000001
#
# number of rings (size 3 to 8) (size 9 to 14) (size 15 to 20)
#    0.000    2.750    1.250    1.875    1.750    5.000 
#   11.250    0.000    0.000    0.000    0.000    0.000 
#    0.000    0.000    0.000    0.000    0.000    0.000 
#
# Total GULP energy -89174.948565 kJ/mol
# GULP energy per Si atom -5573.434285 kJ/mol
# Density = 2.052271 g / cm^3
# Si number density = 20.569531 Si / 1000 Ang^3
#
#
#
# Elastic Constant Matrix: (Units=GPa)
#
#
# Indices 1 2 3 4 5 6 
#
# 1 94.3876 37.4706 28.8591 7.3978 -24.4775 22.5669
# 2 37.4706 126.7863 37.9474 21.0361 -23.4826 32.3260
# 3 28.8591 37.9474 113.7057 21.8653 -29.7435 7.0763
# 4 7.3978 21.0361 21.8653 32.4430 -6.9492 -4.6318
# 5 -24.4775 -23.4826 -29.7435 -6.9492 32.1523 -6.2124
# 6 22.5669 32.3260 7.0763 -4.6318 -6.2124 23.7023
#
#
#
# Elastic Compliance Matrix: (Units=1/GPa)
#
#
# Indices 1 2 3 4 5 6 
#
# 1 0.016982 0.002370 -0.000386 -0.005636 0.009633 -0.017862
# 2 0.002370 0.017965 -0.000515 -0.014559 0.005911 -0.027899
# 3 -0.000386 -0.000515 0.012904 -0.006442 0.009580 -0.001531
# 4 -0.005636 -0.014559 -0.006442 0.050420 -0.002988 0.036214
# 5 0.009633 0.005911 0.009580 -0.002988 0.049480 -0.007709
# 6 -0.017862 -0.027899 -0.001531 0.036214 -0.007709 0.102760
#
#
# Mechanical properties :
#
#
# Convention : Reuss Voigt Hill
#
# Bulk Modulus (GPa) = 19.68889 60.38153 40.03521
# Shear Modulus (GPa) = 18.90346 33.03302 25.96824
#
# Velocity S-wave (km/s) = 3.03479 4.01174 3.55697
# Velocity P-wave (km/s) = 4.67682 7.13283 6.03117
#
# Compressibility (1/GPa) = 0.05079007
#
# Stress axis : x y z
#
# Youngs Moduli (GPa) = 58.88499 55.66499 77.49368
#
# Poissons Ratio (x) = -0.13193 0.02990
# Poissons Ratio (y) = -0.13956 0.03989
# Poissons Ratio (z) = 0.02272 0.02865
#
# Static dielectric constant tensor:
#      x y z
#    x 1.784250 0.017050 -0.042350 
#    y 0.017050 1.977630 0.104560 
#    z -0.042350 0.104560 1.773230 
# 
# From -- ./inp_files/140747.got.cif
#   From: 2010.05.17/outbox.cif.g08.bks.cpg/sg2_71_cif.got.tgz:140747.got - 2010.06.03 11:33:40.
