data_PCOD9060792
_publ_section_title
;
Structure prediction by ZEFSAII (Michael W. Deem and Ramdas Pophale) SiO2 
 PCOD9060792
Probable space group: P -1
;
_chemical_formula_sum "Si O2"
_cell_formula_units_Z 14
_cell_length_a 5.514878
_cell_length_b 20.493508
_cell_length_c 9.276215
_cell_angle_alpha 141.434171
_cell_angle_beta 107.506697
_cell_angle_gamma 87.212424
_cell_volume 591.821462
_symmetry_space_group_name_H-M "P -1"
_symmetry_group_IT_number 2
_symmetry_cell_setting 'triclinic'
loop_
_space_group_symop_operation_xyz
x,y,z
-x,-y,-z
loop_
_atom_site_type_symbol
_atom_site_label
_atom_site_fract_x
_atom_site_fract_y
_atom_site_fract_z
Si Si1 0.001174 0.327720 0.953954
Si Si2 0.167654 0.116081 0.666399
Si Si3 0.932076 0.350115 0.288142
Si Si4 0.641784 0.148261 0.029761
Si Si5 0.597804 0.275957 0.532579
Si Si6 0.562560 0.445741 0.599880
Si Si7 0.240447 0.066713 0.262296
O O1 0.042552 0.214008 0.811323
O O2 0.838036 0.311222 0.749399
O O3 0.848824 0.352542 0.110642
O O4 0.276273 0.425527 0.147494
O O5 0.194212 0.091323 0.461078
O O6 0.425924 0.152948 0.879113
O O7 0.000000 0.000000 0.500000
O O8 0.249429 0.415671 0.455099
O O9 0.907847 0.227798 0.135884
O O10 0.741956 0.396025 0.436571
O O11 0.637373 0.207175 0.282049
O O12 0.597941 0.021292 0.841171
O O13 0.559025 0.385363 0.648012
O O14 0.364976 0.185777 0.419471
O O15 0.000000 0.000000 0.000000
#
# Coordination Sequence:
#
# PCOD9060792 Si02
#       7
#     2   2   2   2   2   2   2
#     4  12  24  44  69 101 137 183 236 293 353 419
#     4  12  25  43  69 102 139 187 237 292 352 422
#     4  11  24  46  73 103 139 187 236 290 350 421
#     4  11  23  44  67  99 142 186 234 292 352 421
#     4  11  24  42  65 101 140 184 232 292 353 418
#     4  11  26  47  72 103 143 187 235 291 353 421
#     4  12  23  40  67 101 139 186 234 292 354 420
#
# _framework density 23.655784000000001
#
# number of rings (size 3 to 8) (size 9 to 14) (size 15 to 20)
#    0.000    0.571    0.000    9.000    0.000    3.429 
#    0.000    4.286    0.000    0.000    0.000    0.000 
#    0.000    0.000    0.000    0.000    0.000    0.000 
#
# Total GULP energy -78289.570017 kJ/mol
# GULP energy per Si atom -5592.112144 kJ/mol
# Density = 2.360194 g / cm^3
# Si number density = 23.655784 Si / 1000 Ang^3
#
#
#
# Elastic Constant Matrix: (Units=GPa)
#
#
# Indices 1 2 3 4 5 6 
#
# 1 66.2000 36.2035 51.8671 -19.7090 7.8172 6.5252
# 2 36.2035 200.9020 65.8356 -8.2712 3.1111 21.3394
# 3 51.8671 65.8356 129.4682 -22.3006 18.3944 12.6536
# 4 -19.7090 -8.2712 -22.3006 69.4490 4.1722 2.0639
# 5 7.8172 3.1111 18.3944 4.1722 30.8019 5.5765
# 6 6.5252 21.3394 12.6536 2.0639 5.5765 47.7884
#
#
#
# Elastic Compliance Matrix: (Units=1/GPa)
#
#
# Indices 1 2 3 4 5 6 
#
# 1 0.023345 -0.001465 -0.007606 0.004125 -0.001703 -0.000499
# 2 -0.001465 0.006324 -0.002796 -0.000610 0.001861 -0.002074
# 3 -0.007606 -0.002796 0.013499 0.002225 -0.006027 -0.000680
# 4 0.004125 -0.000610 0.002225 0.016505 -0.004354 -0.001085
# 5 -0.001703 0.001861 -0.006027 -0.004354 0.037476 -0.003188
# 6 -0.000499 -0.002074 -0.000680 -0.001085 -0.003188 0.022519
#
#
# Mechanical properties :
#
#
# Convention : Reuss Voigt Hill
#
# Bulk Modulus (GPa) = 51.45664 78.26473 64.86069
# Shear Modulus (GPa) = 33.36027 45.78546 39.57287
#
# Velocity S-wave (km/s) = 3.75939 4.40419 4.09450
# Velocity P-wave (km/s) = 6.37522 7.68239 7.05913
#
# Compressibility (1/GPa) = 0.01943384
#
# Stress axis : x y z
#
# Youngs Moduli (GPa) = 42.83646 158.12471 74.08149
#
# Poissons Ratio (x) = 0.23168 0.56346
# Poissons Ratio (y) = 0.06276 0.20711
# Poissons Ratio (z) = 0.32581 0.44207
#
# Static dielectric constant tensor:
#      x y z
#    x 1.941390 0.326360 -0.200760 
#    y 0.326360 -1.720510 1.897850 
#    z -0.200760 1.897850 1.071610 
# 
# From -- ./inp_files/141755.got.cif
#   From: 2010.05.17/outbox.cif.g08.bks.cpg/sg2_71_cif.got.tgz:141755.got - 2010.06.03 11:33:40.
