data_PCOD9060197
_publ_section_title
;
Structure prediction by ZEFSAII (Michael W. Deem and Ramdas Pophale) SiO2 
 PCOD9060197
Probable space group: P -1
;
_chemical_formula_sum "Si O2"
_cell_formula_units_Z 16
_cell_length_a 9.857925
_cell_length_b 5.464202
_cell_length_c 17.058706
_cell_angle_alpha 116.744633
_cell_angle_beta 60.584016
_cell_angle_gamma 105.689432
_cell_volume 713.344034
_symmetry_space_group_name_H-M "P -1"
_symmetry_group_IT_number 2
_symmetry_cell_setting 'triclinic'
loop_
_space_group_symop_operation_xyz
x,y,z
-x,-y,-z
loop_
_atom_site_type_symbol
_atom_site_label
_atom_site_fract_x
_atom_site_fract_y
_atom_site_fract_z
Si Si1 0.714911 0.665554 0.921018
Si Si2 0.219009 0.779780 0.410941
Si Si3 0.218856 0.199762 0.252302
Si Si4 0.003860 0.668088 0.941876
Si Si5 0.486120 0.148375 0.872569
Si Si6 0.960015 0.908490 0.374967
Si Si7 0.249349 0.495793 0.718374
Si Si8 0.426680 0.055489 0.703052
O O1 0.790455 0.743995 0.828738
O O2 0.584782 0.431622 0.901346
O O3 0.846204 0.565162 0.926307
O O4 0.631411 0.896025 0.027792
O O5 0.224600 0.458349 0.346266
O O6 0.389074 0.921172 0.365203
O O7 0.091555 0.863266 0.395855
O O8 0.154318 0.873513 0.525967
O O9 0.383771 0.069647 0.199346
O O10 0.063794 0.017300 0.289282
O O11 0.147536 0.607097 0.835180
O O12 0.000000 0.500000 0.000000
O O13 0.000000 0.000000 0.000000
O O14 0.406630 0.167445 0.813643
O O15 0.862221 0.637341 0.336507
O O16 0.344141 0.250359 0.693345
O O17 0.355647 0.744024 0.685728
#
# Coordination Sequence:
#
# PCOD9060197 Si02
#       8
#     2   2   2   2   2   2   2   2
#     4  11  25  40  72 103 144 196 249 298 363 437
#     4  11  25  48  76 106 140 195 250 314 375 435
#     4  12  21  44  74 106 143 189 250 312 362 438
#     4  12  27  47  69 105 152 202 244 295 366 449
#     4  11  23  43  67 108 143 191 243 307 357 443
#     4  11  27  47  75 106 144 192 253 310 374 449
#     4  12  28  48  74 108 154 198 241 307 378 443
#     4  12  26  49  75 108 153 194 246 307 376 440
#
# _framework density 22.429572
#
# number of rings (size 3 to 8) (size 9 to 14) (size 15 to 20)
#    0.000    0.500    2.500    5.250    7.000    1.000 
#    0.000    0.000    0.000    0.000    0.000    0.000 
#    0.000    0.000    0.000    0.000    0.000    0.000 
#
# Total GULP energy -89530.882142 kJ/mol
# GULP energy per Si atom -5595.680134 kJ/mol
# Density = 2.237852 g / cm^3
# Si number density = 22.429572 Si / 1000 Ang^3
#
#
#
# Elastic Constant Matrix: (Units=GPa)
#
#
# Indices 1 2 3 4 5 6 
#
# 1 106.3444 43.2284 -1.4190 9.4871 7.1429 6.5286
# 2 43.2284 104.1566 20.4821 3.2403 -6.3267 14.2972
# 3 -1.4190 20.4821 127.5554 -12.4122 -37.4970 7.0764
# 4 9.4871 3.2403 -12.4122 39.2558 0.3512 -9.2580
# 5 7.1429 -6.3267 -37.4970 0.3512 28.9976 -3.9947
# 6 6.5286 14.2972 7.0764 -9.2580 -3.9947 42.2065
#
#
#
# Elastic Compliance Matrix: (Units=1/GPa)
#
#
# Indices 1 2 3 4 5 6 
#
# 1 0.012088 -0.004906 -0.000861 -0.003031 -0.005293 -0.001229
# 2 -0.004906 0.012526 -0.001555 -0.001139 0.001485 -0.003333
# 3 -0.000861 -0.001555 0.013667 0.004755 0.017637 0.001081
# 4 -0.003031 -0.001139 0.004755 0.029438 0.007283 0.007204
# 5 -0.005293 0.001485 0.017637 0.007283 0.059464 0.004584
# 6 -0.001229 -0.003333 0.001081 0.007204 0.004584 0.026845
#
#
# Mechanical properties :
#
#
# Convention : Reuss Voigt Hill
#
# Bulk Modulus (GPa) = 42.30634 51.40437 46.85536
# Shear Modulus (GPa) = 28.32047 40.47631 34.39839
#
# Velocity S-wave (km/s) = 3.55722 4.25266 3.92039
# Velocity P-wave (km/s) = 5.98118 6.86159 6.43646
#
# Compressibility (1/GPa) = 0.02363712
#
# Stress axis : x y z
#
# Youngs Moduli (GPa) = 82.72937 79.83350 73.16650
#
# Poissons Ratio (x) = 0.39166 0.06296
# Poissons Ratio (y) = 0.40587 0.11381
# Poissons Ratio (z) = 0.07119 0.12418
#
# Static dielectric constant tensor:
#      x y z
#    x 1.843550 -0.017740 -0.010750 
#    y -0.017740 1.841250 0.017060 
#    z -0.010750 0.017060 1.858220 
# 
# From -- ./inp_files/143432.got.cif
#   From: 2010.05.17/outbox.cif.g08.bks.cpg/sg2_72_cif.got.tgz:143432.got - 2010.06.03 11:33:40.
