data_PCOD9060702
_publ_section_title
;
Structure prediction by ZEFSAII (Michael W. Deem and Ramdas Pophale) SiO2 
 PCOD9060702
Probable space group: P -1
;
_chemical_formula_sum "Si O2"
_cell_formula_units_Z 16
_cell_length_a 7.465485
_cell_length_b 11.932361
_cell_length_c 11.988924
_cell_angle_alpha 120.646140
_cell_angle_beta 83.884424
_cell_angle_gamma 56.039582
_cell_volume 637.304482
_symmetry_space_group_name_H-M "P -1"
_symmetry_group_IT_number 2
_symmetry_cell_setting 'triclinic'
loop_
_space_group_symop_operation_xyz
x,y,z
-x,-y,-z
loop_
_atom_site_type_symbol
_atom_site_label
_atom_site_fract_x
_atom_site_fract_y
_atom_site_fract_z
Si Si1 0.545146 0.096297 0.196573
Si Si2 0.418888 0.434196 0.686226
Si Si3 0.012319 0.842695 0.892040
Si Si4 0.083916 0.218767 0.647946
Si Si5 0.279709 0.724889 0.609503
Si Si6 0.520657 0.090536 0.713966
Si Si7 0.045312 0.480424 0.352630
Si Si8 0.623386 0.310183 0.838995
O O1 0.641746 0.177162 0.294907
O O2 0.462566 0.039597 0.268623
O O3 0.316544 0.265390 0.218289
O O4 0.775781 0.913889 0.016254
O O5 0.289331 0.643243 0.810823
O O6 0.245759 0.212861 0.729676
O O7 0.201596 0.466423 0.652666
O O8 0.691975 0.280460 0.527055
O O9 0.032472 0.811197 0.741261
O O10 0.000000 0.000000 0.000000
O O11 0.895253 0.220266 0.728825
O O12 0.275996 0.037423 0.464696
O O13 0.548955 0.632712 0.227812
O O14 0.500000 0.500000 0.500000
O O15 0.050904 0.609193 0.342915
O O16 0.599628 0.178963 0.825284
O O17 0.000000 0.500000 0.500000
O O18 0.500000 0.500000 0.000000
#
# Coordination Sequence:
#
# PCOD9060702 Si02
#       8
#     2   2   2   2   2   2   2   2
#     4  11  23  43  77 111 158 199 256 320 408 449
#     4  11  23  45  73 104 154 201 258 316 389 463
#     4   9  22  40  64 109 150 191 241 317 383 462
#     4  11  26  48  85 109 156 201 273 318 398 470
#     4   9  19  39  69 109 150 198 243 313 389 472
#     4  11  25  53  77 115 154 210 263 337 375 475
#     4  12  23  45  76 118 148 202 252 323 400 474
#     4  12  30  51  77 113 152 216 270 320 392 474
#
# _framework density 25.105739
#
# number of rings (size 3 to 8) (size 9 to 14) (size 15 to 20)
#    0.000    1.250    3.750    0.375    8.750    2.000 
#    2.250    0.000    0.000    0.000    0.000    0.000 
#    0.000    0.000    0.000    0.000    0.000    0.000 
#
# Total GULP energy -89382.147958 kJ/mol
# GULP energy per Si atom -5586.384247 kJ/mol
# Density = 2.504860 g / cm^3
# Si number density = 25.105739 Si / 1000 Ang^3
#
#
#
# Elastic Constant Matrix: (Units=GPa)
#
#
# Indices 1 2 3 4 5 6 
#
# 1 126.4353 42.3949 24.6005 0.1246 2.5210 21.2961
# 2 42.3949 105.0717 8.3442 18.2987 -0.0983 17.4905
# 3 24.6005 8.3442 133.0301 2.1716 -5.5163 13.8126
# 4 0.1246 18.2987 2.1716 23.2744 10.6390 3.9358
# 5 2.5210 -0.0983 -5.5163 10.6390 29.7301 7.6252
# 6 21.2961 17.4905 13.8126 3.9358 7.6252 54.1225
#
#
#
# Elastic Compliance Matrix: (Units=1/GPa)
#
#
# Indices 1 2 3 4 5 6 
#
# 1 0.010125 -0.004492 -0.001550 0.005099 -0.002430 -0.002165
# 2 -0.004492 0.014092 0.000715 -0.013426 0.006096 -0.002851
# 3 -0.001550 0.000715 0.008122 -0.002344 0.002978 -0.001943
# 4 0.005099 -0.013426 -0.002344 0.064612 -0.024464 0.001679
# 5 -0.002430 0.006096 0.002978 -0.024464 0.044786 -0.006304
# 6 -0.002165 -0.002851 -0.001943 0.001679 -0.006304 0.021512
#
#
# Mechanical properties :
#
#
# Convention : Reuss Voigt Hill
#
# Bulk Modulus (GPa) = 46.11534 57.24623 51.68078
# Shear Modulus (GPa) = 27.60425 40.70525 34.15475
#
# Velocity S-wave (km/s) = 3.31950 4.03097 3.69241
# Velocity P-wave (km/s) = 5.75330 6.67207 6.22964
#
# Compressibility (1/GPa) = 0.02168476
#
# Stress axis : x y z
#
# Youngs Moduli (GPa) = 98.76412 70.96410 123.11656
#
# Poissons Ratio (x) = 0.31878 0.19081
# Poissons Ratio (y) = 0.44367 -0.08801
# Poissons Ratio (z) = 0.15307 -0.05073
#
# Static dielectric constant tensor:
#      x y z
#    x 2.057450 -0.053590 -0.018750 
#    y -0.053590 2.703140 0.159250 
#    z -0.018750 0.159250 2.057900 
# 
# From -- ./inp_files/434935.got.cif
#   From: 2010.05.17/outbox.cif.g08.bks.cpg/sg2_218_cif.got.tgz:434935.got - 2010.06.03 11:33:40.
