data_PCOD9060945
_publ_section_title
;
Structure prediction by ZEFSAII (Michael W. Deem and Ramdas Pophale) SiO2 
 PCOD9060945
Probable space group: P -1
;
_chemical_formula_sum "Si O2"
_cell_formula_units_Z 13
_cell_length_a 9.801211
_cell_length_b 12.484236
_cell_length_c 8.833127
_cell_angle_alpha 79.530380
_cell_angle_beta 80.508727
_cell_angle_gamma 143.550304
_cell_volume 534.499797
_symmetry_space_group_name_H-M "P -1"
_symmetry_group_IT_number 2
_symmetry_cell_setting 'triclinic'
loop_
_space_group_symop_operation_xyz
x,y,z
-x,-y,-z
loop_
_atom_site_type_symbol
_atom_site_label
_atom_site_fract_x
_atom_site_fract_y
_atom_site_fract_z
Si Si1 0.859596 0.004970 0.608895
Si Si2 0.534792 0.948686 0.153616
Si Si3 0.954199 0.598043 0.964263
Si Si4 0.630799 0.502781 0.589651
Si Si5 0.000000 0.500000 0.500000
Si Si6 0.587956 0.757820 0.032900
Si Si7 0.296345 0.621146 0.646471
O O1 0.073165 0.247622 0.497350
O O2 0.578868 0.841425 0.615995
O O3 0.000000 0.000000 0.500000
O O4 0.789828 0.912908 0.814506
O O5 0.615251 0.885226 0.093019
O O6 0.248280 0.745804 0.337086
O O7 0.500000 0.000000 0.000000
O O8 0.764867 0.150603 0.169737
O O9 0.845706 0.555994 0.164294
O O10 0.707286 0.452030 0.936421
O O11 0.000000 0.500000 0.000000
O O12 0.500000 0.500000 0.500000
O O13 0.433190 0.351131 0.808400
O O14 0.674377 0.417007 0.515033
O O15 0.902675 0.418398 0.357117
#
# Coordination Sequence:
#
# PCOD9060945 Si02
#       7
#     2   2   2   2   1   2   2
#     4  11  26  49  71 104 142 187 246 310 350 426
#     4  12  23  43  69 104 151 185 234 293 356 440
#     4  11  23  44  70 107 147 192 233 295 363 439
#     4  12  26  48  72 102 141 191 246 299 355 431
#     4  12  24  40  74 108 142 192 230 292 370 424
#     4  11  26  45  73 105 140 195 242 287 379 420
#     4  11  24  46  68 106 147 180 246 292 357 435
#
# _framework density 24.321804
#
# number of rings (size 3 to 8) (size 9 to 14) (size 15 to 20)
#    0.000    0.615    6.154    0.923    2.154    1.231 
#    0.000    2.308    0.000    0.000    0.000    0.000 
#    0.000    0.000    0.000    0.000    0.000    0.000 
#
# Total GULP energy -72485.464174 kJ/mol
# GULP energy per Si atom -5575.804936 kJ/mol
# Density = 2.426645 g / cm^3
# Si number density = 24.321804 Si / 1000 Ang^3
#
#
#
# Elastic Constant Matrix: (Units=GPa)
#
#
# Indices 1 2 3 4 5 6 
#
# 1 30.5738 13.9005 29.3386 6.6321 10.5403 -3.1258
# 2 13.9005 134.6250 26.6545 -26.3319 11.1653 4.0434
# 3 29.3386 26.6545 145.7380 -8.2053 21.8882 -21.9345
# 4 6.6321 -26.3319 -8.2053 46.5230 1.0370 -3.6417
# 5 10.5403 11.1653 21.8882 1.0370 38.4258 7.3157
# 6 -3.1258 4.0434 -21.9345 -3.6417 7.3157 30.4238
#
#
#
# Elastic Compliance Matrix: (Units=1/GPa)
#
#
# Indices 1 2 3 4 5 6 
#
# 1 0.047487 -0.004824 -0.008338 -0.010841 -0.006541 -0.000216
# 2 -0.004824 0.009261 -0.000387 0.005804 -0.001105 -0.001045
# 3 -0.008338 -0.000387 0.011024 0.003742 -0.005686 0.008958
# 4 -0.010841 0.005804 0.003742 0.027407 -0.002476 0.004688
# 5 -0.006541 -0.001105 -0.005686 -0.002476 0.033936 -0.013081
# 6 -0.000216 -0.001045 0.008958 0.004688 -0.013081 0.043151
#
#
# Mechanical properties :
#
#
# Convention : Reuss Voigt Hill
#
# Bulk Modulus (GPa) = 24.58615 50.08044 37.33330
# Shear Modulus (GPa) = 23.48290 39.14406 31.31348
#
# Velocity S-wave (km/s) = 3.11063 4.01611 3.59202
# Velocity P-wave (km/s) = 4.79917 6.49161 5.70846
#
# Compressibility (1/GPa) = 0.04067330
#
# Stress axis : x y z
#
# Youngs Moduli (GPa) = 21.05860 107.97925 90.71271
#
# Poissons Ratio (x) = 0.52088 0.75635
# Poissons Ratio (y) = 0.10158 0.03513
# Poissons Ratio (z) = 0.17558 0.04182
#
# Static dielectric constant tensor:
#      x y z
#    x 1.607020 0.042010 -0.010950 
#    y 0.042010 1.903610 0.113320 
#    z -0.010950 0.113320 1.971030 
# 
# From -- ./inp_files/270004.got.cif
#   From: 2010.05.17/outbox.cif.g08.bks.cpg/sg2_136_cif.got.tgz:270004.got - 2010.06.03 11:33:40.
