data_PCOD9060542
_publ_section_title
;
Structure prediction by ZEFSAII (Michael W. Deem and Ramdas Pophale) SiO2 
 PCOD9060542
Probable space group: P -1
;
_chemical_formula_sum "Si O2"
_cell_formula_units_Z 14
_cell_length_a 17.492251
_cell_length_b 6.577278
_cell_length_c 12.102523
_cell_angle_alpha 121.459810
_cell_angle_beta 34.607035
_cell_angle_gamma 127.361724
_cell_volume 627.778197
_symmetry_space_group_name_H-M "P -1"
_symmetry_group_IT_number 2
_symmetry_cell_setting 'triclinic'
loop_
_space_group_symop_operation_xyz
x,y,z
-x,-y,-z
loop_
_atom_site_type_symbol
_atom_site_label
_atom_site_fract_x
_atom_site_fract_y
_atom_site_fract_z
Si Si1 0.620931 0.186456 0.987660
Si Si2 0.439102 0.712697 0.677329
Si Si3 0.164164 0.512580 0.805394
Si Si4 0.116057 0.369953 0.303840
Si Si5 0.248976 0.209453 0.299619
Si Si6 0.869388 0.020665 0.384564
Si Si7 0.677197 0.262196 0.548315
O O1 0.734578 0.420044 0.853310
O O2 0.692198 0.985892 0.886965
O O3 0.560805 0.293858 0.192002
O O4 0.500000 0.000000 0.000000
O O5 0.500000 0.500000 0.500000
O O6 0.277915 0.653480 0.805542
O O7 0.542140 0.004239 0.610591
O O8 0.157961 0.222252 0.728579
O O9 0.236282 0.636055 0.638628
O O10 0.000000 0.500000 0.000000
O O11 0.135677 0.244553 0.358851
O O12 0.000000 0.500000 0.500000
O O13 0.040050 0.172182 0.240773
O O14 0.187316 0.078173 0.452806
O O15 0.352894 0.499337 0.291873
O O16 0.782035 0.185053 0.485039
#
# Coordination Sequence:
#
# PCOD9060542 Si02
#       7
#     2   2   2   2   2   2   2
#     4  12  29  47  73 111 149 190 256 306 365 448
#     4  12  27  51  74 104 153 204 243 304 375 447
#     4  11  28  46  74 107 144 191 256 312 363 443
#     4  12  24  41  73 109 147 192 237 304 382 434
#     4  11  23  44  73 106 145 187 242 310 366 440
#     4  11  23  43  72 105 147 187 242 307 374 438
#     4  11  24  47  77 100 146 199 244 299 385 439
#
# _framework density 22.300868999999999
#
# number of rings (size 3 to 8) (size 9 to 14) (size 15 to 20)
#    0.000    0.571    4.286    2.571    6.000    4.000 
#    0.000    0.000    0.000    0.000    0.000    0.000 
#    0.000    0.000    0.000    0.000    0.000    0.000 
#
# Total GULP energy -78299.712316 kJ/mol
# GULP energy per Si atom -5592.836594 kJ/mol
# Density = 2.225011 g / cm^3
# Si number density = 22.300869 Si / 1000 Ang^3
#
#
#
# Elastic Constant Matrix: (Units=GPa)
#
#
# Indices 1 2 3 4 5 6 
#
# 1 126.7851 30.6523 10.0660 -5.4718 -0.3176 18.2352
# 2 30.6523 122.5527 19.9351 -12.3531 4.8897 26.5939
# 3 10.0660 19.9351 76.7920 -1.4550 12.9727 13.0725
# 4 -5.4718 -12.3531 -1.4550 38.9571 5.3194 -9.0772
# 5 -0.3176 4.8897 12.9727 5.3194 29.9671 0.3543
# 6 18.2352 26.5939 13.0725 -9.0772 0.3543 52.2846
#
#
#
# Elastic Compliance Matrix: (Units=1/GPa)
#
#
# Indices 1 2 3 4 5 6 
#
# 1 0.008622 -0.001652 -0.000446 0.000120 0.000557 -0.002038
# 2 -0.001652 0.009885 -0.001451 0.002169 -0.001343 -0.003703
# 3 -0.000446 -0.001451 0.014993 0.000248 -0.006270 -0.002769
# 4 0.000120 0.002169 0.000248 0.027990 -0.005472 0.003690
# 5 0.000557 -0.001343 -0.006270 -0.005472 0.037270 0.000854
# 6 -0.002038 -0.003703 -0.002769 0.003690 0.000854 0.023048
#
#
# Mechanical properties :
#
#
# Convention : Reuss Voigt Hill
#
# Bulk Modulus (GPa) = 37.87712 49.71519 43.79615
# Shear Modulus (GPa) = 36.30929 41.94017 39.12473
#
# Velocity S-wave (km/s) = 4.03942 4.34135 4.19310
# Velocity P-wave (km/s) = 6.22715 6.88993 6.56690
#
# Compressibility (1/GPa) = 0.02640116
#
# Stress axis : x y z
#
# Youngs Moduli (GPa) = 115.98445 101.16616 66.69936
#
# Poissons Ratio (x) = 0.16710 0.02976
# Poissons Ratio (y) = 0.19157 0.09679
# Poissons Ratio (z) = 0.05175 0.14680
#
# Static dielectric constant tensor:
#      x y z
#    x 2.188870 -0.106110 -0.285350 
#    y -0.106110 1.928990 0.123530 
#    z -0.285350 0.123530 2.056420 
# 
# From -- ./inp_files/101172.got.cif
#   From: 2010.05.17/outbox.cif.g08.bks.cpg/sg2_51_cif.got.tgz:101172.got - 2010.06.03 11:33:40.
