data_PCOD9060968
_publ_section_title
;
Structure prediction by ZEFSAII (Michael W. Deem and Ramdas Pophale) SiO2 
 PCOD9060968
Probable space group: P -1
;
_chemical_formula_sum "Si O2"
_cell_formula_units_Z 13
_cell_length_a 17.084652
_cell_length_b 13.527729
_cell_length_c 16.859080
_cell_angle_alpha 23.860711
_cell_angle_beta 154.065759
_cell_angle_gamma 154.807576
_cell_volume 609.878478
_symmetry_space_group_name_H-M "P -1"
_symmetry_group_IT_number 2
_symmetry_cell_setting 'triclinic'
loop_
_space_group_symop_operation_xyz
x,y,z
-x,-y,-z
loop_
_atom_site_type_symbol
_atom_site_label
_atom_site_fract_x
_atom_site_fract_y
_atom_site_fract_z
Si Si1 0.488250 0.428903 0.223078
Si Si2 0.470936 0.923353 0.936460
Si Si3 0.280152 0.807706 0.181847
Si Si4 0.668979 0.098164 0.438812
Si Si5 0.980102 0.181456 0.417431
Si Si6 0.500000 0.500000 0.000000
Si Si7 0.083394 0.185372 0.680903
O O1 0.725704 0.516724 0.374190
O O2 0.357573 0.119575 0.357704
O O3 0.475309 0.641628 0.119855
O O4 0.428555 0.481253 0.043257
O O5 0.248753 0.871885 0.748639
O O6 0.637246 0.157337 0.859009
O O7 0.500000 0.000000 0.000000
O O8 0.129335 0.501170 0.297744
O O9 0.480229 0.933256 0.327043
O O10 0.166614 0.000997 0.940140
O O11 0.887427 0.188924 0.534467
O O12 0.632101 0.343687 0.256873
O O13 0.030580 0.081054 0.619475
O O14 0.000000 0.000000 0.500000
#
# Coordination Sequence:
#
# PCOD9060968 Si02
#       7
#     2   2   2   2   2   1   2
#     4  11  24  46  70 102 139 179 229 283 340 405
#     4  11  24  45  70 103 141 179 229 283 336 412
#     4  11  24  44  67  99 142 176 228 284 335 409
#     4  12  24  45  73  99 136 182 224 286 347 396
#     4  12  24  40  68 100 136 185 230 275 342 407
#     4  12  24  48  72 102 140 176 232 288 336 406
#     4  11  23  44  70  98 136 178 226 280 341 407
#
# _framework density 21.315722999999998
#
# number of rings (size 3 to 8) (size 9 to 14) (size 15 to 20)
#    0.000    0.615    6.154    3.231    0.000    4.923 
#    0.000    1.538    0.000    0.000    0.000    0.000 
#    0.000    0.000    0.000    0.000    0.000    0.000 
#
# Total GULP energy -72368.360227 kJ/mol
# GULP energy per Si atom -5566.796941 kJ/mol
# Density = 2.126721 g / cm^3
# Si number density = 21.315723 Si / 1000 Ang^3
#
#
#
# Elastic Constant Matrix: (Units=GPa)
#
#
# Indices 1 2 3 4 5 6 
#
# 1 96.8852 32.8923 36.3001 -11.9709 10.0391 -20.5457
# 2 32.8923 -21.5156 8.5671 23.1804 30.2988 34.5088
# 3 36.3001 8.5671 77.1537 0.2855 15.1153 8.0599
# 4 -11.9709 23.1804 0.2855 28.5411 -5.1521 -14.4107
# 5 10.0391 30.2988 15.1153 -5.1521 42.9882 7.6679
# 6 -20.5457 34.5088 8.0599 -14.4107 7.6679 18.6717
#
#
#
# Elastic Compliance Matrix: (Units=1/GPa)
#
#
# Indices 1 2 3 4 5 6 
#
# 1 0.010600 0.007131 -0.004741 -0.001409 -0.006371 0.002060
# 2 0.007131 0.000716 -0.004930 0.011291 -0.002353 0.018333
# 3 -0.004741 -0.004930 0.016103 0.000538 -0.000588 -0.002399
# 4 -0.001409 0.011291 0.000538 0.022867 -0.004516 -0.003146
# 5 -0.006371 -0.002353 -0.000588 -0.004516 0.029269 -0.017913
# 6 0.002060 0.018333 -0.002399 -0.003146 -0.017913 0.027904
#
#
# Mechanical properties :
#
#
# Convention : Reuss Voigt Hill
#
# Bulk Modulus (GPa) = 44.76772 34.22694 39.49733
# Shear Modulus (GPa) = 41.67218 23.02444 32.34831
#
# Velocity S-wave (km/s) = 4.42633 3.29015 3.89984
# Velocity P-wave (km/s) = 6.86812 5.52498 6.23283
#
# Compressibility (1/GPa) = 0.02233753
#
# Stress axis : x y z
#
# Youngs Moduli (GPa) = 94.34351 1397.43288 62.10122
#
# Poissons Ratio (x) = -9.96505 0.29440
# Poissons Ratio (y) = -0.67276 0.30619
# Poissons Ratio (z) = 0.44725 6.89002
#
# Static dielectric constant tensor:
#      x y z
#    x 1.762740 -0.041520 0.000080 
#    y -0.041520 1.797460 -0.001690 
#    z 0.000080 -0.001690 1.764760 
# 
# From -- ./inp_files/455164.got.cif
#   From: 2010.05.17/outbox.cif.g08.bks.cpg/sg2_228_cif.got.tgz:455164.got - 2010.06.03 11:33:40.
