data_PCOD9060931
_publ_section_title
;
Structure prediction by ZEFSAII (Michael W. Deem and Ramdas Pophale) SiO2 
 PCOD9060931
Probable space group: P -1
;
_chemical_formula_sum "Si O2"
_cell_formula_units_Z 16
_cell_length_a 12.031364
_cell_length_b 9.271838
_cell_length_c 20.403986
_cell_angle_alpha 151.153157
_cell_angle_beta 43.438784
_cell_angle_gamma 136.744420
_cell_volume 725.260182
_symmetry_space_group_name_H-M "P -1"
_symmetry_group_IT_number 2
_symmetry_cell_setting 'triclinic'
loop_
_space_group_symop_operation_xyz
x,y,z
-x,-y,-z
loop_
_atom_site_type_symbol
_atom_site_label
_atom_site_fract_x
_atom_site_fract_y
_atom_site_fract_z
Si Si1 0.515530 0.712952 0.140140
Si Si2 0.915324 0.144417 0.783079
Si Si3 0.303290 0.683291 0.341649
Si Si4 0.430417 0.605190 0.637489
Si Si5 0.655423 0.494451 0.610221
Si Si6 0.116388 0.155600 0.572754
Si Si7 0.907192 0.857902 0.052288
Si Si8 0.943135 0.203803 0.310976
O O1 0.398152 0.577874 0.198593
O O2 0.708204 0.799089 0.111472
O O3 0.484766 0.027560 0.251991
O O4 0.500000 0.500000 0.000000
O O5 0.993078 0.092806 0.660573
O O6 0.742336 0.856722 0.740550
O O7 0.921512 0.508834 0.924746
O O8 0.034610 0.066294 0.757305
O O9 0.397327 0.693205 0.374055
O O10 0.115799 0.473393 0.353372
O O11 0.264388 0.994269 0.457476
O O12 0.500000 0.500000 0.500000
O O13 0.501224 0.483372 0.623631
O O14 0.228835 0.512377 0.673729
O O15 0.789664 0.344533 0.454591
O O16 0.000000 0.000000 0.500000
O O17 0.955930 0.088645 0.185470
O O18 0.000000 0.000000 0.000000
#
# Coordination Sequence:
#
# PCOD9060931 Si02
#       8
#     2   2   2   2   2   2   2   2
#     4  12  27  46  66 102 142 186 231 290 352 414
#     4  11  23  45  69 101 135 187 230 285 348 416
#     4  11  24  44  70 104 139 181 229 291 352 407
#     4  12  25  42  67 104 138 181 237 286 347 411
#     4  11  23  45  74 103 140 181 236 289 348 419
#     4  12  25  40  73 104 139 178 235 294 346 408
#     4  12  27  44  69  98 142 187 235 285 347 419
#     4  11  23  44  70 103 137 183 235 285 347 422
#
# _framework density 22.061048
#
# number of rings (size 3 to 8) (size 9 to 14) (size 15 to 20)
#    0.000    0.500    3.750    4.875    5.250    1.500 
#    0.000    6.875    0.000    0.000    0.000    0.000 
#    0.000    0.000    0.000    0.000    0.000    0.000 
#
# Total GULP energy -89259.143915 kJ/mol
# GULP energy per Si atom -5578.696495 kJ/mol
# Density = 2.201084 g / cm^3
# Si number density = 22.061048 Si / 1000 Ang^3
#
#
#
# Elastic Constant Matrix: (Units=GPa)
#
#
# Indices 1 2 3 4 5 6 
#
# 1 112.5584 16.7385 22.1427 1.4739 18.4374 -19.9988
# 2 16.7385 74.2868 13.3612 -2.3188 -2.3799 -18.3215
# 3 22.1427 13.3612 105.0620 2.2934 9.9323 -27.7968
# 4 1.4739 -2.3188 2.2934 44.8590 -6.5373 3.0477
# 5 18.4374 -2.3799 9.9323 -6.5373 39.1594 -2.6898
# 6 -19.9988 -18.3215 -27.7968 3.0477 -2.6898 35.0290
#
#
#
# Elastic Compliance Matrix: (Units=1/GPa)
#
#
# Indices 1 2 3 4 5 6 
#
# 1 0.010879 -0.001372 -0.000284 -0.001488 -0.005038 0.005011
# 2 -0.001372 0.015727 0.000081 0.000659 0.002215 0.007619
# 3 -0.000284 0.000081 0.012411 -0.001660 -0.002622 0.009672
# 4 -0.001488 0.000659 -0.001660 0.023401 0.004829 -0.003488
# 5 -0.005038 0.002215 -0.002622 0.004829 0.029380 -0.001963
# 6 0.005011 0.007619 0.009672 -0.003488 -0.001963 0.043222
#
#
# Mechanical properties :
#
#
# Convention : Reuss Voigt Hill
#
# Bulk Modulus (GPa) = 27.88077 44.04357 35.96217
# Shear Modulus (GPa) = 33.30582 39.78712 36.54647
#
# Velocity S-wave (km/s) = 3.88972 4.25137 4.07456
# Velocity P-wave (km/s) = 5.73050 6.64128 6.20263
#
# Compressibility (1/GPa) = 0.03586701
#
# Stress axis : x y z
#
# Youngs Moduli (GPa) = 91.91845 63.58631 80.57517
#
# Poissons Ratio (x) = 0.08726 0.02287
# Poissons Ratio (y) = 0.12614 -0.00656
# Poissons Ratio (z) = 0.02609 -0.00517
#
# Static dielectric constant tensor:
#      x y z
#    x 1.795820 -0.027620 -0.114030 
#    y -0.027620 1.584330 0.146800 
#    z -0.114030 0.146800 1.822210 
# 
# From -- ./inp_files/187781.got.cif
#   From: 2010.05.17/outbox.cif.g08.bks.cpg/sg2_94_cif.got.tgz:187781.got - 2010.06.03 11:33:40.
