data_PCOD9060784
_publ_section_title
;
Structure prediction by ZEFSAII (Michael W. Deem and Ramdas Pophale) SiO2 
 PCOD9060784
Probable space group: P -1
;
_chemical_formula_sum "Si O2"
_cell_formula_units_Z 16
_cell_length_a 8.084426
_cell_length_b 8.998804
_cell_length_c 13.602730
_cell_angle_alpha 131.061584
_cell_angle_beta 104.063236
_cell_angle_gamma 96.522725
_cell_volume 671.405116
_symmetry_space_group_name_H-M "P -1"
_symmetry_group_IT_number 2
_symmetry_cell_setting 'triclinic'
loop_
_space_group_symop_operation_xyz
x,y,z
-x,-y,-z
loop_
_atom_site_type_symbol
_atom_site_label
_atom_site_fract_x
_atom_site_fract_y
_atom_site_fract_z
Si Si1 0.370241 0.564301 0.232476
Si Si2 0.933623 0.856828 0.025260
Si Si3 0.764782 0.139428 0.769948
Si Si4 0.614423 0.009477 0.118015
Si Si5 0.141175 0.498263 0.602586
Si Si6 0.609333 0.437888 0.072064
Si Si7 0.014751 0.223933 0.652108
Si Si8 0.572358 0.681217 0.508285
O O1 0.337520 0.701512 0.198891
O O2 0.517422 0.466351 0.174384
O O3 0.441145 0.670242 0.392650
O O4 0.178816 0.373661 0.134131
O O5 0.082395 0.830099 0.110657
O O6 0.788717 0.936320 0.096156
O O7 0.000000 0.000000 0.000000
O O8 0.856529 0.151729 0.679703
O O9 0.620519 0.904690 0.663284
O O10 0.710702 0.258832 0.265924
O O11 0.500000 0.000000 0.000000
O O12 0.451261 0.815328 0.064321
O O13 0.028840 0.390213 0.637903
O O14 0.246855 0.346205 0.520205
O O15 0.000000 0.500000 0.500000
O O16 0.810235 0.620982 0.190362
O O17 0.500000 0.500000 0.000000
O O18 0.000000 0.000000 0.500000
O O19 0.500000 0.500000 0.500000
#
# Coordination Sequence:
#
# PCOD9060784 Si02
#       8
#     2   2   2   2   2   2   2   2
#     4  11  24  45  66  99 136 174 229 275 337 408
#     4  11  25  44  67  99 139 175 223 282 333 406
#     4  12  26  45  69 103 134 184 226 276 352 402
#     4  11  23  44  67  97 135 175 231 273 338 404
#     4  12  26  44  70 103 136 182 231 279 346 403
#     4  11  24  43  69  98 134 178 224 285 336 401
#     4  12  24  45  70  97 144 174 229 291 333 406
#     4  12  26  48  67  99 139 179 228 283 338 409
#
# _framework density 23.83062
#
# number of rings (size 3 to 8) (size 9 to 14) (size 15 to 20)
#    0.000    0.500    3.750    4.500    5.250    2.000 
#    0.000    0.000    0.000    0.000    0.000    0.000 
#    0.000    0.000    0.000    0.000    0.000    0.000 
#
# Total GULP energy -89321.343797 kJ/mol
# GULP energy per Si atom -5582.583987 kJ/mol
# Density = 2.377638 g / cm^3
# Si number density = 23.830620 Si / 1000 Ang^3
#
#
#
# Elastic Constant Matrix: (Units=GPa)
#
#
# Indices 1 2 3 4 5 6 
#
# 1 60.0122 28.9011 28.8610 -3.2551 -10.0958 -14.4850
# 2 28.9011 145.8364 28.1727 9.1351 29.2880 -9.4481
# 3 28.8610 28.1727 125.8253 20.5333 24.6451 -16.2857
# 4 -3.2551 9.1351 20.5333 63.3055 -6.9148 7.7181
# 5 -10.0958 29.2880 24.6451 -6.9148 32.0413 -6.5467
# 6 -14.4850 -9.4481 -16.2857 7.7181 -6.5467 47.5599
#
#
#
# Elastic Compliance Matrix: (Units=1/GPa)
#
#
# Indices 1 2 3 4 5 6 
#
# 1 0.039785 -0.013400 -0.015086 0.012353 0.040663 0.007882
# 2 -0.013400 0.013240 0.005305 -0.006542 -0.022148 -0.001621
# 3 -0.015086 0.005305 0.016616 -0.009638 -0.024390 0.000356
# 4 0.012353 -0.006542 -0.009638 0.023090 0.021949 -0.001563
# 5 0.040663 -0.022148 -0.024390 0.021949 0.089477 0.008388
# 6 0.007882 -0.001621 0.000356 -0.001563 0.008388 0.024635
#
#
# Mechanical properties :
#
#
# Convention : Reuss Voigt Hill
#
# Bulk Modulus (GPa) = 42.95548 55.94928 49.45238
# Shear Modulus (GPa) = 19.15975 44.96395 32.06185
#
# Velocity S-wave (km/s) = 2.83856 4.34846 3.67196
# Velocity P-wave (km/s) = 5.36728 6.98148 6.22691
#
# Compressibility (1/GPa) = 0.02327992
#
# Stress axis : x y z
#
# Youngs Moduli (GPa) = 25.13539 75.52707 60.18241
#
# Poissons Ratio (x) = 1.01203 0.90789
# Poissons Ratio (y) = 0.33680 -0.31925
# Poissons Ratio (z) = 0.37918 -0.40064
#
# Static dielectric constant tensor:
#      x y z
#    x 2.236380 -0.429950 0.221710 
#    y -0.429950 2.403770 -0.470100 
#    z 0.221710 -0.470100 2.194310 
# 
# From -- ./inp_files/190672.got.cif
#   From: 2010.05.17/outbox.cif.g08.bks.cpg/sg2_96_cif.got.tgz:190672.got - 2010.06.03 11:33:40.
