data_PCOD9060188
_publ_section_title
;
Structure prediction by ZEFSAII (Michael W. Deem and Ramdas Pophale) SiO2 
 PCOD9060188
Probable space group: P -1
;
_chemical_formula_sum "Si O2"
_cell_formula_units_Z 16
_cell_length_a 25.707118
_cell_length_b 15.810106
_cell_length_c 13.343865
_cell_angle_alpha 24.708344
_cell_angle_beta 24.985079
_cell_angle_gamma 19.891181
_cell_volume 717.536412
_symmetry_space_group_name_H-M "P -1"
_symmetry_group_IT_number 2
_symmetry_cell_setting 'triclinic'
loop_
_space_group_symop_operation_xyz
x,y,z
-x,-y,-z
loop_
_atom_site_type_symbol
_atom_site_label
_atom_site_fract_x
_atom_site_fract_y
_atom_site_fract_z
Si Si1 0.285853 0.688111 0.259809
Si Si2 0.245751 0.132688 0.340978
Si Si3 0.280966 0.679307 0.869791
Si Si4 0.884591 0.517432 0.530207
Si Si5 0.259179 0.100381 0.990714
Si Si6 0.922772 0.412360 0.347953
Si Si7 0.483933 0.893246 0.995503
Si Si8 0.358099 0.840473 0.763680
O O1 0.125098 0.727988 0.484298
O O2 0.445513 0.372388 0.333017
O O3 0.284710 0.844092 0.185691
O O4 0.298434 0.797112 0.016534
O O5 0.061613 0.421868 0.351605
O O6 0.218548 0.931305 0.639812
O O7 0.337449 0.048597 0.164789
O O8 0.377124 0.100423 0.218470
O O9 0.433294 0.415982 0.827520
O O10 0.327536 0.729584 0.840473
O O11 0.168209 0.608074 0.169647
O O12 0.909599 0.395840 0.506598
O O13 0.745595 0.841862 0.414442
O O14 0.101546 0.288163 0.136014
O O15 0.410550 0.013606 0.884627
O O16 0.210523 0.276487 0.787602
#
# Coordination Sequence:
#
# PCOD9060188 Si02
#       8
#     2   2   2   2   2   2   2   2
#     4  11  23  43  67 104 142 179 228 278 350 429
#     4  11  27  49  71 104 136 187 245 288 346 406
#     4  12  25  45  71 102 138 191 231 290 351 405
#     4  12  25  46  70 104 147 181 234 290 351 414
#     4  11  23  44  72 104 139 180 234 284 354 418
#     4  11  24  41  71 106 138 183 225 290 354 418
#     4  11  25  48  76 100 138 186 235 295 340 419
#     4  11  25  40  69 102 139 183 226 277 350 426
#
# _framework density 22.298518999999999
#
# number of rings (size 3 to 8) (size 9 to 14) (size 15 to 20)
#    0.000    0.750    5.000    1.875    3.500    3.500 
#    0.000    1.250    0.000    0.000    0.000    0.000 
#    0.000    0.000    0.000    0.000    0.000    0.000 
#
# Total GULP energy -89416.946994 kJ/mol
# GULP energy per Si atom -5588.559187 kJ/mol
# Density = 2.224777 g / cm^3
# Si number density = 22.298519 Si / 1000 Ang^3
#
#
#
# Elastic Constant Matrix: (Units=GPa)
#
#
# Indices 1 2 3 4 5 6 
#
# 1 77.2968 32.7890 35.0940 9.5808 -17.6991 -7.2701
# 2 32.7890 98.1004 37.9138 -3.9404 -2.6417 -18.3690
# 3 35.0940 37.9138 85.6069 -6.5768 -2.2087 -15.1832
# 4 9.5808 -3.9404 -6.5768 29.1254 -4.5051 -4.3925
# 5 -17.6991 -2.6417 -2.2087 -4.5051 32.6206 0.3940
# 6 -7.2701 -18.3690 -15.1832 -4.3925 0.3940 38.7325
#
#
#
# Elastic Compliance Matrix: (Units=1/GPa)
#
#
# Indices 1 2 3 4 5 6 
#
# 1 0.021309 -0.004738 -0.007403 -0.008169 0.009575 -0.002173
# 2 -0.004738 0.014021 -0.003179 0.003282 -0.001257 0.004899
# 3 -0.007403 -0.003179 0.017371 0.006275 -0.002287 0.004647
# 4 -0.008169 0.003282 0.006275 0.040209 0.001727 0.007025
# 5 0.009575 -0.001257 -0.002287 0.001727 0.035831 0.000136
# 6 -0.002173 0.004899 0.004647 0.007025 0.000136 0.030351
#
#
# Mechanical properties :
#
#
# Convention : Reuss Voigt Hill
#
# Bulk Modulus (GPa) = 45.32812 52.51086 48.91949
# Shear Modulus (GPa) = 25.36982 30.44287 27.90634
#
# Velocity S-wave (km/s) = 3.37669 3.69893 3.54148
# Velocity P-wave (km/s) = 5.96446 6.46861 6.22164
#
# Compressibility (1/GPa) = 0.02206136
#
# Stress axis : x y z
#
# Youngs Moduli (GPa) = 46.92942 71.32045 57.56694
#
# Poissons Ratio (x) = 0.33794 0.42616
# Poissons Ratio (y) = 0.22237 0.18298
# Poissons Ratio (z) = 0.34741 0.22670
#
# Static dielectric constant tensor:
#      x y z
#    x 1.801850 -0.012430 0.001070 
#    y -0.012430 1.807480 -0.004710 
#    z 0.001070 -0.004710 1.819400 
# 
# From -- ./inp_files/542999.got.cif
#   From: 2010.05.17/outbox.cif.g08.bks.cpg/sg2_272_cif.got.tgz:542999.got - 2010.06.03 11:33:40.
