data_PCOD9060593
_publ_section_title
;
Structure prediction by ZEFSAII (Michael W. Deem and Ramdas Pophale) SiO2 
 PCOD9060593
Probable space group: P -1
;
_chemical_formula_sum "Si O2"
_cell_formula_units_Z 14
_cell_length_a 11.299284
_cell_length_b 19.807803
_cell_length_c 14.658254
_cell_angle_alpha 159.468898
_cell_angle_beta 43.438203
_cell_angle_gamma 145.723518
_cell_volume 628.802227
_symmetry_space_group_name_H-M "P -1"
_symmetry_group_IT_number 2
_symmetry_cell_setting 'triclinic'
loop_
_space_group_symop_operation_xyz
x,y,z
-x,-y,-z
loop_
_atom_site_type_symbol
_atom_site_label
_atom_site_fract_x
_atom_site_fract_y
_atom_site_fract_z
Si Si1 0.995499 0.125742 0.928166
Si Si2 0.535976 0.484802 0.759943
Si Si3 0.254663 0.133325 0.631807
Si Si4 0.929988 0.388428 0.997611
Si Si5 0.742543 0.586001 0.467879
Si Si6 0.685487 0.274198 0.271720
Si Si7 0.405738 0.725991 0.218290
O O1 0.058551 0.095458 0.751977
O O2 0.887585 0.869339 0.716131
O O3 0.865723 0.238261 0.151927
O O4 0.224298 0.330746 0.102969
O O5 0.360183 0.325980 0.735801
O O6 0.556289 0.327258 0.479573
O O7 0.467707 0.658339 0.002496
O O8 0.452503 0.238742 0.726924
O O9 0.172297 0.888076 0.314946
O O10 0.769164 0.437172 0.190029
O O11 0.145139 0.544291 0.138513
O O12 0.000000 0.500000 0.000000
O O13 0.500000 0.500000 0.500000
O O14 0.781718 0.492373 0.420900
O O15 0.500000 0.000000 0.000000
O O16 0.500000 0.000000 0.500000
#
# Coordination Sequence:
#
# PCOD9060593 Si02
#       7
#     2   2   2   2   2   2   2
#     4  11  24  50  71 105 146 189 244 304 366 433
#     4  11  27  48  71 106 144 190 242 311 364 437
#     4  11  25  47  75 106 149 183 246 317 359 432
#     4  12  24  44  74 106 142 194 242 304 369 430
#     4  12  27  46  72 107 150 193 241 306 363 443
#     4  12  27  47  73 105 149 196 243 291 371 447
#     4  11  23  43  73 108 139 183 243 301 364 430
#
# _framework density 22.264554
#
# number of rings (size 3 to 8) (size 9 to 14) (size 15 to 20)
#    0.000    0.571    4.286    3.857    8.000    1.143 
#    0.000    0.000    0.000    0.000    0.000    0.000 
#    0.000    0.000    0.000    0.000    0.000    0.000 
#
# Total GULP energy -78041.724450 kJ/mol
# GULP energy per Si atom -5574.408889 kJ/mol
# Density = 2.221388 g / cm^3
# Si number density = 22.264554 Si / 1000 Ang^3
#
#
#
# Elastic Constant Matrix: (Units=GPa)
#
#
# Indices 1 2 3 4 5 6 
#
# 1 60.2793 22.1639 26.7397 1.2016 -15.0375 3.3577
# 2 22.1639 109.6156 52.6479 -11.7876 -10.3823 6.2201
# 3 26.7397 52.6479 190.9514 -18.2099 -11.6147 9.0703
# 4 1.2016 -11.7876 -18.2099 59.1066 3.9160 -5.5897
# 5 -15.0375 -10.3823 -11.6147 3.9160 33.5363 6.4018
# 6 3.3577 6.2201 9.0703 -5.5897 6.4018 41.9131
#
#
#
# Elastic Compliance Matrix: (Units=1/GPa)
#
#
# Indices 1 2 3 4 5 6 
#
# 1 0.020658 -0.002629 -0.001745 -0.002288 0.008590 -0.002504
# 2 -0.002629 0.011167 -0.002449 0.001339 0.001457 -0.000961
# 3 -0.001745 -0.002449 0.006366 0.001391 0.000653 -0.000789
# 4 -0.002288 0.001339 0.001391 0.018078 -0.002720 0.002510
# 5 0.008590 0.001457 0.000653 -0.002720 0.035983 -0.006904
# 6 -0.002504 -0.000961 -0.000789 0.002510 -0.006904 0.025762
#
#
# Mechanical properties :
#
#
# Convention : Reuss Voigt Hill
#
# Bulk Modulus (GPa) = 40.74014 62.66103 51.70058
# Shear Modulus (GPa) = 35.75470 44.19754 39.97612
#
# Velocity S-wave (km/s) = 4.01172 4.46029 4.24194
# Velocity P-wave (km/s) = 6.30844 7.39801 6.87484
#
# Compressibility (1/GPa) = 0.02454582
#
# Stress axis : x y z
#
# Youngs Moduli (GPa) = 48.40711 89.54901 157.08008
#
# Poissons Ratio (x) = 0.23546 0.27404
# Poissons Ratio (y) = 0.12728 0.38466
# Poissons Ratio (z) = 0.08445 0.21929
#
# Static dielectric constant tensor:
#      x y z
#    x 2.225200 0.012500 -0.291940 
#    y 0.012500 1.872160 0.043230 
#    z -0.291940 0.043230 2.108650 
# 
# From -- ./inp_files/524140.got.cif
#   From: 2010.05.17/outbox.cif.g08.bks.cpg/sg2_263_cif.got.tgz:524140.got - 2010.06.03 11:33:40.
