data_PCOD9060661
_publ_section_title
;
Structure prediction by ZEFSAII (Michael W. Deem and Ramdas Pophale) SiO2 
 PCOD9060661
Probable space group: P -1
;
_chemical_formula_sum "Si O2"
_cell_formula_units_Z 16
_cell_length_a 12.427542
_cell_length_b 18.405017
_cell_length_c 9.060567
_cell_angle_alpha 134.541976
_cell_angle_beta 49.510514
_cell_angle_gamma 150.304329
_cell_volume 727.028548
_symmetry_space_group_name_H-M "P -1"
_symmetry_group_IT_number 2
_symmetry_cell_setting 'triclinic'
loop_
_space_group_symop_operation_xyz
x,y,z
-x,-y,-z
loop_
_atom_site_type_symbol
_atom_site_label
_atom_site_fract_x
_atom_site_fract_y
_atom_site_fract_z
Si Si1 0.280900 0.354596 0.578564
Si Si2 0.170392 0.161890 0.672074
Si Si3 0.553261 0.130735 0.727820
Si Si4 0.515763 0.306673 0.814283
Si Si5 0.850732 0.821290 0.833437
Si Si6 0.951800 0.362446 0.912000
Si Si7 0.996302 0.599468 0.741068
Si Si8 0.114279 0.865932 0.882969
O O1 0.500000 0.500000 0.500000
O O2 0.296439 0.306401 0.652623
O O3 0.163031 0.207373 0.366703
O O4 0.139823 0.380318 0.755651
O O5 0.348724 0.203974 0.678706
O O6 0.000000 0.000000 0.500000
O O7 0.020044 0.146472 0.892821
O O8 0.585940 0.240334 0.738427
O O9 0.748657 0.215933 0.786374
O O10 0.500000 0.000000 0.500000
O O11 0.343608 0.042138 0.889114
O O12 0.737842 0.484181 0.821164
O O13 0.379490 0.290932 0.039294
O O14 0.970276 0.790740 0.756330
O O15 0.000000 0.000000 0.000000
O O16 0.000000 0.500000 0.000000
O O17 0.912817 0.358075 0.113964
O O18 0.000000 0.500000 0.500000
O O19 0.133218 0.761720 0.770409
#
# Coordination Sequence:
#
# PCOD9060661 Si02
#       8
#     2   2   2   2   2   2   2   2
#     4  12  27  47  76 110 144 195 249 307 369 437
#     4  11  27  45  72 108 149 185 247 314 371 440
#     4  12  26  46  78 107 147 202 251 300 381 447
#     4  11  25  46  73 105 146 195 246 306 375 442
#     4  11  23  43  75 103 142 187 245 298 367 440
#     4  12  28  49  74 111 152 193 256 309 367 455
#     4  12  27  48  68 105 147 194 245 304 377 438
#     4  11  25  44  72 103 142 187 242 305 366 440
#
# _framework density 22.007390000000001
#
# number of rings (size 3 to 8) (size 9 to 14) (size 15 to 20)
#    0.000    0.500    3.750    3.750    5.250    2.500 
#    0.000    0.000    0.000    0.000    0.000    0.000 
#    0.000    0.000    0.000    0.000    0.000    0.000 
#
# Total GULP energy -89500.572238 kJ/mol
# GULP energy per Si atom -5593.785765 kJ/mol
# Density = 2.195730 g / cm^3
# Si number density = 22.007390 Si / 1000 Ang^3
#
#
#
# Elastic Constant Matrix: (Units=GPa)
#
#
# Indices 1 2 3 4 5 6 
#
# 1 139.4063 24.8186 38.2565 -0.9905 22.7708 -2.4594
# 2 24.8186 82.1319 16.7132 -11.1813 11.0479 -2.0117
# 3 38.2565 16.7132 104.5549 2.8971 22.2119 5.2878
# 4 -0.9905 -11.1813 2.8971 40.1787 2.9687 4.0191
# 5 22.7708 11.0479 22.2119 2.9687 35.7050 2.1508
# 6 -2.4594 -2.0117 5.2878 4.0191 2.1508 41.7715
#
#
#
# Elastic Compliance Matrix: (Units=1/GPa)
#
#
# Indices 1 2 3 4 5 6 
#
# 1 0.008690 -0.001645 -0.002169 0.000100 -0.003746 0.000890
# 2 -0.001645 0.013858 -0.001134 0.004065 -0.002900 0.000472
# 3 -0.002169 -0.001134 0.011785 -0.000682 -0.005461 -0.001327
# 4 0.000100 0.004065 -0.000682 0.026502 -0.002974 -0.002109
# 5 -0.003746 -0.002900 -0.005461 -0.002974 0.035009 -0.001185
# 6 0.000890 0.000472 -0.001327 -0.002109 -0.001185 0.024447
#
#
# Mechanical properties :
#
#
# Convention : Reuss Voigt Hill
#
# Bulk Modulus (GPa) = 40.91961 53.96330 47.44145
# Shear Modulus (GPa) = 36.14473 39.95137 38.04805
#
# Velocity S-wave (km/s) = 4.05704 4.26533 4.16249
# Velocity P-wave (km/s) = 6.37024 6.98793 6.68622
#
# Compressibility (1/GPa) = 0.02443816
#
# Stress axis : x y z
#
# Youngs Moduli (GPa) = 115.08138 72.15827 84.85173
#
# Poissons Ratio (x) = 0.11871 0.18401
# Poissons Ratio (y) = 0.18933 0.09620
# Poissons Ratio (z) = 0.24956 0.08181
#
# Static dielectric constant tensor:
#      x y z
#    x 2.907030 -0.818010 1.243500 
#    y -0.818010 2.495470 -0.935830 
#    z 1.243500 -0.935830 3.231410 
# 
# From -- ./inp_files/279793.got.cif
#   From: 2010.05.17/outbox.cif.g08.bks.cpg/sg2_140_cif.got.tgz:279793.got - 2010.06.03 11:33:40.
