data_PCOD9060988
_publ_section_title
;
Structure prediction by ZEFSAII (Michael W. Deem and Ramdas Pophale) SiO2 
 PCOD9060988
Probable space group: P -1
;
_chemical_formula_sum "Si O2"
_cell_formula_units_Z 16
_cell_length_a 21.586180
_cell_length_b 13.430032
_cell_length_c 9.680428
_cell_angle_alpha 45.741953
_cell_angle_beta 151.758709
_cell_angle_gamma 143.602429
_cell_volume 787.351955
_symmetry_space_group_name_H-M "P -1"
_symmetry_group_IT_number 2
_symmetry_cell_setting 'triclinic'
loop_
_space_group_symop_operation_xyz
x,y,z
-x,-y,-z
loop_
_atom_site_type_symbol
_atom_site_label
_atom_site_fract_x
_atom_site_fract_y
_atom_site_fract_z
Si Si1 0.077005 0.588640 0.423301
Si Si2 0.832072 0.845823 0.874245
Si Si3 0.365108 0.982910 0.648944
Si Si4 0.913122 0.086139 0.200278
Si Si5 0.894451 0.680572 0.417544
Si Si6 0.547490 0.898295 0.600487
Si Si7 0.855807 0.682787 0.810323
Si Si8 0.637652 0.488888 0.335382
O O1 0.221449 0.784370 0.540057
O O2 0.117196 0.471456 0.538038
O O3 0.000000 0.500000 0.500000
O O4 0.930678 0.575879 0.073810
O O5 0.804877 0.716380 0.824462
O O6 0.714737 0.911166 0.578177
O O7 0.854368 0.778892 0.130845
O O8 0.000000 0.000000 0.000000
O O9 0.448289 0.055613 0.595124
O O10 0.500000 0.000000 0.000000
O O11 0.946983 0.202755 0.290080
O O12 0.002591 0.167958 0.150603
O O13 0.000000 0.000000 0.500000
O O14 0.727613 0.962852 0.929234
O O15 0.770980 0.589733 0.386054
O O16 0.425802 0.702981 0.581021
O O17 0.500000 0.000000 0.500000
O O18 0.702131 0.588096 0.507647
O O19 0.500000 0.500000 0.000000
#
# Coordination Sequence:
#
# PCOD9060988 Si02
#       8
#     2   2   2   2   2   2   2   2
#     4  12  24  45  68 106 134 175 235 283 344 405
#     4  12  22  46  74 104 131 182 232 280 343 411
#     4  12  28  46  69 104 143 178 228 289 341 405
#     4  11  23  44  71 101 133 180 230 280 333 409
#     4  11  25  42  76  98 136 180 229 284 339 410
#     4  12  26  45  67 100 141 177 225 279 344 400
#     4  11  24  42  75  98 135 179 233 284 336 414
#     4  11  26  45  66 100 139 181 225 278 342 406
#
# _framework density 20.321280999999999
#
# number of rings (size 3 to 8) (size 9 to 14) (size 15 to 20)
#    0.000    0.500    3.750    4.500    3.500    5.000 
#    0.000    1.875    0.000    0.000    0.000    0.000 
#    0.000    0.000    0.000    0.000    0.000    0.000 
#
# Total GULP energy -89213.543774 kJ/mol
# GULP energy per Si atom -5575.846486 kJ/mol
# Density = 2.027503 g / cm^3
# Si number density = 20.321281 Si / 1000 Ang^3
#
#
#
# Elastic Constant Matrix: (Units=GPa)
#
#
# Indices 1 2 3 4 5 6 
#
# 1 94.1148 27.3352 28.3005 -8.5357 -26.5345 -4.5666
# 2 27.3352 75.1293 9.8713 -3.3710 -15.4199 0.4438
# 3 28.3005 9.8713 118.7955 0.4382 -17.7421 -1.1201
# 4 -8.5357 -3.3710 0.4382 40.4042 -1.8070 -4.1322
# 5 -26.5345 -15.4199 -17.7421 -1.8070 34.9394 -10.8347
# 6 -4.5666 0.4438 -1.1201 -4.1322 -10.8347 42.0599
#
#
#
# Elastic Compliance Matrix: (Units=1/GPa)
#
#
# Indices 1 2 3 4 5 6 
#
# 1 0.015964 -0.003015 -0.001771 0.004190 0.011705 0.005145
# 2 -0.003015 0.015435 0.000178 0.000959 0.004934 0.000880
# 3 -0.001771 0.000178 0.009405 -0.000186 0.003816 0.001021
# 4 0.004190 0.000959 -0.000186 0.026478 0.006329 0.004671
# 5 0.011705 0.004934 0.003816 0.006329 0.046250 0.013856
# 6 0.005145 0.000880 0.001021 0.004671 0.013856 0.028380
#
#
# Mechanical properties :
#
#
# Convention : Reuss Voigt Hill
#
# Bulk Modulus (GPa) = 31.66011 46.56151 39.11081
# Shear Modulus (GPa) = 30.92933 38.31619 34.62276
#
# Velocity S-wave (km/s) = 3.90554 4.34697 4.13215
# Velocity P-wave (km/s) = 5.99593 6.93954 6.48492
#
# Compressibility (1/GPa) = 0.03158548
#
# Stress axis : x y z
#
# Youngs Moduli (GPa) = 62.64290 64.78855 106.32320
#
# Poissons Ratio (x) = 0.19537 0.18832
# Poissons Ratio (y) = 0.18890 -0.01888
# Poissons Ratio (z) = 0.11095 -0.01150
#
# Static dielectric constant tensor:
#      x y z
#    x 1.770420 -0.007100 -0.060860 
#    y -0.007100 1.422380 -0.211620 
#    z -0.060860 -0.211620 1.602910 
# 
# From -- ./inp_files/346001.got.cif
#   From: 2010.05.17/outbox.cif.g08.bks.cpg/sg2_174_cif.got.tgz:346001.got - 2010.06.03 11:33:40.
