data_PCOD9060630
_publ_section_title
;
Structure prediction by ZEFSAII (Michael W. Deem and Ramdas Pophale) SiO2 
 PCOD9060630
Probable space group: P -1
;
_chemical_formula_sum "Si O2"
_cell_formula_units_Z 16
_cell_length_a 11.463784
_cell_length_b 6.276232
_cell_length_c 23.072708
_cell_angle_alpha 123.346261
_cell_angle_beta 29.984800
_cell_angle_gamma 112.504759
_cell_volume 675.508277
_symmetry_space_group_name_H-M "P -1"
_symmetry_group_IT_number 2
_symmetry_cell_setting 'triclinic'
loop_
_space_group_symop_operation_xyz
x,y,z
-x,-y,-z
loop_
_atom_site_type_symbol
_atom_site_label
_atom_site_fract_x
_atom_site_fract_y
_atom_site_fract_z
Si Si1 0.992837 0.668714 0.108716
Si Si2 0.337975 0.060689 0.000083
Si Si3 0.240414 0.108783 0.915281
Si Si4 0.814879 0.106735 0.419070
Si Si5 0.723528 0.602924 0.326868
Si Si6 0.182609 0.318564 0.218396
Si Si7 0.427817 0.905932 0.690128
Si Si8 0.968113 0.890042 0.433789
O O1 0.922532 0.583295 0.189253
O O2 0.736007 0.818822 0.217738
O O3 0.157743 0.874490 0.064508
O O4 0.151541 0.403918 0.974907
O O5 0.247539 0.301792 0.119401
O O6 0.330961 0.112038 0.942299
O O7 0.598411 0.893404 0.880046
O O8 0.419247 0.926126 0.766766
O O9 0.000000 0.000000 0.000000
O O10 0.544225 0.274504 0.563430
O O11 0.950103 0.216167 0.324737
O O12 0.786336 0.811226 0.375255
O O13 0.961949 0.092305 0.413448
O O14 0.701128 0.315713 0.311510
O O15 0.147812 0.613455 0.301341
O O16 0.696778 0.850101 0.545169
O O17 0.000000 0.000000 0.500000
#
# Coordination Sequence:
#
# PCOD9060630 Si02
#       8
#     2   2   2   2   2   2   2   2
#     4  12  23  43  70 107 143 184 236 296 361 408
#     4  11  27  47  72 103 142 193 242 291 351 429
#     4  12  26  41  70 107 143 186 235 297 353 424
#     4  11  25  45  74 105 140 184 238 303 353 421
#     4  11  23  43  74 107 137 183 241 300 358 408
#     4  11  27  50  71 102 145 193 241 292 351 430
#     4  12  26  45  70 110 149 185 236 297 361 430
#     4  12  30  46  71 106 146 195 233 288 366 436
#
# _framework density 23.685866000000001
#
# number of rings (size 3 to 8) (size 9 to 14) (size 15 to 20)
#    0.000    0.500    6.250    0.375    7.000    2.000 
#    0.000    2.500    0.000    0.000    0.000    0.000 
#    0.000    0.000    0.000    0.000    0.000    0.000 
#
# Total GULP energy -89500.193990 kJ/mol
# GULP energy per Si atom -5593.762124 kJ/mol
# Density = 2.363196 g / cm^3
# Si number density = 23.685866 Si / 1000 Ang^3
#
#
#
# Elastic Constant Matrix: (Units=GPa)
#
#
# Indices 1 2 3 4 5 6 
#
# 1 103.9019 9.1142 13.4299 13.9286 14.8268 -13.9276
# 2 9.1142 39.3609 8.5370 17.3458 2.2082 3.3078
# 3 13.4299 8.5370 116.1375 8.4109 7.0891 1.4881
# 4 13.9286 17.3458 8.4109 44.0184 2.4758 8.0699
# 5 14.8268 2.2082 7.0891 2.4758 32.8998 1.4045
# 6 -13.9276 3.3078 1.4881 8.0699 1.4045 21.9749
#
#
#
# Elastic Compliance Matrix: (Units=1/GPa)
#
#
# Indices 1 2 3 4 5 6 
#
# 1 0.012696 -0.001115 -0.000818 -0.005030 -0.005539 0.010471
# 2 -0.001115 0.031096 -0.001291 -0.011434 -0.000400 -0.001076
# 3 -0.000818 -0.001291 0.008947 -0.000761 -0.001391 -0.000562
# 4 -0.005030 -0.011434 -0.000761 0.031262 0.001400 -0.012985
# 5 -0.005539 -0.000400 -0.001391 0.001400 0.033369 -0.006003
# 6 0.010471 -0.001076 -0.000562 -0.012985 -0.006003 0.057495
#
#
# Mechanical properties :
#
#
# Convention : Reuss Voigt Hill
#
# Bulk Modulus (GPa) = 21.60199 35.72918 28.66558
# Shear Modulus (GPa) = 25.41369 34.99990 30.20679
#
# Velocity S-wave (km/s) = 3.27914 3.84822 3.57502
# Velocity P-wave (km/s) = 4.84531 5.90444 5.40090
#
# Compressibility (1/GPa) = 0.04629204
#
# Stress axis : x y z
#
# Youngs Moduli (GPa) = 78.76260 32.15866 111.76709
#
# Poissons Ratio (x) = 0.03586 0.09142
# Poissons Ratio (y) = 0.08783 0.14424
# Poissons Ratio (z) = 0.06443 0.04150
#
# Static dielectric constant tensor:
#      x y z
#    x 1.989670 0.005590 0.035170 
#    y 0.005590 1.906600 0.022000 
#    z 0.035170 0.022000 1.895560 
# 
# From -- ./inp_files/365211.got.cif
#   From: 2010.05.17/outbox.cif.g08.bks.cpg/sg2_183_cif.got.tgz:365211.got - 2010.06.03 11:33:40.
