data_PCOD9060073
_publ_section_title
;
Structure prediction by ZEFSAII (Michael W. Deem and Ramdas Pophale) SiO2 
 PCOD9060073
Probable space group: P -1
;
_chemical_formula_sum "Si O2"
_cell_formula_units_Z 14
_cell_length_a 11.104886
_cell_length_b 9.648811
_cell_length_c 15.112838
_cell_angle_alpha 149.767806
_cell_angle_beta 50.376767
_cell_angle_gamma 115.297403
_cell_volume 595.226507
_symmetry_space_group_name_H-M "P -1"
_symmetry_group_IT_number 2
_symmetry_cell_setting 'triclinic'
loop_
_space_group_symop_operation_xyz
x,y,z
-x,-y,-z
loop_
_atom_site_type_symbol
_atom_site_label
_atom_site_fract_x
_atom_site_fract_y
_atom_site_fract_z
Si Si1 0.313318 0.512279 0.572919
Si Si2 0.355109 0.301248 0.236310
Si Si3 0.132837 0.097860 0.090850
Si Si4 0.081404 0.208881 0.861186
Si Si5 0.244814 0.384578 0.050155
Si Si6 0.389141 0.823403 0.418298
Si Si7 0.384433 0.883212 0.249871
O O1 0.500000 0.500000 0.500000
O O2 0.296260 0.449153 0.441462
O O3 0.210396 0.818061 0.833639
O O4 0.295945 0.222330 0.465137
O O5 0.437534 0.516312 0.271031
O O6 0.500000 0.000000 0.000000
O O7 0.219507 0.233450 0.201389
O O8 0.026548 0.952632 0.123304
O O9 0.107915 0.356083 0.170205
O O10 0.198171 0.978437 0.613000
O O11 0.200039 0.259306 0.910934
O O12 0.000000 0.500000 0.000000
O O13 0.270181 0.686390 0.172759
O O14 0.421039 0.210420 0.921045
O O15 0.414678 0.808998 0.296306
O O16 0.500000 0.000000 0.500000
#
# Coordination Sequence:
#
# PCOD9060073 Si02
#       7
#     2   2   2   2   2   2   2
#     4  12  23  43  72 111 147 192 246 311 373 434
#     4  12  26  43  78 116 146 193 254 313 365 446
#     4  12  26  49  71 107 155 198 248 305 382 443
#     4  12  29  47  76 110 152 198 246 316 381 444
#     4  11  23  46  71 103 145 194 236 310 371 438
#     4  12  25  48  77 107 146 193 253 310 371 448
#     4  11  23  42  75 107 141 184 254 304 366 433
#
# _framework density 23.520457
#
# number of rings (size 3 to 8) (size 9 to 14) (size 15 to 20)
#    0.000    0.286    5.714    3.000    6.000    0.571 
#    2.571    1.429    0.000    0.000    0.000    0.000 
#    0.000    0.000    0.000    0.000    0.000    0.000 
#
# Total GULP energy -78023.460033 kJ/mol
# GULP energy per Si atom -5573.104288 kJ/mol
# Density = 2.346692 g / cm^3
# Si number density = 23.520457 Si / 1000 Ang^3
#
#
#
# Elastic Constant Matrix: (Units=GPa)
#
#
# Indices 1 2 3 4 5 6 
#
# 1 94.0537 43.4456 20.5763 -0.1892 52.9303 -7.4696
# 2 43.4456 189.8874 45.7497 21.3959 18.1148 5.8539
# 3 20.5763 45.7497 88.2541 22.4479 15.4874 8.1485
# 4 -0.1892 21.3959 22.4479 63.1982 -7.4316 16.0549
# 5 52.9303 18.1148 15.4874 -7.4316 57.5913 -0.5260
# 6 -7.4696 5.8539 8.1485 16.0549 -0.5260 50.2829
#
#
#
# Elastic Compliance Matrix: (Units=1/GPa)
#
#
# Indices 1 2 3 4 5 6 
#
# 1 0.025187 -0.003504 0.000094 -0.002604 -0.022364 0.004732
# 2 -0.003504 0.006670 -0.002636 -0.000997 0.001698 -0.000534
# 3 0.000094 -0.002636 0.014554 -0.004562 -0.003766 -0.000620
# 4 -0.002604 -0.000997 -0.004562 0.020021 0.006463 -0.005856
# 5 -0.022364 0.001698 -0.003766 0.006463 0.039189 -0.004563
# 6 0.004732 -0.000534 -0.000620 -0.005856 -0.004563 0.022575
#
#
# Mechanical properties :
#
#
# Convention : Reuss Voigt Hill
#
# Bulk Modulus (GPa) = 29.13836 65.74871 47.44353
# Shear Modulus (GPa) = 32.95403 51.70939 42.33171
#
# Velocity S-wave (km/s) = 3.74716 4.69389 4.24699
# Velocity P-wave (km/s) = 5.58006 7.57570 6.65313
#
# Compressibility (1/GPa) = 0.03431903
#
# Stress axis : x y z
#
# Youngs Moduli (GPa) = 39.70356 149.92759 68.71098
#
# Poissons Ratio (x) = 0.52540 -0.00648
# Poissons Ratio (y) = 0.13914 0.18109
# Poissons Ratio (z) = -0.00375 0.39515
#
# Static dielectric constant tensor:
#      x y z
#    x 1.888750 0.013240 -0.084150 
#    y 0.013240 1.989780 -0.043880 
#    z -0.084150 -0.043880 1.857850 
# 
# From -- ./inp_files/516445.got.cif
#   From: 2010.05.17/outbox.cif.g08.bks.cpg/sg2_259_cif.got.tgz:516445.got - 2010.06.03 11:33:40.
