data_PCOD9060739
_publ_section_title
;
Structure prediction by ZEFSAII (Michael W. Deem and Ramdas Pophale) SiO2 
 PCOD9060739
Probable space group: P -1
;
_chemical_formula_sum "Si O2"
_cell_formula_units_Z 16
_cell_length_a 15.342800
_cell_length_b 12.116519
_cell_length_c 15.064425
_cell_angle_alpha 27.965469
_cell_angle_beta 44.725753
_cell_angle_gamma 34.188258
_cell_volume 735.786149
_symmetry_space_group_name_H-M "P -1"
_symmetry_group_IT_number 2
_symmetry_cell_setting 'triclinic'
loop_
_space_group_symop_operation_xyz
x,y,z
-x,-y,-z
loop_
_atom_site_type_symbol
_atom_site_label
_atom_site_fract_x
_atom_site_fract_y
_atom_site_fract_z
Si Si1 0.867626 0.559388 0.488796
Si Si2 0.605042 0.370794 0.281439
Si Si3 0.940243 0.953170 0.427053
Si Si4 0.398121 0.093315 0.094954
Si Si5 0.125538 0.084616 0.304885
Si Si6 0.411799 0.400787 0.247498
Si Si7 0.351296 0.964844 0.813885
Si Si8 0.394785 0.409335 0.559260
O O1 0.726927 0.596321 0.616690
O O2 0.000000 0.500000 0.500000
O O3 0.941150 0.291320 0.555953
O O4 0.792680 0.858585 0.274808
O O5 0.548777 0.269112 0.314743
O O6 0.478251 0.466584 0.381970
O O7 0.772032 0.139278 0.370134
O O8 0.605853 0.637784 0.055766
O O9 0.998045 0.142131 0.286029
O O10 0.934169 0.816702 0.621467
O O11 0.227575 0.190371 0.129328
O O12 0.481806 0.810279 0.299733
O O13 0.500000 0.000000 0.000000
O O14 0.247663 0.724194 0.476070
O O15 0.490781 0.223519 0.225330
O O16 0.348856 0.735921 0.037359
O O17 0.345662 0.215145 0.692456
#
# Coordination Sequence:
#
# PCOD9060739 Si02
#       8
#     2   2   2   2   2   2   2   2
#     4  12  26  46  71 100 139 182 217 278 350 405
#     4  12  23  42  68 101 133 179 233 275 333 403
#     4  11  25  42  65  98 142 179 221 271 342 410
#     4  12  24  39  70 101 129 180 233 282 330 386
#     4  11  23  44  65  99 140 182 223 276 336 406
#     4  11  25  45  72 106 129 171 238 281 335 401
#     4  11  24  45  75  99 132 176 226 290 332 396
#     4  12  22  43  71  98 135 177 233 282 325 401
#
# _framework density 21.745449000000001
#
# number of rings (size 3 to 8) (size 9 to 14) (size 15 to 20)
#    0.000    0.500    6.250    2.250    1.750    1.000 
#    2.250    0.000    0.000    0.000    0.000    0.000 
#    0.000    0.000    0.000    0.000    0.000    0.000 
#
# Total GULP energy -89500.888330 kJ/mol
# GULP energy per Si atom -5593.805521 kJ/mol
# Density = 2.169596 g / cm^3
# Si number density = 21.745449 Si / 1000 Ang^3
#
#
#
# Elastic Constant Matrix: (Units=GPa)
#
#
# Indices 1 2 3 4 5 6 
#
# 1 144.6587 24.3435 34.3289 8.8980 -0.8801 -17.1562
# 2 24.3435 68.1021 14.2111 8.9440 -5.5753 2.7501
# 3 34.3289 14.2111 96.9439 3.8492 -7.1264 -6.6328
# 4 8.8980 8.9440 3.8492 32.0200 -5.3990 -0.4704
# 5 -0.8801 -5.5753 -7.1264 -5.3990 35.4537 -1.5682
# 6 -17.1562 2.7501 -6.6328 -0.4704 -1.5682 38.2708
#
#
#
# Elastic Compliance Matrix: (Units=1/GPa)
#
#
# Indices 1 2 3 4 5 6 
#
# 1 0.008394 -0.002522 -0.002361 -0.001415 -0.000724 0.003488
# 2 -0.002522 0.016586 -0.001455 -0.003524 0.001604 -0.002552
# 3 -0.002361 -0.001455 0.011596 0.000039 0.002100 0.001142
# 4 -0.001415 -0.003524 0.000039 0.033367 0.004510 0.000221
# 5 -0.000724 0.001604 0.002100 0.004510 0.029602 0.001193
# 6 0.003488 -0.002552 0.001142 0.000221 0.001193 0.028126
#
#
# Mechanical properties :
#
#
# Convention : Reuss Voigt Hill
#
# Bulk Modulus (GPa) = 41.84236 50.60796 46.22516
# Shear Modulus (GPa) = 33.71250 36.93698 35.32474
#
# Velocity S-wave (km/s) = 3.94169 4.12589 4.03484
# Velocity P-wave (km/s) = 6.32452 6.78386 6.55821
#
# Compressibility (1/GPa) = 0.02389923
#
# Stress axis : x y z
#
# Youngs Moduli (GPa) = 119.13536 60.29118 86.23982
#
# Poissons Ratio (x) = 0.15205 0.20362
# Poissons Ratio (y) = 0.30046 0.12549
# Poissons Ratio (z) = 0.28128 0.08773
#
# Static dielectric constant tensor:
#      x y z
#    x 1.841050 0.013510 0.000150 
#    y 0.013510 1.783970 -0.022010 
#    z 0.000150 -0.022010 1.789650 
# 
# From -- ./inp_files/519566.got.cif
#   From: 2010.05.17/outbox.cif.g08.bks.cpg/sg2_260_cif.got.tgz:519566.got - 2010.06.03 11:33:40.
