data_PCOD9060843
_publ_section_title
;
Structure prediction by ZEFSAII (Michael W. Deem and Ramdas Pophale) SiO2 
 PCOD9060843
Probable space group: P -1
;
_chemical_formula_sum "Si O2"
_cell_formula_units_Z 16
_cell_length_a 5.705757
_cell_length_b 15.870751
_cell_length_c 9.391036
_cell_angle_alpha 70.209489
_cell_angle_beta 66.046967
_cell_angle_gamma 94.774884
_cell_volume 706.766656
_symmetry_space_group_name_H-M "P -1"
_symmetry_group_IT_number 2
_symmetry_cell_setting 'triclinic'
loop_
_space_group_symop_operation_xyz
x,y,z
-x,-y,-z
loop_
_atom_site_type_symbol
_atom_site_label
_atom_site_fract_x
_atom_site_fract_y
_atom_site_fract_z
Si Si1 0.075439 0.806708 0.766573
Si Si2 0.777472 0.412224 0.803709
Si Si3 0.210930 0.776324 0.193057
Si Si4 0.801382 0.051376 0.095991
Si Si5 0.290701 0.559868 0.530623
Si Si6 0.338197 0.276624 0.498814
Si Si7 0.574418 0.132353 0.622155
Si Si8 0.508477 0.699589 0.859417
O O1 0.092301 0.892536 0.819575
O O2 0.184563 0.844122 0.561856
O O3 0.279464 0.747984 0.814980
O O4 0.764840 0.754915 0.858900
O O5 0.731552 0.299006 0.886877
O O6 0.740159 0.418731 0.639999
O O7 0.040607 0.493554 0.708725
O O8 0.594832 0.404753 0.990589
O O9 0.372376 0.808964 0.278414
O O10 0.918357 0.722253 0.348006
O O11 0.233570 0.870043 0.048541
O O12 0.536338 0.973761 0.246888
O O13 0.000000 0.000000 0.000000
O O14 0.500000 0.500000 0.500000
O O15 0.408719 0.653301 0.533072
O O16 0.354046 0.170808 0.570972
O O17 0.331616 0.309080 0.322483
#
# Coordination Sequence:
#
# PCOD9060843 Si02
#       8
#     2   2   2   2   2   2   2   2
#     4  11  26  47  69 102 143 190 230 287 350 414
#     4  11  25  42  71 104 134 184 230 290 348 420
#     4  12  22  43  68  99 137 183 233 287 344 413
#     4  12  26  41  69 107 135 185 238 289 344 411
#     4  11  24  42  71 102 137 175 233 287 357 413
#     4  11  23  44  68  98 140 184 225 288 347 414
#     4  11  24  45  66  97 141 186 231 284 345 413
#     4  11  26  46  74 101 141 189 232 282 354 416
#
# _framework density 22.638304999999999
#
# number of rings (size 3 to 8) (size 9 to 14) (size 15 to 20)
#    0.000    0.750    6.250    0.750    5.250    1.500 
#    0.000    3.125    0.000    0.000    0.000    0.000 
#    0.000    0.000    0.000    0.000    0.000    0.000 
#
# Total GULP energy -89107.439944 kJ/mol
# GULP energy per Si atom -5569.214996 kJ/mol
# Density = 2.258678 g / cm^3
# Si number density = 22.638305 Si / 1000 Ang^3
#
#
#
# Elastic Constant Matrix: (Units=GPa)
#
#
# Indices 1 2 3 4 5 6 
#
# 1 49.4355 21.6592 10.7747 -28.4034 -3.4114 10.7295
# 2 21.6592 63.4018 23.2679 -27.4139 11.9602 12.6116
# 3 10.7747 23.2679 66.3963 -60.8694 25.5423 19.9635
# 4 -28.4034 -27.4139 -60.8694 31.3550 10.4092 -1.4893
# 5 -3.4114 11.9602 25.5423 10.4092 26.2033 -5.2404
# 6 10.7295 12.6116 19.9635 -1.4893 -5.2404 40.8090
#
#
#
# Elastic Compliance Matrix: (Units=1/GPa)
#
#
# Indices 1 2 3 4 5 6 
#
# 1 0.026722 -0.009343 -0.005726 0.000565 0.013176 0.000376
# 2 -0.009343 0.021067 -0.007121 -0.002944 -0.002933 -0.001055
# 3 -0.005726 -0.007121 -0.000285 -0.014947 0.009628 0.004537
# 4 0.000565 -0.002944 -0.014947 -0.005406 0.020230 0.010474
# 5 0.013176 -0.002933 0.009628 0.020230 0.023083 -0.003565
# 6 0.000376 -0.001055 0.004537 0.010474 -0.003565 0.022437
#
#
# Mechanical properties :
#
#
# Convention : Reuss Voigt Hill
#
# Bulk Modulus (GPa) = 320.16785 32.29304 176.23044
# Shear Modulus (GPa) = 37.58260 27.90893 32.74577
#
# Velocity S-wave (km/s) = 4.07889 3.51496 3.80738
# Velocity P-wave (km/s) = 12.80303 5.54698 9.86627
#
# Compressibility (1/GPa) = 0.00312336
#
# Stress axis : x y z
#
# Youngs Moduli (GPa) = 37.42198 47.46667 -3506.02620
#
# Poissons Ratio (x) = 0.44350 -20.07687
# Poissons Ratio (y) = 0.34965 -24.96529
# Poissons Ratio (z) = 0.21429 0.33799
#
# Static dielectric constant tensor:
#      x y z
#    x 3.610790 -2.657650 6.707480 
#    y -2.657650 6.012890 -10.706760 
#    z 6.707480 -10.706760 27.698860 
# 
# From -- ./inp_files/37619.got.cif
#   From: 2010.05.17/outbox.cif.g08.bks.cpg/sg2_19_cif.got.tgz:37619.got - 2010.06.03 11:33:40.
