data_PCOD9060273
_publ_section_title
;
Structure prediction by ZEFSAII (Michael W. Deem and Ramdas Pophale) SiO2 
 PCOD9060273
Probable space group: P -1
;
_chemical_formula_sum "Si O2"
_cell_formula_units_Z 14
_cell_length_a 17.499132
_cell_length_b 6.829974
_cell_length_c 14.464747
_cell_angle_alpha 121.895335
_cell_angle_beta 30.948553
_cell_angle_gamma 133.380498
_cell_volume 637.610225
_symmetry_space_group_name_H-M "P -1"
_symmetry_group_IT_number 2
_symmetry_cell_setting 'triclinic'
loop_
_space_group_symop_operation_xyz
x,y,z
-x,-y,-z
loop_
_atom_site_type_symbol
_atom_site_label
_atom_site_fract_x
_atom_site_fract_y
_atom_site_fract_z
Si Si1 0.558790 0.597087 0.232480
Si Si2 0.045248 0.324816 0.803221
Si Si3 0.121508 0.915826 0.907455
Si Si4 0.350022 0.280833 0.536283
Si Si5 0.619100 0.148228 0.002221
Si Si6 0.365965 0.788534 0.346263
Si Si7 0.005302 0.241953 0.610146
O O1 0.402887 0.359151 0.394530
O O2 0.651841 0.449348 0.056900
O O3 0.471363 0.692694 0.274175
O O4 0.681089 0.826975 0.237877
O O5 0.078705 0.626080 0.842172
O O6 0.185424 0.312819 0.720670
O O7 0.041498 0.236795 0.680864
O O8 0.879896 0.123411 0.988119
O O9 0.000000 0.000000 0.000000
O O10 0.500000 0.500000 0.500000
O O11 0.329411 0.990979 0.493388
O O12 0.499153 0.955183 0.164483
O O13 0.810984 0.194553 0.800753
O O14 0.500000 0.000000 0.000000
O O15 0.169228 0.524096 0.467574
O O16 0.000000 0.000000 0.500000
#
# Coordination Sequence:
#
# PCOD9060273 Si02
#       7
#     2   2   2   2   2   2   2
#     4  11  23  43  68  99 139 182 232 290 360 425
#     4  11  25  43  65 107 143 179 247 291 350 444
#     4  11  24  41  70 101 143 191 230 297 373 418
#     4  11  24  40  69 104 141 181 235 290 352 434
#     4  11  27  48  71 104 142 184 248 299 351 437
#     4  11  26  47  72 104 144 189 236 296 369 416
#     4  12  27  48  76 105 145 194 245 298 363 431
#
# _framework density 21.956989
#
# number of rings (size 3 to 8) (size 9 to 14) (size 15 to 20)
#    0.000    0.857    1.429    4.286    8.000    9.714 
#    0.000    0.000    0.000    0.000    0.000    0.000 
#    0.000    0.000    0.000    0.000    0.000    0.000 
#
# Total GULP energy -78107.934727 kJ/mol
# GULP energy per Si atom -5579.138195 kJ/mol
# Density = 2.190701 g / cm^3
# Si number density = 21.956989 Si / 1000 Ang^3
#
#
#
# Elastic Constant Matrix: (Units=GPa)
#
#
# Indices 1 2 3 4 5 6 
#
# 1 118.8227 58.3718 52.9281 8.5524 -10.2755 -6.2652
# 2 58.3718 169.6072 69.1314 17.6303 -3.4006 -5.1888
# 3 52.9281 69.1314 104.2743 -0.0404 -19.7983 -13.3159
# 4 8.5524 17.6303 -0.0404 38.0993 4.0971 -0.7248
# 5 -10.2755 -3.4006 -19.7983 4.0971 46.9108 -5.0158
# 6 -6.2652 -5.1888 -13.3159 -0.7248 -5.0158 36.8157
#
#
#
# Elastic Compliance Matrix: (Units=1/GPa)
#
#
# Indices 1 2 3 4 5 6 
#
# 1 0.011540 -0.001981 -0.004392 -0.001751 0.000700 0.000157
# 2 -0.001981 0.009165 -0.005630 -0.003616 -0.001982 -0.001423
# 3 -0.004392 -0.005630 0.017490 0.003035 0.006357 0.005711
# 4 -0.001751 -0.003616 0.003035 0.028521 -0.001791 0.000608
# 5 0.000700 -0.001982 0.006357 -0.001791 0.024751 0.005476
# 6 0.000157 -0.001423 0.005711 0.000608 0.005476 0.029812
#
#
# Mechanical properties :
#
#
# Convention : Reuss Voigt Hill
#
# Bulk Modulus (GPa) = 70.47890 83.72965 77.10427
# Shear Modulus (GPa) = 33.32982 38.51668 35.92325
#
# Velocity S-wave (km/s) = 3.90033 4.19285 4.04923
# Velocity P-wave (km/s) = 7.24235 7.85215 7.55341
#
# Compressibility (1/GPa) = 0.01418864
#
# Stress axis : x y z
#
# Youngs Moduli (GPa) = 86.65387 109.10815 57.17622
#
# Poissons Ratio (x) = 0.21609 0.25113
# Poissons Ratio (y) = 0.17162 0.32193
# Poissons Ratio (z) = 0.38060 0.61433
#
# Static dielectric constant tensor:
#      x y z
#    x -1.315350 2.559230 -16.604830 
#    y 2.559230 -0.363030 13.865160 
#    z -16.604830 13.865160 -86.828370 
# 
# From -- ./inp_files/40331.got.cif
#   From: 2010.05.17/outbox.cif.g08.bks.cpg/sg2_21_cif.got.tgz:40331.got - 2010.06.03 11:33:40.
