data_PCOD9060423
_publ_section_title
;
Structure prediction by ZEFSAII (Michael W. Deem and Ramdas Pophale) SiO2 
 PCOD9060423
Probable space group: P -1
;
_chemical_formula_sum "Si O2"
_cell_formula_units_Z 14
_cell_length_a 6.591831
_cell_length_b 18.444635
_cell_length_c 8.018378
_cell_angle_alpha 58.058115
_cell_angle_beta 118.742954
_cell_angle_gamma 135.439668
_cell_volume 571.567094
_symmetry_space_group_name_H-M "P -1"
_symmetry_group_IT_number 2
_symmetry_cell_setting 'triclinic'
loop_
_space_group_symop_operation_xyz
x,y,z
-x,-y,-z
loop_
_atom_site_type_symbol
_atom_site_label
_atom_site_fract_x
_atom_site_fract_y
_atom_site_fract_z
Si Si1 0.163754 0.353879 0.409015
Si Si2 0.076374 0.226113 0.233663
Si Si3 0.343088 0.846798 0.329066
Si Si4 0.090637 0.129335 0.031117
Si Si5 0.366382 0.755211 0.115148
Si Si6 0.789178 0.011701 0.551923
Si Si7 0.176404 0.534418 0.352258
O O1 0.216101 0.333541 0.265502
O O2 0.086518 0.435016 0.319926
O O3 0.475774 0.403033 0.556205
O O4 0.892951 0.239942 0.522576
O O5 0.196903 0.215368 0.121024
O O6 0.763524 0.194304 0.096911
O O7 0.025079 0.135692 0.445347
O O8 0.356406 0.777814 0.276499
O O9 0.654910 0.936183 0.426212
O O10 0.213818 0.902241 0.120126
O O11 0.314606 0.188469 0.897045
O O12 0.107860 0.036909 0.218910
O O13 0.166577 0.626924 0.160794
O O14 0.500000 0.000000 0.500000
O O15 0.000000 0.500000 0.500000
#
# Coordination Sequence:
#
# PCOD9060423 Si02
#       7
#     2   2   2   2   2   2   2
#     4  11  23  43  70  98 133 178 226 280 343 402
#     4  11  26  46  66 101 140 178 229 279 331 410
#     4  11  24  43  71 101 139 181 227 277 337 408
#     4  11  25  44  67 100 144 182 224 280 339 396
#     4  11  23  44  69 100 136 176 230 279 340 407
#     4  12  24  46  68 103 142 180 232 273 332 411
#     4  11  24  42  71 100 129 177 227 280 347 405
#
# _framework density 24.494060999999999
#
# number of rings (size 3 to 8) (size 9 to 14) (size 15 to 20)
#    0.000    0.857    5.714    0.429    2.000    4.571 
#    5.143    1.429    0.000    0.000    0.000    0.000 
#    0.000    0.000    0.000    0.000    0.000    0.000 
#
# Total GULP energy -78319.958325 kJ/mol
# GULP energy per Si atom -5594.282738 kJ/mol
# Density = 2.443831 g / cm^3
# Si number density = 24.494061 Si / 1000 Ang^3
#
#
#
# Elastic Constant Matrix: (Units=GPa)
#
#
# Indices 1 2 3 4 5 6 
#
# 1 119.4163 25.8336 33.1858 -13.0356 -4.0087 -36.1043
# 2 25.8336 90.7404 34.0611 3.6975 6.5618 -32.0531
# 3 33.1858 34.0611 74.2409 -9.5097 11.0258 -16.6773
# 4 -13.0356 3.6975 -9.5097 35.5821 -7.1002 -7.6632
# 5 -4.0087 6.5618 11.0258 -7.1002 47.3820 2.1825
# 6 -36.1043 -32.0531 -16.6773 -7.6632 2.1825 45.9398
#
#
#
# Elastic Compliance Matrix: (Units=1/GPa)
#
#
# Indices 1 2 3 4 5 6 
#
# 1 0.013157 0.000871 -0.003366 0.006591 0.002270 0.010718
# 2 0.000871 0.016625 -0.005645 -0.001042 -0.001538 0.010134
# 3 -0.003366 -0.005645 0.018802 0.003940 -0.003336 0.001057
# 4 0.006591 -0.001042 0.003940 0.035060 0.004508 0.011518
# 5 0.002270 -0.001538 -0.003336 0.004508 0.023001 -0.000841
# 6 0.010718 0.010134 0.001057 0.011518 -0.000841 0.039606
#
#
# Mechanical properties :
#
#
# Convention : Reuss Voigt Hill
#
# Bulk Modulus (GPa) = 30.95676 52.28430 41.62053
# Shear Modulus (GPa) = 28.85173 38.53526 33.69349
#
# Velocity S-wave (km/s) = 3.43579 3.97072 3.71290
# Velocity P-wave (km/s) = 5.32968 6.51262 5.95062
#
# Compressibility (1/GPa) = 0.03230312
#
# Stress axis : x y z
#
# Youngs Moduli (GPa) = 76.00434 60.15080 53.18582
#
# Poissons Ratio (x) = -0.05238 0.17903
# Poissons Ratio (y) = -0.06619 0.30025
# Poissons Ratio (z) = 0.25584 0.33956
#
# Static dielectric constant tensor:
#      x y z
#    x 2.015960 -0.070720 -0.030570 
#    y -0.070720 1.968020 0.027510 
#    z -0.030570 0.027510 1.938080 
# 
# From -- ./inp_files/138958.got.cif
#   From: 2010.05.17/outbox.cif.g08.bks.cpg/sg2_70_cif.got.tgz:138958.got - 2010.06.03 11:33:40.
