data_PCOD9060916
_publ_section_title
;
Structure prediction by ZEFSAII (Michael W. Deem and Ramdas Pophale) SiO2 
 PCOD9060916
Probable space group: P -1
;
_chemical_formula_sum "Si O2"
_cell_formula_units_Z 14
_cell_length_a 14.942911
_cell_length_b 8.478825
_cell_length_c 12.705034
_cell_angle_alpha 149.350816
_cell_angle_beta 46.014076
_cell_angle_gamma 124.420552
_cell_volume 588.147709
_symmetry_space_group_name_H-M "P -1"
_symmetry_group_IT_number 2
_symmetry_cell_setting 'triclinic'
loop_
_space_group_symop_operation_xyz
x,y,z
-x,-y,-z
loop_
_atom_site_type_symbol
_atom_site_label
_atom_site_fract_x
_atom_site_fract_y
_atom_site_fract_z
Si Si1 0.137532 0.549889 0.960411
Si Si2 0.920844 0.794739 0.871968
Si Si3 0.364098 0.379343 0.520222
Si Si4 0.327280 0.497412 0.372357
Si Si5 0.709056 0.811821 0.199967
Si Si6 0.077902 0.219301 0.381005
Si Si7 0.454629 0.686208 0.040172
O O1 0.248350 0.524662 0.768311
O O2 0.186060 0.303671 0.867542
O O3 0.000000 0.500000 0.000000
O O4 0.122362 0.900909 0.218723
O O5 0.943591 0.860890 0.769367
O O6 0.961332 0.427971 0.642748
O O7 0.778282 0.856903 0.058481
O O8 0.000000 0.000000 0.000000
O O9 0.500000 0.500000 0.500000
O O10 0.336998 0.441236 0.455681
O O11 0.378616 0.008886 0.314731
O O12 0.188249 0.445485 0.421564
O O13 0.354125 0.850119 0.525641
O O14 0.422857 0.258436 0.095484
O O15 0.621700 0.536950 0.097758
O O16 0.500000 0.500000 0.000000
#
# Coordination Sequence:
#
# PCOD9060916 Si02
#       7
#     2   2   2   2   2   2   2
#     4  12  28  44  69 107 147 187 238 301 362 421
#     4  11  23  44  70 100 138 190 232 287 349 437
#     4  12  26  48  73 102 146 195 245 293 358 439
#     4  12  24  45  74 101 139 191 243 292 358 439
#     4  12  25  43  69 102 147 179 237 300 367 413
#     4  11  25  43  71  99 140 186 241 280 356 429
#     4  12  25  44  72 105 140 183 242 303 365 419
#
# _framework density 23.803540999999999
#
# number of rings (size 3 to 8) (size 9 to 14) (size 15 to 20)
#    0.000    0.286    1.429    7.714    6.000    0.571 
#    0.000    0.000    0.000    0.000    0.000    0.000 
#    0.000    0.000    0.000    0.000    0.000    0.000 
#
# Total GULP energy -78428.471508 kJ/mol
# GULP energy per Si atom -5602.033679 kJ/mol
# Density = 2.374936 g / cm^3
# Si number density = 23.803541 Si / 1000 Ang^3
#
#
#
# Elastic Constant Matrix: (Units=GPa)
#
#
# Indices 1 2 3 4 5 6 
#
# 1 128.1778 24.5440 16.9557 4.3639 9.1022 -0.6718
# 2 24.5440 63.2748 18.0786 8.1021 -1.3511 -6.9566
# 3 16.9557 18.0786 118.1485 8.0548 -19.1344 -6.8606
# 4 4.3639 8.1021 8.0548 55.2664 -3.7318 -5.7448
# 5 9.1022 -1.3511 -19.1344 -3.7318 38.5034 -0.1540
# 6 -0.6718 -6.9566 -6.8606 -5.7448 -0.1540 50.3696
#
#
#
# Elastic Compliance Matrix: (Units=1/GPa)
#
#
# Indices 1 2 3 4 5 6 
#
# 1 0.008775 -0.003127 -0.001251 -0.000299 -0.002837 -0.000528
# 2 -0.003127 0.018062 -0.002043 -0.001887 0.000183 0.001960
# 3 -0.001251 -0.002043 0.009877 -0.000595 0.005079 0.000994
# 4 -0.000299 -0.001887 -0.000595 0.018772 0.001535 0.001800
# 5 -0.002837 0.000183 0.005079 0.001535 0.029325 0.000944
# 6 -0.000528 0.001960 0.000994 0.001800 0.000944 0.020460
#
#
# Mechanical properties :
#
#
# Convention : Reuss Voigt Hill
#
# Bulk Modulus (GPa) = 41.88892 47.63977 44.76434
# Shear Modulus (GPa) = 39.66102 45.49607 42.57854
#
# Velocity S-wave (km/s) = 4.08632 4.37660 4.23395
# Velocity P-wave (km/s) = 6.31664 6.75253 6.53822
#
# Compressibility (1/GPa) = 0.02387266
#
# Stress axis : x y z
#
# Youngs Moduli (GPa) = 113.96492 55.36598 101.24783
#
# Poissons Ratio (x) = 0.17311 0.12661
# Poissons Ratio (y) = 0.35634 0.20685
# Poissons Ratio (z) = 0.14251 0.11311
#
# Static dielectric constant tensor:
#      x y z
#    x 1.898490 -0.000480 0.009420 
#    y -0.000480 1.920350 0.025270 
#    z 0.009420 0.025270 1.865090 
# 
# From -- ./inp_files/61088.got.cif
#   From: 2010.05.17/outbox.cif.g08.bks.cpg/sg2_31_cif.got.tgz:61088.got - 2010.06.03 11:33:40.
