data_PCOD9060501
_publ_section_title
;
Structure prediction by ZEFSAII (Michael W. Deem and Ramdas Pophale) SiO2 
 PCOD9060501
Probable space group: P -1
;
_chemical_formula_sum "Si O2"
_cell_formula_units_Z 14
_cell_length_a 12.054752
_cell_length_b 9.055477
_cell_length_c 9.155723
_cell_angle_alpha 118.694294
_cell_angle_beta 68.844158
_cell_angle_gamma 70.302350
_cell_volume 639.021649
_symmetry_space_group_name_H-M "P -1"
_symmetry_group_IT_number 2
_symmetry_cell_setting 'triclinic'
loop_
_space_group_symop_operation_xyz
x,y,z
-x,-y,-z
loop_
_atom_site_type_symbol
_atom_site_label
_atom_site_fract_x
_atom_site_fract_y
_atom_site_fract_z
Si Si1 0.396418 0.617961 0.966505
Si Si2 0.936350 0.224631 0.213574
Si Si3 0.084206 0.400696 0.727333
Si Si4 0.595452 0.957690 0.081446
Si Si5 0.758753 0.598082 0.078583
Si Si6 0.578582 0.575910 0.586424
Si Si7 0.835469 0.892968 0.721210
O O1 0.318477 0.512797 0.899385
O O2 0.510004 0.606617 0.793578
O O3 0.500000 0.500000 0.000000
O O4 0.261245 0.867676 0.181317
O O5 0.970487 0.360246 0.165191
O O6 0.756115 0.392731 0.399549
O O7 0.008053 0.182455 0.319789
O O8 0.000000 0.000000 0.000000
O O9 0.210682 0.308623 0.750878
O O10 0.145868 0.266076 0.484673
O O11 0.933967 0.428352 0.857708
O O12 0.655362 0.769555 0.080209
O O13 0.487333 0.187601 0.321698
O O14 0.744693 0.908106 0.914209
O O15 0.500000 0.000000 0.000000
O O16 0.500000 0.500000 0.500000
#
# Coordination Sequence:
#
# PCOD9060501 Si02
#       7
#     2   2   2   2   2   2   2
#     4  11  26  47  67 104 143 183 230 291 355 419
#     4  12  24  45  75 102 141 184 244 296 343 426
#     4  11  25  42  72 106 138 185 235 296 357 407
#     4  11  23  43  72 100 135 182 232 287 345 419
#     4  11  24  45  69 102 151 179 231 296 355 420
#     4  11  25  44  70  98 133 183 234 281 348 415
#     4  11  24  44  71 102 135 188 245 280 350 424
#
# _framework density 21.908491999999999
#
# number of rings (size 3 to 8) (size 9 to 14) (size 15 to 20)
#    0.000    0.857    1.429    6.429    4.000    1.714 
#    2.571    4.286    0.000    0.000    0.000    0.000 
#    0.000    0.000    0.000    0.000    0.000    0.000 
#
# Total GULP energy -78231.566387 kJ/mol
# GULP energy per Si atom -5587.969028 kJ/mol
# Density = 2.185863 g / cm^3
# Si number density = 21.908492 Si / 1000 Ang^3
#
#
#
# Elastic Constant Matrix: (Units=GPa)
#
#
# Indices 1 2 3 4 5 6 
#
# 1 123.0743 29.1471 32.8878 13.4490 -5.8755 -14.7964
# 2 29.1471 103.1830 24.9396 11.2921 6.7000 -11.6705
# 3 32.8878 24.9396 103.5345 19.8944 3.0378 0.8381
# 4 13.4490 11.2921 19.8944 26.3785 3.2723 3.2847
# 5 -5.8755 6.7000 3.0378 3.2723 48.3658 -6.3622
# 6 -14.7964 -11.6705 0.8381 3.2847 -6.3622 41.4195
#
#
#
# Elastic Compliance Matrix: (Units=1/GPa)
#
#
# Indices 1 2 3 4 5 6 
#
# 1 0.010062 -0.001640 -0.002225 -0.003514 0.002329 0.003814
# 2 -0.001640 0.011242 -0.001608 -0.002961 -0.001103 0.002680
# 3 -0.002225 -0.001608 0.012150 -0.007160 -0.000457 -0.000996
# 4 -0.003514 -0.002961 -0.007160 0.047598 -0.003613 -0.006274
# 5 0.002329 -0.001103 -0.000457 -0.003613 0.021935 0.004186
# 6 0.003814 0.002680 -0.000996 -0.006274 0.004186 0.027421
#
#
# Mechanical properties :
#
#
# Convention : Reuss Voigt Hill
#
# Bulk Modulus (GPa) = 44.42708 55.97118 50.19913
# Shear Modulus (GPa) = 33.58954 39.42058 36.50506
#
# Velocity S-wave (km/s) = 3.91983 4.24645 4.08640
# Velocity P-wave (km/s) = 6.38821 7.04601 6.72516
#
# Compressibility (1/GPa) = 0.02250879
#
# Stress axis : x y z
#
# Youngs Moduli (GPa) = 99.38660 88.95218 82.30492
#
# Poissons Ratio (x) = 0.14586 0.18314
# Poissons Ratio (y) = 0.16297 0.13231
# Poissons Ratio (z) = 0.22115 0.14299
#
# Static dielectric constant tensor:
#      x y z
#    x 1.819720 0.008090 0.010690 
#    y 0.008090 1.775260 0.034280 
#    z 0.010690 0.034280 1.740490 
# 
# From -- ./inp_files/156620.got.cif
#   From: 2010.05.17/outbox.cif.g08.bks.cpg/sg2_79_cif.got.tgz:156620.got - 2010.06.03 11:33:40.
