data_PCOD9060357
_publ_section_title
;
Structure prediction by ZEFSAII (Michael W. Deem and Ramdas Pophale) SiO2 
 PCOD9060357
Probable space group: P -1
;
_chemical_formula_sum "Si O2"
_cell_formula_units_Z 16
_cell_length_a 19.980067
_cell_length_b 9.428172
_cell_length_c 13.641244
_cell_angle_alpha 32.971967
_cell_angle_beta 32.727123
_cell_angle_gamma 37.109342
_cell_volume 718.399341
_symmetry_space_group_name_H-M "P -1"
_symmetry_group_IT_number 2
_symmetry_cell_setting 'triclinic'
loop_
_space_group_symop_operation_xyz
x,y,z
-x,-y,-z
loop_
_atom_site_type_symbol
_atom_site_label
_atom_site_fract_x
_atom_site_fract_y
_atom_site_fract_z
Si Si1 0.484236 0.798021 0.720819
Si Si2 0.346355 0.030807 0.953740
Si Si3 0.799703 0.962846 0.607166
Si Si4 0.420146 0.317059 0.995826
Si Si5 0.126569 0.951914 0.745667
Si Si6 0.240456 0.644554 0.393585
Si Si7 0.004558 0.440209 0.754075
Si Si8 0.382368 0.528849 0.702085
O O1 0.423398 0.962461 0.797152
O O2 0.629579 0.585156 0.671529
O O3 0.500000 0.000000 0.500000
O O4 0.394646 0.606073 0.915837
O O5 0.452898 0.882574 0.991884
O O6 0.304432 0.345195 0.852106
O O7 0.231806 0.896668 0.184030
O O8 0.686742 0.839173 0.782094
O O9 0.895431 0.715445 0.694748
O O10 0.868467 0.030272 0.387354
O O11 0.750483 0.228471 0.583803
O O12 0.433450 0.404195 0.816858
O O13 0.277403 0.826733 0.668450
O O14 0.060883 0.248829 0.701518
O O15 0.050741 0.750834 0.997485
O O16 0.121080 0.528104 0.606164
O O17 0.500000 0.500000 0.500000
#
# Coordination Sequence:
#
# PCOD9060357 Si02
#       8
#     2   2   2   2   2   2   2   2
#     4  11  27  42  65 106 145 181 226 289 358 412
#     4  11  24  44  66 103 140 188 225 282 358 414
#     4  12  25  46  73 101 131 189 235 288 347 403
#     4  11  23  43  70 100 141 179 233 284 344 421
#     4  11  27  45  72 106 135 181 239 283 351 411
#     4  11  25  44  70  97 139 182 234 284 344 419
#     4  11  26  51  68  99 143 181 237 288 339 416
#     4  12  24  40  73 103 142 177 227 293 345 415
#
# _framework density 22.271733999999999
#
# number of rings (size 3 to 8) (size 9 to 14) (size 15 to 20)
#    0.000    0.750    2.500    4.125   14.000    0.500 
#    2.250    0.000    0.000    0.000    0.000    0.000 
#    0.000    0.000    0.000    0.000    0.000    0.000 
#
# Total GULP energy -89477.580663 kJ/mol
# GULP energy per Si atom -5592.348791 kJ/mol
# Density = 2.222104 g / cm^3
# Si number density = 22.271734 Si / 1000 Ang^3
#
#
#
# Elastic Constant Matrix: (Units=GPa)
#
#
# Indices 1 2 3 4 5 6 
#
# 1 71.0114 14.6103 33.4425 10.0465 -3.8219 20.2137
# 2 14.6103 70.0924 1.6300 12.2902 5.4915 19.4681
# 3 33.4425 1.6300 97.4895 19.5742 12.2751 4.3442
# 4 10.0465 12.2902 19.5742 33.8888 5.6343 7.2387
# 5 -3.8219 5.4915 12.2751 5.6343 46.4709 8.8498
# 6 20.2137 19.4681 4.3442 7.2387 8.8498 24.0832
#
#
#
# Elastic Compliance Matrix: (Units=1/GPa)
#
#
# Indices 1 2 3 4 5 6 
#
# 1 0.025164 0.000637 -0.008896 0.001028 0.008702 -0.023538
# 2 0.000637 0.019021 0.000928 -0.004569 0.000983 -0.015066
# 3 -0.008896 0.000928 0.015076 -0.007243 -0.005506 0.008197
# 4 0.001028 -0.004569 -0.007243 0.036563 -0.000635 -0.006620
# 5 0.008702 0.000983 -0.005506 -0.000635 0.026845 -0.016779
# 6 -0.023538 -0.015066 0.008197 -0.006620 -0.016779 0.080134
#
#
# Mechanical properties :
#
#
# Convention : Reuss Voigt Hill
#
# Bulk Modulus (GPa) = 22.42162 37.55099 29.98631
# Shear Modulus (GPa) = 21.52101 33.48260 27.50180
#
# Velocity S-wave (km/s) = 3.11190 3.88153 3.51783
# Velocity P-wave (km/s) = 4.79594 6.08156 5.47661
#
# Compressibility (1/GPa) = 0.04459980
#
# Stress axis : x y z
#
# Youngs Moduli (GPa) = 39.73995 52.57281 66.33096
#
# Poissons Ratio (x) = -0.03350 0.59008
# Poissons Ratio (y) = -0.02532 -0.06158
# Poissons Ratio (z) = 0.35353 -0.04881
#
# Static dielectric constant tensor:
#      x y z
#    x 1.823620 0.001330 -0.031810 
#    y 0.001330 1.878880 -0.041070 
#    z -0.031810 -0.041070 1.855570 
# 
# From -- ./inp_files/461796.got.cif
#   From: 2010.05.17/outbox.cif.g08.bks.cpg/sg2_231_cif.got.tgz:461796.got - 2010.06.03 11:33:40.
