data_PCOD9060045
_publ_section_title
;
Structure prediction by ZEFSAII (Michael W. Deem and Ramdas Pophale) SiO2 
 PCOD9060045
Probable space group: P -1
;
_chemical_formula_sum "Si O2"
_cell_formula_units_Z 16
_cell_length_a 9.851978
_cell_length_b 18.344338
_cell_length_c 9.740441
_cell_angle_alpha 73.253710
_cell_angle_beta 138.074449
_cell_angle_gamma 131.006332
_cell_volume 814.771291
_symmetry_space_group_name_H-M "P -1"
_symmetry_group_IT_number 2
_symmetry_cell_setting 'triclinic'
loop_
_space_group_symop_operation_xyz
x,y,z
-x,-y,-z
loop_
_atom_site_type_symbol
_atom_site_label
_atom_site_fract_x
_atom_site_fract_y
_atom_site_fract_z
Si Si1 0.382152 0.777469 0.213232
Si Si2 0.190224 0.759436 0.366973
Si Si3 0.840285 0.789441 0.421962
Si Si4 0.902946 0.295056 0.245982
Si Si5 0.387461 0.099543 0.155418
Si Si6 0.767949 0.782860 0.051894
Si Si7 0.469277 0.007899 0.811411
Si Si8 0.875134 0.390944 0.407067
O O1 0.271441 0.735362 0.304913
O O2 0.641125 0.791007 0.360937
O O3 0.469406 0.888543 0.222166
O O4 0.161922 0.711886 0.958510
O O5 0.454235 0.857969 0.602302
O O6 0.043112 0.660693 0.410517
O O7 0.994735 0.780632 0.175164
O O8 0.876521 0.714920 0.553063
O O9 0.150818 0.906255 0.585179
O O10 0.735837 0.759776 0.203159
O O11 0.618901 0.189866 0.166636
O O12 0.965421 0.388969 0.322956
O O13 0.161693 0.109149 0.975705
O O14 0.333191 0.000459 0.117112
O O15 0.465039 0.692288 0.803151
O O16 0.500000 0.000000 0.000000
O O17 0.000000 0.500000 0.500000
#
# Coordination Sequence:
#
# PCOD9060045 Si02
#       8
#     2   2   2   2   2   2   2   2
#     4  12  22  34  58  86 119 155 188 244 279 318
#     4  10  22  38  55  88 120 146 185 239 299 329
#     4  11  18  36  61  79 112 163 196 225 273 334
#     4   9  18  35  56  81 113 143 190 229 279 338
#     4   9  18  35  53  76 117 151 194 232 264 328
#     4  10  17  38  64  78 114 156 186 229 294 337
#     4  11  19  35  55  85 114 153 214 231 251 332
#     4  10  21  40  66  88 108 141 193 237 279 365
#
# _framework density 19.637414
#
# number of rings (size 3 to 8) (size 9 to 14) (size 15 to 20)
#    0.000    2.000    8.750    0.375    0.000    3.000 
#    0.000    1.250    0.000    1.500    0.000    0.000 
#    0.000    0.000    0.000    0.000    0.000    0.000 
#
# Total GULP energy -89245.094845 kJ/mol
# GULP energy per Si atom -5577.818428 kJ/mol
# Density = 1.959272 g / cm^3
# Si number density = 19.637414 Si / 1000 Ang^3
#
#
#
# Elastic Constant Matrix: (Units=GPa)
#
#
# Indices 1 2 3 4 5 6 
#
# 1 97.7130 17.4282 25.0917 -3.4074 -8.1881 -28.7652
# 2 17.4282 68.4771 23.4670 7.4012 3.3536 -38.4946
# 3 25.0917 23.4670 76.9438 -6.4787 -4.7085 -12.9573
# 4 -3.4074 7.4012 -6.4787 21.6840 -15.7166 -1.7589
# 5 -8.1881 3.3536 -4.7085 -15.7166 37.8879 -5.1659
# 6 -28.7652 -38.4946 -12.9573 -1.7589 -5.1659 30.9534
#
#
#
# Elastic Compliance Matrix: (Units=1/GPa)
#
#
# Indices 1 2 3 4 5 6 
#
# 1 0.023695 0.022619 -0.004609 0.008028 0.012804 0.050813
# 2 0.022619 0.077471 -0.012788 -0.012976 0.006376 0.112338
# 3 -0.004609 -0.012788 0.017987 0.012535 0.006081 -0.010931
# 4 0.008028 -0.012976 0.012535 0.086192 0.041336 0.008368
# 5 0.012804 0.006376 0.006081 0.041336 0.051031 0.033240
# 6 0.050813 0.112338 -0.010931 0.008368 0.033240 0.220682
#
#
# Mechanical properties :
#
#
# Convention : Reuss Voigt Hill
#
# Bulk Modulus (GPa) = 7.71638 41.67861 24.69749
# Shear Modulus (GPa) = 9.80751 29.91485 19.86118
#
# Velocity S-wave (km/s) = 2.23722 3.90726 3.18369
# Velocity P-wave (km/s) = 3.25753 6.45180 5.11064
#
# Compressibility (1/GPa) = 0.12959452
#
# Stress axis : x y z
#
# Youngs Moduli (GPa) = 42.20352 12.90810 55.59658
#
# Poissons Ratio (x) = -0.29196 0.25625
# Poissons Ratio (y) = -0.95459 0.71099
# Poissons Ratio (z) = 0.19452 0.16507
#
# Static dielectric constant tensor:
#      x y z
#    x 1.747160 0.006310 0.013390 
#    y 0.006310 1.720230 -0.005120 
#    z 0.013390 -0.005120 1.715490 
# 
# From -- ./inp_files/215222.got.cif
#   From: 2010.05.17/outbox.cif.g08.bks.cpg/sg2_108_cif.got.tgz:215222.got - 2010.06.03 11:33:40.
