data_PCOD9060238
_publ_section_title
;
Structure prediction by ZEFSAII (Michael W. Deem and Ramdas Pophale) SiO2 
 PCOD9060238
Probable space group: P -1
;
_chemical_formula_sum "Si O2"
_cell_formula_units_Z 16
_cell_length_a 14.741610
_cell_length_b 13.245715
_cell_length_c 5.818391
_cell_angle_alpha 70.679109
_cell_angle_beta 123.657312
_cell_angle_gamma 134.863219
_cell_volume 666.794996
_symmetry_space_group_name_H-M "P -1"
_symmetry_group_IT_number 2
_symmetry_cell_setting 'triclinic'
loop_
_space_group_symop_operation_xyz
x,y,z
-x,-y,-z
loop_
_atom_site_type_symbol
_atom_site_label
_atom_site_fract_x
_atom_site_fract_y
_atom_site_fract_z
Si Si1 0.015757 0.884503 0.141780
Si Si2 0.670245 0.406451 0.087469
Si Si3 0.352414 0.287782 0.750142
Si Si4 0.025125 0.325994 0.460641
Si Si5 0.286978 0.800956 0.791302
Si Si6 0.689343 0.848630 0.721020
Si Si7 0.804671 0.613571 0.733656
Si Si8 0.494829 0.908570 0.369540
O O1 0.004842 0.819634 0.420540
O O2 0.179772 0.979373 0.212140
O O3 0.888420 0.745311 0.928315
O O4 0.000000 0.000000 0.000000
O O5 0.819907 0.537184 0.322796
O O6 0.657088 0.270441 0.200390
O O7 0.524698 0.378309 0.955142
O O8 0.705458 0.463332 0.832768
O O9 0.314252 0.203626 0.508798
O O10 0.296106 0.371667 0.567068
O O11 0.291459 0.209871 0.974766
O O12 0.060292 0.357212 0.220554
O O13 0.885657 0.294646 0.390143
O O14 0.382054 0.966164 0.730136
O O15 0.335388 0.810412 0.112206
O O16 0.543101 0.821616 0.565259
O O17 0.500000 0.000000 0.500000
#
# Coordination Sequence:
#
# PCOD9060238 Si02
#       8
#     2   2   2   2   2   2   2   2
#     4  11  23  43  68 103 145 181 238 296 371 434
#     4  11  26  47  69 101 146 195 251 299 364 434
#     4  12  27  48  77 108 148 195 249 301 370 437
#     4  11  26  43  71 102 144 195 245 302 365 439
#     4  11  24  46  69 103 146 184 251 298 372 436
#     4  12  26  45  77 110 146 191 238 308 376 436
#     4  11  27  44  70 106 142 199 243 303 364 440
#     4  11  25  41  73 107 142 190 240 307 371 436
#
# _framework density 23.995380999999998
#
# number of rings (size 3 to 8) (size 9 to 14) (size 15 to 20)
#    0.000    0.750    3.750    2.250    8.750    3.000 
#    0.000    0.000    0.000    0.000    0.000    0.000 
#    0.000    0.000    0.000    0.000    0.000    0.000 
#
# Total GULP energy -89202.501193 kJ/mol
# GULP energy per Si atom -5575.156325 kJ/mol
# Density = 2.394077 g / cm^3
# Si number density = 23.995381 Si / 1000 Ang^3
#
#
#
# Elastic Constant Matrix: (Units=GPa)
#
#
# Indices 1 2 3 4 5 6 
#
# 1 71.1436 -0.1469 22.4716 6.9292 7.2879 10.1788
# 2 -0.1469 79.7194 20.0948 1.5048 -1.5436 8.8180
# 3 22.4716 20.0948 81.6935 -0.4839 7.4350 -2.4785
# 4 6.9292 1.5048 -0.4839 43.3906 6.0279 2.3646
# 5 7.2879 -1.5436 7.4350 6.0279 37.1417 5.2313
# 6 10.1788 8.8180 -2.4785 2.3646 5.2313 42.7342
#
#
#
# Elastic Compliance Matrix: (Units=1/GPa)
#
#
# Indices 1 2 3 4 5 6 
#
# 1 0.016632 0.001809 -0.005059 -0.002375 -0.001177 -0.004353
# 2 0.001809 0.014081 -0.004239 -0.000863 0.001747 -0.003748
# 3 -0.005059 -0.004239 0.015042 0.001345 -0.002868 0.003229
# 4 -0.002375 -0.000863 0.001345 0.023991 -0.003726 -0.000050
# 5 -0.001177 0.001747 -0.002868 -0.003726 0.028910 -0.003579
# 6 -0.004353 -0.003748 0.003229 -0.000050 -0.003579 0.025839
#
#
# Mechanical properties :
#
#
# Convention : Reuss Voigt Hill
#
# Bulk Modulus (GPa) = 32.49116 35.26617 33.87867
# Shear Modulus (GPa) = 33.39293 37.32909 35.36101
#
# Velocity S-wave (km/s) = 3.73452 3.94849 3.84299
# Velocity P-wave (km/s) = 5.67146 5.95956 5.81730
#
# Compressibility (1/GPa) = 0.03077760
#
# Stress axis : x y z
#
# Youngs Moduli (GPa) = 60.12328 71.01972 66.47984
#
# Poissons Ratio (x) = -0.12851 0.33634
# Poissons Ratio (y) = -0.10879 0.28181
# Poissons Ratio (z) = 0.30418 0.30106
#
# Static dielectric constant tensor:
#      x y z
#    x 1.995680 0.023460 -0.013090 
#    y 0.023460 1.907650 0.000720 
#    z -0.013090 0.000720 2.083350 
# 
# From -- ./inp_files/95446.got.cif
#   From: 2010.05.17/outbox.cif.g08.bks.cpg/sg2_48_cif.got.tgz:95446.got - 2010.06.03 11:33:40.
