data_PCOD9060944
_publ_section_title
;
Structure prediction by ZEFSAII (Michael W. Deem and Ramdas Pophale) SiO2 
 PCOD9060944
Probable space group: P -1
;
_chemical_formula_sum "Si O2"
_cell_formula_units_Z 14
_cell_length_a 15.871024
_cell_length_b 12.886721
_cell_length_c 9.631456
_cell_angle_alpha 54.890063
_cell_angle_beta 26.394983
_cell_angle_gamma 47.870570
_cell_volume 647.482640
_symmetry_space_group_name_H-M "P -1"
_symmetry_group_IT_number 2
_symmetry_cell_setting 'triclinic'
loop_
_space_group_symop_operation_xyz
x,y,z
-x,-y,-z
loop_
_atom_site_type_symbol
_atom_site_label
_atom_site_fract_x
_atom_site_fract_y
_atom_site_fract_z
Si Si1 0.197867 0.392881 0.204895
Si Si2 0.918261 0.484862 0.281569
Si Si3 0.042001 0.957575 0.630509
Si Si4 0.441064 0.226494 0.341272
Si Si5 0.281111 0.079007 0.342825
Si Si6 0.631039 0.329857 0.734572
Si Si7 0.687390 0.018250 0.333193
O O1 0.250024 0.235229 0.298094
O O2 0.000000 0.500000 0.500000
O O3 0.110371 0.408551 0.164122
O O4 0.408460 0.412007 0.918633
O O5 0.778965 0.640325 0.426294
O O6 0.759658 0.413455 0.538475
O O7 0.000000 0.500000 0.000000
O O8 0.223259 0.799057 0.479558
O O9 0.108787 0.075223 0.497292
O O10 0.000000 0.000000 0.500000
O O11 0.863587 0.962214 0.996464
O O12 0.428715 0.084420 0.420688
O O13 0.545602 0.178200 0.375257
O O14 0.576959 0.265150 0.002129
O O15 0.251698 0.998561 0.583210
O O16 0.500000 0.000000 0.000000
#
# Coordination Sequence:
#
# PCOD9060944 Si02
#       7
#     2   2   2   2   2   2   2
#     4  12  26  46  75 105 144 192 242 303 365 432
#     4  12  28  46  73 107 144 191 245 297 368 444
#     4  12  24  42  69 103 143 189 240 296 367 427
#     4  11  23  44  70 106 140 188 241 296 365 428
#     4  12  25  45  70 105 144 185 244 299 361 428
#     4  12  24  48  73 106 145 192 241 303 365 436
#     4  11  24  42  73 104 145 184 244 302 356 442
#
# _framework density 21.622202000000001
#
# number of rings (size 3 to 8) (size 9 to 14) (size 15 to 20)
#    0.000    0.286    5.714    2.571    4.000    0.571 
#    0.000    1.429    0.000    0.000    0.000    0.000 
#    0.000    0.000    0.000    0.000    0.000    0.000 
#
# Total GULP energy -78156.877608 kJ/mol
# GULP energy per Si atom -5582.634115 kJ/mol
# Density = 2.157299 g / cm^3
# Si number density = 21.622202 Si / 1000 Ang^3
#
#
#
# Elastic Constant Matrix: (Units=GPa)
#
#
# Indices 1 2 3 4 5 6 
#
# 1 154.5695 18.6730 48.1741 -24.4924 -0.9507 -21.4112
# 2 18.6730 72.2033 26.1379 2.3373 -4.5722 -13.6093
# 3 48.1741 26.1379 125.0796 -12.0097 9.5864 -19.4416
# 4 -24.4924 2.3373 -12.0097 44.2068 -0.2350 -3.8526
# 5 -0.9507 -4.5722 9.5864 -0.2350 40.7775 -6.8580
# 6 -21.4112 -13.6093 -19.4416 -3.8526 -6.8580 39.4251
#
#
#
# Elastic Compliance Matrix: (Units=1/GPa)
#
#
# Indices 1 2 3 4 5 6 
#
# 1 0.008509 -0.000727 -0.002176 0.004514 0.001322 0.003968
# 2 -0.000727 0.016100 -0.002839 -0.001647 0.003144 0.004149
# 3 -0.002176 -0.002839 0.010202 0.001935 -0.002309 0.002657
# 4 0.004514 -0.001647 0.001935 0.026216 0.000541 0.005493
# 5 0.001322 0.003144 -0.002309 0.000541 0.026344 0.005300
# 6 0.003968 0.004149 0.002657 0.005493 0.005300 0.031720
#
#
# Mechanical properties :
#
#
# Convention : Reuss Voigt Hill
#
# Bulk Modulus (GPa) = 42.86974 59.75803 51.31388
# Shear Modulus (GPa) = 36.14006 42.13973 39.13990
#
# Velocity S-wave (km/s) = 4.09275 4.41944 4.25923
# Velocity P-wave (km/s) = 6.49645 7.33070 6.92615
#
# Compressibility (1/GPa) = 0.02332647
#
# Stress axis : x y z
#
# Youngs Moduli (GPa) = 117.52570 62.11266 98.02021
#
# Poissons Ratio (x) = 0.04517 0.21332
# Poissons Ratio (y) = 0.08547 0.27823
# Poissons Ratio (z) = 0.25577 0.17631
#
# Static dielectric constant tensor:
#      x y z
#    x 1.897130 -0.013980 -0.081780 
#    y -0.013980 1.778720 0.024870 
#    z -0.081780 0.024870 1.779010 
# 
# From -- ./inp_files/174864.got.cif
#   From: 2010.05.17/outbox.cif.g08.bks.cpg/sg2_88_cif.got.tgz:174864.got - 2010.06.03 11:33:40.
