data_PCOD9060578
_publ_section_title
;
Structure prediction by ZEFSAII (Michael W. Deem and Ramdas Pophale) SiO2 
 PCOD9060578
Probable space group: P -1
;
_chemical_formula_sum "Si O2"
_cell_formula_units_Z 16
_cell_length_a 18.137959
_cell_length_b 11.337394
_cell_length_c 11.430729
_cell_angle_alpha 129.506553
_cell_angle_beta 147.038927
_cell_angle_gamma 34.000069
_cell_volume 701.365479
_symmetry_space_group_name_H-M "P -1"
_symmetry_group_IT_number 2
_symmetry_cell_setting 'triclinic'
loop_
_space_group_symop_operation_xyz
x,y,z
-x,-y,-z
loop_
_atom_site_type_symbol
_atom_site_label
_atom_site_fract_x
_atom_site_fract_y
_atom_site_fract_z
Si Si1 0.993955 0.799293 0.619275
Si Si2 0.614707 0.683310 0.221339
Si Si3 0.762418 0.040927 0.224950
Si Si4 0.264109 0.078991 0.431520
Si Si5 0.983518 0.136310 0.922872
Si Si6 0.402919 0.652407 0.355652
Si Si7 0.635254 0.473714 0.324455
Si Si8 0.047395 0.632148 0.185502
O O1 0.874331 0.813962 0.572581
O O2 0.183392 0.552426 0.691529
O O3 0.859210 0.925839 0.405474
O O4 0.044201 0.930079 0.812754
O O5 0.649403 0.823846 0.406553
O O6 0.533721 0.629847 0.177053
O O7 0.462270 0.817154 0.998575
O O8 0.766912 0.220010 0.319194
O O9 0.870884 0.855655 0.155010
O O10 0.415916 0.824752 0.495412
O O11 0.145339 0.108106 0.182015
O O12 0.817893 0.221830 0.847642
O O13 0.897722 0.309550 0.816252
O O14 0.500000 0.500000 0.500000
O O15 0.494191 0.539597 0.282414
O O16 0.776898 0.492840 0.571061
O O17 0.000000 0.500000 0.000000
#
# Coordination Sequence:
#
# PCOD9060578 Si02
#       8
#     2   2   2   2   2   2   2   2
#     4  11  23  51  73 103 148 197 243 296 362 434
#     4  12  28  45  73 110 149 190 242 303 371 425
#     4  12  27  46  75 107 144 197 247 295 355 444
#     4  11  27  47  71 109 150 186 242 308 363 432
#     4  11  24  46  75 102 146 191 245 299 359 433
#     4  11  23  43  73 105 135 191 245 293 353 433
#     4  12  24  47  72 104 147 189 250 298 357 439
#     4  12  25  45  73 107 149 190 233 306 373 422
#
# _framework density 22.812642
#
# number of rings (size 3 to 8) (size 9 to 14) (size 15 to 20)
#    0.000    0.500    3.750    4.875    7.000    1.000 
#    0.000    0.000    0.000    0.000    0.000    0.000 
#    0.000    0.000    0.000    0.000    0.000    0.000 
#
# Total GULP energy -89584.685817 kJ/mol
# GULP energy per Si atom -5599.042864 kJ/mol
# Density = 2.276072 g / cm^3
# Si number density = 22.812642 Si / 1000 Ang^3
#
#
#
# Elastic Constant Matrix: (Units=GPa)
#
#
# Indices 1 2 3 4 5 6 
#
# 1 81.3066 44.0993 8.7815 8.3040 -18.0487 1.7938
# 2 44.0993 132.6650 64.9447 8.4917 -3.0328 -2.4617
# 3 8.7815 64.9447 143.5041 6.3217 -1.3541 11.4450
# 4 8.3040 8.4917 6.3217 53.2793 12.8865 0.3821
# 5 -18.0487 -3.0328 -1.3541 12.8865 29.0114 4.8757
# 6 1.7938 -2.4617 11.4450 0.3821 4.8757 34.1441
#
#
#
# Elastic Compliance Matrix: (Units=1/GPa)
#
#
# Indices 1 2 3 4 5 6 
#
# 1 0.020170 -0.007500 0.002944 -0.005976 0.015348 -0.004712
# 2 -0.007500 0.012725 -0.005693 0.000916 -0.004659 0.003875
# 3 0.002944 -0.005693 0.009796 -0.001419 0.003041 -0.004267
# 4 -0.005976 0.000916 -0.001419 0.023196 -0.014438 0.002658
# 5 0.015348 -0.004659 0.003041 -0.014438 0.051662 -0.009377
# 6 -0.004712 0.003875 -0.004267 0.002658 -0.009377 0.032554
#
#
# Mechanical properties :
#
#
# Convention : Reuss Voigt Hill
#
# Bulk Modulus (GPa) = 45.05964 65.90297 55.48130
# Shear Modulus (GPa) = 28.08991 39.26361 33.67676
#
# Velocity S-wave (km/s) = 3.51284 4.15316 3.84635
# Velocity P-wave (km/s) = 6.02066 7.20762 6.64071
#
# Compressibility (1/GPa) = 0.02219281
#
# Stress axis : x y z
#
# Youngs Moduli (GPa) = 49.57743 78.58756 102.07941
#
# Poissons Ratio (x) = 0.58941 -0.30050
# Poissons Ratio (y) = 0.37183 0.58115
# Poissons Ratio (z) = -0.14595 0.44741
#
# Static dielectric constant tensor:
#      x y z
#    x 1.865110 -0.016210 -0.017490 
#    y -0.016210 1.862910 -0.043220 
#    z -0.017490 -0.043220 1.872580 
# 
# From -- ./inp_files/471243.got.cif
#   From: 2010.05.17/outbox.cif.g08.bks.cpg/sg2_236_cif.got.tgz:471243.got - 2010.06.03 11:33:40.
