data_PCOD9060737
_publ_section_title
;
Structure prediction by ZEFSAII (Michael W. Deem and Ramdas Pophale) SiO2 
 PCOD9060737
Probable space group: P -1
;
_chemical_formula_sum "Si O2"
_cell_formula_units_Z 14
_cell_length_a 9.385913
_cell_length_b 11.816218
_cell_length_c 14.133418
_cell_angle_alpha 150.515117
_cell_angle_beta 45.066761
_cell_angle_gamma 126.881016
_cell_volume 545.688155
_symmetry_space_group_name_H-M "P -1"
_symmetry_group_IT_number 2
_symmetry_cell_setting 'triclinic'
loop_
_space_group_symop_operation_xyz
x,y,z
-x,-y,-z
loop_
_atom_site_type_symbol
_atom_site_label
_atom_site_fract_x
_atom_site_fract_y
_atom_site_fract_z
Si Si1 0.287679 0.097703 0.629786
Si Si2 0.612958 0.224800 0.917803
Si Si3 0.335137 0.294156 0.556882
Si Si4 0.969298 0.973133 0.122078
Si Si5 0.645144 0.211768 0.097300
Si Si6 0.160325 0.326052 0.195540
Si Si7 0.894372 0.323782 0.694035
O O1 0.154921 0.126288 0.805737
O O2 0.161515 0.921439 0.498809
O O3 0.500000 0.000000 0.500000
O O4 0.333953 0.281737 0.662343
O O5 0.720137 0.360829 0.882290
O O6 0.593190 0.956443 0.699289
O O7 0.736906 0.221395 0.954902
O O8 0.391047 0.333687 0.122726
O O9 0.442317 0.530661 0.653470
O O10 0.107701 0.327192 0.647952
O O11 0.009231 0.245677 0.290513
O O12 0.849351 0.895133 0.030597
O O13 0.189519 0.857528 0.952910
O O14 0.500000 0.000000 0.000000
O O15 0.105735 0.521756 0.287550
#
# Coordination Sequence:
#
# PCOD9060737 Si02
#       7
#     2   2   2   2   2   2   2
#     4  11  25  43  72 107 138 178 241 291 346 419
#     4  11  24  44  70 103 141 179 239 291 343 422
#     4  11  25  46  70 102 141 184 232 295 351 407
#     4  11  23  44  65  98 142 182 232 284 352 420
#     4  12  25  44  71 105 137 186 240 282 355 419
#     4  11  24  42  67  99 142 185 226 289 355 407
#     4  11  23  44  70 100 139 188 233 285 354 411
#
# _framework density 25.655681000000001
#
# number of rings (size 3 to 8) (size 9 to 14) (size 15 to 20)
#    0.000    0.857    2.857    5.571    4.000    2.286 
#    0.000    2.857    0.000    0.000    0.000    0.000 
#    0.000    0.000    0.000    0.000    0.000    0.000 
#
# Total GULP energy -78235.711078 kJ/mol
# GULP energy per Si atom -5588.265077 kJ/mol
# Density = 2.559729 g / cm^3
# Si number density = 25.655681 Si / 1000 Ang^3
#
#
#
# Elastic Constant Matrix: (Units=GPa)
#
#
# Indices 1 2 3 4 5 6 
#
# 1 146.8488 38.1929 19.6112 6.4367 -10.8643 -8.5902
# 2 38.1929 139.4468 46.3841 32.1228 -3.6005 -21.9717
# 3 19.6112 46.3841 31.2872 20.2798 1.0018 -1.9429
# 4 6.4367 32.1228 20.2798 49.4432 -5.6124 5.6872
# 5 -10.8643 -3.6005 1.0018 -5.6124 43.1506 1.2761
# 6 -8.5902 -21.9717 -1.9429 5.6872 1.2761 54.7575
#
#
#
# Elastic Compliance Matrix: (Units=1/GPa)
#
#
# Indices 1 2 3 4 5 6 
#
# 1 0.007778 -0.000752 -0.004880 0.001669 0.002210 0.000520
# 2 -0.000752 0.015921 -0.021583 -0.001907 0.001224 0.005674
# 3 -0.004880 -0.021583 0.078497 -0.017805 -0.007031 -0.004627
# 4 0.001669 -0.001907 -0.017805 0.029574 0.004649 -0.004315
# 5 0.002210 0.001224 -0.007031 0.004649 0.024615 -0.000468
# 6 0.000520 0.005674 -0.004627 -0.004315 -0.000468 0.020916
#
#
# Mechanical properties :
#
#
# Convention : Reuss Voigt Hill
#
# Bulk Modulus (GPa) = 20.93576 58.43990 39.68783
# Shear Modulus (GPa) = 20.18954 43.69657 31.94306
#
# Velocity S-wave (km/s) = 2.80829 4.13145 3.53238
# Velocity P-wave (km/s) = 4.32358 6.75178 5.66921
#
# Compressibility (1/GPa) = 0.04776516
#
# Stress axis : x y z
#
# Youngs Moduli (GPa) = 128.56835 62.80863 12.73942
#
# Poissons Ratio (x) = 0.04726 0.06217
# Poissons Ratio (y) = 0.09674 0.27495
# Poissons Ratio (z) = 0.62742 1.35559
#
# Static dielectric constant tensor:
#      x y z
#    x 1.908860 0.007890 0.063380 
#    y 0.007890 2.228690 0.001890 
#    z 0.063380 0.001890 2.112810 
# 
# From -- ./inp_files/157194.got.cif
#   From: 2010.05.17/outbox.cif.g08.bks.cpg/sg2_79_cif.got.tgz:157194.got - 2010.06.03 11:33:40.
