data_PCOD9060598
_publ_section_title
;
Structure prediction by ZEFSAII (Michael W. Deem and Ramdas Pophale) SiO2 
 PCOD9060598
Probable space group: P -1
;
_chemical_formula_sum "Si O2"
_cell_formula_units_Z 16
_cell_length_a 11.339141
_cell_length_b 15.339768
_cell_length_c 8.227749
_cell_angle_alpha 109.725739
_cell_angle_beta 137.201009
_cell_angle_gamma 42.161034
_cell_volume 582.006145
_symmetry_space_group_name_H-M "P -1"
_symmetry_group_IT_number 2
_symmetry_cell_setting 'triclinic'
loop_
_space_group_symop_operation_xyz
x,y,z
-x,-y,-z
loop_
_atom_site_type_symbol
_atom_site_label
_atom_site_fract_x
_atom_site_fract_y
_atom_site_fract_z
Si Si1 0.648856 0.054240 0.268400
Si Si2 0.718827 0.660093 0.382772
Si Si3 0.816272 0.875651 0.792671
Si Si4 0.849962 0.797127 0.444569
Si Si5 0.601589 0.367849 0.111778
Si Si6 0.146653 0.326352 0.108572
Si Si7 0.549844 0.583717 0.658267
Si Si8 0.968309 0.074681 0.736190
O O1 0.365609 0.223803 0.119376
O O2 0.855806 0.017532 0.583833
O O3 0.631336 0.955767 0.246836
O O4 0.812955 0.003386 0.237163
O O5 0.721704 0.753740 0.339301
O O6 0.742812 0.674161 0.609174
O O7 0.000000 0.500000 0.500000
O O8 0.470236 0.693187 0.108999
O O9 0.972193 0.785739 0.730562
O O10 0.887119 0.767416 0.925582
O O11 0.500000 0.000000 0.500000
O O12 0.890070 0.945281 0.974555
O O13 0.121971 0.707871 0.563899
O O14 0.420706 0.421437 0.121545
O O15 0.500000 0.500000 0.000000
O O16 0.143788 0.518969 0.153689
O O17 0.500000 0.500000 0.500000
O O18 0.300406 0.751224 0.456601
#
# Coordination Sequence:
#
# PCOD9060598 Si02
#       8
#     2   2   2   2   2   2   2   2
#     4  11  26  50  72 112 149 205 256 307 396 456
#     4  11  23  43  73 116 153 189 257 322 374 459
#     4  11  23  46  74 110 145 193 256 318 373 458
#     4  11  24  45  76 110 147 202 252 318 380 451
#     4  12  24  45  76 111 150 199 251 307 388 448
#     4  11  24  46  76 110 150 197 256 313 386 448
#     4  12  25  48  76 109 157 201 251 321 380 460
#     4  11  27  49  75 108 156 201 259 317 382 467
#
# _framework density 27.491119000000001
#
# number of rings (size 3 to 8) (size 9 to 14) (size 15 to 20)
#    0.000    0.750    6.250    0.750    1.750    3.500 
#    2.250    0.000    0.000    0.000    0.000    0.000 
#    0.000    0.000    0.000    0.000    0.000    0.000 
#
# Total GULP energy -89592.278904 kJ/mol
# GULP energy per Si atom -5599.517431 kJ/mol
# Density = 2.742855 g / cm^3
# Si number density = 27.491119 Si / 1000 Ang^3
#
#
#
# Elastic Constant Matrix: (Units=GPa)
#
#
# Indices 1 2 3 4 5 6 
#
# 1 90.4761 47.8907 32.0348 -12.7294 14.0493 15.9858
# 2 47.8907 125.1954 60.2237 -11.7375 9.7625 -2.8835
# 3 32.0348 60.2237 159.5802 -5.8142 25.3583 17.2111
# 4 -12.7294 -11.7375 -5.8142 44.9850 -3.6972 27.0062
# 5 14.0493 9.7625 25.3583 -3.6972 43.5128 7.8129
# 6 15.9858 -2.8835 17.2111 27.0062 7.8129 49.2773
#
#
#
# Elastic Compliance Matrix: (Units=1/GPa)
#
#
# Indices 1 2 3 4 5 6 
#
# 1 0.018086 -0.006429 0.000765 0.010631 -0.001775 -0.012055
# 2 -0.006429 0.012282 -0.004104 -0.002377 0.000530 0.005456
# 3 0.000765 -0.004104 0.008787 0.002701 -0.003410 -0.004497
# 4 0.010631 -0.002377 0.002701 0.042381 0.004233 -0.028429
# 5 -0.001775 0.000530 -0.003410 0.004233 0.026635 -0.004745
# 6 -0.012055 0.005456 -0.004497 -0.028429 -0.004745 0.042427
#
#
# Mechanical properties :
#
#
# Convention : Reuss Voigt Hill
#
# Bulk Modulus (GPa) = 50.96922 72.83889 61.90406
# Shear Modulus (GPa) = 28.30066 43.22852 35.76459
#
# Velocity S-wave (km/s) = 3.21198 3.96972 3.61078
# Velocity P-wave (km/s) = 5.68650 6.89670 6.32063
#
# Compressibility (1/GPa) = 0.01961968
#
# Stress axis : x y z
#
# Youngs Moduli (GPa) = 55.29124 81.41683 113.80541
#
# Poissons Ratio (x) = 0.52344 -0.08708
# Poissons Ratio (y) = 0.35547 0.46706
# Poissons Ratio (z) = -0.04231 0.33413
#
# Static dielectric constant tensor:
#      x y z
#    x 2.312710 -0.200520 0.159100 
#    y -0.200520 2.277540 -0.054130 
#    z 0.159100 -0.054130 2.297340 
# 
# From -- ./inp_files/273940.got.cif
#   From: 2010.05.17/outbox.cif.g08.bks.cpg/sg2_137_cif.got.tgz:273940.got - 2010.06.03 11:33:40.
