data_PCOD9060652
_publ_section_title
;
Structure prediction by ZEFSAII (Michael W. Deem and Ramdas Pophale) SiO2 
 PCOD9060652
Probable space group: P -1
;
_chemical_formula_sum "Si O2"
_cell_formula_units_Z 16
_cell_length_a 20.048961
_cell_length_b 9.318480
_cell_length_c 12.148826
_cell_angle_alpha 140.365709
_cell_angle_beta 140.525914
_cell_angle_gamma 69.586839
_cell_volume 732.264443
_symmetry_space_group_name_H-M "P -1"
_symmetry_group_IT_number 2
_symmetry_cell_setting 'triclinic'
loop_
_space_group_symop_operation_xyz
x,y,z
-x,-y,-z
loop_
_atom_site_type_symbol
_atom_site_label
_atom_site_fract_x
_atom_site_fract_y
_atom_site_fract_z
Si Si1 0.564473 0.529029 0.483088
Si Si2 0.146380 0.526785 0.859852
Si Si3 0.677957 0.882526 0.211726
Si Si4 0.366654 0.450294 0.833622
Si Si5 0.621876 0.084935 0.782732
Si Si6 0.913736 0.085117 0.888522
Si Si7 0.049156 0.917809 0.326857
Si Si8 0.233918 0.561142 0.227863
O O1 0.500000 0.500000 0.500000
O O2 0.689564 0.538528 0.673692
O O3 0.602401 0.808077 0.635811
O O4 0.450092 0.258387 0.108031
O O5 0.057665 0.198067 0.519906
O O6 0.242750 0.716884 0.995627
O O7 0.071004 0.651804 0.880165
O O8 0.235243 0.562240 0.098189
O O9 0.657005 0.641829 0.122759
O O10 0.818171 0.016027 0.411698
O O11 0.700195 0.124442 0.460724
O O12 0.240061 0.185612 0.454650
O O13 0.500000 0.500000 0.000000
O O14 0.375383 0.729918 0.005145
O O15 0.500000 0.000000 0.500000
O O16 0.944014 0.130004 0.822811
O O17 0.000000 0.000000 0.000000
O O18 0.918229 0.650382 0.055266
#
# Coordination Sequence:
#
# PCOD9060652 Si02
#       8
#     2   2   2   2   2   2   2   2
#     4  12  28  45  68 110 144 183 241 292 355 426
#     4  12  24  46  76 101 144 193 236 292 363 423
#     4  11  23  46  71 100 142 187 237 292 345 434
#     4  11  23  43  75 101 136 188 240 289 359 419
#     4  12  23  44  73 102 143 186 235 296 350 428
#     4  11  26  44  69 105 145 181 241 298 347 424
#     4  11  24  48  71 105 142 189 243 286 361 425
#     4  12  26  45  74 103 145 191 234 297 358 422
#
# _framework density 21.850028999999999
#
# number of rings (size 3 to 8) (size 9 to 14) (size 15 to 20)
#    0.000    0.500    6.250    3.375    3.500    1.500 
#    2.250    0.000    0.000    0.000    0.000    0.000 
#    0.000    0.000    0.000    0.000    0.000    0.000 
#
# Total GULP energy -89559.844099 kJ/mol
# GULP energy per Si atom -5597.490256 kJ/mol
# Density = 2.180030 g / cm^3
# Si number density = 21.850029 Si / 1000 Ang^3
#
#
#
# Elastic Constant Matrix: (Units=GPa)
#
#
# Indices 1 2 3 4 5 6 
#
# 1 83.6818 23.1464 42.4989 6.3601 -4.6494 -13.3845
# 2 23.1464 118.9476 24.7226 0.1486 3.4974 -18.2008
# 3 42.4989 24.7226 76.8784 17.0764 4.9468 1.7930
# 4 6.3601 0.1486 17.0764 34.8842 -16.5166 -0.1212
# 5 -4.6494 3.4974 4.9468 -16.5166 39.6426 6.8192
# 6 -13.3845 -18.2008 1.7930 -0.1212 6.8192 33.7336
#
#
#
# Elastic Compliance Matrix: (Units=1/GPa)
#
#
# Indices 1 2 3 4 5 6 
#
# 1 0.019145 -0.000276 -0.011931 0.004445 0.004370 0.007214
# 2 -0.000276 0.010075 -0.003440 0.001263 -0.000947 0.005705
# 3 -0.011931 -0.003440 0.024565 -0.014111 -0.008986 -0.006130
# 4 0.004445 0.001263 -0.014111 0.044665 0.020930 -0.000876
# 5 0.004370 -0.000947 -0.008986 0.020930 0.036632 -0.005630
# 6 0.007214 0.005705 -0.006130 -0.000876 -0.005630 0.037045
#
#
# Mechanical properties :
#
#
# Convention : Reuss Voigt Hill
#
# Bulk Modulus (GPa) = 44.46370 51.13817 47.80094
# Shear Modulus (GPa) = 23.70594 34.26141 28.98367
#
# Velocity S-wave (km/s) = 3.29741 3.96413 3.64604
# Velocity P-wave (km/s) = 5.90685 6.66389 6.29676
#
# Compressibility (1/GPa) = 0.02249025
#
# Stress axis : x y z
#
# Youngs Moduli (GPa) = 52.23397 99.25554 40.70816
#
# Poissons Ratio (x) = 0.02736 0.48571
# Poissons Ratio (y) = 0.01440 0.14004
# Poissons Ratio (z) = 0.62323 0.34145
#
# Static dielectric constant tensor:
#      x y z
#    x 2.142500 -0.465320 0.055460 
#    y -0.465320 2.437320 -0.103880 
#    z 0.055460 -0.103880 1.823930 
# 
# From -- ./inp_files/470223.got.cif
#   From: 2010.05.17/outbox.cif.g08.bks.cpg/sg2_236_cif.got.tgz:470223.got - 2010.06.03 11:33:40.
