data_PCOD9060247
_publ_section_title
;
Structure prediction by ZEFSAII (Michael W. Deem and Ramdas Pophale) SiO2 
 PCOD9060247
Probable space group: P -1
;
_chemical_formula_sum "Si O2"
_cell_formula_units_Z 16
_cell_length_a 22.582500
_cell_length_b 23.736314
_cell_length_c 4.970378
_cell_angle_alpha 79.548872
_cell_angle_beta 71.985781
_cell_angle_gamma 18.083263
_cell_volume 726.995528
_symmetry_space_group_name_H-M "P -1"
_symmetry_group_IT_number 2
_symmetry_cell_setting 'triclinic'
loop_
_space_group_symop_operation_xyz
x,y,z
-x,-y,-z
loop_
_atom_site_type_symbol
_atom_site_label
_atom_site_fract_x
_atom_site_fract_y
_atom_site_fract_z
Si Si1 0.034872 0.692020 0.445031
Si Si2 0.919748 0.033549 0.334783
Si Si3 0.439557 0.910716 0.439366
Si Si4 0.546201 0.525680 0.480528
Si Si5 0.508984 0.926110 0.832574
Si Si6 0.189335 0.683575 0.209230
Si Si7 0.133749 0.334883 0.790461
Si Si8 0.169040 0.504802 0.933985
O O1 0.101959 0.698203 0.387465
O O2 0.051502 0.642507 0.741416
O O3 0.185500 0.529230 0.152880
O O4 0.799387 0.895500 0.472164
O O5 0.666103 0.253561 0.485822
O O6 0.000000 0.000000 0.500000
O O7 0.022092 0.881155 0.324027
O O8 0.000000 0.000000 0.000000
O O9 0.462235 0.914169 0.706051
O O10 0.606579 0.714118 0.307889
O O11 0.502756 0.907667 0.156723
O O12 0.500000 0.500000 0.500000
O O13 0.610754 0.477457 0.739858
O O14 0.737162 0.377980 0.149375
O O15 0.734125 0.753382 0.564100
O O16 0.318876 0.138873 0.868492
O O17 0.000000 0.500000 0.000000
O O18 0.970776 0.428212 0.852969
#
# Coordination Sequence:
#
# PCOD9060247 Si02
#       8
#     2   2   2   2   2   2   2   2
#     4  12  27  48  67  95 141 183 231 275 329 405
#     4  12  23  41  71 106 139 176 216 273 340 392
#     4  12  24  47  69  95 134 182 227 280 341 408
#     4  12  23  43  74 104 141 175 222 277 342 394
#     4  11  25  41  68 101 134 171 221 289 354 404
#     4  12  26  44  69 104 137 184 227 275 329 406
#     4  11  23  43  68 106 130 170 229 289 349 416
#     4  12  26  46  71  97 135 183 228 283 348 398
#
# _framework density 22.008389999999999
#
# number of rings (size 3 to 8) (size 9 to 14) (size 15 to 20)
#    0.000    0.250    6.250    2.625    0.000    5.500 
#    0.000    0.000    0.000    0.000    0.000    0.000 
#    0.000    0.000    0.000    0.000    0.000    0.000 
#
# Total GULP energy -89697.772272 kJ/mol
# GULP energy per Si atom -5606.110767 kJ/mol
# Density = 2.195830 g / cm^3
# Si number density = 22.008390 Si / 1000 Ang^3
#
#
#
# Elastic Constant Matrix: (Units=GPa)
#
#
# Indices 1 2 3 4 5 6 
#
# 1 117.3130 26.2532 15.5236 2.5403 5.3142 23.7251
# 2 26.2532 93.9328 8.9119 25.5240 8.2787 17.4611
# 3 15.5236 8.9119 57.2320 7.7293 14.5102 8.9635
# 4 2.5403 25.5240 7.7293 42.5995 -0.1568 11.7367
# 5 5.3142 8.2787 14.5102 -0.1568 36.4438 -0.3249
# 6 23.7251 17.4611 8.9635 11.7367 -0.3249 27.0462
#
#
#
# Elastic Compliance Matrix: (Units=1/GPa)
#
#
# Indices 1 2 3 4 5 6 
#
# 1 0.011030 -0.002086 -0.001519 0.003434 -0.000598 -0.009323
# 2 -0.002086 0.014284 0.000901 -0.007360 -0.003371 -0.004537
# 3 -0.001519 0.000901 0.021068 -0.002905 -0.008429 -0.005072
# 4 0.003434 -0.007360 -0.002905 0.031192 0.002366 -0.010806
# 5 -0.000598 -0.003371 -0.008429 0.002366 0.031702 0.004849
# 6 -0.009323 -0.004537 -0.005072 -0.010806 0.004849 0.054509
#
#
# Mechanical properties :
#
#
# Convention : Reuss Voigt Hill
#
# Bulk Modulus (GPa) = 24.40575 41.09504 32.75040
# Shear Modulus (GPa) = 27.34444 35.73718 31.54081
#
# Velocity S-wave (km/s) = 3.52867 4.03401 3.78977
# Velocity P-wave (km/s) = 5.26454 6.35694 5.83635
#
# Compressibility (1/GPa) = 0.04097395
#
# Stress axis : x y z
#
# Youngs Moduli (GPa) = 90.65983 70.00916 47.46465
#
# Poissons Ratio (x) = 0.14605 0.07210
# Poissons Ratio (y) = 0.18913 -0.04276
# Poissons Ratio (z) = 0.13771 -0.06307
#
# Static dielectric constant tensor:
#      x y z
#    x 1.771450 -0.007130 -0.004910 
#    y -0.007130 1.809510 0.017390 
#    z -0.004910 0.017390 1.788850 
# 
# From -- ./inp_files/120392.got.cif
#   From: 2010.05.17/outbox.cif.g08.bks.cpg/sg2_61_cif.got.tgz:120392.got - 2010.06.03 11:33:40.
