data_PCOD9060772
_publ_section_title
;
Structure prediction by ZEFSAII (Michael W. Deem and Ramdas Pophale) SiO2 
 PCOD9060772
Probable space group: P -1
;
_chemical_formula_sum "Si O2"
_cell_formula_units_Z 16
_cell_length_a 7.406794
_cell_length_b 13.032367
_cell_length_c 9.412282
_cell_angle_alpha 69.299078
_cell_angle_beta 101.593523
_cell_angle_gamma 131.579120
_cell_volume 635.018541
_symmetry_space_group_name_H-M "P -1"
_symmetry_group_IT_number 2
_symmetry_cell_setting 'triclinic'
loop_
_space_group_symop_operation_xyz
x,y,z
-x,-y,-z
loop_
_atom_site_type_symbol
_atom_site_label
_atom_site_fract_x
_atom_site_fract_y
_atom_site_fract_z
Si Si1 0.782223 0.354989 0.223985
Si Si2 0.695614 0.500390 0.725259
Si Si3 0.337082 0.642740 0.490474
Si Si4 0.850073 0.791607 0.511515
Si Si5 0.376010 0.228038 0.984007
Si Si6 0.835190 0.068514 0.037822
Si Si7 0.835726 0.191952 0.682902
Si Si8 0.699945 0.073571 0.327485
O O1 0.725323 0.401286 0.333987
O O2 0.586877 0.299312 0.098692
O O3 0.746353 0.213242 0.325144
O O4 0.068469 0.468065 0.184036
O O5 0.688636 0.461534 0.578660
O O6 0.737259 0.646227 0.655899
O O7 0.463078 0.363278 0.835133
O O8 0.622129 0.782176 0.459208
O O9 0.173753 0.681085 0.394123
O O10 0.951558 0.784783 0.381751
O O11 0.091344 0.918205 0.570401
O O12 0.116219 0.142446 0.059214
O O13 0.330233 0.100774 0.945109
O O14 0.751480 0.090074 0.159215
O O15 0.831337 0.148762 0.864413
O O16 0.581439 0.057541 0.639338
#
# Coordination Sequence:
#
# PCOD9060772 Si02
#       8
#     2   2   2   2   2   2   2   2
#     4  11  24  44  70  99 143 180 233 282 338 420
#     4  11  24  47  69 103 141 181 233 284 344 410
#     4  12  25  44  71 101 137 188 225 285 348 402
#     4  11  26  46  70 103 142 179 233 289 337 417
#     4  11  24  47  70 105 135 185 233 283 350 406
#     4  11  25  44  73 102 141 177 233 289 341 417
#     4  12  24  44  71 105 139 184 226 289 342 415
#     4  11  23  44  67 103 143 180 228 286 348 399
#
# _framework density 25.196114000000001
#
# number of rings (size 3 to 8) (size 9 to 14) (size 15 to 20)
#    0.000    0.750    3.750    4.125    1.750    1.500 
#    0.000    3.125    0.000    0.000    0.000    0.000 
#    0.000    0.000    0.000    0.000    0.000    0.000 
#
# Total GULP energy -89623.630125 kJ/mol
# GULP energy per Si atom -5601.476883 kJ/mol
# Density = 2.513877 g / cm^3
# Si number density = 25.196114 Si / 1000 Ang^3
#
#
#
# Elastic Constant Matrix: (Units=GPa)
#
#
# Indices 1 2 3 4 5 6 
#
# 1 88.4299 18.8053 21.1189 1.7140 -4.1332 33.2788
# 2 18.8053 118.2774 23.6694 11.9665 -0.6516 28.2032
# 3 21.1189 23.6694 100.6760 4.6075 -2.7649 9.0900
# 4 1.7140 11.9665 4.6075 33.8889 16.6023 8.7809
# 5 -4.1332 -0.6516 -2.7649 16.6023 32.1249 3.9011
# 6 33.2788 28.2032 9.0900 8.7809 3.9011 39.0053
#
#
#
# Elastic Compliance Matrix: (Units=1/GPa)
#
#
# Indices 1 2 3 4 5 6 
#
# 1 0.017922 0.001442 -0.002599 0.001579 0.003288 -0.016412
# 2 0.001442 0.010886 -0.001909 -0.002841 0.002717 -0.008290
# 3 -0.002599 -0.001909 0.010919 -0.001627 0.001250 0.001294
# 4 0.001579 -0.002841 -0.001627 0.042753 -0.021311 -0.006408
# 5 0.003288 0.002717 0.001250 -0.021311 0.043286 -0.004593
# 6 -0.016412 -0.008290 0.001294 -0.006408 -0.004593 0.047234
#
#
# Mechanical properties :
#
#
# Convention : Reuss Voigt Hill
#
# Bulk Modulus (GPa) = 29.76499 48.28562 39.02530
# Shear Modulus (GPa) = 26.27019 37.25646 31.76332
#
# Velocity S-wave (km/s) = 3.23248 3.84951 3.55441
# Velocity P-wave (km/s) = 5.07650 6.24210 5.68923
#
# Compressibility (1/GPa) = 0.03359652
#
# Stress axis : x y z
#
# Youngs Moduli (GPa) = 55.79790 91.85808 91.58563
#
# Poissons Ratio (x) = -0.13250 0.23800
# Poissons Ratio (y) = -0.08049 0.17483
# Poissons Ratio (z) = 0.14500 0.17535
#
# Static dielectric constant tensor:
#      x y z
#    x 2.020080 0.012610 0.053660 
#    y 0.012610 1.991000 -0.005040 
#    z 0.053660 -0.005040 1.970470 
# 
# From -- ./inp_files/206457.got.cif
#   From: 2010.05.17/outbox.cif.g08.bks.cpg/sg2_104_cif.got.tgz:206457.got - 2010.06.03 11:33:40.
