data_PCOD9060482
_publ_section_title
;
Structure prediction by ZEFSAII (Michael W. Deem and Ramdas Pophale) SiO2 
 PCOD9060482
Probable space group: P -1
;
_chemical_formula_sum "Si O2"
_cell_formula_units_Z 14
_cell_length_a 22.602200
_cell_length_b 6.512708
_cell_length_c 14.032701
_cell_angle_alpha 57.870120
_cell_angle_beta 159.237437
_cell_angle_gamma 123.333770
_cell_volume 610.658447
_symmetry_space_group_name_H-M "P -1"
_symmetry_group_IT_number 2
_symmetry_cell_setting 'triclinic'
loop_
_space_group_symop_operation_xyz
x,y,z
-x,-y,-z
loop_
_atom_site_type_symbol
_atom_site_label
_atom_site_fract_x
_atom_site_fract_y
_atom_site_fract_z
Si Si1 0.925829 0.089295 0.463992
Si Si2 0.503499 0.809781 0.638659
Si Si3 0.385622 0.235416 0.985107
Si Si4 0.871150 0.273816 0.821540
Si Si5 0.201483 0.429066 0.913384
Si Si6 0.627904 0.214337 0.189357
Si Si7 0.984892 0.216563 0.794460
O O1 0.837796 0.327161 0.255221
O O2 0.082254 0.189932 0.744019
O O3 0.000000 0.000000 0.500000
O O4 0.768333 0.866401 0.293323
O O5 0.604502 0.904674 0.865389
O O6 0.315140 0.718652 0.418812
O O7 0.500000 0.000000 0.500000
O O8 0.606378 0.607398 0.800394
O O9 0.554095 0.229215 0.180725
O O10 0.373355 0.516110 0.922330
O O11 0.908750 0.285288 0.762586
O O12 0.000000 0.500000 0.000000
O O13 0.926450 0.019316 0.000570
O O14 0.126006 0.422380 0.907917
O O15 0.818427 0.165503 0.489937
O O16 0.500000 0.000000 0.000000
#
# Coordination Sequence:
#
# PCOD9060482 Si02
#       7
#     2   2   2   2   2   2   2
#     4  11  23  43  71 107 146 180 237 300 372 434
#     4  12  25  50  69 102 148 193 243 297 362 435
#     4  11  25  43  69 106 142 185 236 304 361 435
#     4  11  27  47  72  97 144 194 244 303 352 431
#     4  11  25  42  74 105 143 188 234 300 373 436
#     4  11  25  43  74 104 144 184 240 302 371 432
#     4  11  24  46  69 103 138 185 251 290 363 432
#
# _framework density 22.926072000000001
#
# number of rings (size 3 to 8) (size 9 to 14) (size 15 to 20)
#    0.000    0.857    4.286    1.714    6.000    3.429 
#    0.000    1.429    0.000    0.000    0.000    0.000 
#    0.000    0.000    0.000    0.000    0.000    0.000 
#
# Total GULP energy -78218.565334 kJ/mol
# GULP energy per Si atom -5587.040381 kJ/mol
# Density = 2.287389 g / cm^3
# Si number density = 22.926072 Si / 1000 Ang^3
#
#
#
# Elastic Constant Matrix: (Units=GPa)
#
#
# Indices 1 2 3 4 5 6 
#
# 1 126.6143 26.1633 60.5937 -16.0287 21.8086 9.2654
# 2 26.1633 79.7607 29.3963 18.9479 -0.6050 -7.7384
# 3 60.5937 29.3963 124.0182 -0.1753 39.7183 -12.5270
# 4 -16.0287 18.9479 -0.1753 24.1248 -1.6046 3.3570
# 5 21.8086 -0.6050 39.7183 -1.6046 58.9540 -4.3424
# 6 9.2654 -7.7384 -12.5270 3.3570 -4.3424 22.7054
#
#
#
# Elastic Compliance Matrix: (Units=1/GPa)
#
#
# Indices 1 2 3 4 5 6 
#
# 1 0.018549 -0.010683 -0.007605 0.023174 -0.002641 -0.019338
# 2 -0.010683 0.024830 -0.000548 -0.028733 0.005101 0.017743
# 3 -0.007605 -0.000548 0.015181 -0.006488 -0.006789 0.010953
# 4 0.023174 -0.028733 -0.006488 0.084080 -0.004874 -0.036192
# 5 -0.002641 0.005101 -0.006789 -0.004874 0.022738 0.004140
# 6 -0.019338 0.017743 0.010953 -0.036192 0.004140 0.070166
#
#
# Mechanical properties :
#
#
# Convention : Reuss Voigt Hill
#
# Bulk Modulus (GPa) = 47.87632 62.52219 55.19926
# Shear Modulus (GPa) = 17.84580 35.43952 26.64266
#
# Velocity S-wave (km/s) = 2.79302 3.93595 3.41267
# Velocity P-wave (km/s) = 5.59728 6.92720 6.29744
#
# Compressibility (1/GPa) = 0.02088715
#
# Stress axis : x y z
#
# Youngs Moduli (GPa) = 53.91158 40.27455 65.87386
#
# Poissons Ratio (x) = 0.43025 0.50098
# Poissons Ratio (y) = 0.57594 0.03608
# Poissons Ratio (z) = 0.41001 0.02206
#
# Static dielectric constant tensor:
#      x y z
#    x 1.957550 0.007430 -0.019170 
#    y 0.007430 1.858680 0.026850 
#    z -0.019170 0.026850 1.910740 
# 
# From -- ./inp_files/363981.got.cif
#   From: 2010.05.17/outbox.cif.g08.bks.cpg/sg2_182_cif.got.tgz:363981.got - 2010.06.03 11:33:40.
