data_PCOD9060218
_publ_section_title
;
Structure prediction by ZEFSAII (Michael W. Deem and Ramdas Pophale) SiO2 
 PCOD9060218
Probable space group: P -1
;
_chemical_formula_sum "Si O2"
_cell_formula_units_Z 16
_cell_length_a 11.233234
_cell_length_b 18.836279
_cell_length_c 9.743421
_cell_angle_alpha 134.640448
_cell_angle_beta 75.374520
_cell_angle_gamma 139.030621
_cell_volume 772.299283
_symmetry_space_group_name_H-M "P -1"
_symmetry_group_IT_number 2
_symmetry_cell_setting 'triclinic'
loop_
_space_group_symop_operation_xyz
x,y,z
-x,-y,-z
loop_
_atom_site_type_symbol
_atom_site_label
_atom_site_fract_x
_atom_site_fract_y
_atom_site_fract_z
Si Si1 0.124543 0.840098 0.328354
Si Si2 0.565094 0.600842 0.480203
Si Si3 0.560443 0.799628 0.911937
Si Si4 0.053295 0.481440 0.600720
Si Si5 0.910167 0.506200 0.912723
Si Si6 0.293229 0.341609 0.946941
Si Si7 0.442542 0.233170 0.809500
Si Si8 0.988059 0.224326 0.411309
O O1 0.073786 0.783974 0.427676
O O2 0.104851 0.717675 0.103789
O O3 0.930812 0.768032 0.205150
O O4 0.343806 0.058270 0.561037
O O5 0.500000 0.500000 0.500000
O O6 0.579746 0.726057 0.691738
O O7 0.380995 0.452092 0.213409
O O8 0.806825 0.713636 0.533649
O O9 0.318091 0.685962 0.818367
O O10 0.549432 0.751765 0.007381
O O11 0.774967 0.017831 0.135907
O O12 0.000000 0.500000 0.500000
O O13 0.883293 0.416609 0.669993
O O14 0.042496 0.354791 0.471576
O O15 0.683445 0.405169 0.896699
O O16 0.000000 0.500000 0.000000
O O17 0.500000 0.500000 0.000000
O O18 0.280585 0.213754 0.790417
#
# Coordination Sequence:
#
# PCOD9060218 Si02
#       8
#     2   2   2   2   2   2   2   2
#     4  11  24  41  70 101 130 170 219 276 326 383
#     4  12  22  41  71  97 133 175 212 262 337 392
#     4  11  24  43  70  97 130 174 218 270 330 392
#     4  12  27  45  66  95 134 175 219 271 325 386
#     4  12  23  43  68  94 127 174 225 264 320 386
#     4  12  22  41  69  98 134 169 212 270 330 384
#     4  11  23  43  68 100 132 169 219 273 328 385
#     4  11  23  45  68  97 132 172 220 270 329 391
#
# _framework density 20.717357
#
# number of rings (size 3 to 8) (size 9 to 14) (size 15 to 20)
#    0.000    0.500    7.500    0.750    1.750    2.000 
#    0.000    2.500    0.000    0.000    0.000    0.000 
#    0.000    0.000    0.000    0.000    0.000    0.000 
#
# Total GULP energy -89227.738354 kJ/mol
# GULP energy per Si atom -5576.733647 kJ/mol
# Density = 2.067020 g / cm^3
# Si number density = 20.717357 Si / 1000 Ang^3
#
#
#
# Elastic Constant Matrix: (Units=GPa)
#
#
# Indices 1 2 3 4 5 6 
#
# 1 85.6990 7.5105 21.8954 -5.0331 -9.1382 -20.9914
# 2 7.5105 54.3408 24.4490 -10.7072 -2.8624 -13.7619
# 3 21.8954 24.4490 92.4068 9.8470 -10.6000 -6.7427
# 4 -5.0331 -10.7072 9.8470 31.1728 -1.9164 4.9721
# 5 -9.1382 -2.8624 -10.6000 -1.9164 31.6263 -13.6868
# 6 -20.9914 -13.7619 -6.7427 4.9721 -13.6868 28.3401
#
#
#
# Elastic Compliance Matrix: (Units=1/GPa)
#
#
# Indices 1 2 3 4 5 6 
#
# 1 0.019626 0.006231 -0.003133 0.003469 0.015688 0.023784
# 2 0.006231 0.028765 -0.007421 0.010669 0.011417 0.020460
# 3 -0.003133 -0.007421 0.014714 -0.007576 0.003062 0.000384
# 4 0.003469 0.010669 -0.007576 0.038807 0.001780 -0.000001
# 5 0.015688 0.011417 0.003062 0.001780 0.058063 0.045621
# 6 0.023784 0.020460 0.000384 -0.000001 0.045621 0.084962
#
#
# Mechanical properties :
#
#
# Convention : Reuss Voigt Hill
#
# Bulk Modulus (GPa) = 18.36316 37.79516 28.07916
# Shear Modulus (GPa) = 18.40012 30.13395 24.26704
#
# Velocity S-wave (km/s) = 2.98342 3.81796 3.42620
# Velocity P-wave (km/s) = 4.55528 6.14155 5.40690
#
# Compressibility (1/GPa) = 0.05445685
#
# Stress axis : x y z
#
# Youngs Moduli (GPa) = 50.95380 34.76412 67.96128
#
# Poissons Ratio (x) = -0.21660 0.21295
# Poissons Ratio (y) = -0.31747 0.50437
# Poissons Ratio (z) = 0.15966 0.25800
#
# Static dielectric constant tensor:
#      x y z
#    x 1.822670 0.018710 -0.036080 
#    y 0.018710 1.715940 -0.074850 
#    z -0.036080 -0.074850 1.735000 
# 
# From -- ./inp_files/279868.got.cif
#   From: 2010.05.17/outbox.cif.g08.bks.cpg/sg2_140_cif.got.tgz:279868.got - 2010.06.03 11:33:40.
