data_PCOD9060282
_publ_section_title
;
Structure prediction by ZEFSAII (Michael W. Deem and Ramdas Pophale) SiO2 
 PCOD9060282
Probable space group: P -1
;
_chemical_formula_sum "Si O2"
_cell_formula_units_Z 16
_cell_length_a 27.420121
_cell_length_b 26.813540
_cell_length_c 8.993604
_cell_angle_alpha 39.159639
_cell_angle_beta 139.059009
_cell_angle_gamma 169.554566
_cell_volume 755.552842
_symmetry_space_group_name_H-M "P -1"
_symmetry_group_IT_number 2
_symmetry_cell_setting 'triclinic'
loop_
_space_group_symop_operation_xyz
x,y,z
-x,-y,-z
loop_
_atom_site_type_symbol
_atom_site_label
_atom_site_fract_x
_atom_site_fract_y
_atom_site_fract_z
Si Si1 0.874092 0.652967 0.433654
Si Si2 0.977151 0.159768 0.988043
Si Si3 0.647082 0.949459 0.250076
Si Si4 0.570904 0.497059 0.769235
Si Si5 0.749909 0.230009 0.944082
Si Si6 0.741544 0.696878 0.033710
Si Si7 0.819793 0.146565 0.857795
Si Si8 0.353762 0.784175 0.562141
O O1 0.656677 0.372099 0.650844
O O2 0.769140 0.632570 0.283058
O O3 0.900207 0.679760 0.253205
O O4 0.164649 0.926437 0.534117
O O5 0.905182 0.156212 0.942261
O O6 0.203531 0.331183 0.176868
O O7 0.705057 0.833558 0.076895
O O8 0.741033 0.129954 0.107999
O O9 0.688259 0.991303 0.071766
O O10 0.500000 0.500000 0.500000
O O11 0.702177 0.658640 0.853586
O O12 0.745407 0.277358 0.675434
O O13 0.000000 0.500000 0.000000
O O14 0.500000 0.000000 0.000000
O O15 0.500000 0.500000 0.000000
O O16 0.000000 0.000000 0.000000
O O17 0.089167 0.474440 0.741629
O O18 0.587289 0.957661 0.672694
O O19 0.500000 0.000000 0.500000
#
# Coordination Sequence:
#
# PCOD9060282 Si02
#       8
#     2   2   2   2   2   2   2   2
#     4  11  25  44  68  99 142 182 222 287 342 406
#     4  11  25  46  69 105 142 184 234 279 357 414
#     4  12  26  45  68 101 142 177 234 287 341 412
#     4  11  24  45  72 105 142 180 230 293 338 411
#     4  12  28  45  70 106 135 181 239 287 348 411
#     4  11  23  43  69 101 135 181 227 271 344 410
#     4  12  27  45  73 103 137 188 233 287 354 415
#     4  12  26  48  72  98 143 183 232 295 350 407
#
# _framework density 21.176546999999999
#
# number of rings (size 3 to 8) (size 9 to 14) (size 15 to 20)
#    0.000    0.500    1.250    7.500    7.000    3.000 
#    0.000    0.000    0.000    0.000    0.000    0.000 
#    0.000    0.000    0.000    0.000    0.000    0.000 
#
# Total GULP energy -89568.863329 kJ/mol
# GULP energy per Si atom -5598.053958 kJ/mol
# Density = 2.112835 g / cm^3
# Si number density = 21.176547 Si / 1000 Ang^3
#
#
#
# Elastic Constant Matrix: (Units=GPa)
#
#
# Indices 1 2 3 4 5 6 
#
# 1 135.9110 38.8126 53.9677 -3.6733 5.8763 8.4258
# 2 38.8126 146.7031 36.7590 0.9057 -5.7477 5.4959
# 3 53.9677 36.7590 103.8066 9.0190 -1.8857 -6.7656
# 4 -3.6733 0.9057 9.0190 46.1124 10.5161 5.0973
# 5 5.8763 -5.7477 -1.8857 10.5161 27.5060 10.4911
# 6 8.4258 5.4959 -6.7656 5.0973 10.4911 35.7185
#
#
#
# Elastic Compliance Matrix: (Units=1/GPa)
#
#
# Indices 1 2 3 4 5 6 
#
# 1 0.010238 -0.001406 -0.005304 0.002842 -0.002877 -0.002764
# 2 -0.001406 0.007906 -0.002132 -0.000235 0.002674 -0.002041
# 3 -0.005304 -0.002132 0.013792 -0.003891 0.001476 0.004314
# 4 0.002842 -0.000235 -0.003891 0.025129 -0.009729 -0.002100
# 5 -0.002877 0.002674 0.001476 -0.009729 0.045736 -0.011498
# 6 -0.002764 -0.002041 0.004314 -0.002100 -0.011498 0.033457
#
#
# Mechanical properties :
#
#
# Convention : Reuss Voigt Hill
#
# Bulk Modulus (GPa) = 70.17462 71.72214 70.94838
# Shear Modulus (GPa) = 31.50754 38.99280 35.25017
#
# Velocity S-wave (km/s) = 3.86145 4.29572 4.08436
# Velocity P-wave (km/s) = 7.28635 7.65156 7.47119
#
# Compressibility (1/GPa) = 0.01425017
#
# Stress axis : x y z
#
# Youngs Moduli (GPa) = 97.67493 126.49394 72.50646
#
# Poissons Ratio (x) = 0.17790 0.38457
# Poissons Ratio (y) = 0.13737 0.15461
# Poissons Ratio (z) = 0.51806 0.26972
#
# Static dielectric constant tensor:
#      x y z
#    x 1.734150 0.003820 0.009750 
#    y 0.003820 1.733040 -0.004580 
#    z 0.009750 -0.004580 1.742710 
# 
# From -- ./inp_files/357982.got.cif
#   From: 2010.05.17/outbox.cif.g08.bks.cpg/sg2_179_cif.got.tgz:357982.got - 2010.06.03 11:33:40.
