data_PCOD9060103
_publ_section_title
;
Structure prediction by ZEFSAII (Michael W. Deem and Ramdas Pophale) SiO2 
 PCOD9060103
Probable space group: P -1
;
_chemical_formula_sum "Si O2"
_cell_formula_units_Z 14
_cell_length_a 17.103315
_cell_length_b 6.697317
_cell_length_c 9.135214
_cell_angle_alpha 48.101952
_cell_angle_beta 60.053197
_cell_angle_gamma 83.457491
_cell_volume 634.627754
_symmetry_space_group_name_H-M "P -1"
_symmetry_group_IT_number 2
_symmetry_cell_setting 'triclinic'
loop_
_space_group_symop_operation_xyz
x,y,z
-x,-y,-z
loop_
_atom_site_type_symbol
_atom_site_label
_atom_site_fract_x
_atom_site_fract_y
_atom_site_fract_z
Si Si1 0.509447 0.632587 0.084173
Si Si2 0.382276 0.738499 0.366622
Si Si3 0.906879 0.782425 0.117393
Si Si4 0.799586 0.211600 0.652596
Si Si5 0.093588 0.221497 0.228318
Si Si6 0.603973 0.249381 0.312013
Si Si7 0.209880 0.803975 0.984057
O O1 0.420739 0.538250 0.326428
O O2 0.592383 0.540540 0.123550
O O3 0.500000 0.500000 0.000000
O O4 0.532152 0.960123 0.863742
O O5 0.294039 0.790773 0.345273
O O6 0.366968 0.681772 0.579444
O O7 0.880505 0.483153 0.372105
O O8 0.821947 0.919270 0.144864
O O9 0.921370 0.755388 0.943217
O O10 0.000000 0.000000 0.000000
O O11 0.826312 0.928015 0.750477
O O12 0.789906 0.252217 0.814971
O O13 0.131117 0.531413 0.115090
O O14 0.000000 0.000000 0.500000
O O15 0.687731 0.171373 0.191431
O O16 0.500000 0.000000 0.500000
#
# Coordination Sequence:
#
# PCOD9060103 Si02
#       7
#     2   2   2   2   2   2   2
#     4  11  23  43  64  91 128 170 224 272 328 390
#     4  11  25  41  66  94 128 176 220 277 330 391
#     4  11  25  44  70 103 134 176 222 273 342 407
#     4  11  25  43  68  97 136 175 225 275 338 401
#     4  11  24  45  71 100 136 173 220 281 341 405
#     4  12  25  42  66  95 133 178 223 273 332 391
#     4  11  26  44  66  99 139 175 225 280 333 402
#
# _framework density 22.060176999999999
#
# number of rings (size 3 to 8) (size 9 to 14) (size 15 to 20)
#    0.000    0.857    1.429    4.714    4.000   10.286 
#    0.000    0.000    0.000    0.000    0.000    0.000 
#    0.000    0.000    0.000    0.000    0.000    0.000 
#
# Total GULP energy -78273.472213 kJ/mol
# GULP energy per Si atom -5590.962301 kJ/mol
# Density = 2.200997 g / cm^3
# Si number density = 22.060177 Si / 1000 Ang^3
#
#
#
# Elastic Constant Matrix: (Units=GPa)
#
#
# Indices 1 2 3 4 5 6 
#
# 1 90.3123 17.2077 7.7673 33.4637 22.3107 4.6407
# 2 17.2077 90.1972 23.5967 29.8391 17.7403 6.9796
# 3 7.7673 23.5967 78.2974 18.6597 17.8908 0.2355
# 4 33.4637 29.8391 18.6597 39.1553 2.5549 0.2353
# 5 22.3107 17.7403 17.8908 2.5549 50.9921 4.4865
# 6 4.6407 6.9796 0.2355 0.2353 4.4865 35.9482
#
#
#
# Elastic Compliance Matrix: (Units=1/GPa)
#
#
# Indices 1 2 3 4 5 6 
#
# 1 0.021275 0.004830 0.004557 -0.023289 -0.011231 -0.002160
# 2 0.004830 0.017377 -0.000087 -0.016852 -0.007019 -0.003010
# 3 0.004557 -0.000087 0.016706 -0.011316 -0.007285 0.000302
# 4 -0.023289 -0.016852 -0.011316 0.062575 0.016547 0.003878
# 5 -0.011231 -0.007019 -0.007285 0.016547 0.028767 -0.000838
# 6 -0.002160 -0.003010 0.000302 0.003878 -0.000838 0.028758
#
#
# Mechanical properties :
#
#
# Convention : Reuss Voigt Hill
#
# Bulk Modulus (GPa) = 13.52131 39.55004 26.53567
# Shear Modulus (GPa) = 27.54623 39.23481 33.39052
#
# Velocity S-wave (km/s) = 3.53751 4.22184 3.89474
# Velocity P-wave (km/s) = 4.77785 6.46007 5.68156
#
# Compressibility (1/GPa) = 0.07395733
#
# Stress axis : x y z
#
# Youngs Moduli (GPa) = 47.00278 57.54840 59.85704
#
# Poissons Ratio (x) = -0.27793 -0.27276
# Poissons Ratio (y) = -0.22700 0.00520
# Poissons Ratio (z) = -0.21418 0.00500
#
# Static dielectric constant tensor:
#      x y z
#    x 1.768550 -0.010710 -0.089740 
#    y -0.010710 1.939240 0.062600 
#    z -0.089740 0.062600 1.866940 
# 
# From -- ./inp_files/48771.got.cif
#   From: 2010.05.17/outbox.cif.g08.bks.cpg/sg2_25_cif.got.tgz:48771.got - 2010.06.03 11:33:40.
