data_PCOD9060828
_publ_section_title
;
Structure prediction by ZEFSAII (Michael W. Deem and Ramdas Pophale) SiO2 
 PCOD9060828
Probable space group: P -1
;
_chemical_formula_sum "Si O2"
_cell_formula_units_Z 12
_cell_length_a 8.161305
_cell_length_b 9.852975
_cell_length_c 11.650715
_cell_angle_alpha 118.739469
_cell_angle_beta 49.065839
_cell_angle_gamma 86.402016
_cell_volume 509.756286
_symmetry_space_group_name_H-M "P -1"
_symmetry_group_IT_number 2
_symmetry_cell_setting 'triclinic'
loop_
_space_group_symop_operation_xyz
x,y,z
-x,-y,-z
loop_
_atom_site_type_symbol
_atom_site_label
_atom_site_fract_x
_atom_site_fract_y
_atom_site_fract_z
Si Si1 0.605006 0.221464 0.256736
Si Si2 0.247101 0.994654 0.124890
Si Si3 0.145204 0.765783 0.246804
Si Si4 0.472818 0.979249 0.369070
Si Si5 0.585795 0.594580 0.159902
Si Si6 0.272228 0.621459 0.526119
O O1 0.565656 0.084932 0.294401
O O2 0.330869 0.415180 0.422214
O O3 0.724642 0.302975 0.318477
O O4 0.766175 0.107068 0.024265
O O5 0.996987 0.208194 0.334996
O O6 0.258665 0.870778 0.173632
O O7 0.500000 0.000000 0.000000
O O8 0.323721 0.658632 0.231805
O O9 0.838063 0.917930 0.470978
O O10 0.185613 0.606364 0.075831
O O11 0.500000 0.000000 0.500000
O O12 0.629740 0.757352 0.184481
O O13 0.507307 0.594166 0.327211
#
# Coordination Sequence:
#
# PCOD9060828 Si02
#       6
#     2   2   2   2   2   2
#     4  11  25  44  67 100 130 172 221 264 329 387
#     4  12  25  42  69 101 129 172 218 270 329 387
#     4  11  25  43  69  96 134 172 219 271 319 394
#     4  12  24  43  69 100 130 172 217 270 327 385
#     4  11  23  44  68  94 132 177 215 265 330 378
#     4  11  24  45  69  92 137 174 214 273 324 385
#
# _framework density 23.540662000000001
#
# number of rings (size 3 to 8) (size 9 to 14) (size 15 to 20)
#    0.000    0.667    5.000    2.000    2.333    5.333 
#    0.000    0.000    0.000    0.000    0.000    0.000 
#    0.000    0.000    0.000    0.000    0.000    0.000 
#
# Total GULP energy -67202.607787 kJ/mol
# GULP energy per Si atom -5600.217316 kJ/mol
# Density = 2.348708 g / cm^3
# Si number density = 23.540662 Si / 1000 Ang^3
#
#
#
# Elastic Constant Matrix: (Units=GPa)
#
#
# Indices 1 2 3 4 5 6 
#
# 1 21.1328 7.2521 7.6477 -3.6425 15.3613 -6.7361
# 2 7.2521 137.1527 47.8246 25.1354 6.2057 -4.0171
# 3 7.6477 47.8246 111.1315 23.9825 19.4069 -4.3360
# 4 -3.6425 25.1354 23.9825 48.5012 -3.2714 10.4935
# 5 15.3613 6.2057 19.4069 -3.2714 27.3492 -5.6579
# 6 -6.7361 -4.0171 -4.3360 10.4935 -5.6579 31.9645
#
#
#
# Elastic Compliance Matrix: (Units=1/GPa)
#
#
# Indices 1 2 3 4 5 6 
#
# 1 0.084964 -0.003722 0.004265 0.000977 -0.047880 0.009220
# 2 -0.003722 0.009235 -0.003256 -0.003636 0.002184 0.001515
# 3 0.004265 -0.003256 0.013469 -0.005907 -0.011460 0.002228
# 4 0.000977 -0.003636 -0.005907 0.027877 0.005908 -0.009158
# 5 -0.047880 0.002184 -0.011460 0.005908 0.071671 -0.000624
# 6 0.009220 0.001515 0.002228 -0.009158 -0.000624 0.036617
#
#
# Mechanical properties :
#
#
# Convention : Reuss Voigt Hill
#
# Bulk Modulus (GPa) = 9.78068 43.87398 26.82733
# Shear Modulus (GPa) = 17.64669 35.34248 26.49459
#
# Velocity S-wave (km/s) = 2.74090 3.87891 3.35846
# Velocity P-wave (km/s) = 3.76571 6.22409 5.14392
#
# Compressibility (1/GPa) = 0.10224241
#
# Stress axis : x y z
#
# Youngs Moduli (GPa) = 11.76968 108.28183 74.24493
#
# Poissons Ratio (x) = 0.40306 -0.31666
# Poissons Ratio (y) = 0.04381 0.24172
# Poissons Ratio (z) = -0.05020 0.35253
#
# Static dielectric constant tensor:
#      x y z
#    x 1.959490 -0.020340 0.018740 
#    y -0.020340 1.846820 0.023790 
#    z 0.018740 0.023790 1.877020 
# 
# From -- ./inp_files/151285.got.cif
#   From: 2010.05.17/outbox.cif.g08.bks.cpg/sg2_76_cif.got.tgz:151285.got - 2010.06.03 11:33:40.
