data_PCOD9060478
_publ_section_title
;
Structure prediction by ZEFSAII (Michael W. Deem and Ramdas Pophale) SiO2 
 PCOD9060478
Probable space group: P -1
;
_chemical_formula_sum "Si O2"
_cell_formula_units_Z 14
_cell_length_a 20.193325
_cell_length_b 12.211781
_cell_length_c 7.489034
_cell_angle_alpha 63.499613
_cell_angle_beta 134.406386
_cell_angle_gamma 151.214202
_cell_volume 555.348989
_symmetry_space_group_name_H-M "P -1"
_symmetry_group_IT_number 2
_symmetry_cell_setting 'triclinic'
loop_
_space_group_symop_operation_xyz
x,y,z
-x,-y,-z
loop_
_atom_site_type_symbol
_atom_site_label
_atom_site_fract_x
_atom_site_fract_y
_atom_site_fract_z
Si Si1 0.408367 0.743915 0.317127
Si Si2 0.947936 0.347761 0.257967
Si Si3 0.632353 0.753797 0.664619
Si Si4 0.361733 0.745364 0.650537
Si Si5 0.021709 0.693873 0.253315
Si Si6 0.588937 0.798875 0.010194
Si Si7 0.218538 0.202154 0.726543
O O1 0.502025 0.721821 0.477971
O O2 0.376331 0.735336 0.473510
O O3 0.541975 0.011574 0.304549
O O4 0.195270 0.503284 0.999125
O O5 0.133104 0.483228 0.454387
O O6 0.915020 0.286474 0.451168
O O7 0.996575 0.546932 0.181175
O O8 0.743288 0.063529 0.996012
O O9 0.500000 0.500000 0.500000
O O10 0.711736 0.780980 0.972074
O O11 0.822741 0.027382 0.723290
O O12 0.487911 0.784943 0.954540
O O13 0.733948 0.852228 0.285448
O O14 0.384711 0.496638 0.782770
O O15 0.000000 0.000000 0.500000
#
# Coordination Sequence:
#
# PCOD9060478 Si02
#       7
#     2   2   2   2   2   2   2
#     4  11  25  44  72 112 140 193 235 308 364 436
#     4  11  24  43  70 112 145 193 230 307 366 440
#     4  12  27  49  74 103 152 196 241 301 370 442
#     4  11  23  43  74 106 150 179 244 300 371 426
#     4  11  26  43  71 106 149 185 248 289 374 437
#     4  11  23  43  71 106 141 185 240 300 362 427
#     4  11  26  45  72 107 144 194 251 295 360 437
#
# _framework density 25.209375000000001
#
# number of rings (size 3 to 8) (size 9 to 14) (size 15 to 20)
#    0.000    0.857    4.286    1.714    4.000    5.143 
#    0.000    0.000    0.000    0.000    0.000    0.000 
#    0.000    0.000    0.000    0.000    0.000    0.000 
#
# Total GULP energy -78295.162919 kJ/mol
# GULP energy per Si atom -5592.511637 kJ/mol
# Density = 2.515200 g / cm^3
# Si number density = 25.209375 Si / 1000 Ang^3
#
#
#
# Elastic Constant Matrix: (Units=GPa)
#
#
# Indices 1 2 3 4 5 6 
#
# 1 92.9611 50.6766 51.9307 11.9016 34.9397 -29.3410
# 2 50.6766 188.8391 42.9723 30.1578 12.8017 -24.4759
# 3 51.9307 42.9723 150.4590 20.2474 42.0487 -8.5945
# 4 11.9016 30.1578 20.2474 49.4947 12.8792 10.5584
# 5 34.9397 12.8017 42.0487 12.8792 64.4349 -2.0504
# 6 -29.3410 -24.4759 -8.5945 10.5584 -2.0504 52.3803
#
#
#
# Elastic Compliance Matrix: (Units=1/GPa)
#
#
# Indices 1 2 3 4 5 6 
#
# 1 0.020137 -0.002570 -0.003280 -0.002027 -0.007555 0.009654
# 2 -0.002570 0.007111 -0.000817 -0.004334 0.001466 0.002680
# 3 -0.003280 -0.000817 0.009233 -0.001371 -0.003829 -0.000578
# 4 -0.002027 -0.004334 -0.001371 0.026485 -0.002720 -0.008831
# 5 -0.007555 0.001466 -0.003829 -0.002720 0.022280 -0.002755
# 6 0.009654 0.002680 -0.000578 -0.008831 -0.002755 0.027328
#
#
# Mechanical properties :
#
#
# Convention : Reuss Voigt Hill
#
# Bulk Modulus (GPa) = 43.20399 80.37983 61.79191
# Shear Modulus (GPa) = 37.41793 52.37396 44.89594
#
# Velocity S-wave (km/s) = 3.85682 4.56297 4.22468
# Velocity P-wave (km/s) = 6.08348 7.72755 6.95427
#
# Compressibility (1/GPa) = 0.02314601
#
# Stress axis : x y z
#
# Youngs Moduli (GPa) = 49.65959 140.62010 108.30177
#
# Poissons Ratio (x) = 0.36143 0.35527
# Poissons Ratio (y) = 0.12764 0.08851
# Poissons Ratio (z) = 0.16290 0.11492
#
# Static dielectric constant tensor:
#      x y z
#    x 2.092910 -0.031430 -0.097890 
#    y -0.031430 1.978200 -0.045470 
#    z -0.097890 -0.045470 2.114170 
# 
# From -- ./inp_files/64594.got.cif
#   From: 2010.05.17/outbox.cif.g08.bks.cpg/sg2_33_cif.got.tgz:64594.got - 2010.06.03 11:33:40.
