data_PCOD9060251
_publ_section_title
;
Structure prediction by ZEFSAII (Michael W. Deem and Ramdas Pophale) SiO2 
 PCOD9060251
Probable space group: P -1
;
_chemical_formula_sum "Si O2"
_cell_formula_units_Z 16
_cell_length_a 17.893969
_cell_length_b 5.633744
_cell_length_c 10.954889
_cell_angle_alpha 116.899728
_cell_angle_beta 45.337623
_cell_angle_gamma 92.293556
_cell_volume 629.634061
_symmetry_space_group_name_H-M "P -1"
_symmetry_group_IT_number 2
_symmetry_cell_setting 'triclinic'
loop_
_space_group_symop_operation_xyz
x,y,z
-x,-y,-z
loop_
_atom_site_type_symbol
_atom_site_label
_atom_site_fract_x
_atom_site_fract_y
_atom_site_fract_z
Si Si1 0.141875 0.681764 0.966381
Si Si2 0.901499 0.044158 0.267861
Si Si3 0.725942 0.717379 0.080842
Si Si4 0.159290 0.277937 0.516274
Si Si5 0.875103 0.776206 0.723433
Si Si6 0.318301 0.714579 0.599981
Si Si7 0.539747 0.561008 0.160855
Si Si8 0.417781 0.951371 0.180366
O O1 0.121315 0.972832 0.135275
O O2 0.164717 0.445459 0.991091
O O3 0.260091 0.572001 0.727531
O O4 0.031930 0.793017 0.026964
O O5 0.901993 0.366136 0.350726
O O6 0.788666 0.105722 0.329249
O O7 0.885001 0.888874 0.374402
O O8 0.637637 0.570274 0.138830
O O9 0.661287 0.046570 0.284331
O O10 0.779649 0.697965 0.880853
O O11 0.163046 0.125593 0.347002
O O12 0.289815 0.212509 0.389664
O O13 0.000000 0.500000 0.500000
O O14 0.437798 0.529702 0.347715
O O15 0.473684 0.862116 0.228467
O O16 0.594967 0.324593 0.933668
O O17 0.500000 0.000000 0.000000
#
# Coordination Sequence:
#
# PCOD9060251 Si02
#       8
#     2   2   2   2   2   2   2   2
#     4  11  26  44  71 104 145 198 239 305 365 447
#     4  12  27  47  76 111 147 196 247 303 373 439
#     4  11  26  43  72 103 146 195 248 298 370 436
#     4  12  26  44  78 110 148 191 240 309 377 439
#     4  11  23  43  68 106 146 185 240 299 371 440
#     4  11  26  47  67 103 146 194 252 299 363 435
#     4  11  24  46  70 105 143 190 247 308 365 439
#     4  11  24  41  73 105 145 188 243 305 374 436
#
# _framework density 25.411586
#
# number of rings (size 3 to 8) (size 9 to 14) (size 15 to 20)
#    0.000    0.750    2.500    3.750    8.750    4.000 
#    0.000    0.000    0.000    0.000    0.000    0.000 
#    0.000    0.000    0.000    0.000    0.000    0.000 
#
# Total GULP energy -89537.509354 kJ/mol
# GULP energy per Si atom -5596.094335 kJ/mol
# Density = 2.535375 g / cm^3
# Si number density = 25.411586 Si / 1000 Ang^3
#
#
#
# Elastic Constant Matrix: (Units=GPa)
#
#
# Indices 1 2 3 4 5 6 
#
# 1 101.2404 6.6817 18.8409 5.4706 9.9548 -1.8382
# 2 6.6817 87.8927 28.6653 -11.6895 6.1892 -12.0324
# 3 18.8409 28.6653 117.1802 -3.6528 11.3150 4.6440
# 4 5.4706 -11.6895 -3.6528 41.1572 -5.0788 2.9097
# 5 9.9548 6.1892 11.3150 -5.0788 40.6648 -1.7561
# 6 -1.8382 -12.0324 4.6440 2.9097 -1.7561 36.0518
#
#
#
# Elastic Compliance Matrix: (Units=1/GPa)
#
#
# Indices 1 2 3 4 5 6 
#
# 1 0.010520 -0.000324 -0.001474 -0.001956 -0.002331 0.000662
# 2 -0.000324 0.013580 -0.003310 0.003220 -0.000463 0.004660
# 3 -0.001474 -0.003310 0.009876 0.000068 -0.001985 -0.002554
# 4 -0.001956 0.003220 0.000068 0.025937 0.003167 -0.000973
# 5 -0.002331 -0.000463 -0.001985 0.003167 0.026224 0.001004
# 6 0.000662 0.004660 -0.002554 -0.000973 0.001004 0.029783
#
#
# Mechanical properties :
#
#
# Convention : Reuss Voigt Hill
#
# Bulk Modulus (GPa) = 42.08753 46.07657 44.08205
# Shear Modulus (GPa) = 37.29775 40.38314 38.84045
#
# Velocity S-wave (km/s) = 3.83527 3.99075 3.91379
# Velocity P-wave (km/s) = 6.01753 6.27744 6.14886
#
# Compressibility (1/GPa) = 0.02376001
#
# Stress axis : x y z
#
# Youngs Moduli (GPa) = 95.05527 73.63602 101.26043
#
# Poissons Ratio (x) = 0.02387 0.14929
# Poissons Ratio (y) = 0.03082 0.33513
# Poissons Ratio (z) = 0.14014 0.24370
#
# Static dielectric constant tensor:
#      x y z
#    x 2.036660 0.019000 -0.031270 
#    y 0.019000 2.086580 0.043850 
#    z -0.031270 0.043850 1.971550 
# 
# From -- ./inp_files/411145.got.cif
#   From: 2010.05.17/outbox.cif.g08.bks.cpg/sg2_206_cif.got.tgz:411145.got - 2010.06.03 11:33:40.
