data_PCOD9060284
_publ_section_title
;
Structure prediction by ZEFSAII (Michael W. Deem and Ramdas Pophale) SiO2 
 PCOD9060284
Probable space group: P -1
;
_chemical_formula_sum "Si O2"
_cell_formula_units_Z 14
_cell_length_a 5.734624
_cell_length_b 15.061765
_cell_length_c 9.563376
_cell_angle_alpha 111.917504
_cell_angle_beta 65.958663
_cell_angle_gamma 122.483610
_cell_volume 623.417797
_symmetry_space_group_name_H-M "P -1"
_symmetry_group_IT_number 2
_symmetry_cell_setting 'triclinic'
loop_
_space_group_symop_operation_xyz
x,y,z
-x,-y,-z
loop_
_atom_site_type_symbol
_atom_site_label
_atom_site_fract_x
_atom_site_fract_y
_atom_site_fract_z
Si Si1 0.766268 0.038610 0.632389
Si Si2 0.586513 0.307174 0.663961
Si Si3 0.024974 0.198075 0.886367
Si Si4 0.308447 0.497921 0.410027
Si Si5 0.146352 0.625944 0.068987
Si Si6 0.757407 0.721127 0.827762
Si Si7 0.817716 0.161024 0.422346
O O1 0.801194 0.087923 0.807087
O O2 0.831414 0.136181 0.566758
O O3 0.444384 0.945912 0.635967
O O4 0.000000 0.000000 0.500000
O O5 0.512896 0.391993 0.652744
O O6 0.799653 0.365463 0.773334
O O7 0.720835 0.254477 0.494116
O O8 0.320887 0.213019 0.752502
O O9 0.008046 0.304355 0.900671
O O10 0.037343 0.209410 0.055803
O O11 0.500000 0.500000 0.500000
O O12 0.248480 0.392447 0.273460
O O13 0.000000 0.500000 0.500000
O O14 0.442821 0.684870 0.944270
O O15 0.000000 0.500000 0.000000
O O16 0.880705 0.795827 0.705273
#
# Coordination Sequence:
#
# PCOD9060284 Si02
#       7
#     2   2   2   2   2   2   2
#     4  11  24  44  75 100 134 189 246 300 368 444
#     4  11  23  43  69 101 138 189 238 298 361 444
#     4  11  24  44  70 101 139 188 239 299 371 437
#     4  12  28  43  71 111 150 193 246 305 368 442
#     4  11  24  43  70  98 146 189 236 288 366 444
#     4  11  27  43  68 109 145 186 238 306 369 428
#     4  11  24  44  70 104 137 180 249 303 366 433
#
# _framework density 22.456849999999999
#
# number of rings (size 3 to 8) (size 9 to 14) (size 15 to 20)
#    0.000    0.857    4.286    1.714    8.000    4.000 
#    0.000    1.429    0.000    0.000    0.000    0.000 
#    0.000    0.000    0.000    0.000    0.000    0.000 
#
# Total GULP energy -78178.915944 kJ/mol
# GULP energy per Si atom -5584.208282 kJ/mol
# Density = 2.240574 g / cm^3
# Si number density = 22.456850 Si / 1000 Ang^3
#
#
#
# Elastic Constant Matrix: (Units=GPa)
#
#
# Indices 1 2 3 4 5 6 
#
# 1 50.0903 0.3040 19.7803 -2.4347 -3.5393 -0.9081
# 2 0.3040 81.5405 31.8867 -0.4050 2.1133 7.8463
# 3 19.7803 31.8867 98.9641 7.7904 5.5589 13.9341
# 4 -2.4347 -0.4050 7.7904 45.7390 9.2277 3.5031
# 5 -3.5393 2.1133 5.5589 9.2277 33.4545 4.3207
# 6 -0.9081 7.8463 13.9341 3.5031 4.3207 28.3616
#
#
#
# Elastic Compliance Matrix: (Units=1/GPa)
#
#
# Indices 1 2 3 4 5 6 
#
# 1 0.022493 0.001851 -0.005693 0.001496 0.002481 0.002443
# 2 0.001851 0.014316 -0.004840 0.001180 -0.000015 -0.001667
# 3 -0.005693 -0.004840 0.013762 -0.002021 -0.001361 -0.005148
# 4 0.001496 0.001180 -0.002021 0.023591 -0.005920 -0.001298
# 5 0.002481 -0.000015 -0.001361 -0.005920 0.032461 -0.003462
# 6 0.002443 -0.001667 -0.005148 -0.001298 -0.003462 0.039015
#
#
# Mechanical properties :
#
#
# Convention : Reuss Voigt Hill
#
# Bulk Modulus (GPa) = 30.11438 37.17078 33.64258
# Shear Modulus (GPa) = 28.72358 33.41927 31.07142
#
# Velocity S-wave (km/s) = 3.58027 3.86185 3.72372
# Velocity P-wave (km/s) = 5.52541 6.03930 5.78806
#
# Compressibility (1/GPa) = 0.03320673
#
# Stress axis : x y z
#
# Youngs Moduli (GPa) = 44.45804 69.85040 72.66174
#
# Poissons Ratio (x) = -0.12926 0.41367
# Poissons Ratio (y) = -0.08227 0.35168
# Poissons Ratio (z) = 0.25310 0.33808
#
# Static dielectric constant tensor:
#      x y z
#    x 1.923240 0.041090 -0.013090 
#    y 0.041090 1.846550 -0.002540 
#    z -0.013090 -0.002540 1.849900 
# 
# From -- ./inp_files/36825.got.cif
#   From: 2010.05.17/outbox.cif.g08.bks.cpg/sg2_19_cif.got.tgz:36825.got - 2010.06.03 11:33:40.
