data_PCOD9060185
_publ_section_title
;
Structure prediction by ZEFSAII (Michael W. Deem and Ramdas Pophale) SiO2 
 PCOD9060185
Probable space group: P -1
;
_chemical_formula_sum "Si O2"
_cell_formula_units_Z 16
_cell_length_a 12.351580
_cell_length_b 6.267805
_cell_length_c 10.788605
_cell_angle_alpha 73.341733
_cell_angle_beta 110.202951
_cell_angle_gamma 89.484839
_cell_volume 745.504839
_symmetry_space_group_name_H-M "P -1"
_symmetry_group_IT_number 2
_symmetry_cell_setting 'triclinic'
loop_
_space_group_symop_operation_xyz
x,y,z
-x,-y,-z
loop_
_atom_site_type_symbol
_atom_site_label
_atom_site_fract_x
_atom_site_fract_y
_atom_site_fract_z
Si Si1 0.406859 0.369781 0.148082
Si Si2 0.375553 0.554201 0.379186
Si Si3 0.848418 0.495806 0.584096
Si Si4 0.008285 0.188965 0.572498
Si Si5 0.843020 0.059000 0.136202
Si Si6 0.771169 0.979970 0.846493
Si Si7 0.416339 0.838020 0.926608
Si Si8 0.964764 0.650676 0.843208
O O1 0.389761 0.431039 0.273722
O O2 0.305510 0.214614 0.106603
O O3 0.525258 0.227542 0.171408
O O4 0.406668 0.606423 0.036978
O O5 0.500000 0.500000 0.500000
O O6 0.286058 0.451450 0.451895
O O7 0.313557 0.810230 0.281681
O O8 0.915593 0.652306 0.498906
O O9 0.906197 0.511769 0.739308
O O10 0.879252 0.268074 0.557821
O O11 0.077085 0.143829 0.735909
O O12 0.000000 0.000000 0.500000
O O13 0.716526 0.057645 0.145344
O O14 0.915725 0.262067 0.168828
O O15 0.829329 0.059409 0.982444
O O16 0.870937 0.858998 0.815799
O O17 0.500000 0.000000 0.000000
O O18 0.000000 0.500000 0.000000
#
# Coordination Sequence:
#
# PCOD9060185 Si02
#       8
#     2   2   2   2   2   2   2   2
#     4  11  23  45  70  97 142 185 234 294 354 414
#     4  12  27  47  71 103 142 192 238 292 364 427
#     4  11  25  47  68  99 144 181 236 296 348 435
#     4  11  25  46  68 102 140 184 235 291 359 429
#     4  12  23  42  73 100 136 189 229 291 365 416
#     4  12  24  46  72 106 145 176 245 303 352 432
#     4  11  23  43  67 102 145 181 235 299 349 420
#     4  12  23  42  75 108 140 181 236 298 365 423
#
# _framework density 21.461966
#
# number of rings (size 3 to 8) (size 9 to 14) (size 15 to 20)
#    0.000    0.500    5.000    3.375    0.000    3.500 
#    0.000    0.000    0.000    0.000    0.000    0.000 
#    0.000    0.000    0.000    0.000    0.000    0.000 
#
# Total GULP energy -89251.733563 kJ/mol
# GULP energy per Si atom -5578.233348 kJ/mol
# Density = 2.141312 g / cm^3
# Si number density = 21.461966 Si / 1000 Ang^3
#
#
#
# Elastic Constant Matrix: (Units=GPa)
#
#
# Indices 1 2 3 4 5 6 
#
# 1 166.7489 41.8063 18.5977 14.8320 -0.5205 -9.5048
# 2 41.8063 76.5429 9.6371 18.4943 4.1982 -18.4947
# 3 18.5977 9.6371 73.4258 0.3039 3.5741 -9.2998
# 4 14.8320 18.4943 0.3039 20.2498 9.1028 -5.3834
# 5 -0.5205 4.1982 3.5741 9.1028 31.8365 0.2119
# 6 -9.5048 -18.4947 -9.2998 -5.3834 0.2119 45.3063
#
#
#
# Elastic Compliance Matrix: (Units=1/GPa)
#
#
# Indices 1 2 3 4 5 6 
#
# 1 0.007232 -0.003183 -0.001543 -0.003234 0.001639 -0.000491
# 2 -0.003183 0.019794 -0.001133 -0.015083 0.001742 0.005380
# 3 -0.001543 -0.001133 0.014610 0.003841 -0.002632 0.002682
# 4 -0.003234 -0.015083 0.003841 0.075272 -0.020037 0.002991
# 5 0.001639 0.001742 -0.002632 -0.020037 0.037246 -0.002041
# 6 -0.000491 0.005380 0.002682 0.002991 -0.002041 0.025081
#
#
# Mechanical properties :
#
#
# Convention : Reuss Voigt Hill
#
# Bulk Modulus (GPa) = 33.42202 50.75556 42.08879
# Shear Modulus (GPa) = 24.88493 35.92360 30.40426
#
# Velocity S-wave (km/s) = 3.40882 4.09568 3.76793
# Velocity P-wave (km/s) = 5.57673 6.78723 6.21154
#
# Compressibility (1/GPa) = 0.02992039
#
# Stress axis : x y z
#
# Youngs Moduli (GPa) = 138.27705 50.51996 68.44413
#
# Poissons Ratio (x) = 0.16079 0.10558
# Poissons Ratio (y) = 0.44009 0.07754
# Poissons Ratio (z) = 0.21330 0.05723
#
# Static dielectric constant tensor:
#      x y z
#    x 1.697390 0.015320 -0.024420 
#    y 0.015320 1.936890 -0.076240 
#    z -0.024420 -0.076240 1.796380 
# 
# From -- ./inp_files/410111.got.cif
#   From: 2010.05.17/outbox.cif.g08.bks.cpg/sg2_206_cif.got.tgz:410111.got - 2010.06.03 11:33:40.
