data_PCOD9060212
_publ_section_title
;
Structure prediction by ZEFSAII (Michael W. Deem and Ramdas Pophale) SiO2 
 PCOD9060212
Probable space group: P -1
;
_chemical_formula_sum "Si O2"
_cell_formula_units_Z 16
_cell_length_a 18.130656
_cell_length_b 15.864238
_cell_length_c 5.350171
_cell_angle_alpha 114.134168
_cell_angle_beta 72.173841
_cell_angle_gamma 150.677612
_cell_volume 683.364221
_symmetry_space_group_name_H-M "P -1"
_symmetry_group_IT_number 2
_symmetry_cell_setting 'triclinic'
loop_
_space_group_symop_operation_xyz
x,y,z
-x,-y,-z
loop_
_atom_site_type_symbol
_atom_site_label
_atom_site_fract_x
_atom_site_fract_y
_atom_site_fract_z
Si Si1 0.321703 0.534146 0.058723
Si Si2 0.244620 0.052313 0.556274
Si Si3 0.790543 0.125757 0.223792
Si Si4 0.947959 0.522179 0.285121
Si Si5 0.964854 0.698818 0.165849
Si Si6 0.375088 0.867105 0.686338
Si Si7 0.528980 0.227256 0.302136
Si Si8 0.402007 0.406269 0.740211
O O1 0.144910 0.374957 0.016995
O O2 0.405050 0.670715 0.906667
O O3 0.333287 0.437559 0.872630
O O4 0.386482 0.635839 0.379473
O O5 0.360950 0.100805 0.355870
O O6 0.297552 0.209360 0.633920
O O7 0.254235 0.019051 0.785930
O O8 0.069427 0.871065 0.432884
O O9 0.895638 0.283302 0.516428
O O10 0.660413 0.059134 0.177236
O O11 0.910683 0.234572 0.017577
O O12 0.878732 0.539661 0.238221
O O13 0.805809 0.348278 0.398730
O O14 0.000000 0.500000 0.000000
O O15 0.445910 0.857901 0.777591
O O16 0.500000 0.000000 0.500000
O O17 0.500000 0.500000 0.500000
O O18 0.500000 0.500000 0.000000
#
# Coordination Sequence:
#
# PCOD9060212 Si02
#       8
#     2   2   2   2   2   2   2   2
#     4  12  26  49  77 109 141 196 248 305 371 453
#     4  11  26  46  71 107 147 189 246 309 377 440
#     4  11  25  45  68 100 152 198 246 305 379 439
#     4  11  23  43  67  98 141 204 251 300 376 446
#     4  11  26  44  72 102 151 197 246 307 374 446
#     4  12  24  41  69 106 142 196 251 308 360 442
#     4  12  26  46  74 106 151 192 249 306 369 445
#     4  12  25  48  80 110 144 192 243 308 389 450
#
# _framework density 23.413577
#
# number of rings (size 3 to 8) (size 9 to 14) (size 15 to 20)
#    0.000    0.500    6.250    1.125    7.000    0.500 
#    0.000    2.500    0.000    0.000    0.000    0.000 
#    0.000    0.000    0.000    0.000    0.000    0.000 
#
# Total GULP energy -89267.718776 kJ/mol
# GULP energy per Si atom -5579.232424 kJ/mol
# Density = 2.336029 g / cm^3
# Si number density = 23.413577 Si / 1000 Ang^3
#
#
#
# Elastic Constant Matrix: (Units=GPa)
#
#
# Indices 1 2 3 4 5 6 
#
# 1 132.2626 52.4104 28.3715 15.6341 -6.4389 -4.2690
# 2 52.4104 135.5739 33.3589 -9.7517 -1.5863 -26.4767
# 3 28.3715 33.3589 88.1111 -2.3383 1.7089 -8.1186
# 4 15.6341 -9.7517 -2.3383 37.6684 2.1867 -1.2941
# 5 -6.4389 -1.5863 1.7089 2.1867 37.8470 1.8790
# 6 -4.2690 -26.4767 -8.1186 -1.2941 1.8790 61.6066
#
#
#
# Elastic Compliance Matrix: (Units=1/GPa)
#
#
# Indices 1 2 3 4 5 6 
#
# 1 0.010397 -0.004190 -0.002095 -0.005705 0.002094 -0.001540
# 2 -0.004190 0.010654 -0.002172 0.004541 -0.000635 0.004117
# 3 -0.002095 -0.002172 0.012964 0.001202 -0.001137 0.000690
# 4 -0.005705 0.004541 0.001202 0.030406 -0.002712 0.002436
# 5 0.002094 -0.000635 -0.001137 -0.002712 0.027017 -0.001159
# 6 -0.001540 0.004117 0.000690 0.002436 -0.001159 0.018072
#
#
# Mechanical properties :
#
#
# Convention : Reuss Voigt Hill
#
# Bulk Modulus (GPa) = 58.48260 64.91436 61.69848
# Shear Modulus (GPa) = 37.84279 43.54484 40.69382
#
# Velocity S-wave (km/s) = 4.02465 4.31723 4.17351
# Velocity P-wave (km/s) = 6.82857 7.25511 7.04507
#
# Compressibility (1/GPa) = 0.01709910
#
# Stress axis : x y z
#
# Youngs Moduli (GPa) = 96.17946 93.86500 77.13796
#
# Poissons Ratio (x) = 0.39334 0.16163
# Poissons Ratio (y) = 0.40304 0.16754
# Poissons Ratio (z) = 0.20152 0.20388
#
# Static dielectric constant tensor:
#      x y z
#    x 1.789160 0.039620 0.090090 
#    y 0.039620 1.932620 0.056240 
#    z 0.090090 0.056240 1.970490 
# 
# From -- ./inp_files/110943.got.cif
#   From: 2010.05.17/outbox.cif.g08.bks.cpg/sg2_56_cif.got.tgz:110943.got - 2010.06.03 11:33:40.
