data_PCOD9060680
_publ_section_title
;
Structure prediction by ZEFSAII (Michael W. Deem and Ramdas Pophale) SiO2 
 PCOD9060680
Probable space group: P -1
;
_chemical_formula_sum "Si O2"
_cell_formula_units_Z 16
_cell_length_a 9.223418
_cell_length_b 14.572347
_cell_length_c 9.526808
_cell_angle_alpha 39.755686
_cell_angle_beta 68.414001
_cell_angle_gamma 58.779426
_cell_volume 699.191413
_symmetry_space_group_name_H-M "P -1"
_symmetry_group_IT_number 2
_symmetry_cell_setting 'triclinic'
loop_
_space_group_symop_operation_xyz
x,y,z
-x,-y,-z
loop_
_atom_site_type_symbol
_atom_site_label
_atom_site_fract_x
_atom_site_fract_y
_atom_site_fract_z
Si Si1 0.077171 0.563462 0.580149
Si Si2 0.105867 0.710236 0.684703
Si Si3 0.834838 0.298778 0.875798
Si Si4 0.140949 0.216680 0.049224
Si Si5 0.667454 0.529832 0.916682
Si Si6 0.705701 0.756733 0.451816
Si Si7 0.347140 0.878387 0.309084
Si Si8 0.204934 0.949805 0.967429
O O1 0.050204 0.675352 0.593561
O O2 0.181290 0.611244 0.370494
O O3 0.889611 0.621960 0.508569
O O4 0.148933 0.384173 0.816692
O O5 0.220827 0.811789 0.510909
O O6 0.957093 0.774781 0.778206
O O7 0.230124 0.540471 0.897947
O O8 0.767487 0.416055 0.888915
O O9 0.746270 0.180154 0.018736
O O10 0.025631 0.200726 0.978980
O O11 0.304547 0.055447 0.169552
O O12 0.655043 0.700277 0.682965
O O13 0.500000 0.500000 0.000000
O O14 0.545769 0.778621 0.384386
O O15 0.742658 0.910626 0.258466
O O16 0.299759 0.881988 0.158729
O O17 0.000000 0.000000 0.000000
#
# Coordination Sequence:
#
# PCOD9060680 Si02
#       8
#     2   2   2   2   2   2   2   2
#     4  12  23  45  73 105 133 188 248 287 336 429
#     4  11  23  45  72  99 140 194 238 284 347 429
#     4  11  23  43  75  98 136 191 236 281 350 424
#     4  11  24  40  72 103 141 187 244 282 350 426
#     4  11  25  49  72 102 145 186 231 294 363 415
#     4  12  25  43  73 101 145 184 227 298 359 404
#     4  12  24  44  67 105 148 180 231 297 362 407
#     4  12  23  44  70 107 143 182 237 295 342 424
#
# _framework density 22.883576999999999
#
# number of rings (size 3 to 8) (size 9 to 14) (size 15 to 20)
#    0.000    0.500    7.500    1.500    1.750    0.000 
#    2.250    2.500    0.000    0.000    0.000    0.000 
#    0.000    0.000    0.000    0.000    0.000    0.000 
#
# Total GULP energy -89380.683884 kJ/mol
# GULP energy per Si atom -5586.292743 kJ/mol
# Density = 2.283149 g / cm^3
# Si number density = 22.883577 Si / 1000 Ang^3
#
#
#
# Elastic Constant Matrix: (Units=GPa)
#
#
# Indices 1 2 3 4 5 6 
#
# 1 82.3716 10.2926 28.6911 -8.0151 9.9030 0.2589
# 2 10.2926 48.4994 11.7073 -2.4030 9.1454 17.7038
# 3 28.6911 11.7073 120.6862 -4.4537 -2.7923 4.9096
# 4 -8.0151 -2.4030 -4.4537 29.2445 9.5776 1.5304
# 5 9.9030 9.1454 -2.7923 9.5776 43.1344 -3.5844
# 6 0.2589 17.7038 4.9096 1.5304 -3.5844 29.0888
#
#
#
# Elastic Compliance Matrix: (Units=1/GPa)
#
#
# Indices 1 2 3 4 5 6 
#
# 1 0.014406 -0.001446 -0.003231 0.004687 -0.004206 0.000532
# 2 -0.001446 0.030608 -0.001817 0.005897 -0.009226 -0.019756
# 3 -0.003231 -0.001817 0.009272 -0.000186 0.001751 -0.000204
# 4 0.004687 0.005897 -0.000186 0.040195 -0.011860 -0.007176
# 5 -0.004206 -0.009226 0.001751 -0.011860 0.029653 0.009635
# 6 0.000532 -0.019756 -0.000204 -0.007176 0.009635 0.047996
#
#
# Mechanical properties :
#
#
# Convention : Reuss Voigt Hill
#
# Bulk Modulus (GPa) = 24.21446 39.21547 31.71497
# Shear Modulus (GPa) = 25.14022 33.68461 29.41242
#
# Velocity S-wave (km/s) = 3.31813 3.84083 3.58901
# Velocity P-wave (km/s) = 5.02837 6.06988 5.57351
#
# Compressibility (1/GPa) = 0.04129764
#
# Stress axis : x y z
#
# Youngs Moduli (GPa) = 69.41454 32.67124 107.84859
#
# Poissons Ratio (x) = 0.04726 0.34841
# Poissons Ratio (y) = 0.10040 0.19601
# Poissons Ratio (z) = 0.22425 0.05938
#
# Static dielectric constant tensor:
#      x y z
#    x 1.820840 0.042360 -0.017850 
#    y 0.042360 1.767200 -0.020420 
#    z -0.017850 -0.020420 1.919890 
# 
# From -- ./inp_files/205155.got.cif
#   From: 2010.05.17/outbox.cif.g08.bks.cpg/sg2_103_cif.got.tgz:205155.got - 2010.06.03 11:33:40.
