data_PCOD9060827
_publ_section_title
;
Structure prediction by ZEFSAII (Michael W. Deem and Ramdas Pophale) SiO2 
 PCOD9060827
Probable space group: P -1
;
_chemical_formula_sum "Si O2"
_cell_formula_units_Z 16
_cell_length_a 8.321898
_cell_length_b 19.851469
_cell_length_c 8.607186
_cell_angle_alpha 67.382230
_cell_angle_beta 112.736056
_cell_angle_gamma 147.248695
_cell_volume 704.408156
_symmetry_space_group_name_H-M "P -1"
_symmetry_group_IT_number 2
_symmetry_cell_setting 'triclinic'
loop_
_space_group_symop_operation_xyz
x,y,z
-x,-y,-z
loop_
_atom_site_type_symbol
_atom_site_label
_atom_site_fract_x
_atom_site_fract_y
_atom_site_fract_z
Si Si1 0.199523 0.138966 0.921691
Si Si2 0.697488 0.133859 0.518742
Si Si3 0.214282 0.869348 0.095302
Si Si4 0.580672 0.474290 0.693847
Si Si5 0.227343 0.562812 0.667400
Si Si6 0.674309 0.725606 0.423174
Si Si7 0.255788 0.704301 0.792018
Si Si8 0.812116 0.612046 0.103999
O O1 0.520296 0.234515 0.037650
O O2 0.236685 0.169475 0.724390
O O3 0.021707 0.146917 0.928629
O O4 0.000000 0.000000 0.000000
O O5 0.677793 0.129764 0.701932
O O6 0.633037 0.188198 0.361695
O O7 0.034661 0.225721 0.520788
O O8 0.500000 0.000000 0.500000
O O9 0.066002 0.756601 0.029113
O O10 0.500000 0.000000 0.000000
O O11 0.500000 0.500000 0.500000
O O12 0.565470 0.390071 0.685158
O O13 0.303940 0.392167 0.775268
O O14 0.900551 0.596165 0.786159
O O15 0.541970 0.672776 0.592396
O O16 0.253544 0.632168 0.746734
O O17 0.114130 0.446888 0.792030
O O18 0.000000 0.500000 0.500000
O O19 0.500000 0.500000 0.000000
#
# Coordination Sequence:
#
# PCOD9060827 Si02
#       8
#     2   2   2   2   2   2   2   2
#     4  11  26  46  65  97 137 179 227 279 334 398
#     4  11  23  44  72  93 126 188 233 262 331 419
#     4  11  25  48  68  91 139 185 225 275 334 410
#     4  12  20  44  71  95 131 180 219 278 336 412
#     4  12  24  39  65 104 135 164 215 288 344 387
#     4  11  23  44  68  91 137 177 224 269 337 408
#     4  12  24  41  71 106 136 170 225 287 346 392
#     4  12  25  43  67 101 135 175 227 276 336 413
#
# _framework density 22.714105
#
# number of rings (size 3 to 8) (size 9 to 14) (size 15 to 20)
#    0.000    0.500    6.250    3.000    0.000    7.500 
#    0.000    1.875    0.000    0.000    0.000    0.000 
#    0.000    0.000    0.000    0.000    0.000    0.000 
#
# Total GULP energy -89399.703578 kJ/mol
# GULP energy per Si atom -5587.481474 kJ/mol
# Density = 2.266241 g / cm^3
# Si number density = 22.714105 Si / 1000 Ang^3
#
#
#
# Elastic Constant Matrix: (Units=GPa)
#
#
# Indices 1 2 3 4 5 6 
#
# 1 67.9057 32.0115 18.3656 -12.4880 10.4938 -7.9783
# 2 32.0115 157.4967 28.0767 -13.3654 12.5606 -19.0320
# 3 18.3656 28.0767 64.6550 -7.0199 26.3255 0.3197
# 4 -12.4880 -13.3654 -7.0199 46.0679 0.2408 5.0334
# 5 10.4938 12.5606 26.3255 0.2408 38.1806 -9.6138
# 6 -7.9783 -19.0320 0.3197 5.0334 -9.6138 49.1770
#
#
#
# Elastic Compliance Matrix: (Units=1/GPa)
#
#
# Indices 1 2 3 4 5 6 
#
# 1 0.017748 -0.002512 -0.002835 0.003528 -0.001815 0.001210
# 2 -0.002512 0.007701 -0.002886 0.000818 0.000813 0.002667
# 3 -0.002835 -0.002886 0.024608 0.002806 -0.016582 -0.005266
# 4 0.003528 0.000818 0.002806 0.023601 -0.003903 -0.002308
# 5 -0.001815 0.000813 -0.016582 -0.003903 0.039981 0.008344
# 6 0.001210 0.002667 -0.005266 -0.002308 0.008344 0.023465
#
#
# Mechanical properties :
#
#
# Convention : Reuss Voigt Hill
#
# Bulk Modulus (GPa) = 29.76946 49.66277 39.71612
# Shear Modulus (GPa) = 30.34583 40.79201 35.56892
#
# Velocity S-wave (km/s) = 3.65909 4.24239 3.96149
# Velocity P-wave (km/s) = 5.56655 6.77561 6.20062
#
# Compressibility (1/GPa) = 0.03359147
#
# Stress axis : x y z
#
# Youngs Moduli (GPa) = 56.34297 129.84940 40.63773
#
# Poissons Ratio (x) = 0.32615 0.11520
# Poissons Ratio (y) = 0.14152 0.11730
# Poissons Ratio (z) = 0.15972 0.37479
#
# Static dielectric constant tensor:
#      x y z
#    x 1.889380 0.019610 -0.013760 
#    y 0.019610 1.953990 -0.019730 
#    z -0.013760 -0.019730 1.858920 
# 
# From -- ./inp_files/223486.got.cif
#   From: 2010.05.17/outbox.cif.g08.bks.cpg/sg2_112_cif.got.tgz:223486.got - 2010.06.03 11:33:40.
