data_PCOD9060075
_publ_section_title
;
Structure prediction by ZEFSAII (Michael W. Deem and Ramdas Pophale) SiO2 
 PCOD9060075
Probable space group: P -1
;
_chemical_formula_sum "Si O2"
_cell_formula_units_Z 16
_cell_length_a 18.651326
_cell_length_b 22.427257
_cell_length_c 8.208485
_cell_angle_alpha 52.946328
_cell_angle_beta 135.868310
_cell_angle_gamma 163.039450
_cell_volume 635.070381
_symmetry_space_group_name_H-M "P -1"
_symmetry_group_IT_number 2
_symmetry_cell_setting 'triclinic'
loop_
_space_group_symop_operation_xyz
x,y,z
-x,-y,-z
loop_
_atom_site_type_symbol
_atom_site_label
_atom_site_fract_x
_atom_site_fract_y
_atom_site_fract_z
Si Si1 0.300712 0.666477 0.145265
Si Si2 0.890974 0.369178 0.392739
Si Si3 0.157821 0.826070 0.261900
Si Si4 0.492163 0.568915 0.982566
Si Si5 0.734854 0.494402 0.850372
Si Si6 0.318505 0.088902 0.033091
Si Si7 0.809408 0.794042 0.479581
Si Si8 0.433992 0.217732 0.335061
O O1 0.220400 0.526259 0.197877
O O2 0.590016 0.851410 0.431834
O O3 0.000000 0.500000 0.000000
O O4 0.330608 0.735331 0.917614
O O5 0.755579 0.193958 0.488529
O O6 0.223760 0.574000 0.514090
O O7 0.000000 0.500000 0.500000
O O8 0.850153 0.647102 0.146960
O O9 0.046100 0.728306 0.060338
O O10 0.395099 0.056443 0.265535
O O11 0.573748 0.698683 0.795961
O O12 0.500000 0.500000 0.000000
O O13 0.715188 0.720120 0.258818
O O14 0.511348 0.412274 0.607453
O O15 0.555250 0.314183 0.980268
O O16 0.212034 0.049279 0.099104
O O17 0.037734 0.891183 0.772871
O O18 0.000000 0.000000 0.500000
#
# Coordination Sequence:
#
# PCOD9060075 Si02
#       8
#     2   2   2   2   2   2   2   2
#     4  10  21  35  66  88 115 163 199 258 322 354
#     4  10  17  38  64  82 113 158 206 254 310 358
#     4  10  21  36  64  89 115 163 209 247 303 374
#     4  10  20  38  59  90 134 163 201 259 304 363
#     4  10  19  40  62  86 122 161 205 250 297 370
#     4  11  20  39  63  89 125 162 208 247 298 377
#     4   9  18  36  62  86 123 170 203 238 302 366
#     4  10  20  37  57  88 127 155 200 254 307 363
#
# _framework density 25.194057000000001
#
# number of rings (size 3 to 8) (size 9 to 14) (size 15 to 20)
#    0.000    2.000    6.250    0.000    0.000    4.000 
#    4.500    4.375    0.000    0.000    0.000    0.000 
#    0.000    0.000    0.000    0.000    0.000    0.000 
#
# Total GULP energy -89263.216178 kJ/mol
# GULP energy per Si atom -5578.951011 kJ/mol
# Density = 2.513671 g / cm^3
# Si number density = 25.194057 Si / 1000 Ang^3
#
#
#
# Elastic Constant Matrix: (Units=GPa)
#
#
# Indices 1 2 3 4 5 6 
#
# 1 136.8403 17.7822 52.5858 1.5989 13.0162 -29.6462
# 2 17.7822 114.0694 45.5415 -3.4323 1.0863 -20.2418
# 3 52.5858 45.5415 174.6368 -6.7920 0.1533 -19.5096
# 4 1.5989 -3.4323 -6.7920 39.1565 -3.7421 8.5637
# 5 13.0162 1.0863 0.1533 -3.7421 42.7861 -0.4481
# 6 -29.6462 -20.2418 -19.5096 8.5637 -0.4481 36.5298
#
#
#
# Elastic Compliance Matrix: (Units=1/GPa)
#
#
# Indices 1 2 3 4 5 6 
#
# 1 0.010259 0.000772 -0.002500 -0.002860 -0.003297 0.008049
# 2 0.000772 0.010541 -0.002412 -0.000744 -0.000503 0.005347
# 3 -0.002500 -0.002412 0.007176 0.001177 0.000901 0.000202
# 4 -0.002860 -0.000744 0.001177 0.027991 0.003243 -0.008627
# 5 -0.003297 -0.000503 0.000901 0.003243 0.024638 -0.002931
# 6 0.008049 0.005347 0.000202 -0.008627 -0.002931 0.038964
#
#
# Mechanical properties :
#
#
# Convention : Reuss Voigt Hill
#
# Bulk Modulus (GPa) = 50.77318 73.04061 61.90690
# Shear Modulus (GPa) = 37.19889 44.33694 40.76791
#
# Velocity S-wave (km/s) = 3.84669 4.19957 4.02699
# Velocity P-wave (km/s) = 6.31870 7.25047 6.80056
#
# Compressibility (1/GPa) = 0.01969544
#
# Stress axis : x y z
#
# Youngs Moduli (GPa) = 97.47698 94.87087 139.36259
#
# Poissons Ratio (x) = -0.07327 0.34836
# Poissons Ratio (y) = -0.07529 0.33620
# Poissons Ratio (z) = 0.24366 0.22887
#
# Static dielectric constant tensor:
#      x y z
#    x 2.223090 0.065980 -0.004290 
#    y 0.065980 2.047880 -0.022320 
#    z -0.004290 -0.022320 2.102840 
# 
# From -- ./inp_files/349884.got.cif
#   From: 2010.05.17/outbox.cif.g08.bks.cpg/sg2_175_cif.got.tgz:349884.got - 2010.06.03 11:33:40.
