data_PCOD9060009
_publ_section_title
;
Structure prediction by ZEFSAII (Michael W. Deem and Ramdas Pophale) SiO2 
 PCOD9060009
Probable space group: P -1
;
_chemical_formula_sum "Si O2"
_cell_formula_units_Z 14
_cell_length_a 8.474997
_cell_length_b 8.001823
_cell_length_c 11.607773
_cell_angle_alpha 60.969357
_cell_angle_beta 67.400524
_cell_angle_gamma 52.170856
_cell_volume 539.339320
_symmetry_space_group_name_H-M "P -1"
_symmetry_group_IT_number 2
_symmetry_cell_setting 'triclinic'
loop_
_space_group_symop_operation_xyz
x,y,z
-x,-y,-z
loop_
_atom_site_type_symbol
_atom_site_label
_atom_site_fract_x
_atom_site_fract_y
_atom_site_fract_z
Si Si1 0.581698 0.630000 0.063281
Si Si2 0.356350 0.756834 0.478929
Si Si3 0.021957 0.212151 0.665846
Si Si4 0.321698 0.315275 0.415113
Si Si5 0.882230 0.272976 0.265090
Si Si6 0.306864 0.156890 0.218481
Si Si7 0.849005 0.255456 0.920302
O O1 0.692752 0.504240 0.191750
O O2 0.349688 0.702944 0.105412
O O3 0.576721 0.834985 0.928134
O O4 0.735204 0.426470 0.000004
O O5 0.500000 0.500000 0.500000
O O6 0.466835 0.793981 0.544174
O O7 0.156589 0.777707 0.577656
O O8 0.343490 0.919044 0.328502
O O9 0.184216 0.237011 0.541866
O O10 0.805889 0.416060 0.615045
O O11 0.995508 0.285511 0.782903
O O12 0.067348 0.959756 0.733272
O O13 0.347647 0.254459 0.291793
O O14 0.074598 0.293339 0.201207
O O15 0.000000 0.000000 0.000000
#
# Coordination Sequence:
#
# PCOD9060009 Si02
#       7
#     2   2   2   2   2   2   2
#     4  11  26  45  72 108 148 193 244 298 365 435
#     4  12  28  46  71 106 146 191 244 301 370 431
#     4  11  23  42  73 103 141 190 241 295 367 425
#     4  11  25  42  74 107 141 185 247 303 361 433
#     4  12  26  47  72 103 152 195 240 302 367 432
#     4  12  26  47  72 107 146 189 246 303 363 430
#     4  11  23  42  75 103 146 190 246 296 362 437
#
# _framework density 25.957687
#
# number of rings (size 3 to 8) (size 9 to 14) (size 15 to 20)
#    0.000    0.571    4.286    3.000    8.000    0.000 
#    0.000    1.429    0.000    0.000    0.000    0.000 
#    0.000    0.000    0.000    0.000    0.000    0.000 
#
# Total GULP energy -78252.506283 kJ/mol
# GULP energy per Si atom -5589.464735 kJ/mol
# Density = 2.589861 g / cm^3
# Si number density = 25.957687 Si / 1000 Ang^3
#
#
#
# Elastic Constant Matrix: (Units=GPa)
#
#
# Indices 1 2 3 4 5 6 
#
# 1 73.6135 -5.3640 28.3321 -1.6799 -8.1317 -9.9839
# 2 -5.3640 102.6824 40.4008 6.6549 2.0648 -7.2937
# 3 28.3321 40.4008 167.2934 -15.1535 -17.4097 -3.2232
# 4 -1.6799 6.6549 -15.1535 44.8600 -10.1322 5.1393
# 5 -8.1317 2.0648 -17.4097 -10.1322 40.3263 -3.9034
# 6 -9.9839 -7.2937 -3.2232 5.1393 -3.9034 32.9324
#
#
#
# Elastic Compliance Matrix: (Units=1/GPa)
#
#
# Indices 1 2 3 4 5 6 
#
# 1 0.015877 0.002435 -0.003046 -0.000957 0.002049 0.005447
# 2 0.002435 0.011911 -0.003831 -0.003899 -0.002431 0.003322
# 3 -0.003046 -0.003831 0.008210 0.004284 0.004091 -0.001152
# 4 -0.000957 -0.003899 0.004284 0.026571 0.008153 -0.003915
# 5 0.002049 -0.002431 0.004091 0.008153 0.029411 0.002697
# 6 0.005447 0.003322 -0.001152 -0.003915 0.002697 0.033570
#
#
# Mechanical properties :
#
#
# Convention : Reuss Voigt Hill
#
# Bulk Modulus (GPa) = 36.87883 52.25857 44.56870
# Shear Modulus (GPa) = 34.85003 42.30510 38.57756
#
# Velocity S-wave (km/s) = 3.66809 4.04142 3.85927
# Velocity P-wave (km/s) = 5.67256 6.47714 6.08816
#
# Compressibility (1/GPa) = 0.02711583
#
# Stress axis : x y z
#
# Youngs Moduli (GPa) = 62.98291 83.95664 121.80132
#
# Poissons Ratio (x) = -0.20447 0.37095
# Poissons Ratio (y) = -0.15339 0.46663
# Poissons Ratio (z) = 0.19182 0.32165
#
# Static dielectric constant tensor:
#      x y z
#    x 2.052410 0.068460 0.033760 
#    y 0.068460 2.084100 -0.002180 
#    z 0.033760 -0.002180 2.099650 
# 
# From -- ./inp_files/381283.got.cif
#   From: 2010.05.17/outbox.cif.g08.bks.cpg/sg2_191_cif.got.tgz:381283.got - 2010.06.03 11:33:40.
