data_PCOD9060400
_publ_section_title
;
Structure prediction by ZEFSAII (Michael W. Deem and Ramdas Pophale) SiO2 
 PCOD9060400
Probable space group: P -1
;
_chemical_formula_sum "Si O2"
_cell_formula_units_Z 12
_cell_length_a 8.478598
_cell_length_b 13.874382
_cell_length_c 23.131146
_cell_angle_alpha 18.928531
_cell_angle_beta 39.341403
_cell_angle_gamma 44.689116
_cell_volume 556.739964
_symmetry_space_group_name_H-M "P -1"
_symmetry_group_IT_number 2
_symmetry_cell_setting 'triclinic'
loop_
_space_group_symop_operation_xyz
x,y,z
-x,-y,-z
loop_
_atom_site_type_symbol
_atom_site_label
_atom_site_fract_x
_atom_site_fract_y
_atom_site_fract_z
Si Si1 0.994746 0.029088 0.415834
Si Si2 0.836905 0.659252 0.070162
Si Si3 0.162706 0.221506 0.603473
Si Si4 0.013244 0.973189 0.079518
Si Si5 0.295093 0.399757 0.339433
Si Si6 0.491930 0.215431 0.621535
O O1 0.765259 0.814696 0.575915
O O2 0.245393 0.914468 0.383707
O O3 0.970431 0.362414 0.211865
O O4 0.000000 0.000000 0.500000
O O5 0.998156 0.918167 0.841651
O O6 0.804164 0.797500 0.065163
O O7 0.571992 0.565973 0.168563
O O8 0.248679 0.217139 0.515584
O O9 0.396286 0.278284 0.548608
O O10 0.000000 0.500000 0.500000
O O11 0.735195 0.006085 0.162838
O O12 0.100388 0.650209 0.251946
O O13 0.000000 0.000000 0.000000
O O14 0.500000 0.500000 0.500000
#
# Coordination Sequence:
#
# PCOD9060400 Si02
#       6
#     2   2   2   2   2   2
#     4  12  26  48  73 107 150 191 239 307 371 428
#     4  11  26  44  71 107 145 192 242 297 369 429
#     4  11  23  43  70 107 144 186 243 300 356 430
#     4  11  24  42  72 106 140 190 244 296 359 429
#     4  12  24  46  72 104 145 193 241 298 366 436
#     4  11  23  44  72 103 141 191 242 290 357 435
#
# _framework density 21.554048999999999
#
# number of rings (size 3 to 8) (size 9 to 14) (size 15 to 20)
#    0.000    0.667    5.000    3.000    2.333    4.667 
#    0.000    3.333    0.000    0.000    0.000    0.000 
#    0.000    0.000    0.000    0.000    0.000    0.000 
#
# Total GULP energy -67140.893532 kJ/mol
# GULP energy per Si atom -5595.074461 kJ/mol
# Density = 2.150499 g / cm^3
# Si number density = 21.554049 Si / 1000 Ang^3
#
#
#
# Elastic Constant Matrix: (Units=GPa)
#
#
# Indices 1 2 3 4 5 6 
#
# 1 167.6043 37.9364 71.1815 0.0682 -8.3528 25.4515
# 2 37.9364 88.5447 51.4953 -14.3118 4.1080 0.8423
# 3 71.1815 51.4953 126.7694 -9.7721 -13.6494 -5.3179
# 4 0.0682 -14.3118 -9.7721 39.0599 5.0134 3.1962
# 5 -8.3528 4.1080 -13.6494 5.0134 32.2558 -4.1722
# 6 25.4515 0.8423 -5.3179 3.1962 -4.1722 43.0463
#
#
#
# Elastic Compliance Matrix: (Units=1/GPa)
#
#
# Indices 1 2 3 4 5 6 
#
# 1 0.009314 -0.001125 -0.005142 -0.001191 -0.000219 -0.006053
# 2 -0.001125 0.016715 -0.006468 0.005422 -0.006189 -0.001464
# 3 -0.005142 -0.006468 0.014308 -0.000040 0.006270 0.005545
# 4 -0.001191 0.005422 -0.000040 0.028483 -0.005711 -0.002075
# 5 -0.000219 -0.006189 0.006270 -0.005711 0.035912 0.004930
# 6 -0.006053 -0.001464 0.005545 -0.002075 0.004930 0.028155
#
#
# Mechanical properties :
#
#
# Convention : Reuss Voigt Hill
#
# Bulk Modulus (GPa) = 67.26566 78.23833 72.75199
# Shear Modulus (GPa) = 30.61635 37.69275 34.15455
#
# Velocity S-wave (km/s) = 3.77297 4.18635 3.98502
# Velocity P-wave (km/s) = 7.08915 7.72948 7.41623
#
# Compressibility (1/GPa) = 0.01486643
#
# Stress axis : x y z
#
# Youngs Moduli (GPa) = 107.37070 59.82761 69.89296
#
# Poissons Ratio (x) = 0.06729 0.35939
# Poissons Ratio (y) = 0.12076 0.45207
# Poissons Ratio (z) = 0.55210 0.38696
#
# Static dielectric constant tensor:
#      x y z
#    x 1.808350 0.001200 -0.034840 
#    y 0.001200 1.775520 0.008090 
#    z -0.034840 0.008090 1.784020 
# 
# From -- ./inp_files/608007.got.cif
#   From: 2010.05.17/outbox.cif.g08.bks.cpg/sg2_305_cif.got.tgz:608007.got - 2010.06.03 11:33:40.
