data_PCOD9060835
_publ_section_title
;
Structure prediction by ZEFSAII (Michael W. Deem and Ramdas Pophale) SiO2 
 PCOD9060835
Probable space group: P -1
;
_chemical_formula_sum "Si O2"
_cell_formula_units_Z 15
_cell_length_a 22.227257
_cell_length_b 7.580688
_cell_length_c 9.120932
_cell_angle_alpha 42.961032
_cell_angle_beta 144.917638
_cell_angle_gamma 127.859225
_cell_volume 601.546126
_symmetry_space_group_name_H-M "P -1"
_symmetry_group_IT_number 2
_symmetry_cell_setting 'triclinic'
loop_
_space_group_symop_operation_xyz
x,y,z
-x,-y,-z
loop_
_atom_site_type_symbol
_atom_site_label
_atom_site_fract_x
_atom_site_fract_y
_atom_site_fract_z
Si Si1 0.438404 0.614168 0.670045
Si Si2 0.500000 0.000000 0.000000
Si Si3 0.095961 0.383626 0.920273
Si Si4 0.148027 0.970105 0.686414
Si Si5 0.035256 0.754817 0.003769
Si Si6 0.583566 0.827500 0.586422
Si Si7 0.285853 0.130289 0.603603
Si Si8 0.178836 0.173843 0.941359
O O1 0.515713 0.633109 0.673074
O O2 0.346394 0.407258 0.580088
O O3 0.403901 0.900483 0.464540
O O4 0.500000 0.500000 0.000000
O O5 0.523367 0.893578 0.278594
O O6 0.628000 0.032355 0.206335
O O7 0.990742 0.294911 0.848536
O O8 0.183563 0.190844 0.270864
O O9 0.107379 0.357413 0.784791
O O10 0.130246 0.669239 0.868685
O O11 0.046406 0.046285 0.346628
O O12 0.247880 0.017234 0.752380
O O13 0.156950 0.147757 0.740669
O O14 0.000000 0.500000 0.000000
O O15 0.148152 0.882497 0.116255
O O16 0.700750 0.741078 0.846147
#
# Coordination Sequence:
#
# PCOD9060835 Si02
#       8
#     2   1   2   2   2   2   2   2
#     4  11  23  44  68  96 142 193 240 301 363 429
#     4  12  24  46  66 104 150 186 244 304 362 424
#     4  11  25  47  71 106 144 190 238 303 358 442
#     4  11  26  48  72 106 145 188 241 301 374 431
#     4  11  25  49  75 105 149 184 234 308 374 438
#     4  11  26  43  69 105 141 190 250 298 361 438
#     4  11  25  45  67 101 146 192 236 302 361 429
#     4  12  24  47  74 106 139 192 246 295 365 440
#
# _framework density 24.935744
#
# number of rings (size 3 to 8) (size 9 to 14) (size 15 to 20)
#    0.000    0.800    4.000    2.400    5.600    2.133 
#    7.200    0.000    0.000    0.000    0.000    0.000 
#    0.000    0.000    0.000    0.000    0.000    0.000 
#
# Total GULP energy -83786.339842 kJ/mol
# GULP energy per Si atom -5585.755989 kJ/mol
# Density = 2.487899 g / cm^3
# Si number density = 24.935744 Si / 1000 Ang^3
#
#
#
# Elastic Constant Matrix: (Units=GPa)
#
#
# Indices 1 2 3 4 5 6 
#
# 1 155.4569 9.4677 32.5830 -5.9441 -28.3623 27.8164
# 2 9.4677 77.6381 -1.8915 3.6239 -6.4909 11.0129
# 3 32.5830 -1.8915 85.7071 9.7022 -24.6641 9.6762
# 4 -5.9441 3.6239 9.7022 18.7304 -5.3229 -0.7304
# 5 -28.3623 -6.4909 -24.6641 -5.3229 45.0580 -2.7916
# 6 27.8164 11.0129 9.6762 -0.7304 -2.7916 53.3671
#
#
#
# Elastic Compliance Matrix: (Units=1/GPa)
#
#
# Indices 1 2 3 4 5 6 
#
# 1 0.008588 -0.000430 -0.002120 0.005056 0.004552 -0.003696
# 2 -0.000430 0.013707 0.001759 -0.003211 0.002111 -0.002857
# 3 -0.002120 0.001759 0.015367 -0.007235 0.006364 -0.001811
# 4 0.005056 -0.003211 -0.007235 0.061089 0.006007 0.000489
# 5 0.004552 0.002111 0.006364 0.006007 0.029411 -0.002341
# 6 -0.003696 -0.002857 -0.001811 0.000489 -0.002341 0.021467
#
#
# Mechanical properties :
#
#
# Convention : Reuss Voigt Hill
#
# Bulk Modulus (GPa) = 27.71441 44.34670 36.03056
# Shear Modulus (GPa) = 30.63025 42.00730 36.31877
#
# Velocity S-wave (km/s) = 3.50861 4.10887 3.82054
# Velocity P-wave (km/s) = 5.24902 6.35086 5.82605
#
# Compressibility (1/GPa) = 0.03608231
#
# Stress axis : x y z
#
# Youngs Moduli (GPa) = 116.43761 72.95426 65.07390
#
# Poissons Ratio (x) = 0.03138 0.13793
# Poissons Ratio (y) = 0.05008 -0.11450
# Poissons Ratio (z) = 0.24680 -0.12836
#
# Static dielectric constant tensor:
#      x y z
#    x 2.015510 -0.058360 0.011860 
#    y -0.058360 1.989070 -0.049700 
#    z 0.011860 -0.049700 1.936730 
# 
# From -- ./inp_files/99456.got.cif
#   From: 2010.05.17/outbox.cif.g08.bks.cpg/sg2_50_cif.got.tgz:99456.got - 2010.06.03 11:33:40.
