data_PCOD9060414
_publ_section_title
;
Structure prediction by ZEFSAII (Michael W. Deem and Ramdas Pophale) SiO2 
 PCOD9060414
Probable space group: P -1
;
_chemical_formula_sum "Si O2"
_cell_formula_units_Z 16
_cell_length_a 8.799515
_cell_length_b 13.715789
_cell_length_c 13.482463
_cell_angle_alpha 32.134221
_cell_angle_beta 88.101928
_cell_angle_gamma 108.057006
_cell_volume 667.681418
_symmetry_space_group_name_H-M "P -1"
_symmetry_group_IT_number 2
_symmetry_cell_setting 'triclinic'
loop_
_space_group_symop_operation_xyz
x,y,z
-x,-y,-z
loop_
_atom_site_type_symbol
_atom_site_label
_atom_site_fract_x
_atom_site_fract_y
_atom_site_fract_z
Si Si1 0.869960 0.685729 0.641448
Si Si2 0.418029 0.998320 0.741936
Si Si3 0.989180 0.812240 0.093869
Si Si4 0.298545 0.718791 0.161180
Si Si5 0.310527 0.585571 0.915390
Si Si6 0.583567 0.378008 0.560019
Si Si7 0.023628 0.850426 0.833131
Si Si8 0.304738 0.937210 0.488585
O O1 0.824333 0.538466 0.668261
O O2 0.096632 0.832548 0.540763
O O3 0.861610 0.896235 0.440766
O O4 0.741275 0.514653 0.884928
O O5 0.450003 0.212269 0.614355
O O6 0.571399 0.078574 0.583652
O O7 0.188769 0.819236 0.870791
O O8 0.454154 0.883518 0.929195
O O9 0.797445 0.560179 0.351645
O O10 0.166342 0.800472 0.108206
O O11 0.966667 0.854301 0.943726
O O12 0.000000 0.000000 0.000000
O O13 0.393523 0.732815 0.249413
O O14 0.264852 0.759314 0.729255
O O15 0.549472 0.781183 0.731025
O O16 0.169121 0.357526 0.044312
O O17 0.500000 0.500000 0.500000
#
# Coordination Sequence:
#
# PCOD9060414 Si02
#       8
#     2   2   2   2   2   2   2   2
#     4  12  24  46  69 104 140 183 230 287 354 415
#     4  11  23  44  64 102 133 179 233 285 347 413
#     4  11  24  45  66  97 135 185 232 282 357 417
#     4  11  23  43  70  96 140 185 229 284 355 417
#     4  11  25  46  69 103 139 183 233 287 351 415
#     4  12  24  40  67 102 137 178 234 292 347 415
#     4  11  26  45  69  97 146 183 222 295 354 413
#     4  11  25  42  74  99 134 182 241 283 342 427
#
# _framework density 23.963522999999999
#
# number of rings (size 3 to 8) (size 9 to 14) (size 15 to 20)
#    0.000    0.750    1.250    7.500    3.500    2.500 
#    4.500    0.000    0.000    0.000    0.000    0.000 
#    0.000    0.000    0.000    0.000    0.000    0.000 
#
# Total GULP energy -89478.443027 kJ/mol
# GULP energy per Si atom -5592.402689 kJ/mol
# Density = 2.390898 g / cm^3
# Si number density = 23.963523 Si / 1000 Ang^3
#
#
#
# Elastic Constant Matrix: (Units=GPa)
#
#
# Indices 1 2 3 4 5 6 
#
# 1 60.9509 31.9806 18.8406 6.3204 2.6560 3.5922
# 2 31.9806 166.0189 57.8812 5.3012 -2.3983 -6.5146
# 3 18.8406 57.8812 122.5736 10.4588 9.4352 -7.4425
# 4 6.3204 5.3012 10.4588 51.2042 1.5891 -4.2476
# 5 2.6560 -2.3983 9.4352 1.5891 30.6278 1.1970
# 6 3.5922 -6.5146 -7.4425 -4.2476 1.1970 33.0004
#
#
#
# Elastic Compliance Matrix: (Units=1/GPa)
#
#
# Indices 1 2 3 4 5 6 
#
# 1 0.018980 -0.003287 -0.001295 -0.001965 -0.001277 -0.003213
# 2 -0.003287 0.007873 -0.003313 0.000304 0.001862 0.001136
# 3 -0.001295 -0.003313 0.010405 -0.001371 -0.003351 0.001779
# 4 -0.001965 0.000304 -0.001371 0.020252 -0.000536 0.002591
# 5 -0.001277 0.001862 -0.003351 -0.000536 0.034027 -0.001552
# 6 -0.003213 0.001136 0.001779 0.002591 -0.001552 0.031668
#
#
# Mechanical properties :
#
#
# Convention : Reuss Voigt Hill
#
# Bulk Modulus (GPa) = 46.57704 62.99425 54.78564
# Shear Modulus (GPa) = 34.21133 39.02255 36.61694
#
# Velocity S-wave (km/s) = 3.78251 4.03974 3.91324
# Velocity P-wave (km/s) = 6.20930 6.93570 6.58253
#
# Compressibility (1/GPa) = 0.02146981
#
# Stress axis : x y z
#
# Youngs Moduli (GPa) = 52.68678 127.01060 96.11052
#
# Poissons Ratio (x) = 0.41744 0.12442
# Poissons Ratio (y) = 0.17316 0.31841
# Poissons Ratio (z) = 0.06821 0.42078
#
# Static dielectric constant tensor:
#      x y z
#    x 1.889450 -0.022960 0.031250 
#    y -0.022960 1.794470 -0.069790 
#    z 0.031250 -0.069790 1.975570 
# 
# From -- ./inp_files/505039.got.cif
#   From: 2010.05.17/outbox.cif.g08.bks.cpg/sg2_253_cif.got.tgz:505039.got - 2010.06.03 11:33:40.
