data_PCOD9060219
_publ_section_title
;
Structure prediction by ZEFSAII (Michael W. Deem and Ramdas Pophale) SiO2 
 PCOD9060219
Probable space group: P -1
;
_chemical_formula_sum "Si O2"
_cell_formula_units_Z 16
_cell_length_a 8.267687
_cell_length_b 12.222983
_cell_length_c 11.305029
_cell_angle_alpha 51.835103
_cell_angle_beta 63.090726
_cell_angle_gamma 60.470391
_cell_volume 763.033781
_symmetry_space_group_name_H-M "P -1"
_symmetry_group_IT_number 2
_symmetry_cell_setting 'triclinic'
loop_
_space_group_symop_operation_xyz
x,y,z
-x,-y,-z
loop_
_atom_site_type_symbol
_atom_site_label
_atom_site_fract_x
_atom_site_fract_y
_atom_site_fract_z
Si Si1 0.055106 0.604168 0.095823
Si Si2 0.790588 0.460593 0.155960
Si Si3 0.567659 0.131613 0.338116
Si Si4 0.081565 0.926405 0.897922
Si Si5 0.413002 0.510485 0.389640
Si Si6 0.207465 0.361402 0.394903
Si Si7 0.137828 0.837250 0.583694
Si Si8 0.120335 0.791320 0.361218
O O1 0.101520 0.510069 0.261979
O O2 0.869028 0.579912 0.113101
O O3 0.208695 0.537233 0.986512
O O4 0.047677 0.769898 0.006397
O O5 0.585463 0.478199 0.263437
O O6 0.929684 0.299244 0.257480
O O7 0.697207 0.097389 0.199201
O O8 0.379089 0.269285 0.315210
O O9 0.711132 0.155990 0.373197
O O10 0.500000 0.000000 0.500000
O O11 0.956408 0.044511 0.768145
O O12 0.000000 0.000000 0.000000
O O13 0.500000 0.500000 0.500000
O O14 0.293187 0.402234 0.461913
O O15 0.273029 0.674701 0.310436
O O16 0.060855 0.269501 0.524822
O O17 0.214066 0.789494 0.459699
O O18 0.000000 0.000000 0.500000
#
# Coordination Sequence:
#
# PCOD9060219 Si02
#       8
#     2   2   2   2   2   2   2   2
#     4  11  24  45  70  97 137 180 230 286 348 407
#     4  11  23  43  68 100 134 180 230 286 342 415
#     4  12  24  44  71 104 133 179 235 282 334 416
#     4  12  26  45  66 101 145 176 224 286 352 405
#     4  12  23  40  64 101 140 170 227 288 342 404
#     4  12  23  42  73 100 129 184 235 277 339 420
#     4  12  20  43  72  96 133 177 234 282 333 408
#     4  12  24  43  70 100 131 184 227 282 348 407
#
# _framework density 20.968927999999998
#
# number of rings (size 3 to 8) (size 9 to 14) (size 15 to 20)
#    0.000    0.250    7.500    1.125    0.000    4.000 
#    2.250    0.625    0.000    0.000    0.000    0.000 
#    0.000    0.000    0.000    0.000    0.000    0.000 
#
# Total GULP energy -89335.900936 kJ/mol
# GULP energy per Si atom -5583.493809 kJ/mol
# Density = 2.092120 g / cm^3
# Si number density = 20.968928 Si / 1000 Ang^3
#
#
#
# Elastic Constant Matrix: (Units=GPa)
#
#
# Indices 1 2 3 4 5 6 
#
# 1 63.7949 41.1763 36.2663 7.3417 -6.6660 9.4060
# 2 41.1763 120.6374 32.4732 -7.5394 -15.5284 -0.3879
# 3 36.2663 32.4732 90.0292 -15.8219 -4.3859 11.3822
# 4 7.3417 -7.5394 -15.8219 46.5944 4.3968 5.0696
# 5 -6.6660 -15.5284 -4.3859 4.3968 30.3243 0.0625
# 6 9.4060 -0.3879 11.3822 5.0696 0.0625 41.5071
#
#
#
# Elastic Compliance Matrix: (Units=1/GPa)
#
#
# Indices 1 2 3 4 5 6 
#
# 1 0.027182 -0.006970 -0.009506 -0.008574 0.002280 -0.002574
# 2 -0.006970 0.011590 -0.001034 0.002063 0.003950 0.001713
# 3 -0.009506 -0.001034 0.017021 0.007604 -0.001253 -0.003450
# 4 -0.008574 0.002063 0.007604 0.026428 -0.003553 -0.003346
# 5 0.002280 0.003950 -0.001253 -0.003553 0.035834 0.000244
# 6 -0.002574 0.001713 -0.003450 -0.003346 0.000244 0.026046
#
#
# Mechanical properties :
#
#
# Convention : Reuss Voigt Hill
#
# Bulk Modulus (GPa) = 48.13935 54.92146 51.53041
# Shear Modulus (GPa) = 26.87500 34.65485 30.76492
#
# Velocity S-wave (km/s) = 3.58391 4.06972 3.83452
# Velocity P-wave (km/s) = 6.33508 6.95214 6.65077
#
# Compressibility (1/GPa) = 0.02077303
#
# Stress axis : x y z
#
# Youngs Moduli (GPa) = 36.78851 86.28428 58.74959
#
# Poissons Ratio (x) = 0.60138 0.55848
# Poissons Ratio (y) = 0.25641 0.06077
# Poissons Ratio (z) = 0.34972 0.08924
#
# Static dielectric constant tensor:
#      x y z
#    x 1.838150 -0.000430 -0.082610 
#    y -0.000430 1.802120 0.008830 
#    z -0.082610 0.008830 1.889830 
# 
# From -- ./inp_files/333036.got.cif
#   From: 2010.05.17/outbox.cif.g08.bks.cpg/sg2_167_cif.got.tgz:333036.got - 2010.06.03 11:33:40.
