data_PCOD9060227
_publ_section_title
;
Structure prediction by ZEFSAII (Michael W. Deem and Ramdas Pophale) SiO2 
 PCOD9060227
Probable space group: P -1
;
_chemical_formula_sum "Si O2"
_cell_formula_units_Z 15
_cell_length_a 8.532392
_cell_length_b 8.750823
_cell_length_c 14.084288
_cell_angle_alpha 122.386371
_cell_angle_beta 128.462112
_cell_angle_gamma 90.487057
_cell_volume 595.333937
_symmetry_space_group_name_H-M "P -1"
_symmetry_group_IT_number 2
_symmetry_cell_setting 'triclinic'
loop_
_space_group_symop_operation_xyz
x,y,z
-x,-y,-z
loop_
_atom_site_type_symbol
_atom_site_label
_atom_site_fract_x
_atom_site_fract_y
_atom_site_fract_z
Si Si1 0.729686 0.188762 0.415824
Si Si2 0.760810 0.497882 0.236441
Si Si3 0.065048 0.059979 0.885077
Si Si4 0.500000 0.000000 0.000000
Si Si5 0.599054 0.321890 0.604824
Si Si6 0.909765 0.567449 0.103090
Si Si7 0.465959 0.240011 0.723915
Si Si8 0.651764 0.750033 0.755560
O O1 0.627135 0.225781 0.487046
O O2 0.541881 0.184910 0.271436
O O3 0.994322 0.375880 0.572616
O O4 0.701038 0.961827 0.342178
O O5 0.806180 0.566222 0.166408
O O6 0.598289 0.580456 0.240597
O O7 0.641800 0.250103 0.112174
O O8 0.038321 0.221647 0.861623
O O9 0.240894 0.992351 0.887324
O O10 0.186335 0.179416 0.068108
O O11 0.817515 0.868355 0.766879
O O12 0.447627 0.173361 0.584789
O O13 0.536472 0.500114 0.620165
O O14 0.859028 0.436209 0.786098
O O15 0.723420 0.356881 0.906300
#
# Coordination Sequence:
#
# PCOD9060227 Si02
#       8
#     2   2   2   1   2   2   2   2
#     4  11  26  43  69 100 145 182 222 284 348 409
#     4  11  26  47  71 103 138 182 229 283 346 413
#     4  11  24  40  70 103 135 182 230 285 336 404
#     4  12  24  46  70 104 136 178 226 288 346 404
#     4  11  23  43  68 102 138 179 234 281 342 405
#     4  11  23  43  71 103 133 182 234 284 333 406
#     4  12  23  43  70 103 139 179 230 283 343 408
#     4  11  24  44  69 101 142 180 231 281 344 402
#
# _framework density 25.195941999999999
#
# number of rings (size 3 to 8) (size 9 to 14) (size 15 to 20)
#    0.000    0.800    2.667    4.400    5.600    1.067 
#    0.000    4.000    0.000    0.000    0.000    0.000 
#    0.000    0.000    0.000    0.000    0.000    0.000 
#
# Total GULP energy -83781.986824 kJ/mol
# GULP energy per Si atom -5585.465788 kJ/mol
# Density = 2.513859 g / cm^3
# Si number density = 25.195942 Si / 1000 Ang^3
#
#
#
# Elastic Constant Matrix: (Units=GPa)
#
#
# Indices 1 2 3 4 5 6 
#
# 1 45.8732 15.0700 -12.5349 -3.3190 15.6088 1.9339
# 2 15.0700 153.2684 23.8036 20.7930 21.1690 -3.7713
# 3 -12.5349 23.8036 67.1455 -5.5852 22.1333 8.6104
# 4 -3.3190 20.7930 -5.5852 32.7698 -2.1523 -1.6441
# 5 15.6088 21.1690 22.1333 -2.1523 35.2720 -0.8665
# 6 1.9339 -3.7713 8.6104 -1.6441 -0.8665 44.1186
#
#
#
# Elastic Compliance Matrix: (Units=1/GPa)
#
#
# Indices 1 2 3 4 5 6 
#
# 1 0.037479 -0.004208 0.018140 0.007620 -0.025119 -0.005752
# 2 -0.004208 0.008685 -0.004266 -0.006658 -0.001043 0.001491
# 3 0.018140 -0.004266 0.029034 0.007604 -0.023394 -0.007002
# 4 0.007620 -0.006658 0.007604 0.036627 -0.001939 -0.001060
# 5 -0.025119 -0.001043 -0.023394 -0.001939 0.054816 0.006582
# 6 -0.005752 0.001491 -0.007002 -0.001060 0.006582 0.024502
#
#
# Mechanical properties :
#
#
# Convention : Reuss Voigt Hill
#
# Bulk Modulus (GPa) = 10.57863 35.44052 23.00958
# Shear Modulus (GPa) = 24.59171 38.42863 31.51017
#
# Velocity S-wave (km/s) = 3.12752 3.90961 3.54023
# Velocity P-wave (km/s) = 4.15325 5.87167 5.08557
#
# Compressibility (1/GPa) = 0.09453016
#
# Stress axis : x y z
#
# Youngs Moduli (GPa) = 26.68138 115.14560 34.44297
#
# Poissons Ratio (x) = 0.48456 -0.62480
# Poissons Ratio (y) = 0.11228 0.14692
# Poissons Ratio (z) = -0.48400 0.49116
#
# Static dielectric constant tensor:
#      x y z
#    x 2.067310 0.049220 -0.072660 
#    y 0.049220 1.893990 -0.110800 
#    z -0.072660 -0.110800 2.094020 
# 
# From -- ./inp_files/263824.got.cif
#   From: 2010.05.17/outbox.cif.g08.bks.cpg/sg2_132_cif.got.tgz:263824.got - 2010.06.03 11:33:40.
