data_PCOD9060676
_publ_section_title
;
Structure prediction by ZEFSAII (Michael W. Deem and Ramdas Pophale) SiO2 
 PCOD9060676
Probable space group: P -1
;
_chemical_formula_sum "Si O2"
_cell_formula_units_Z 14
_cell_length_a 16.070440
_cell_length_b 18.159856
_cell_length_c 11.643792
_cell_angle_alpha 40.979737
_cell_angle_beta 27.363436
_cell_angle_gamma 23.403388
_cell_volume 585.796853
_symmetry_space_group_name_H-M "P -1"
_symmetry_group_IT_number 2
_symmetry_cell_setting 'triclinic'
loop_
_space_group_symop_operation_xyz
x,y,z
-x,-y,-z
loop_
_atom_site_type_symbol
_atom_site_label
_atom_site_fract_x
_atom_site_fract_y
_atom_site_fract_z
Si Si1 0.632257 0.160260 0.415975
Si Si2 0.582167 0.429057 0.113047
Si Si3 0.773154 0.268178 0.425796
Si Si4 0.647500 0.724934 0.154939
Si Si5 0.480300 0.912665 0.904315
Si Si6 0.727710 0.209367 0.801106
Si Si7 0.275462 0.055227 0.621677
O O1 0.470730 0.364931 0.370730
O O2 0.445900 0.183209 0.713145
O O3 0.624938 0.115618 0.349180
O O4 0.993559 0.967771 0.245180
O O5 0.474085 0.586865 0.137746
O O6 0.500000 0.500000 0.000000
O O7 0.952266 0.219204 0.892739
O O8 0.500000 0.500000 0.500000
O O9 0.596755 0.253065 0.599480
O O10 0.864287 0.184486 0.541638
O O11 0.100939 0.133109 0.119537
O O12 0.612090 0.826092 0.972430
O O13 0.000000 0.500000 0.000000
O O14 0.702498 0.881336 0.595677
O O15 0.476291 0.795019 0.980219
O O16 0.500000 0.000000 0.500000
#
# Coordination Sequence:
#
# PCOD9060676 Si02
#       7
#     2   2   2   2   2   2   2
#     4  12  25  50  75 103 150 190 250 303 367 432
#     4  12  28  47  75 105 136 205 251 288 361 436
#     4  11  23  43  75 109 146 192 238 299 373 439
#     4  11  25  43  74 110 144 187 241 308 365 433
#     4  11  25  48  72 113 149 190 242 300 378 431
#     4  11  23  47  78 102 144 196 243 298 364 438
#     4  12  30  46  71 107 150 195 241 305 357 436
#
# _framework density 23.899070999999999
#
# number of rings (size 3 to 8) (size 9 to 14) (size 15 to 20)
#    0.000    0.571    4.286    3.000    8.000    3.429 
#    0.000    0.000    0.000    0.000    0.000    0.000 
#    0.000    0.000    0.000    0.000    0.000    0.000 
#
# Total GULP energy -78359.012021 kJ/mol
# GULP energy per Si atom -5597.072287 kJ/mol
# Density = 2.384468 g / cm^3
# Si number density = 23.899071 Si / 1000 Ang^3
#
#
#
# Elastic Constant Matrix: (Units=GPa)
#
#
# Indices 1 2 3 4 5 6 
#
# 1 114.0205 32.7684 10.4988 10.5977 26.2262 13.1084
# 2 32.7684 126.2888 16.1747 3.4014 9.0212 17.3180
# 3 10.4988 16.1747 72.9397 -1.1752 16.6189 4.7638
# 4 10.5977 3.4014 -1.1752 40.5260 1.6220 7.7583
# 5 26.2262 9.0212 16.6189 1.6220 29.3850 4.6712
# 6 13.1084 17.3180 4.7638 7.7583 4.6712 53.7956
#
#
#
# Elastic Compliance Matrix: (Units=1/GPa)
#
#
# Indices 1 2 3 4 5 6 
#
# 1 0.012066 -0.002331 0.001188 -0.002305 -0.010430 -0.001057
# 2 -0.002331 0.008996 -0.001644 0.000217 0.000596 -0.002265
# 3 0.001188 -0.001644 0.016146 0.000771 -0.009657 -0.000463
# 4 -0.002305 0.000217 0.000771 0.025901 0.000661 -0.003369
# 5 -0.010430 0.000596 -0.009657 0.000661 0.048760 -0.001125
# 6 -0.001057 -0.002265 -0.000463 -0.003369 -0.001125 0.020200
#
#
# Mechanical properties :
#
#
# Convention : Reuss Voigt Hill
#
# Bulk Modulus (GPa) = 31.61025 48.01475 39.81250
# Shear Modulus (GPa) = 33.74121 41.66180 37.70150
#
# Velocity S-wave (km/s) = 3.76150 4.17974 3.97612
# Velocity P-wave (km/s) = 5.66749 6.58998 6.14607
#
# Compressibility (1/GPa) = 0.03163531
#
# Stress axis : x y z
#
# Youngs Moduli (GPa) = 82.88054 111.16171 61.93388
#
# Poissons Ratio (x) = 0.25910 -0.07360
# Poissons Ratio (y) = 0.19318 0.10181
# Poissons Ratio (z) = -0.09850 0.18273
#
# Static dielectric constant tensor:
#      x y z
#    x 2.018220 0.051290 -0.074850 
#    y 0.051290 1.937300 -0.066650 
#    z -0.074850 -0.066650 1.933080 
# 
# From -- ./inp_files/467080.got.cif
#   From: 2010.05.17/outbox.cif.g08.bks.cpg/sg2_234_cif.got.tgz:467080.got - 2010.06.03 11:33:40.
