data_PCOD9060343
_publ_section_title
;
Structure prediction by ZEFSAII (Michael W. Deem and Ramdas Pophale) SiO2 
 PCOD9060343
Probable space group: P -1
;
_chemical_formula_sum "Si O2"
_cell_formula_units_Z 16
_cell_length_a 11.426214
_cell_length_b 11.536388
_cell_length_c 11.036894
_cell_angle_alpha 44.405607
_cell_angle_beta 79.394683
_cell_angle_gamma 111.796169
_cell_volume 682.770781
_symmetry_space_group_name_H-M "P -1"
_symmetry_group_IT_number 2
_symmetry_cell_setting 'triclinic'
loop_
_space_group_symop_operation_xyz
x,y,z
-x,-y,-z
loop_
_atom_site_type_symbol
_atom_site_label
_atom_site_fract_x
_atom_site_fract_y
_atom_site_fract_z
Si Si1 0.036909 0.599821 0.684020
Si Si2 0.372792 0.733614 0.429433
Si Si3 0.092104 0.916940 0.060271
Si Si4 0.758203 0.104558 0.184753
Si Si5 0.801560 0.500340 0.602513
Si Si6 0.154112 0.096754 0.314271
Si Si7 0.694823 0.679631 0.119439
Si Si8 0.325035 0.314864 0.352114
O O1 0.209688 0.669727 0.565363
O O2 0.887263 0.463107 0.709827
O O3 0.119548 0.866333 0.481559
O O4 0.906860 0.394649 0.966504
O O5 0.566208 0.970356 0.271745
O O6 0.352248 0.712250 0.302114
O O7 0.334885 0.508336 0.650712
O O8 0.146506 0.899261 0.937288
O O9 0.263592 0.123933 0.950757
O O10 0.957996 0.683614 0.341519
O O11 0.000000 0.000000 0.000000
O O12 0.727461 0.928143 0.421083
O O13 0.765431 0.632872 0.587117
O O14 0.306741 0.309394 0.215887
O O15 0.160324 0.184195 0.115054
O O16 0.000000 0.000000 0.500000
O O17 0.523047 0.537549 0.184586
#
# Coordination Sequence:
#
# PCOD9060343 Si02
#       8
#     2   2   2   2   2   2   2   2
#     4  12  26  43  66  97 139 176 219 274 334 399
#     4  11  25  44  68 102 139 173 216 268 346 402
#     4  12  19  37  72 101 136 170 220 273 330 398
#     4  11  25  43  67 104 136 177 215 274 340 401
#     4  12  22  40  69 102 133 176 219 272 331 394
#     4  12  26  46  69  94 124 178 231 279 328 386
#     4  11  23  43  69  99 131 175 223 278 324 394
#     4  11  24  45  68  98 131 174 233 272 325 392
#
# _framework density 23.433926
#
# number of rings (size 3 to 8) (size 9 to 14) (size 15 to 20)
#    0.000    0.500    6.250    1.500    1.750    4.000 
#    2.250    1.250    0.000    0.000    0.000    0.000 
#    0.000    0.000    0.000    0.000    0.000    0.000 
#
# Total GULP energy -89264.294025 kJ/mol
# GULP energy per Si atom -5579.018377 kJ/mol
# Density = 2.338059 g / cm^3
# Si number density = 23.433926 Si / 1000 Ang^3
#
#
#
# Elastic Constant Matrix: (Units=GPa)
#
#
# Indices 1 2 3 4 5 6 
#
# 1 98.2551 8.9574 -0.6253 -7.2193 -23.6849 6.4779
# 2 8.9574 61.5816 -3.7818 -0.3391 -0.0762 15.8760
# 3 -0.6253 -3.7818 51.5366 1.9265 -22.5803 -2.0450
# 4 -7.2193 -0.3391 1.9265 23.3608 4.2261 -1.3840
# 5 -23.6849 -0.0762 -22.5803 4.2261 22.8683 1.0263
# 6 6.4779 15.8760 -2.0450 -1.3840 1.0263 28.0554
#
#
#
# Elastic Compliance Matrix: (Units=1/GPa)
#
#
# Indices 1 2 3 4 5 6 
#
# 1 0.019212 -0.000663 0.015998 -0.002215 0.036296 -0.004332
# 2 -0.000663 0.019202 0.001830 -0.001047 0.001858 -0.010699
# 3 0.015998 0.001830 0.049876 -0.011723 0.068177 -0.004166
# 4 -0.002215 -0.001047 -0.011723 0.047399 -0.022785 0.003421
# 5 0.036296 0.001858 0.068177 -0.022785 0.153359 -0.011197
# 6 -0.004332 -0.010699 -0.004166 0.003421 -0.011197 0.042973
#
#
# Mechanical properties :
#
#
# Convention : Reuss Voigt Hill
#
# Bulk Modulus (GPa) = 8.15518 24.49711 16.32615
# Shear Modulus (GPa) = 14.76824 28.64510 21.70667
#
# Velocity S-wave (km/s) = 2.51312 3.50004 3.04681
# Velocity P-wave (km/s) = 3.45089 5.17785 4.39993
#
# Compressibility (1/GPa) = 0.12262141
#
# Stress axis : x y z
#
# Youngs Moduli (GPa) = 52.05049 52.07722 20.04968
#
# Poissons Ratio (x) = 0.03450 -0.32076
# Poissons Ratio (y) = 0.03449 -0.03668
# Poissons Ratio (z) = -0.83272 -0.09528
#
# Static dielectric constant tensor:
#      x y z
#    x 1.731270 -0.195090 0.214550 
#    y -0.195090 1.684010 0.172220 
#    z 0.214550 0.172220 1.731200 
# 
# From -- ./inp_files/258801.got.cif
#   From: 2010.05.17/outbox.cif.g08.bks.cpg/sg2_130_cif.got.tgz:258801.got - 2010.06.03 11:33:40.
