data_PCOD9060168
_publ_section_title
;
Structure prediction by ZEFSAII (Michael W. Deem and Ramdas Pophale) SiO2 
 PCOD9060168
Probable space group: P -1
;
_chemical_formula_sum "Si O2"
_cell_formula_units_Z 16
_cell_length_a 21.021789
_cell_length_b 11.473557
_cell_length_c 8.291500
_cell_angle_alpha 33.884306
_cell_angle_beta 130.500108
_cell_angle_gamma 144.932474
_cell_volume 637.771590
_symmetry_space_group_name_H-M "P -1"
_symmetry_group_IT_number 2
_symmetry_cell_setting 'triclinic'
loop_
_space_group_symop_operation_xyz
x,y,z
-x,-y,-z
loop_
_atom_site_type_symbol
_atom_site_label
_atom_site_fract_x
_atom_site_fract_y
_atom_site_fract_z
Si Si1 0.808525 0.554434 0.902807
Si Si2 0.014574 0.863299 0.327010
Si Si3 0.573488 0.676086 0.574169
Si Si4 0.185469 0.848190 0.479935
Si Si5 0.270275 0.116048 0.975742
Si Si6 0.539190 0.865994 0.816662
Si Si7 0.388957 0.685480 0.346172
Si Si8 0.116928 0.581596 0.132265
O O1 0.896068 0.880906 0.700977
O O2 0.683672 0.424786 0.809586
O O3 0.843087 0.479272 0.887604
O O4 0.816233 0.405230 0.235192
O O5 0.074314 0.755264 0.480997
O O6 0.906505 0.619765 0.529203
O O7 0.000000 0.000000 0.000000
O O8 0.500000 0.500000 0.500000
O O9 0.704528 0.923746 0.493642
O O10 0.508257 0.772674 0.421046
O O11 0.555167 0.450170 0.922758
O O12 0.202972 0.988028 0.176926
O O13 0.373653 0.127532 0.146208
O O14 0.198476 0.896323 0.966649
O O15 0.317932 0.417883 0.654929
O O16 0.595496 0.061118 0.843506
O O17 0.500000 0.000000 0.500000
O O18 0.000000 0.500000 0.000000
#
# Coordination Sequence:
#
# PCOD9060168 Si02
#       8
#     2   2   2   2   2   2   2   2
#     4  12  26  46  73 100 137 179 231 280 341 407
#     4  12  29  46  70 103 137 180 230 282 344 401
#     4  11  25  42  69 100 142 177 224 282 337 405
#     4  12  27  46  67 104 142 178 227 286 337 405
#     4  11  26  44  69 102 140 177 227 284 337 405
#     4  11  23  43  67 100 137 180 227 271 341 407
#     4  11  24  43  72 102 134 182 226 276 341 408
#     4  12  25  47  73  98 136 181 229 286 337 400
#
# _framework density 25.087349
#
# number of rings (size 3 to 8) (size 9 to 14) (size 15 to 20)
#    0.000    0.500    2.500    4.875    5.250   10.000 
#    0.000    0.000    0.000    0.000    0.000    0.000 
#    0.000    0.000    0.000    0.000    0.000    0.000 
#
# Total GULP energy -89735.771119 kJ/mol
# GULP energy per Si atom -5608.485695 kJ/mol
# Density = 2.503025 g / cm^3
# Si number density = 25.087349 Si / 1000 Ang^3
#
#
#
# Elastic Constant Matrix: (Units=GPa)
#
#
# Indices 1 2 3 4 5 6 
#
# 1 58.7825 -0.1018 16.7110 -1.2604 -5.8264 -2.2120
# 2 -0.1018 79.1766 -1.0975 -5.4098 8.5408 -10.5969
# 3 16.7110 -1.0975 117.1136 2.3442 -0.5003 11.0129
# 4 -1.2604 -5.4098 2.3442 47.3333 2.9107 4.9494
# 5 -5.8264 8.5408 -0.5003 2.9107 36.7202 2.8377
# 6 -2.2120 -10.5969 11.0129 4.9494 2.8377 35.2838
#
#
#
# Elastic Compliance Matrix: (Units=1/GPa)
#
#
# Indices 1 2 3 4 5 6 
#
# 1 0.018130 -0.000057 -0.002743 0.000266 0.002698 0.001721
# 2 -0.000057 0.013687 -0.000311 0.001351 -0.003637 0.004307
# 3 -0.002743 -0.000311 0.009225 -0.000241 0.000022 -0.003113
# 4 0.000266 0.001351 -0.000241 0.021662 -0.001807 -0.002395
# 5 0.002698 -0.003637 0.000022 -0.001807 0.028882 -0.002999
# 6 0.001721 0.004307 -0.003113 -0.002395 -0.002999 0.031292
#
#
# Mechanical properties :
#
#
# Convention : Reuss Voigt Hill
#
# Bulk Modulus (GPa) = 28.72075 31.78845 30.25460
# Shear Modulus (GPa) = 35.53504 39.83818 37.68661
#
# Velocity S-wave (km/s) = 3.76766 3.98927 3.88005
# Velocity P-wave (km/s) = 5.51364 5.82388 5.67088
#
# Compressibility (1/GPa) = 0.03481803
#
# Stress axis : x y z
#
# Youngs Moduli (GPa) = 55.15862 73.06374 108.40283
#
# Poissons Ratio (x) = 0.00418 0.29736
# Poissons Ratio (y) = 0.00316 0.03373
# Poissons Ratio (z) = 0.15131 0.02274
#
# Static dielectric constant tensor:
#      x y z
#    x 1.981110 -0.057930 -0.045160 
#    y -0.057930 2.003720 0.052960 
#    z -0.045160 0.052960 1.995190 
# 
# From -- ./inp_files/90082.got.cif
#   From: 2010.05.17/outbox.cif.g08.bks.cpg/sg2_46_cif.got.tgz:90082.got - 2010.06.03 11:33:40.
