data_PCOD9060448
_publ_section_title
;
Structure prediction by ZEFSAII (Michael W. Deem and Ramdas Pophale) SiO2 
 PCOD9060448
Probable space group: P -1
;
_chemical_formula_sum "Si O2"
_cell_formula_units_Z 10
_cell_length_a 4.921222
_cell_length_b 15.290040
_cell_length_c 8.629005
_cell_angle_alpha 49.228302
_cell_angle_beta 97.684881
_cell_angle_gamma 124.610543
_cell_volume 374.251944
_symmetry_space_group_name_H-M "P -1"
_symmetry_group_IT_number 2
_symmetry_cell_setting 'triclinic'
loop_
_space_group_symop_operation_xyz
x,y,z
-x,-y,-z
loop_
_atom_site_type_symbol
_atom_site_label
_atom_site_fract_x
_atom_site_fract_y
_atom_site_fract_z
Si Si1 0.261911 0.484929 0.214388
Si Si2 0.329857 0.608220 0.515244
Si Si3 0.871275 0.195688 0.358721
Si Si4 0.266501 0.163345 0.194352
Si Si5 0.585213 0.927959 0.218231
O O1 0.403067 0.426538 0.414360
O O2 0.456934 0.336642 0.971430
O O3 0.882631 0.438200 0.285538
O O4 0.154378 0.375512 0.189219
O O5 0.526453 0.783838 0.310392
O O6 0.000000 0.500000 0.500000
O O7 0.578184 0.156200 0.257506
O O8 0.682462 0.132441 0.584127
O O9 0.072202 0.139705 0.370746
O O10 0.980851 0.054582 0.168854
O O11 0.500000 0.000000 0.000000
#
# Coordination Sequence:
#
# PCOD9060448 Si02
#       5
#     2   2   2   2   2
#     4  11  23  43  71 102 132 179 230 278 335 407
#     4  11  24  45  67  99 141 181 223 279 342 407
#     4  11  24  45  70 103 139 179 224 280 339 406
#     4  12  24  45  73 104 136 177 227 284 340 401
#     4  11  26  46  70 102 139 182 229 281 339 401
#
# _framework density 26.71997
#
# number of rings (size 3 to 8) (size 9 to 14) (size 15 to 20)
#    0.000    0.800    0.000    7.800    0.000    4.800 
#    0.000   13.000    0.000    0.000    0.000    0.000 
#    0.000    0.000    0.000    0.000    0.000    0.000 
#
# Total GULP energy -56126.535333 kJ/mol
# GULP energy per Si atom -5612.653533 kJ/mol
# Density = 2.665915 g / cm^3
# Si number density = 26.719970 Si / 1000 Ang^3
#
#
#
# Elastic Constant Matrix: (Units=GPa)
#
#
# Indices 1 2 3 4 5 6 
#
# 1 118.6068 35.0867 37.2511 0.5949 17.8156 3.7298
# 2 35.0867 211.8081 64.0487 -29.2740 9.3189 28.7842
# 3 37.2511 64.0487 152.3259 -24.3212 33.4162 11.8968
# 4 0.5949 -29.2740 -24.3212 47.7979 8.9798 4.8176
# 5 17.8156 9.3189 33.4162 8.9798 38.1609 1.4793
# 6 3.7298 28.7842 11.8968 4.8176 1.4793 55.3345
#
#
#
# Elastic Compliance Matrix: (Units=1/GPa)
#
#
# Indices 1 2 3 4 5 6 
#
# 1 0.009659 -0.001272 -0.001481 -0.001208 -0.002637 0.000505
# 2 -0.001272 0.006307 -0.001440 0.003541 -0.000395 -0.003183
# 3 -0.001481 -0.001440 0.010978 0.006805 -0.010100 -0.001834
# 4 -0.001208 0.003541 0.006805 0.029560 -0.013004 -0.005449
# 5 -0.002637 -0.000395 -0.010100 -0.013004 0.039334 0.002635
# 6 0.000505 -0.003183 -0.001834 -0.005449 0.002635 0.020492
#
#
# Mechanical properties :
#
#
# Convention : Reuss Voigt Hill
#
# Bulk Modulus (GPa) = 53.88681 83.94595 68.91638
# Shear Modulus (GPa) = 38.19663 51.34896 44.77280
#
# Velocity S-wave (km/s) = 3.78500 4.38853 4.09789
# Velocity P-wave (km/s) = 6.26998 7.56069 6.94538
#
# Compressibility (1/GPa) = 0.01855742
#
# Stress axis : x y z
#
# Youngs Moduli (GPa) = 103.53150 158.56127 91.09095
#
# Poissons Ratio (x) = 0.20164 0.13492
# Poissons Ratio (y) = 0.13166 0.13119
# Poissons Ratio (z) = 0.15335 0.22837
#
# Static dielectric constant tensor:
#      x y z
#    x 2.037510 -0.048230 -0.085850 
#    y -0.048230 2.119180 -0.014950 
#    z -0.085850 -0.014950 2.145690 
# 
# From -- ./inp_files/137279.got.cif
#   From: 2010.05.17/outbox.cif.g08.bks.cpg/sg2_69_cif.got.tgz:137279.got - 2010.06.03 11:33:40.
