data_PCOD9060274
_publ_section_title
;
Structure prediction by ZEFSAII (Michael W. Deem and Ramdas Pophale) SiO2 
 PCOD9060274
Probable space group: P -1
;
_chemical_formula_sum "Si O2"
_cell_formula_units_Z 16
_cell_length_a 13.713500
_cell_length_b 16.898267
_cell_length_c 5.437507
_cell_angle_alpha 83.974715
_cell_angle_beta 74.976809
_cell_angle_gamma 34.263796
_cell_volume 671.196451
_symmetry_space_group_name_H-M "P -1"
_symmetry_group_IT_number 2
_symmetry_cell_setting 'triclinic'
loop_
_space_group_symop_operation_xyz
x,y,z
-x,-y,-z
loop_
_atom_site_type_symbol
_atom_site_label
_atom_site_fract_x
_atom_site_fract_y
_atom_site_fract_z
Si Si1 0.431493 0.422131 0.946445
Si Si2 0.291993 0.643076 0.347897
Si Si3 0.780750 0.866640 0.293881
Si Si4 0.907255 0.351981 0.213330
Si Si5 0.481928 0.100399 0.088064
Si Si6 0.906739 0.641638 0.595521
Si Si7 0.718999 0.097532 0.884570
Si Si8 0.922622 0.934744 0.320000
O O1 0.548769 0.399245 0.685842
O O2 0.242096 0.518826 0.923298
O O3 0.563782 0.264380 0.980823
O O4 0.378428 0.515394 0.172511
O O5 0.178316 0.673967 0.623309
O O6 0.141017 0.790344 0.238865
O O7 0.815481 0.756807 0.409536
O O8 0.869272 0.876198 0.401586
O O9 0.575976 0.026738 0.318877
O O10 0.901578 0.791087 0.993352
O O11 0.947480 0.395005 0.365194
O O12 0.270825 0.261088 0.157197
O O13 0.605218 0.090973 0.910575
O O14 0.500000 0.000000 0.000000
O O15 0.000000 0.500000 0.500000
O O16 0.835430 0.035810 0.579895
O O17 0.841641 0.011838 0.081073
#
# Coordination Sequence:
#
# PCOD9060274 Si02
#       8
#     2   2   2   2   2   2   2   2
#     4  11  27  45  71 109 142 193 242 309 373 441
#     4  11  24  46  77 102 141 192 253 295 373 454
#     4  11  23  44  71  97 139 193 240 299 362 443
#     4  12  23  45  73  99 147 189 244 300 370 439
#     4  11  23  43  69 100 135 193 248 288 363 441
#     4  12  27  41  69 107 141 186 242 305 365 432
#     4  11  28  46  72 109 152 190 242 319 365 430
#     4  11  23  47  77 103 145 197 244 299 371 435
#
# _framework density 23.838027
#
# number of rings (size 3 to 8) (size 9 to 14) (size 15 to 20)
#    0.000    0.750    3.750    3.000    5.250    4.500 
#    0.000    0.000    0.000    0.000    0.000    0.000 
#    0.000    0.000    0.000    0.000    0.000    0.000 
#
# Total GULP energy -89467.035612 kJ/mol
# GULP energy per Si atom -5591.689726 kJ/mol
# Density = 2.378377 g / cm^3
# Si number density = 23.838027 Si / 1000 Ang^3
#
#
#
# Elastic Constant Matrix: (Units=GPa)
#
#
# Indices 1 2 3 4 5 6 
#
# 1 81.0222 34.2097 6.9348 6.2431 -6.2542 -21.5676
# 2 34.2097 125.0815 5.6357 22.0072 26.3152 2.6571
# 3 6.9348 5.6357 67.9998 7.2777 5.4891 3.2366
# 4 6.2431 22.0072 7.2777 33.7967 1.6249 2.1529
# 5 -6.2542 26.3152 5.4891 1.6249 22.2063 -0.6405
# 6 -21.5676 2.6571 3.2366 2.1529 -0.6405 31.2030
#
#
#
# Elastic Compliance Matrix: (Units=1/GPa)
#
#
# Indices 1 2 3 4 5 6 
#
# 1 0.024252 -0.011881 -0.004387 0.001943 0.022387 0.018555
# 2 -0.011881 0.018110 0.003127 -0.008419 -0.025253 -0.010016
# 3 -0.004387 0.003127 0.016266 -0.003993 -0.008811 -0.004891
# 4 0.001943 -0.008419 -0.003993 0.035127 0.008948 0.000234
# 5 0.022387 -0.025253 -0.008811 0.008948 0.083353 0.019632
# 6 0.018555 -0.010016 -0.004891 0.000234 0.019632 0.046621
#
#
# Mechanical properties :
#
#
# Convention : Reuss Voigt Hill
#
# Bulk Modulus (GPa) = 30.91582 40.85153 35.88368
# Shear Modulus (GPa) = 19.17233 32.59610 25.88421
#
# Velocity S-wave (km/s) = 2.83905 3.70185 3.29878
# Velocity P-wave (km/s) = 4.87280 5.95365 5.44013
#
# Compressibility (1/GPa) = 0.03234590
#
# Stress axis : x y z
#
# Youngs Moduli (GPa) = 41.23362 55.21688 61.47968
#
# Poissons Ratio (x) = 0.65604 0.26970
# Poissons Ratio (y) = 0.48991 -0.19225
# Poissons Ratio (z) = 0.18089 -0.17267
#
# Static dielectric constant tensor:
#      x y z
#    x 1.951850 -0.034240 -0.052290 
#    y -0.034240 1.938550 -0.054310 
#    z -0.052290 -0.054310 1.983080 
# 
# From -- ./inp_files/40020.got.cif
#   From: 2010.05.17/outbox.cif.g08.bks.cpg/sg2_21_cif.got.tgz:40020.got - 2010.06.03 11:33:40.
