data_PCOD9060194
_publ_section_title
;
Structure prediction by ZEFSAII (Michael W. Deem and Ramdas Pophale) SiO2 
 PCOD9060194
Probable space group: P -1
;
_chemical_formula_sum "Si O2"
_cell_formula_units_Z 16
_cell_length_a 11.963339
_cell_length_b 12.097776
_cell_length_c 13.527506
_cell_angle_alpha 119.442353
_cell_angle_beta 97.081409
_cell_angle_gamma 33.153501
_cell_volume 742.251304
_symmetry_space_group_name_H-M "P -1"
_symmetry_group_IT_number 2
_symmetry_cell_setting 'triclinic'
loop_
_space_group_symop_operation_xyz
x,y,z
-x,-y,-z
loop_
_atom_site_type_symbol
_atom_site_label
_atom_site_fract_x
_atom_site_fract_y
_atom_site_fract_z
Si Si1 0.397860 0.902419 0.999856
Si Si2 0.106056 0.419252 0.085875
Si Si3 0.786436 0.073269 0.632736
Si Si4 0.217285 0.819792 0.651120
Si Si5 0.212429 0.144487 0.299066
Si Si6 0.763724 0.966786 0.376193
Si Si7 0.735831 0.244560 0.140189
Si Si8 0.639245 0.801587 0.523138
O O1 0.208980 0.185064 0.041448
O O2 0.315688 0.979192 0.138574
O O3 0.665954 0.706873 0.943214
O O4 0.380275 0.778304 0.902013
O O5 0.899138 0.695298 0.255653
O O6 0.000000 0.500000 0.000000
O O7 0.497213 0.422017 0.760798
O O8 0.812856 0.932125 0.650765
O O9 0.841459 0.963863 0.481189
O O10 0.996362 0.965513 0.635941
O O11 0.500000 0.500000 0.500000
O O12 0.202159 0.809417 0.760736
O O13 0.185634 0.999226 0.698470
O O14 0.388529 0.077371 0.333120
O O15 0.939199 0.484001 0.395339
O O16 0.468649 0.227250 0.474513
O O17 0.000000 0.000000 0.000000
O O18 0.500000 0.000000 0.500000
#
# Coordination Sequence:
#
# PCOD9060194 Si02
#       8
#     2   2   2   2   2   2   2   2
#     4  11  26  45  70 100 142 182 239 286 362 437
#     4  11  25  46  70 103 137 184 232 297 365 430
#     4  12  27  46  70 109 142 188 246 301 359 434
#     4  12  26  46  73 106 143 189 244 299 363 428
#     4  11  25  42  71 102 143 183 233 295 358 432
#     4  12  24  43  75 100 143 180 238 298 360 426
#     4  12  29  49  73 103 149 197 243 303 366 437
#     4  11  23  43  67 107 142 185 231 293 361 429
#
# _framework density 21.556042999999999
#
# number of rings (size 3 to 8) (size 9 to 14) (size 15 to 20)
#    0.000    0.500    2.500    4.875    5.250    6.000 
#    0.000    0.000    0.000    0.000    0.000    0.000 
#    0.000    0.000    0.000    0.000    0.000    0.000 
#
# Total GULP energy -89532.470533 kJ/mol
# GULP energy per Si atom -5595.779408 kJ/mol
# Density = 2.150698 g / cm^3
# Si number density = 21.556043 Si / 1000 Ang^3
#
#
#
# Elastic Constant Matrix: (Units=GPa)
#
#
# Indices 1 2 3 4 5 6 
#
# 1 99.9366 42.6275 7.2626 -1.6935 3.4975 -8.0905
# 2 42.6275 141.3698 50.4704 0.0921 -0.8075 -2.5383
# 3 7.2626 50.4704 102.1747 -6.0606 2.5573 -4.5675
# 4 -1.6935 0.0921 -6.0606 34.9063 3.5154 6.0246
# 5 3.4975 -0.8075 2.5573 3.5154 37.5848 -4.5792
# 6 -8.0905 -2.5383 -4.5675 6.0246 -4.5792 42.8709
#
#
#
# Elastic Compliance Matrix: (Units=1/GPa)
#
#
# Indices 1 2 3 4 5 6 
#
# 1 0.011821 -0.003994 0.001281 0.000583 -0.001092 0.001932
# 2 -0.003994 0.009972 -0.004748 -0.001069 0.000958 -0.000417
# 3 0.001281 -0.004748 0.012236 0.002171 -0.001155 0.000836
# 4 0.000583 -0.001069 0.002171 0.030166 -0.003576 -0.004343
# 5 -0.001092 0.000958 -0.001155 -0.003576 0.027528 0.003170
# 6 0.001932 -0.000417 0.000836 -0.004343 0.003170 0.024704
#
#
# Mechanical properties :
#
#
# Convention : Reuss Voigt Hill
#
# Bulk Modulus (GPa) = 52.33422 60.46690 56.40056
# Shear Modulus (GPa) = 36.30621 39.28043 37.79332
#
# Velocity S-wave (km/s) = 4.10844 4.27341 4.19174
# Velocity P-wave (km/s) = 6.84373 7.24302 7.04620
#
# Compressibility (1/GPa) = 0.01910796
#
# Stress axis : x y z
#
# Youngs Moduli (GPa) = 84.59319 100.28555 81.72363
#
# Poissons Ratio (x) = 0.40051 -0.10467
# Poissons Ratio (y) = 0.33784 0.38800
# Poissons Ratio (z) = -0.10834 0.47612
#
# Static dielectric constant tensor:
#      x y z
#    x 1.847150 -0.037900 0.006490 
#    y -0.037900 1.772610 0.025960 
#    z 0.006490 0.025960 1.804260 
# 
# From -- ./inp_files/519850.got.cif
#   From: 2010.05.17/outbox.cif.g08.bks.cpg/sg2_260_cif.got.tgz:519850.got - 2010.06.03 11:33:40.
