data_PCOD9060389
_publ_section_title
;
Structure prediction by ZEFSAII (Michael W. Deem and Ramdas Pophale) SiO2 
 PCOD9060389
Probable space group: P -1
;
_chemical_formula_sum "Si O2"
_cell_formula_units_Z 13
_cell_length_a 14.577270
_cell_length_b 9.847516
_cell_length_c 9.406663
_cell_angle_alpha 44.849217
_cell_angle_beta 38.108541
_cell_angle_gamma 39.716835
_cell_volume 513.763746
_symmetry_space_group_name_H-M "P -1"
_symmetry_group_IT_number 2
_symmetry_cell_setting 'triclinic'
loop_
_space_group_symop_operation_xyz
x,y,z
-x,-y,-z
loop_
_atom_site_type_symbol
_atom_site_label
_atom_site_fract_x
_atom_site_fract_y
_atom_site_fract_z
Si Si1 0.832789 0.240754 0.525798
Si Si2 0.158963 0.178994 0.541860
Si Si3 0.608889 0.211674 0.269074
Si Si4 0.776092 0.442702 0.758478
Si Si5 0.000000 0.500000 0.000000
Si Si6 0.280106 0.193294 0.769040
Si Si7 0.685263 0.957669 0.844596
O O1 0.795862 0.337148 0.657847
O O2 0.879874 0.382806 0.258115
O O3 0.687524 0.184810 0.695540
O O4 0.000000 0.000000 0.500000
O O5 0.250982 0.310990 0.395894
O O6 0.192766 0.167472 0.341320
O O7 0.958478 0.303709 0.715640
O O8 0.254376 0.935767 0.669779
O O9 0.426761 0.255981 0.514906
O O10 0.655930 0.043214 0.203496
O O11 0.634763 0.412131 0.038276
O O12 0.914346 0.639178 0.153245
O O13 0.248406 0.185396 0.985011
O O14 0.500000 0.000000 0.000000
#
# Coordination Sequence:
#
# PCOD9060389 Si02
#       7
#     2   2   2   2   1   2   2
#     4  12  23  45  75 100 143 193 235 292 354 428
#     4  11  24  41  69 104 142 182 236 297 346 423
#     4  11  23  45  68 100 142 187 228 290 361 419
#     4  11  23  43  70 105 140 186 237 286 357 425
#     4  12  24  44  72 108 130 182 254 284 340 434
#     4  11  24  44  71 102 141 183 239 291 351 428
#     4  12  24  47  70 103 144 190 233 294 357 422
#
# _framework density 25.303457999999999
#
# number of rings (size 3 to 8) (size 9 to 14) (size 15 to 20)
#    0.000    0.615    6.154    1.385    0.000    2.462 
#    8.308    4.615    0.000    0.000    0.000    0.000 
#    0.000    0.000    0.000    0.000    0.000    0.000 
#
# Total GULP energy -72622.355342 kJ/mol
# GULP energy per Si atom -5586.335026 kJ/mol
# Density = 2.524587 g / cm^3
# Si number density = 25.303458 Si / 1000 Ang^3
#
#
#
# Elastic Constant Matrix: (Units=GPa)
#
#
# Indices 1 2 3 4 5 6 
#
# 1 90.0378 9.4280 34.7610 -8.1548 -7.3665 12.0436
# 2 9.4280 75.5482 44.3911 5.7200 -3.9179 14.2435
# 3 34.7610 44.3911 205.0756 -13.2854 -20.7027 20.7584
# 4 -8.1548 5.7200 -13.2854 53.4946 7.7498 -2.4750
# 5 -7.3665 -3.9179 -20.7027 7.7498 51.7758 -3.8498
# 6 12.0436 14.2435 20.7584 -2.4750 -3.8498 47.7064
#
#
#
# Elastic Compliance Matrix: (Units=1/GPa)
#
#
# Indices 1 2 3 4 5 6 
#
# 1 0.012232 -0.000202 -0.001654 0.001271 0.000711 -0.002184
# 2 -0.000202 0.016037 -0.003260 -0.002720 0.000031 -0.003457
# 3 -0.001654 -0.003260 0.006237 0.001343 0.001728 -0.001114
# 4 0.001271 -0.002720 0.001343 0.019895 -0.002410 0.000744
# 5 0.000711 0.000031 0.001728 -0.002410 0.020513 0.000590
# 6 -0.002184 -0.003457 -0.001114 0.000744 0.000590 0.023116
#
#
# Mechanical properties :
#
#
# Convention : Reuss Voigt Hill
#
# Bulk Modulus (GPa) = 41.19967 60.86908 51.03438
# Shear Modulus (GPa) = 42.97265 49.40080 46.18672
#
# Velocity S-wave (km/s) = 4.12550 4.42332 4.27700
# Velocity P-wave (km/s) = 6.24585 7.08488 6.67855
#
# Compressibility (1/GPa) = 0.02427204
#
# Stress axis : x y z
#
# Youngs Moduli (GPa) = 81.75416 62.35681 160.34493
#
# Poissons Ratio (x) = 0.01259 0.26527
# Poissons Ratio (y) = 0.01651 0.52276
# Poissons Ratio (z) = 0.13525 0.20330
#
# Static dielectric constant tensor:
#      x y z
#    x 1.915540 0.139080 0.013110 
#    y 0.139080 1.985970 -0.033030 
#    z 0.013110 -0.033030 1.964050 
# 
# From -- ./inp_files/159703.got.cif
#   From: 2010.05.17/outbox.cif.g08.bks.cpg/sg2_80_cif.got.tgz:159703.got - 2010.06.03 11:33:40.
