data_PCOD9060768
_publ_section_title
;
Structure prediction by ZEFSAII (Michael W. Deem and Ramdas Pophale) SiO2 
 PCOD9060768
Probable space group: P -1
;
_chemical_formula_sum "Si O2"
_cell_formula_units_Z 14
_cell_length_a 22.688955
_cell_length_b 22.445619
_cell_length_c 13.279179
_cell_angle_alpha 155.206224
_cell_angle_beta 24.401496
_cell_angle_gamma 167.407916
_cell_volume 595.294290
_symmetry_space_group_name_H-M "P -1"
_symmetry_group_IT_number 2
_symmetry_cell_setting 'triclinic'
loop_
_space_group_symop_operation_xyz
x,y,z
-x,-y,-z
loop_
_atom_site_type_symbol
_atom_site_label
_atom_site_fract_x
_atom_site_fract_y
_atom_site_fract_z
Si Si1 0.296111 0.891705 0.440512
Si Si2 0.317146 0.822563 0.911458
Si Si3 0.294597 0.536550 0.243135
Si Si4 0.014885 0.905452 0.238498
Si Si5 0.092134 0.343308 0.608448
Si Si6 0.288293 0.232556 0.700432
Si Si7 0.354211 0.656649 0.104736
O O1 0.350512 0.815621 0.320804
O O2 0.965087 0.627170 0.540935
O O3 0.471749 0.995231 0.229450
O O4 0.422482 0.149780 0.676579
O O5 0.162734 0.540231 0.733175
O O6 0.084801 0.747224 0.160758
O O7 0.500000 0.000000 0.000000
O O8 0.254539 0.554454 0.217810
O O9 0.296813 0.368986 0.974887
O O10 0.867239 0.850020 0.285884
O O11 0.847418 0.613827 0.065509
O O12 0.000000 0.000000 0.500000
O O13 0.334631 0.140943 0.077054
O O14 0.391565 0.534383 0.463560
O O15 0.890997 0.056341 0.428153
#
# Coordination Sequence:
#
# PCOD9060768 Si02
#       7
#     2   2   2   2   2   2   2
#     4  12  26  43  73  99 138 182 234 279 339 400
#     4  11  27  47  72 104 136 172 236 292 341 408
#     4  11  24  45  68 103 139 180 233 272 333 422
#     4  11  24  40  64 105 144 174 233 271 337 426
#     4  11  24  45  74  94 135 178 226 280 357 397
#     4  11  23  44  72  95 137 188 215 283 353 393
#     4  11  23  44  67 101 142 185 223 280 337 399
#
# _framework density 23.517780999999999
#
# number of rings (size 3 to 8) (size 9 to 14) (size 15 to 20)
#    0.000    0.857    1.429    6.429    6.000    1.143 
#    0.000    4.286    0.000    0.000    0.000    0.000 
#    0.000    0.000    0.000    0.000    0.000    0.000 
#
# Total GULP energy -78460.617440 kJ/mol
# GULP energy per Si atom -5604.329817 kJ/mol
# Density = 2.346425 g / cm^3
# Si number density = 23.517781 Si / 1000 Ang^3
#
#
#
# Elastic Constant Matrix: (Units=GPa)
#
#
# Indices 1 2 3 4 5 6 
#
# 1 25.2061 25.9510 32.1075 -2.3413 9.8256 -1.8569
# 2 25.9510 146.7787 60.1351 1.1230 -0.4605 -7.2870
# 3 32.1075 60.1351 109.1057 -9.9740 -3.1298 -7.7536
# 4 -2.3413 1.1230 -9.9740 55.0275 -3.1162 -0.3134
# 5 9.8256 -0.4605 -3.1298 -3.1162 29.7089 7.5241
# 6 -1.8569 -7.2870 -7.7536 -0.3134 7.5241 25.1686
#
#
#
# Elastic Compliance Matrix: (Units=1/GPa)
#
#
# Indices 1 2 3 4 5 6 
#
# 1 0.089985 -0.005807 -0.023921 -0.002304 -0.034615 0.007907
# 2 -0.005807 0.009283 -0.003401 -0.000969 0.001407 0.000779
# 3 -0.023921 -0.003401 0.018645 0.003005 0.010138 0.000001
# 4 -0.002304 -0.000969 0.003005 0.018813 0.003091 -0.000214
# 5 -0.034615 0.001407 0.010138 0.003091 0.050055 -0.013948
# 6 0.007907 0.000779 0.000001 -0.000214 -0.013948 0.044709
#
#
# Mechanical properties :
#
#
# Convention : Reuss Voigt Hill
#
# Bulk Modulus (GPa) = 19.35949 57.49753 38.42851
# Shear Modulus (GPa) = 15.87474 32.84079 24.35776
#
# Velocity S-wave (km/s) = 2.60091 3.74093 3.22175
# Velocity P-wave (km/s) = 4.15565 6.56970 5.49684
#
# Compressibility (1/GPa) = 0.05165426
#
# Stress axis : x y z
#
# Youngs Moduli (GPa) = 11.11302 107.71862 53.63419
#
# Poissons Ratio (x) = 0.62557 1.28300
# Poissons Ratio (y) = 0.06454 0.18238
# Poissons Ratio (z) = 0.26584 0.36630
#
# Static dielectric constant tensor:
#      x y z
#    x 1.889300 -0.010930 -0.018210 
#    y -0.010930 1.860990 0.024550 
#    z -0.018210 0.024550 1.895340 
# 
# From -- ./inp_files/544593.got.cif
#   From: 2010.05.17/outbox.cif.g08.bks.cpg/sg2_273_cif.got.tgz:544593.got - 2010.06.03 11:33:40.
