data_PCOD9060214
_publ_section_title
;
Structure prediction by ZEFSAII (Michael W. Deem and Ramdas Pophale) SiO2 
 PCOD9060214
Probable space group: P -1
;
_chemical_formula_sum "Si O2"
_cell_formula_units_Z 16
_cell_length_a 27.214442
_cell_length_b 14.145113
_cell_length_c 13.559744
_cell_angle_alpha 32.859202
_cell_angle_beta 149.226329
_cell_angle_gamma 163.405784
_cell_volume 757.800693
_symmetry_space_group_name_H-M "P -1"
_symmetry_group_IT_number 2
_symmetry_cell_setting 'triclinic'
loop_
_space_group_symop_operation_xyz
x,y,z
-x,-y,-z
loop_
_atom_site_type_symbol
_atom_site_label
_atom_site_fract_x
_atom_site_fract_y
_atom_site_fract_z
Si Si1 0.797785 0.763278 0.870770
Si Si2 0.220369 0.282967 0.495869
Si Si3 0.131325 0.453909 0.516761
Si Si4 0.705714 0.256882 0.663833
Si Si5 0.377188 0.222150 0.946599
Si Si6 0.442161 0.748409 0.917096
Si Si7 0.567122 0.296350 0.695356
Si Si8 0.150615 0.754107 0.452160
O O1 0.690740 0.571692 0.751519
O O2 0.819157 0.996599 0.732453
O O3 0.681332 0.488491 0.994898
O O4 0.000000 0.000000 0.000000
O O5 0.215780 0.462227 0.383372
O O6 0.256168 0.189647 0.720925
O O7 0.378359 0.537207 0.461967
O O8 0.031202 0.937313 0.420809
O O9 0.177150 0.585149 0.371205
O O10 0.313771 0.646341 0.705498
O O11 0.085842 0.544479 0.429714
O O12 0.500000 0.000000 0.500000
O O13 0.705680 0.078425 0.881699
O O14 0.500000 0.500000 0.000000
O O15 0.481290 0.302324 0.960999
O O16 0.590922 0.123873 0.876918
O O17 0.353412 0.995184 0.616831
O O18 0.000000 0.500000 0.500000
#
# Coordination Sequence:
#
# PCOD9060214 Si02
#       8
#     2   2   2   2   2   2   2   2
#     4  12  25  41  67 102 136 175 228 284 338 408
#     4  12  24  44  69 103 136 177 225 278 346 402
#     4  11  25  44  68  95 139 178 217 286 341 398
#     4  12  22  46  70  97 136 179 224 278 341 402
#     4  12  25  40  72 101 131 177 231 274 334 416
#     4  11  23  43  67  99 132 181 227 275 339 405
#     4  11  23  45  70  94 137 184 221 280 347 402
#     4  11  24  44  66  95 131 179 228 277 341 404
#
# _framework density 21.113731000000001
#
# number of rings (size 3 to 8) (size 9 to 14) (size 15 to 20)
#    0.000    0.500    3.750    5.625    1.750    2.500 
#    2.250    0.000    0.000    0.000    0.000    0.000 
#    0.000    0.000    0.000    0.000    0.000    0.000 
#
# Total GULP energy -89503.707717 kJ/mol
# GULP energy per Si atom -5593.981732 kJ/mol
# Density = 2.106568 g / cm^3
# Si number density = 21.113731 Si / 1000 Ang^3
#
#
#
# Elastic Constant Matrix: (Units=GPa)
#
#
# Indices 1 2 3 4 5 6 
#
# 1 147.1653 51.2875 34.3784 -18.2906 -7.9969 -14.1934
# 2 51.2875 106.6799 20.6397 -22.6840 2.7484 -23.7822
# 3 34.3784 20.6397 92.0260 -36.9017 -8.4173 -9.8944
# 4 -18.2906 -22.6840 -36.9017 32.5633 -1.1971 2.5504
# 5 -7.9969 2.7484 -8.4173 -1.1971 39.1620 -16.4558
# 6 -14.1934 -23.7822 -9.8944 2.5504 -16.4558 45.7731
#
#
#
# Elastic Compliance Matrix: (Units=1/GPa)
#
#
# Indices 1 2 3 4 5 6 
#
# 1 0.008776 -0.003622 -0.002203 -0.000101 0.002032 0.001099
# 2 -0.003622 0.014545 0.004029 0.012168 0.002665 0.007585
# 3 -0.002203 0.004029 0.023726 0.028142 0.008618 0.008069
# 4 -0.000101 0.012168 0.028142 0.070469 0.012813 0.013054
# 5 0.002032 0.002665 0.008618 0.012813 0.034556 0.015587
# 6 0.001099 0.007585 0.008069 0.013054 0.015587 0.032749
#
#
# Mechanical properties :
#
#
# Convention : Reuss Voigt Hill
#
# Bulk Modulus (GPa) = 23.01114 62.05359 42.53237
# Shear Modulus (GPa) = 24.64311 39.47071 32.05691
#
# Velocity S-wave (km/s) = 3.42008 4.32838 3.90076
# Velocity P-wave (km/s) = 5.14959 7.37793 6.36208
#
# Compressibility (1/GPa) = 0.04345721
#
# Stress axis : x y z
#
# Youngs Moduli (GPa) = 113.95234 68.75180 42.14778
#
# Poissons Ratio (x) = 0.24899 0.09283
# Poissons Ratio (y) = 0.41269 -0.16983
# Poissons Ratio (z) = 0.25099 -0.27703
#
# Static dielectric constant tensor:
#      x y z
#    x 1.775910 0.010770 0.009910 
#    y 0.010770 1.767950 0.000620 
#    z 0.009910 0.000620 1.761840 
# 
# From -- ./inp_files/439241.got.cif
#   From: 2010.05.17/outbox.cif.g08.bks.cpg/sg2_220_cif.got.tgz:439241.got - 2010.06.03 11:33:40.
