data_PCOD9060081
_publ_section_title
;
Structure prediction by ZEFSAII (Michael W. Deem and Ramdas Pophale) SiO2 
 PCOD9060081
Probable space group: P -1
;
_chemical_formula_sum "Si O2"
_cell_formula_units_Z 14
_cell_length_a 13.850479
_cell_length_b 12.815956
_cell_length_c 11.344332
_cell_angle_alpha 120.294992
_cell_angle_beta 20.050077
_cell_angle_gamma 123.431915
_cell_volume 575.545603
_symmetry_space_group_name_H-M "P -1"
_symmetry_group_IT_number 2
_symmetry_cell_setting 'triclinic'
loop_
_space_group_symop_operation_xyz
x,y,z
-x,-y,-z
loop_
_atom_site_type_symbol
_atom_site_label
_atom_site_fract_x
_atom_site_fract_y
_atom_site_fract_z
Si Si1 0.415106 0.293056 0.372513
Si Si2 0.595503 0.905816 0.422432
Si Si3 0.901845 0.130784 0.344088
Si Si4 0.186265 0.008580 0.407627
Si Si5 0.102995 0.595997 0.544906
Si Si6 0.842402 0.335108 0.113901
Si Si7 0.459167 0.511594 0.291542
O O1 0.251071 0.148809 0.463081
O O2 0.714220 0.318171 0.117598
O O3 0.447853 0.368264 0.254594
O O4 0.180115 0.343348 0.744970
O O5 0.337696 0.788939 0.683699
O O6 0.500000 0.000000 0.500000
O O7 0.688131 0.995804 0.479409
O O8 0.845394 0.862409 0.039542
O O9 0.796217 0.257423 0.524381
O O10 0.965693 0.101309 0.388882
O O11 0.000000 0.000000 0.500000
O O12 0.500000 0.000000 0.000000
O O13 0.333197 0.548661 0.333999
O O14 0.000000 0.500000 0.500000
O O15 0.798374 0.582146 0.954956
O O16 0.740015 0.443710 0.358432
#
# Coordination Sequence:
#
# PCOD9060081 Si02
#       7
#     2   2   2   2   2   2   2
#     4  12  26  46  72 104 144 185 232 291 355 425
#     4  11  23  42  76 106 143 180 233 307 360 416
#     4  11  26  46  72 107 141 184 240 297 357 416
#     4  12  29  47  72 102 144 193 237 287 350 430
#     4  12  28  47  71 103 142 192 239 287 344 428
#     4  12  23  45  71 110 139 176 236 295 363 416
#     4  12  26  47  72 105 139 188 234 287 359 418
#
# _framework density 24.324746000000001
#
# number of rings (size 3 to 8) (size 9 to 14) (size 15 to 20)
#    0.000    0.286    2.857    5.571    8.000    0.000 
#    0.000    0.000    0.000    0.000    0.000    0.000 
#    0.000    0.000    0.000    0.000    0.000    0.000 
#
# Total GULP energy -78329.110233 kJ/mol
# GULP energy per Si atom -5594.936445 kJ/mol
# Density = 2.426938 g / cm^3
# Si number density = 24.324746 Si / 1000 Ang^3
#
#
#
# Elastic Constant Matrix: (Units=GPa)
#
#
# Indices 1 2 3 4 5 6 
#
# 1 142.5224 40.3729 -7.1264 9.5173 -10.6092 -31.6081
# 2 40.3729 151.5427 -9.1264 -0.0430 12.0070 -42.3552
# 3 -7.1264 -9.1264 50.1895 10.2540 -8.0302 2.9173
# 4 9.5173 -0.0430 10.2540 32.5638 6.1706 1.7821
# 5 -10.6092 12.0070 -8.0302 6.1706 34.9236 6.0984
# 6 -31.6081 -42.3552 2.9173 1.7821 6.0984 42.1544
#
#
#
# Elastic Compliance Matrix: (Units=1/GPa)
#
#
# Indices 1 2 3 4 5 6 
#
# 1 0.009166 -0.001115 0.002245 -0.004345 0.003532 0.005270
# 2 -0.001115 0.010213 -0.000001 0.000878 -0.005791 0.010227
# 3 0.002245 -0.000001 0.023486 -0.009508 0.007882 -0.000682
# 4 -0.004345 0.000878 -0.009508 0.036973 -0.010021 -0.001832
# 5 0.003532 -0.005791 0.007882 -0.010021 0.036785 -0.008614
# 6 0.005270 0.010227 -0.000682 -0.001832 -0.008614 0.039320
#
#
# Mechanical properties :
#
#
# Convention : Reuss Voigt Hill
#
# Bulk Modulus (GPa) = 22.16127 43.61053 32.88590
# Shear Modulus (GPa) = 29.63358 43.27066 36.45212
#
# Velocity S-wave (km/s) = 3.49413 4.22225 3.87533
# Velocity P-wave (km/s) = 5.04073 6.46043 5.79423
#
# Compressibility (1/GPa) = 0.04512376
#
# Stress axis : x y z
#
# Youngs Moduli (GPa) = 109.09402 97.91353 42.57799
#
# Poissons Ratio (x) = 0.10916 -0.09560
# Poissons Ratio (y) = 0.12162 0.00006
# Poissons Ratio (z) = -0.24494 0.00014
#
# Static dielectric constant tensor:
#      x y z
#    x 1.592280 -0.137460 -0.205550 
#    y -0.137460 1.981550 0.035700 
#    z -0.205550 0.035700 1.848740 
# 
# From -- ./inp_files/68198.got.cif
#   From: 2010.05.17/outbox.cif.g08.bks.cpg/sg2_35_cif.got.tgz:68198.got - 2010.06.03 11:33:40.
