data_PCOD9060940
_publ_section_title
;
Structure prediction by ZEFSAII (Michael W. Deem and Ramdas Pophale) SiO2 
 PCOD9060940
Probable space group: P -1
;
_chemical_formula_sum "Si O2"
_cell_formula_units_Z 16
_cell_length_a 27.157073
_cell_length_b 5.952787
_cell_length_c 12.766418
_cell_angle_alpha 117.695494
_cell_angle_beta 22.227444
_cell_angle_gamma 110.288931
_cell_volume 669.450962
_symmetry_space_group_name_H-M "P -1"
_symmetry_group_IT_number 2
_symmetry_cell_setting 'triclinic'
loop_
_space_group_symop_operation_xyz
x,y,z
-x,-y,-z
loop_
_atom_site_type_symbol
_atom_site_label
_atom_site_fract_x
_atom_site_fract_y
_atom_site_fract_z
Si Si1 0.611077 0.856730 0.994808
Si Si2 0.735524 0.507138 0.164109
Si Si3 0.728011 0.983314 0.579561
Si Si4 0.127072 0.580408 0.914565
Si Si5 0.365670 0.930086 0.784808
Si Si6 0.869756 0.404712 0.435130
Si Si7 0.138219 0.436495 0.279639
Si Si8 0.327211 0.894515 0.512441
O O1 0.472098 0.767764 0.248039
O O2 0.623833 0.050868 0.106363
O O3 0.728912 0.599770 0.726318
O O4 0.639815 0.987048 0.857337
O O5 0.849061 0.394349 0.002334
O O6 0.627695 0.339938 0.346609
O O7 0.695302 0.810057 0.336606
O O8 0.772714 0.464277 0.960136
O O9 0.852376 0.116563 0.381632
O O10 0.653503 0.121209 0.653449
O O11 0.781057 0.684510 0.372955
O O12 0.020528 0.471920 0.812661
O O13 0.192647 0.800643 0.783455
O O14 0.500000 0.000000 0.500000
O O15 0.226736 0.141083 0.068596
O O16 0.889009 0.417949 0.524924
O O17 0.000000 0.500000 0.500000
#
# Coordination Sequence:
#
# PCOD9060940 Si02
#       8
#     2   2   2   2   2   2   2   2
#     4  11  25  45  69 104 139 181 232 293 347 417
#     4  11  23  44  71 100 139 185 229 282 347 420
#     4  11  25  43  71 101 136 186 238 290 348 418
#     4  11  24  45  69 101 138 186 232 291 349 416
#     4  11  25  45  73 106 144 183 230 289 349 422
#     4  11  25  45  70 104 141 181 235 290 354 416
#     4  11  23  44  70 105 140 184 230 283 348 421
#     4  11  26  46  72  99 139 187 237 287 353 418
#
# _framework density 23.900179999999999
#
# number of rings (size 3 to 8) (size 9 to 14) (size 15 to 20)
#    0.000    1.000    1.250    4.500    0.000   12.500 
#    6.750    0.000    0.000    0.000    0.000    0.000 
#    0.000    0.000    0.000    0.000    0.000    0.000 
#
# Total GULP energy -89345.675759 kJ/mol
# GULP energy per Si atom -5584.104735 kJ/mol
# Density = 2.384578 g / cm^3
# Si number density = 23.900180 Si / 1000 Ang^3
#
#
#
# Elastic Constant Matrix: (Units=GPa)
#
#
# Indices 1 2 3 4 5 6 
#
# 1 140.2564 42.3421 35.0936 -13.6947 16.0497 -2.3535
# 2 42.3421 132.0909 25.6637 -16.9993 8.0296 42.9169
# 3 35.0936 25.6637 60.8970 -21.5238 0.0584 7.7610
# 4 -13.6947 -16.9993 -21.5238 27.8916 -2.7647 3.3251
# 5 16.0497 8.0296 0.0584 -2.7647 34.3067 -6.3827
# 6 -2.3535 42.9169 7.7610 3.3251 -6.3827 41.3971
#
#
#
# Elastic Compliance Matrix: (Units=1/GPa)
#
#
# Indices 1 2 3 4 5 6 
#
# 1 0.009966 -0.004175 -0.005821 -0.003118 -0.002848 0.005798
# 2 -0.004175 0.016601 0.001926 0.011412 -0.004633 -0.019440
# 3 -0.005821 0.001926 0.027412 0.020741 0.002263 -0.008783
# 4 -0.003118 0.011412 0.020741 0.059727 -0.000293 -0.020740
# 5 -0.002848 -0.004633 0.002263 -0.000293 0.033281 0.009372
# 6 0.005798 -0.019440 -0.008783 -0.020740 0.009372 0.049397
#
#
# Mechanical properties :
#
#
# Convention : Reuss Voigt Hill
#
# Bulk Modulus (GPa) = 26.42918 59.93813 43.18365
# Shear Modulus (GPa) = 22.20842 36.06208 29.13525
#
# Velocity S-wave (km/s) = 3.05161 3.88862 3.49526
# Velocity P-wave (km/s) = 4.84753 6.73014 5.86487
#
# Compressibility (1/GPa) = 0.03783696
#
# Stress axis : x y z
#
# Youngs Moduli (GPa) = 100.34497 60.23595 36.47981
#
# Poissons Ratio (x) = 0.25151 0.21236
# Poissons Ratio (y) = 0.41898 -0.07024
# Poissons Ratio (z) = 0.58415 -0.11599
#
# Static dielectric constant tensor:
#      x y z
#    x 1.918200 -0.022970 -0.000450 
#    y -0.022970 1.939320 -0.016620 
#    z -0.000450 -0.016620 1.921260 
# 
# From -- ./inp_files/473474.got.cif
#   From: 2010.05.17/outbox.cif.g08.bks.cpg/sg2_237_cif.got.tgz:473474.got - 2010.06.03 11:33:40.
