data_PCOD9060183
_publ_section_title
;
Structure prediction by ZEFSAII (Michael W. Deem and Ramdas Pophale) SiO2 
 PCOD9060183
Probable space group: P -1
;
_chemical_formula_sum "Si O2"
_cell_formula_units_Z 15
_cell_length_a 18.159781
_cell_length_b 11.558134
_cell_length_c 9.557956
_cell_angle_alpha 49.279587
_cell_angle_beta 136.154917
_cell_angle_gamma 151.277048
_cell_volume 666.652274
_symmetry_space_group_name_H-M "P -1"
_symmetry_group_IT_number 2
_symmetry_cell_setting 'triclinic'
loop_
_space_group_symop_operation_xyz
x,y,z
-x,-y,-z
loop_
_atom_site_type_symbol
_atom_site_label
_atom_site_fract_x
_atom_site_fract_y
_atom_site_fract_z
Si Si1 0.516497 0.082877 0.305038
Si Si2 0.852475 0.311102 0.838559
Si Si3 0.867616 0.694268 0.083450
Si Si4 0.962163 0.251184 0.444490
Si Si5 0.035696 0.899015 0.869757
Si Si6 0.000000 0.000000 0.500000
Si Si7 0.658251 0.577538 0.113610
Si Si8 0.675863 0.172069 0.183089
O O1 0.601639 0.341831 0.235047
O O2 0.621617 0.100123 0.327886
O O3 0.500000 0.000000 0.500000
O O4 0.319632 0.873667 0.163665
O O5 0.895191 0.478261 0.641572
O O6 0.873348 0.159595 0.935758
O O7 0.000000 0.500000 0.000000
O O8 0.729530 0.656017 0.991139
O O9 0.776113 0.442493 0.094788
O O10 0.972203 0.742201 0.321355
O O11 0.962357 0.865497 0.943607
O O12 0.797122 0.170961 0.304160
O O13 0.928625 0.073060 0.435822
O O14 0.907724 0.773989 0.666956
O O15 0.176476 0.172791 0.774314
O O16 0.500000 0.500000 0.000000
O O17 0.500000 0.000000 0.000000
#
# Coordination Sequence:
#
# PCOD9060183 Si02
#       8
#     2   2   2   2   2   1   2   2
#     4  11  26  43  68 104 142 184 237 295 362 422
#     4  12  23  42  75 102 139 192 239 289 357 435
#     4  11  25  45  74 106 142 193 246 302 360 432
#     4  12  25  47  74 109 141 189 255 296 353 449
#     4  12  25  45  72 103 142 193 241 298 365 431
#     4  12  28  42  74 104 144 184 244 300 364 424
#     4  11  23  43  67 102 142 183 238 293 359 425
#     4  11  25  44  71 107 148 184 236 304 366 425
#
# _framework density 22.500485000000001
#
# number of rings (size 3 to 8) (size 9 to 14) (size 15 to 20)
#    0.000    0.533    5.333    3.200    1.867    0.000 
#    0.000    0.000    0.000    2.400    0.000    0.000 
#    0.000    0.000    0.000    0.000    0.000    0.000 
#
# Total GULP energy -83524.953738 kJ/mol
# GULP energy per Si atom -5568.330249 kJ/mol
# Density = 2.244927 g / cm^3
# Si number density = 22.500485 Si / 1000 Ang^3
#
#
#
# Elastic Constant Matrix: (Units=GPa)
#
#
# Indices 1 2 3 4 5 6 
#
# 1 211.6384 42.9911 50.9113 -3.6460 15.1366 15.8029
# 2 42.9911 112.3768 32.1219 -11.6968 6.0704 9.4317
# 3 50.9113 32.1219 100.6622 -13.3720 -17.2287 11.9411
# 4 -3.6460 -11.6968 -13.3720 36.5311 7.8886 -9.0002
# 5 15.1366 6.0704 -17.2287 7.8886 47.7489 -1.0768
# 6 15.8029 9.4317 11.9411 -9.0002 -1.0768 38.9422
#
#
#
# Elastic Compliance Matrix: (Units=1/GPa)
#
#
# Indices 1 2 3 4 5 6 
#
# 1 0.005997 -0.001227 -0.003032 -0.000661 -0.002762 -0.001436
# 2 -0.001227 0.010613 -0.002747 0.002618 -0.002400 -0.000692
# 3 -0.003032 -0.002747 0.013846 0.002197 0.005905 -0.001679
# 4 -0.000661 0.002618 0.002197 0.031398 -0.004380 0.006096
# 5 -0.002762 -0.002400 0.005905 -0.004380 0.024968 -0.000431
# 6 -0.001436 -0.000692 -0.001679 0.006096 -0.000431 0.028341
#
#
# Mechanical properties :
#
#
# Convention : Reuss Voigt Hill
#
# Bulk Modulus (GPa) = 60.80978 75.19179 68.00078
# Shear Modulus (GPa) = 37.13129 44.55467 40.84298
#
# Velocity S-wave (km/s) = 4.06673 4.45473 4.26514
# Velocity P-wave (km/s) = 7.00968 7.74273 7.38531
#
# Compressibility (1/GPa) = 0.01644472
#
# Stress axis : x y z
#
# Youngs Moduli (GPa) = 166.75150 94.22060 72.22264
#
# Poissons Ratio (x) = 0.11558 0.21897
# Poissons Ratio (y) = 0.20455 0.19842
# Poissons Ratio (z) = 0.50557 0.25885
#
# Static dielectric constant tensor:
#      x y z
#    x 1.741830 0.159240 0.234000 
#    y 0.159240 2.122480 0.028690 
#    z 0.234000 0.028690 1.689330 
# 
# From -- ./inp_files/332947.got.cif
#   From: 2010.05.17/outbox.cif.g08.bks.cpg/sg2_167_cif.got.tgz:332947.got - 2010.06.03 11:33:40.
