data_PCOD9060802
_publ_section_title
;
Structure prediction by ZEFSAII (Michael W. Deem and Ramdas Pophale) SiO2 
 PCOD9060802
Probable space group: P -1
;
_chemical_formula_sum "Si O2"
_cell_formula_units_Z 14
_cell_length_a 13.139930
_cell_length_b 7.712844
_cell_length_c 12.782734
_cell_angle_alpha 78.995704
_cell_angle_beta 34.746960
_cell_angle_gamma 99.914583
_cell_volume 586.202129
_symmetry_space_group_name_H-M "P -1"
_symmetry_group_IT_number 2
_symmetry_cell_setting 'triclinic'
loop_
_space_group_symop_operation_xyz
x,y,z
-x,-y,-z
loop_
_atom_site_type_symbol
_atom_site_label
_atom_site_fract_x
_atom_site_fract_y
_atom_site_fract_z
Si Si1 0.421284 0.267577 0.958685
Si Si2 0.828911 0.322847 0.891850
Si Si3 0.708669 0.285560 0.555926
Si Si4 0.557217 0.119534 0.326490
Si Si5 0.634272 0.764913 0.761040
Si Si6 0.622244 0.620556 0.490142
Si Si7 0.997991 0.046449 0.742758
O O1 0.581989 0.212651 0.781475
O O2 0.573554 0.524218 0.824066
O O3 0.306194 0.159608 0.178544
O O4 0.226305 0.194661 0.048334
O O5 0.902874 0.188388 0.785949
O O6 0.029165 0.573860 0.678230
O O7 0.791206 0.242684 0.054579
O O8 0.597755 0.270395 0.058506
O O9 0.655831 0.452805 0.538148
O O10 0.603231 0.084700 0.590267
O O11 0.523105 0.309556 0.343739
O O12 0.500000 0.000000 0.500000
O O13 0.829583 0.910183 0.497041
O O14 0.500000 0.500000 0.500000
O O15 0.863616 0.855504 0.277134
#
# Coordination Sequence:
#
# PCOD9060802 Si02
#       7
#     2   2   2   2   2   2   2
#     4  11  23  44  68 101 138 186 230 284 349 419
#     4  11  24  44  67  99 140 180 228 299 335 414
#     4  11  24  46  67 102 147 178 236 288 346 423
#     4  12  24  44  71 100 133 187 238 278 360 419
#     4  11  24  43  70 100 141 184 233 286 351 407
#     4  11  23  46  69 100 142 175 230 301 342 409
#     4  11  23  45  68  98 141 180 231 291 342 416
#
# _framework density 23.882546000000001
#
# number of rings (size 3 to 8) (size 9 to 14) (size 15 to 20)
#    0.000    0.857    7.143    0.429    2.000    1.714 
#    0.000    3.571    0.000    0.000    0.000    0.000 
#    0.000    0.000    0.000    0.000    0.000    0.000 
#
# Total GULP energy -78119.458305 kJ/mol
# GULP energy per Si atom -5579.961307 kJ/mol
# Density = 2.382819 g / cm^3
# Si number density = 23.882546 Si / 1000 Ang^3
#
#
#
# Elastic Constant Matrix: (Units=GPa)
#
#
# Indices 1 2 3 4 5 6 
#
# 1 55.6804 32.7158 26.4512 12.1536 -4.9871 21.2200
# 2 32.7158 146.7118 40.4925 11.7250 0.9294 19.8059
# 3 26.4512 40.4925 153.8288 9.3853 -11.5369 20.9395
# 4 12.1536 11.7250 9.3853 41.8760 -0.2119 -9.1188
# 5 -4.9871 0.9294 -11.5369 -0.2119 25.7022 -4.3270
# 6 21.2200 19.8059 20.9395 -9.1188 -4.3270 43.8933
#
#
#
# Elastic Compliance Matrix: (Units=1/GPa)
#
#
# Indices 1 2 3 4 5 6 
#
# 1 0.027900 -0.003322 -0.001350 -0.009704 0.002642 -0.013101
# 2 -0.003322 0.008346 -0.001408 -0.001500 -0.001926 -0.001990
# 3 -0.001350 -0.001408 0.007736 -0.001462 0.002841 -0.002426
# 4 -0.009704 -0.001500 -0.001462 0.030124 -0.000165 0.012308
# 5 0.002642 -0.001926 0.002841 -0.000165 0.041143 0.002258
# 6 -0.013101 -0.001990 -0.002426 0.012308 0.002258 0.033951
#
#
# Mechanical properties :
#
#
# Convention : Reuss Voigt Hill
#
# Bulk Modulus (GPa) = 31.42243 61.72665 46.57454
# Shear Modulus (GPa) = 29.07540 39.39840 34.23690
#
# Velocity S-wave (km/s) = 3.49296 4.06602 3.79034
# Velocity P-wave (km/s) = 5.42709 6.92426 6.22088
#
# Compressibility (1/GPa) = 0.03182440
#
# Stress axis : x y z
#
# Youngs Moduli (GPa) = 35.84197 119.81635 129.26729
#
# Poissons Ratio (x) = 0.39799 0.17445
# Poissons Ratio (y) = 0.11905 0.18198
# Poissons Ratio (z) = 0.04837 0.16867
#
# Static dielectric constant tensor:
#      x y z
#    x 2.032940 -0.007970 0.036210 
#    y -0.007970 1.933120 -0.027580 
#    z 0.036210 -0.027580 1.930600 
# 
# From -- ./inp_files/529751.got.cif
#   From: 2010.05.17/outbox.cif.g08.bks.cpg/sg2_265_cif.got.tgz:529751.got - 2010.06.03 11:33:40.
