data_PCOD9060683
_publ_section_title
;
Structure prediction by ZEFSAII (Michael W. Deem and Ramdas Pophale) SiO2 
 PCOD9060683
Probable space group: P -1
;
_chemical_formula_sum "Si O2"
_cell_formula_units_Z 11
_cell_length_a 12.191574
_cell_length_b 8.864308
_cell_length_c 8.670293
_cell_angle_alpha 59.837530
_cell_angle_beta 69.043608
_cell_angle_gamma 117.548230
_cell_volume 458.548266
_symmetry_space_group_name_H-M "P -1"
_symmetry_group_IT_number 2
_symmetry_cell_setting 'triclinic'
loop_
_space_group_symop_operation_xyz
x,y,z
-x,-y,-z
loop_
_atom_site_type_symbol
_atom_site_label
_atom_site_fract_x
_atom_site_fract_y
_atom_site_fract_z
Si Si1 0.327288 0.390322 0.550557
Si Si2 0.000000 0.500000 0.000000
Si Si3 0.010101 0.258029 0.878837
Si Si4 0.512236 0.842463 0.969065
Si Si5 0.212150 0.442817 0.080006
Si Si6 0.126685 0.956008 0.293863
O O1 0.500000 0.500000 0.500000
O O2 0.407499 0.566152 0.262749
O O3 0.222904 0.423687 0.678364
O O4 0.149756 0.046880 0.791557
O O5 0.020954 0.585783 0.124770
O O6 0.130143 0.477631 0.976804
O O7 0.939336 0.158001 0.788256
O O8 0.407832 0.738556 0.911252
O O9 0.726667 0.023544 0.744312
O O10 0.500000 0.000000 0.000000
O O11 0.229699 0.266848 0.097072
O O12 0.054442 0.248937 0.396103
#
# Coordination Sequence:
#
# PCOD9060683 Si02
#       6
#     2   1   2   2   2   2
#     4  11  23  43  76 100 142 188 233 280 360 417
#     4  12  28  44  74 106 138 184 244 290 346 412
#     4  11  24  47  72 103 139 185 231 291 348 415
#     4  12  26  44  72 110 140 186 233 293 347 417
#     4  11  26  47  70 106 140 189 236 286 348 423
#     4  11  24  49  76  97 144 190 231 286 360 415
#
# _framework density 23.988752999999999
#
# number of rings (size 3 to 8) (size 9 to 14) (size 15 to 20)
#    0.000    0.727    3.636    3.818    5.091    1.455 
#    0.000    1.818    0.000    0.000    0.000    0.000 
#    0.000    0.000    0.000    0.000    0.000    0.000 
#
# Total GULP energy -61369.694576 kJ/mol
# GULP energy per Si atom -5579.063143 kJ/mol
# Density = 2.393415 g / cm^3
# Si number density = 23.988753 Si / 1000 Ang^3
#
#
#
# Elastic Constant Matrix: (Units=GPa)
#
#
# Indices 1 2 3 4 5 6 
#
# 1 121.3301 44.5153 -8.7756 -19.6741 -23.1494 -13.7145
# 2 44.5153 142.7682 -1.8450 10.4406 -22.5111 -30.0707
# 3 -8.7756 -1.8450 66.8008 7.2534 -5.5410 -5.1417
# 4 -19.6741 10.4406 7.2534 11.8098 2.1780 -10.4339
# 5 -23.1494 -22.5111 -5.5410 2.1780 45.3094 15.4214
# 6 -13.7145 -30.0707 -5.1417 -10.4339 15.4214 46.4181
#
#
#
# Elastic Compliance Matrix: (Units=1/GPa)
#
#
# Indices 1 2 3 4 5 6 
#
# 1 0.022002 -0.008299 -0.002650 0.058346 -0.000854 0.014230
# 2 -0.008299 0.011891 0.002517 -0.028665 0.004131 -0.002286
# 3 -0.002650 0.002517 0.017033 -0.020769 0.004100 -0.003296
# 4 0.058346 -0.028665 -0.020769 0.284740 -0.023910 0.068316
# 5 -0.000854 0.004131 0.004100 -0.023910 0.029526 -0.012306
# 6 0.014230 -0.002286 -0.003296 0.068316 -0.012306 0.043346
#
#
# Mechanical properties :
#
#
# Convention : Reuss Voigt Hill
#
# Bulk Modulus (GPa) = 29.35733 44.29872 36.82802
# Shear Modulus (GPa) = 11.44811 40.50777 25.97794
#
# Velocity S-wave (km/s) = 2.18693 4.11373 3.29435
# Velocity P-wave (km/s) = 4.31757 6.40861 5.46405
#
# Compressibility (1/GPa) = 0.03406305
#
# Stress axis : x y z
#
# Youngs Moduli (GPa) = 45.45124 84.09990 58.71000
#
# Poissons Ratio (x) = 0.69792 0.15557
# Poissons Ratio (y) = 0.37719 -0.14780
# Poissons Ratio (z) = 0.12043 -0.21171
#
# Static dielectric constant tensor:
#      x y z
#    x 1.853460 0.017940 -0.038400 
#    y 0.017940 1.983770 -0.025190 
#    z -0.038400 -0.025190 1.824210 
# 
# From -- ./inp_files/166837.got.cif
#   From: 2010.05.17/outbox.cif.g08.bks.cpg/sg2_84_cif.got.tgz:166837.got - 2010.06.03 11:33:40.
