data_PCOD9060159
_publ_section_title
;
Structure prediction by ZEFSAII (Michael W. Deem and Ramdas Pophale) SiO2 
 PCOD9060159
Probable space group: P -1
;
_chemical_formula_sum "Si O2"
_cell_formula_units_Z 14
_cell_length_a 15.180017
_cell_length_b 14.476966
_cell_length_c 6.069258
_cell_angle_alpha 90.751480
_cell_angle_beta 101.060787
_cell_angle_gamma 27.257271
_cell_volume 561.532255
_symmetry_space_group_name_H-M "P -1"
_symmetry_group_IT_number 2
_symmetry_cell_setting 'triclinic'
loop_
_space_group_symop_operation_xyz
x,y,z
-x,-y,-z
loop_
_atom_site_type_symbol
_atom_site_label
_atom_site_fract_x
_atom_site_fract_y
_atom_site_fract_z
Si Si1 0.397125 0.186143 0.346504
Si Si2 0.805453 0.786749 0.360856
Si Si3 0.157180 0.793895 0.218242
Si Si4 0.561649 0.694716 0.269519
Si Si5 0.823880 0.956444 0.215588
Si Si6 0.870806 0.528827 0.154361
Si Si7 0.449444 0.667643 0.584426
O O1 0.412675 0.249301 0.536347
O O2 0.500000 0.000000 0.500000
O O3 0.566893 0.040196 0.230188
O O4 0.181019 0.396391 0.118592
O O5 0.919804 0.766258 0.301127
O O6 0.818133 0.672070 0.269892
O O7 0.896027 0.705779 0.651053
O O8 0.278693 0.749543 0.440714
O O9 0.355862 0.556605 0.192804
O O10 0.007334 0.857654 0.256572
O O11 0.000000 0.000000 0.000000
O O12 0.733857 0.567034 0.167068
O O13 0.558797 0.604428 0.411355
O O14 0.331991 0.907410 0.060139
O O15 0.678366 0.133688 0.346028
#
# Coordination Sequence:
#
# PCOD9060159 Si02
#       7
#     2   2   2   2   2   2   2
#     4  12  23  42  66  94 139 184 227 282 339 401
#     4  11  23  43  66  98 136 182 230 282 342 398
#     4  11  25  49  73 102 138 179 226 287 355 421
#     4  12  22  44  68  99 136 180 231 282 338 405
#     4  12  24  47  73 103 141 182 231 290 343 414
#     4  11  24  43  65  98 140 184 232 283 335 407
#     4  11  25  47  73 104 137 178 232 285 350 415
#
# _framework density 24.931781999999998
#
# number of rings (size 3 to 8) (size 9 to 14) (size 15 to 20)
#    0.000    0.571    5.714    2.571    0.000    1.143 
#   15.429    0.000    0.000    0.000    0.000    0.000 
#    0.000    0.000    0.000    0.000    0.000    0.000 
#
# Total GULP energy -78194.177453 kJ/mol
# GULP energy per Si atom -5585.298390 kJ/mol
# Density = 2.487504 g / cm^3
# Si number density = 24.931782 Si / 1000 Ang^3
#
#
#
# Elastic Constant Matrix: (Units=GPa)
#
#
# Indices 1 2 3 4 5 6 
#
# 1 177.8283 31.7496 48.0679 -16.6366 3.8972 -12.3657
# 2 31.7496 99.2584 26.3864 -29.0831 11.9431 -14.4001
# 3 48.0679 26.3864 129.7164 -39.9378 12.7018 -5.3142
# 4 -16.6366 -29.0831 -39.9378 40.8072 3.3557 5.2579
# 5 3.8972 11.9431 12.7018 3.3557 36.0592 0.5356
# 6 -12.3657 -14.4001 -5.3142 5.2579 0.5356 32.2828
#
#
#
# Elastic Compliance Matrix: (Units=1/GPa)
#
#
# Indices 1 2 3 4 5 6 
#
# 1 0.006569 -0.001667 -0.002481 -0.001204 0.000805 0.001547
# 2 -0.001667 0.015066 0.002130 0.012108 -0.006755 0.004572
# 3 -0.002481 0.002130 0.013069 0.013816 -0.006327 0.000006
# 4 -0.001204 0.012108 0.013816 0.047282 -0.013143 -0.000268
# 5 0.000805 -0.006755 -0.006327 -0.013143 0.033366 -0.002159
# 6 0.001547 0.004572 0.000006 -0.000268 -0.002159 0.033689
#
#
# Mechanical properties :
#
#
# Convention : Reuss Voigt Hill
#
# Bulk Modulus (GPa) = 32.60825 68.80121 50.70473
# Shear Modulus (GPa) = 30.61873 41.86978 36.24425
#
# Velocity S-wave (km/s) = 3.50823 4.10246 3.81693
# Velocity P-wave (km/s) = 5.43301 7.07785 6.30926
#
# Compressibility (1/GPa) = 0.03066709
#
# Stress axis : x y z
#
# Youngs Moduli (GPa) = 152.23045 66.37654 76.51743
#
# Poissons Ratio (x) = 0.11063 0.18986
# Poissons Ratio (y) = 0.25373 -0.16296
# Poissons Ratio (z) = 0.37772 -0.14137
#
# Static dielectric constant tensor:
#      x y z
#    x 2.082530 -0.054290 -0.101000 
#    y -0.054290 1.995340 0.050820 
#    z -0.101000 0.050820 1.984700 
# 
# From -- ./inp_files/98144.got.cif
#   From: 2010.05.17/outbox.cif.g08.bks.cpg/sg2_50_cif.got.tgz:98144.got - 2010.06.03 11:33:40.
