data_PCOD9060706
_publ_section_title
;
Structure prediction by ZEFSAII (Michael W. Deem and Ramdas Pophale) SiO2 
 PCOD9060706
Probable space group: P -1
;
_chemical_formula_sum "Si O2"
_cell_formula_units_Z 14
_cell_length_a 12.983690
_cell_length_b 8.498515
_cell_length_c 8.794179
_cell_angle_alpha 131.234284
_cell_angle_beta 122.576896
_cell_angle_gamma 75.359020
_cell_volume 606.886968
_symmetry_space_group_name_H-M "P -1"
_symmetry_group_IT_number 2
_symmetry_cell_setting 'triclinic'
loop_
_space_group_symop_operation_xyz
x,y,z
-x,-y,-z
loop_
_atom_site_type_symbol
_atom_site_label
_atom_site_fract_x
_atom_site_fract_y
_atom_site_fract_z
Si Si1 0.374990 0.916099 0.258589
Si Si2 0.665608 0.016319 0.085487
Si Si3 0.985948 0.761746 0.899049
Si Si4 0.735951 0.688179 0.500528
Si Si5 0.199664 0.502935 0.879480
Si Si6 0.462723 0.630407 0.697525
Si Si7 0.914269 0.857227 0.222007
O O1 0.500000 0.000000 0.500000
O O2 0.281709 0.071712 0.335932
O O3 0.381458 0.937018 0.092955
O O4 0.320383 0.677816 0.109379
O O5 0.635939 0.204619 0.290407
O O6 0.807547 0.988661 0.167164
O O7 0.585938 0.796161 0.940743
O O8 0.848292 0.647392 0.672194
O O9 0.088947 0.633954 0.836829
O O10 0.992677 0.788862 0.102136
O O11 0.000000 0.000000 0.000000
O O12 0.774426 0.640945 0.332326
O O13 0.607649 0.540488 0.350313
O O14 0.155604 0.353939 0.889385
O O15 0.500000 0.500000 0.500000
O O16 0.000000 0.000000 0.500000
#
# Coordination Sequence:
#
# PCOD9060706 Si02
#       7
#     2   2   2   2   2   2   2
#     4  12  27  48  77 109 149 196 252 305 368 450
#     4  11  25  50  71 109 151 191 249 305 370 442
#     4  12  24  50  78 107 150 195 249 307 373 441
#     4  12  25  46  80 108 148 200 248 305 379 437
#     4  12  28  48  72 115 149 196 248 312 370 445
#     4  11  23  43  78 106 141 200 246 303 370 439
#     4  12  28  49  77 113 151 196 250 308 372 449
#
# _framework density 23.068546999999999
#
# number of rings (size 3 to 8) (size 9 to 14) (size 15 to 20)
#    0.000    0.286    5.714    1.714    4.000    4.000 
#    2.571    0.000    0.000    0.000    0.000    0.000 
#    0.000    0.000    0.000    0.000    0.000    0.000 
#
# Total GULP energy -78377.875063 kJ/mol
# GULP energy per Si atom -5598.419647 kJ/mol
# Density = 2.301604 g / cm^3
# Si number density = 23.068547 Si / 1000 Ang^3
#
#
#
# Elastic Constant Matrix: (Units=GPa)
#
#
# Indices 1 2 3 4 5 6 
#
# 1 109.3502 20.0537 24.3903 1.8968 -22.5604 3.4648
# 2 20.0537 69.7812 23.2561 9.6967 -1.2812 15.8096
# 3 24.3903 23.2561 93.9091 4.4053 2.4452 8.4018
# 4 1.8968 9.6967 4.4053 36.3160 -11.6672 1.9781
# 5 -22.5604 -1.2812 2.4452 -11.6672 55.9736 3.0212
# 6 3.4648 15.8096 8.4018 1.9781 3.0212 54.2358
#
#
#
# Elastic Compliance Matrix: (Units=1/GPa)
#
#
# Indices 1 2 3 4 5 6 
#
# 1 0.011160 -0.002581 -0.002489 0.001998 0.004960 0.000076
# 2 -0.002581 0.017652 -0.003084 -0.004350 -0.001177 -0.004279
# 3 -0.002489 -0.003084 0.012218 -0.001067 -0.001792 -0.000696
# 4 0.001998 -0.004350 -0.001067 0.031061 0.007239 -0.000231
# 5 0.004960 -0.001177 -0.001792 0.007239 0.021487 -0.001157
# 6 0.000076 -0.004279 -0.000696 -0.000231 -0.001157 0.019861
#
#
# Mechanical properties :
#
#
# Convention : Reuss Voigt Hill
#
# Bulk Modulus (GPa) = 40.44964 45.38229 42.91596
# Shear Modulus (GPa) = 36.23537 42.99444 39.61491
#
# Velocity S-wave (km/s) = 3.96759 4.32182 4.14849
# Velocity P-wave (km/s) = 6.20980 6.67980 6.44908
#
# Compressibility (1/GPa) = 0.02472210
#
# Stress axis : x y z
#
# Youngs Moduli (GPa) = 89.60831 56.65020 81.84921
#
# Poissons Ratio (x) = 0.14623 0.20371
# Poissons Ratio (y) = 0.23131 0.25238
# Poissons Ratio (z) = 0.22302 0.17468
#
# Static dielectric constant tensor:
#      x y z
#    x 1.850930 -0.017180 0.036010 
#    y -0.017180 1.886090 -0.019540 
#    z 0.036010 -0.019540 1.885000 
# 
# From -- ./inp_files/246204.got.cif
#   From: 2010.05.17/outbox.cif.g08.bks.cpg/sg2_124_cif.got.tgz:246204.got - 2010.06.03 11:33:40.
