data_PCOD9060042
_publ_section_title
;
Structure prediction by ZEFSAII (Michael W. Deem and Ramdas Pophale) SiO2 
 PCOD9060042
Probable space group: P -1
;
_chemical_formula_sum "Si O2"
_cell_formula_units_Z 14
_cell_length_a 11.890305
_cell_length_b 11.892839
_cell_length_c 8.088963
_cell_angle_alpha 116.359029
_cell_angle_beta 38.628723
_cell_angle_gamma 133.917771
_cell_volume 502.044669
_symmetry_space_group_name_H-M "P -1"
_symmetry_group_IT_number 2
_symmetry_cell_setting 'triclinic'
loop_
_space_group_symop_operation_xyz
x,y,z
-x,-y,-z
loop_
_atom_site_type_symbol
_atom_site_label
_atom_site_fract_x
_atom_site_fract_y
_atom_site_fract_z
Si Si1 0.549176 0.344121 0.165748
Si Si2 0.300532 0.029001 0.025445
Si Si3 0.150862 0.706821 0.039818
Si Si4 0.307928 0.736786 0.502869
Si Si5 0.183281 0.134411 0.698933
Si Si6 0.298366 0.446078 0.373252
Si Si7 0.002296 0.199179 0.265849
O O1 0.784409 0.378189 0.966575
O O2 0.407581 0.289156 0.462370
O O3 0.520125 0.463627 0.186831
O O4 0.406416 0.182429 0.116187
O O5 0.458692 0.099044 0.725480
O O6 0.282571 0.891221 0.054524
O O7 0.041681 0.940426 0.203752
O O8 0.237096 0.723153 0.765689
O O9 0.880299 0.612994 0.308384
O O10 0.336124 0.599936 0.356406
O O11 0.110625 0.721602 0.616281
O O12 0.197186 0.989531 0.592578
O O13 0.135752 0.180141 0.957434
O O14 0.157996 0.300231 0.308856
#
# Coordination Sequence:
#
# PCOD9060042 Si02
#       7
#     2   2   2   2   2   2   2
#     4  12  25  44  72 104 140 179 232 286 345 412
#     4  12  23  46  71 106 137 178 236 292 341 403
#     4  12  26  46  74 101 139 183 238 283 345 408
#     4  12  27  45  69 103 144 183 231 282 349 415
#     4  11  23  42  74 106 135 180 232 296 342 399
#     4  12  26  49  69 102 145 187 224 284 348 420
#     4  11  23  43  72 100 139 180 233 286 347 399
#
# _framework density 27.885964000000001
#
# number of rings (size 3 to 8) (size 9 to 14) (size 15 to 20)
#    0.000    0.286    4.286    4.714    4.000    1.143 
#    2.571    0.000    0.000    0.000    0.000    0.000 
#    0.000    0.000    0.000    0.000    0.000    0.000 
#
# Total GULP energy -78643.985345 kJ/mol
# GULP energy per Si atom -5617.427525 kJ/mol
# Density = 2.782249 g / cm^3
# Si number density = 27.885964 Si / 1000 Ang^3
#
#
#
# Elastic Constant Matrix: (Units=GPa)
#
#
# Indices 1 2 3 4 5 6 
#
# 1 126.7613 34.4019 21.9584 17.3714 -27.0601 -30.6107
# 2 34.4019 174.0442 21.7217 16.3791 -8.8322 -34.6103
# 3 21.9584 21.7217 113.8889 -2.4093 4.0287 -10.9234
# 4 17.3714 16.3791 -2.4093 43.9924 0.4519 -4.3352
# 5 -27.0601 -8.8322 4.0287 0.4519 39.3376 16.8993
# 6 -30.6107 -34.6103 -10.9234 -4.3352 16.8993 53.4523
#
#
#
# Elastic Compliance Matrix: (Units=1/GPa)
#
#
# Indices 1 2 3 4 5 6 
#
# 1 0.011087 -0.000600 -0.002026 -0.004015 0.006367 0.003208
# 2 -0.000600 0.006919 -0.000853 -0.001993 -0.000442 0.003941
# 3 -0.002026 -0.000853 0.009621 0.001816 -0.003198 0.001412
# 4 -0.004015 -0.001993 0.001816 0.025195 -0.003680 -0.000012
# 5 0.006367 -0.000442 -0.003198 -0.003680 0.033600 -0.008215
# 6 0.003208 0.003941 0.001412 -0.000012 -0.008215 0.025982
#
#
# Mechanical properties :
#
#
# Convention : Reuss Voigt Hill
#
# Bulk Modulus (GPa) = 48.37783 63.42871 55.90327
# Shear Modulus (GPa) = 39.60405 49.79730 44.70067
#
# Velocity S-wave (km/s) = 3.77266 4.23040 4.00807
# Velocity P-wave (km/s) = 6.03021 6.83058 6.44283
#
# Compressibility (1/GPa) = 0.02067063
#
# Stress axis : x y z
#
# Youngs Moduli (GPa) = 90.19913 144.52083 103.94305
#
# Poissons Ratio (x) = 0.08667 0.21055
# Poissons Ratio (y) = 0.05409 0.08863
# Poissons Ratio (z) = 0.18271 0.12323
#
# Static dielectric constant tensor:
#      x y z
#    x 2.146950 -0.047610 0.024040 
#    y -0.047610 2.138660 0.022660 
#    z 0.024040 0.022660 2.171530 
# 
# From -- ./inp_files/259323.got.cif
#   From: 2010.05.17/outbox.cif.g08.bks.cpg/sg2_130_cif.got.tgz:259323.got - 2010.06.03 11:33:40.
