data_PCOD9060699
_publ_section_title
;
Structure prediction by ZEFSAII (Michael W. Deem and Ramdas Pophale) SiO2 
 PCOD9060699
Probable space group: P -1
;
_chemical_formula_sum "Si O2"
_cell_formula_units_Z 16
_cell_length_a 11.470843
_cell_length_b 10.059695
_cell_length_c 15.121741
_cell_angle_alpha 62.627772
_cell_angle_beta 74.266014
_cell_angle_gamma 127.961693
_cell_volume 747.077924
_symmetry_space_group_name_H-M "P -1"
_symmetry_group_IT_number 2
_symmetry_cell_setting 'triclinic'
loop_
_space_group_symop_operation_xyz
x,y,z
-x,-y,-z
loop_
_atom_site_type_symbol
_atom_site_label
_atom_site_fract_x
_atom_site_fract_y
_atom_site_fract_z
Si Si1 0.151836 0.012737 0.249262
Si Si2 0.885144 0.280418 0.513943
Si Si3 0.988370 0.672941 0.862474
Si Si4 0.745434 0.644786 0.158425
Si Si5 0.721450 0.351651 0.830095
Si Si6 0.510637 0.408860 0.904479
Si Si7 0.738142 0.729915 0.327100
Si Si8 0.672465 0.248359 0.221707
O O1 0.275631 0.298615 0.168376
O O2 0.142924 0.907144 0.372151
O O3 0.322281 0.136477 0.096751
O O4 0.898957 0.775425 0.327603
O O5 0.000000 0.500000 0.500000
O O6 0.077553 0.480033 0.333994
O O7 0.617616 0.056512 0.616071
O O8 0.199001 0.772261 0.780701
O O9 0.865630 0.541583 0.832278
O O10 0.104462 0.948397 0.795476
O O11 0.773255 0.394501 0.058464
O O12 0.604304 0.573907 0.129068
O O13 0.651603 0.585462 0.292609
O O14 0.762243 0.485314 0.189523
O O15 0.000000 0.000000 0.000000
O O16 0.596100 0.377052 0.826776
O O17 0.500000 0.000000 0.000000
O O18 0.500000 0.500000 0.500000
#
# Coordination Sequence:
#
# PCOD9060699 Si02
#       8
#     2   2   2   2   2   2   2   2
#     4  11  23  45  71 102 138 185 232 295 348 416
#     4  12  28  46  71 103 141 185 238 293 356 422
#     4  11  25  48  71 103 144 186 236 293 357 419
#     4  12  24  44  71 108 141 191 236 287 357 422
#     4  12  28  46  72 102 140 186 238 292 357 425
#     4  11  23  43  76  99 140 182 239 289 351 415
#     4  12  28  44  70 106 149 187 237 292 352 420
#     4  11  25  46  74 103 143 185 236 296 353 424
#
# _framework density 21.416775999999999
#
# number of rings (size 3 to 8) (size 9 to 14) (size 15 to 20)
#    0.000    0.500    5.000    2.250    7.000    2.000 
#    0.000    0.000    0.000    0.000    0.000    0.000 
#    0.000    0.000    0.000    0.000    0.000    0.000 
#
# Total GULP energy -89356.323094 kJ/mol
# GULP energy per Si atom -5584.770193 kJ/mol
# Density = 2.136803 g / cm^3
# Si number density = 21.416776 Si / 1000 Ang^3
#
#
#
# Elastic Constant Matrix: (Units=GPa)
#
#
# Indices 1 2 3 4 5 6 
#
# 1 75.7706 18.5407 25.4060 2.5680 -10.8563 -7.8864
# 2 18.5407 105.6195 28.5221 13.9489 -8.3204 -8.3874
# 3 25.4060 28.5221 126.0214 16.3619 -30.1664 3.4304
# 4 2.5680 13.9489 16.3619 40.4152 3.1160 -3.3458
# 5 -10.8563 -8.3204 -30.1664 3.1160 27.8213 9.3886
# 6 -7.8864 -8.3874 3.4304 -3.3458 9.3886 30.6645
#
#
#
# Elastic Compliance Matrix: (Units=1/GPa)
#
#
# Indices 1 2 3 4 5 6 
#
# 1 0.014967 -0.001685 -0.002488 0.000802 0.001429 0.003317
# 2 -0.001685 0.010804 -0.001785 -0.002712 0.000137 0.002384
# 3 -0.002488 -0.001785 0.014262 -0.007110 0.017772 -0.008941
# 4 0.000802 -0.002712 -0.007110 0.030264 -0.014273 0.007932
# 5 0.001429 0.000137 0.017772 -0.014273 0.065208 -0.023106
# 6 0.003317 0.002384 -0.008941 0.007932 -0.023106 0.043056
#
#
# Mechanical properties :
#
#
# Convention : Reuss Voigt Hill
#
# Bulk Modulus (GPa) = 35.56853 50.26100 42.91476
# Shear Modulus (GPa) = 25.01860 35.44307 30.23083
#
# Velocity S-wave (km/s) = 3.42157 4.07248 3.76113
# Velocity P-wave (km/s) = 5.67920 6.75518 6.24043
#
# Compressibility (1/GPa) = 0.02811474
#
# Stress axis : x y z
#
# Youngs Moduli (GPa) = 66.81244 92.55617 70.11822
#
# Poissons Ratio (x) = 0.15600 0.17447
# Poissons Ratio (y) = 0.11261 0.12519
# Poissons Ratio (z) = 0.16625 0.16526
#
# Static dielectric constant tensor:
#      x y z
#    x 1.824350 -0.092010 0.006850 
#    y -0.092010 1.822160 0.000810 
#    z 0.006850 0.000810 1.796610 
# 
# From -- ./inp_files/515358.got.cif
#   From: 2010.05.17/outbox.cif.g08.bks.cpg/sg2_258_cif.got.tgz:515358.got - 2010.06.03 11:33:40.
