data_PCOD9060001
_publ_section_title
;
Structure prediction by ZEFSAII (Michael W. Deem and Ramdas Pophale) SiO2 
 PCOD9060001
Probable space group: P -1
;
_chemical_formula_sum "Si O2"
_cell_formula_units_Z 16
_cell_length_a 11.783475
_cell_length_b 9.365694
_cell_length_c 12.108733
_cell_angle_alpha 45.828131
_cell_angle_beta 59.911529
_cell_angle_gamma 54.517800
_cell_volume 769.678279
_symmetry_space_group_name_H-M "P -1"
_symmetry_group_IT_number 2
_symmetry_cell_setting 'triclinic'
loop_
_space_group_symop_operation_xyz
x,y,z
-x,-y,-z
loop_
_atom_site_type_symbol
_atom_site_label
_atom_site_fract_x
_atom_site_fract_y
_atom_site_fract_z
Si Si1 0.951256 0.323275 0.060918
Si Si2 0.411117 0.289369 0.843157
Si Si3 0.252589 0.459056 0.140660
Si Si4 0.972872 0.480614 0.395438
Si Si5 0.659435 0.253096 0.894093
Si Si6 0.212718 0.220868 0.837064
Si Si7 0.650101 0.964451 0.788155
Si Si8 0.893051 0.087842 0.675480
O O1 0.975457 0.120772 0.236225
O O2 0.070028 0.225440 0.962001
O O3 0.000000 0.500000 0.000000
O O4 0.803835 0.433070 0.009956
O O5 0.512208 0.352020 0.844333
O O6 0.267673 0.384323 0.790895
O O7 0.519084 0.185027 0.744872
O O8 0.362370 0.135497 0.031252
O O9 0.112167 0.467798 0.268452
O O10 0.325084 0.587415 0.107734
O O11 0.348299 0.212288 0.204755
O O12 0.000000 0.500000 0.500000
O O13 0.838037 0.682895 0.309648
O O14 0.941394 0.267098 0.505356
O O15 0.786571 0.196981 0.772077
O O16 0.681000 0.025585 0.066319
O O17 0.795324 0.003211 0.692745
#
# Coordination Sequence:
#
# PCOD9060001 Si02
#       8
#     2   2   2   2   2   2   2   2
#     4  10  18  33  57  85 113 136 185 242 276 331
#     4  10  17  38  63  83 109 144 188 240 276 326
#     4  11  22  33  56  90 112 145 186 230 287 327
#     4  11  24  36  54  83 121 151 183 229 276 342
#     4  10  19  34  60  84 109 146 186 237 279 323
#     4  10  19  35  58  81 108 149 193 222 281 336
#     4  10  18  35  59  84 114 137 187 235 278 332
#     4  10  19  36  55  78 116 153 175 225 288 325
#
# _framework density 20.787907000000001
#
# number of rings (size 3 to 8) (size 9 to 14) (size 15 to 20)
#    0.000    1.750    7.500    0.000    1.750    2.500 
#    0.000    2.500    0.000    0.750    0.000    0.000 
#    0.000    0.000    0.000    0.000    0.000    0.000 
#
# Total GULP energy -89080.338885 kJ/mol
# GULP energy per Si atom -5567.521180 kJ/mol
# Density = 2.074059 g / cm^3
# Si number density = 20.787907 Si / 1000 Ang^3
#
#
#
# Elastic Constant Matrix: (Units=GPa)
#
#
# Indices 1 2 3 4 5 6 
#
# 1 116.2805 34.7967 31.6204 -9.6177 -0.8586 21.9923
# 2 34.7967 69.7681 10.5316 -8.1196 -2.4091 21.1367
# 3 31.6204 10.5316 54.0446 -8.0425 1.5602 6.2738
# 4 -9.6177 -8.1196 -8.0425 15.1417 5.0731 -7.1506
# 5 -0.8586 -2.4091 1.5602 5.0731 25.9495 -0.9087
# 6 21.9923 21.1367 6.2738 -7.1506 -0.9087 41.7132
#
#
#
# Elastic Compliance Matrix: (Units=1/GPa)
#
#
# Indices 1 2 3 4 5 6 
#
# 1 0.012076 -0.004051 -0.005770 0.000845 0.000090 -0.003299
# 2 -0.004051 0.018886 0.000085 0.004248 0.000549 -0.006707
# 3 -0.005770 0.000085 0.023403 0.010599 -0.003619 0.001217
# 4 0.000845 0.004248 0.010599 0.084698 -0.016424 0.009969
# 5 0.000090 0.000549 -0.003619 -0.016424 0.041960 -0.001682
# 6 -0.003299 -0.006707 0.001217 0.009969 -0.001682 0.030600
#
#
# Mechanical properties :
#
#
# Convention : Reuss Voigt Hill
#
# Bulk Modulus (GPa) = 28.65904 43.77672 36.21788
# Shear Modulus (GPa) = 20.59946 27.43717 24.01831
#
# Velocity S-wave (km/s) = 3.15133 3.63693 3.40280
# Velocity P-wave (km/s) = 5.20168 6.22421 5.73578
#
# Compressibility (1/GPa) = 0.03489301
#
# Stress axis : x y z
#
# Youngs Moduli (GPa) = 82.81161 52.94953 42.72985
#
# Poissons Ratio (x) = 0.21448 0.24653
# Poissons Ratio (y) = 0.33545 -0.00362
# Poissons Ratio (z) = 0.47779 -0.00448
#
# Static dielectric constant tensor:
#      x y z
#    x 1.797800 -0.030860 0.018960 
#    y -0.030860 1.837850 -0.016840 
#    z 0.018960 -0.016840 1.766140 
# 
# From -- ./inp_files/416294.got.cif
#   From: 2010.05.17/outbox.cif.g08.bks.cpg/sg2_209_cif.got.tgz:416294.got - 2010.06.03 11:33:40.
