data_PCOD9060766
_publ_section_title
;
Structure prediction by ZEFSAII (Michael W. Deem and Ramdas Pophale) SiO2 
 PCOD9060766
Probable space group: P -1
;
_chemical_formula_sum "Si O2"
_cell_formula_units_Z 16
_cell_length_a 6.915241
_cell_length_b 11.169058
_cell_length_c 13.655427
_cell_angle_alpha 56.386708
_cell_angle_beta 93.314227
_cell_angle_gamma 65.308194
_cell_volume 737.505703
_symmetry_space_group_name_H-M "P -1"
_symmetry_group_IT_number 2
_symmetry_cell_setting 'triclinic'
loop_
_space_group_symop_operation_xyz
x,y,z
-x,-y,-z
loop_
_atom_site_type_symbol
_atom_site_label
_atom_site_fract_x
_atom_site_fract_y
_atom_site_fract_z
Si Si1 0.260861 0.423571 0.573471
Si Si2 0.526397 0.138549 0.378876
Si Si3 0.686867 0.741321 0.161318
Si Si4 0.774292 0.396771 0.050861
Si Si5 0.780622 0.029945 0.037401
Si Si6 0.056757 0.481743 0.160634
Si Si7 0.341744 0.711811 0.509395
Si Si8 0.882965 0.032106 0.264999
O O1 0.346183 0.266597 0.721001
O O2 0.288252 0.563361 0.569644
O O3 0.424175 0.362936 0.511471
O O4 0.000000 0.500000 0.500000
O O5 0.276963 0.292725 0.266582
O O6 0.625716 0.223823 0.414600
O O7 0.696406 0.055855 0.328858
O O8 0.500000 0.000000 0.500000
O O9 0.916893 0.565322 0.217253
O O10 0.737734 0.884118 0.069369
O O11 0.452593 0.790654 0.077462
O O12 0.875956 0.207451 0.178871
O O13 0.871147 0.483218 0.083233
O O14 0.500000 0.500000 0.000000
O O15 0.856984 0.407196 0.939862
O O16 0.821837 0.010253 0.163231
O O17 0.000000 0.000000 0.000000
O O18 0.130408 0.874157 0.375269
#
# Coordination Sequence:
#
# PCOD9060766 Si02
#       8
#     2   2   2   2   2   2   2   2
#     4  11  25  47  74 102 140 187 238 295 353 424
#     4  12  28  45  70 105 146 191 239 292 354 429
#     4  11  25  41  73 100 136 178 230 292 350 418
#     4  11  23  44  67 101 137 182 227 284 353 423
#     4  11  25  46  69 104 136 178 232 291 355 418
#     4  11  25  43  69 102 140 179 231 289 352 418
#     4  11  27  46  70 104 140 187 241 289 353 422
#     4  12  25  45  74  97 145 185 231 293 358 420
#
# _framework density 21.694745999999999
#
# number of rings (size 3 to 8) (size 9 to 14) (size 15 to 20)
#    0.000    0.750    1.250    4.875    8.750    5.000 
#    0.000    0.000    0.000    0.000    0.000    0.000 
#    0.000    0.000    0.000    0.000    0.000    0.000 
#
# Total GULP energy -89525.859036 kJ/mol
# GULP energy per Si atom -5595.366190 kJ/mol
# Density = 2.164537 g / cm^3
# Si number density = 21.694746 Si / 1000 Ang^3
#
#
#
# Elastic Constant Matrix: (Units=GPa)
#
#
# Indices 1 2 3 4 5 6 
#
# 1 160.3482 48.0417 57.4472 6.8260 4.6283 -24.8917
# 2 48.0417 74.7529 12.1076 15.1372 -1.4095 -21.5625
# 3 57.4472 12.1076 97.3505 3.6862 -1.6130 -21.4443
# 4 6.8260 15.1372 3.6862 43.3698 3.9097 0.9796
# 5 4.6283 -1.4095 -1.6130 3.9097 53.8608 0.1801
# 6 -24.8917 -21.5625 -21.4443 0.9796 0.1801 29.1373
#
#
#
# Elastic Compliance Matrix: (Units=1/GPa)
#
#
# Indices 1 2 3 4 5 6 
#
# 1 0.009764 -0.005510 -0.005009 0.000908 -0.001201 0.000554
# 2 -0.005510 0.022163 0.004113 -0.007708 0.001686 0.014969
# 3 -0.005009 0.004113 0.014994 -0.002245 0.001117 0.009868
# 4 0.000908 -0.007708 -0.002245 0.026164 -0.002221 -0.007447
# 5 -0.001201 0.001686 0.001117 -0.002221 0.018905 0.001002
# 6 0.000554 0.014969 0.009868 -0.007447 0.001002 0.053378
#
#
# Mechanical properties :
#
#
# Convention : Reuss Voigt Hill
#
# Bulk Modulus (GPa) = 29.31898 63.07160 46.19529
# Shear Modulus (GPa) = 29.48979 39.59725 34.54352
#
# Velocity S-wave (km/s) = 3.69088 4.27687 3.99463
# Velocity P-wave (km/s) = 5.63090 7.31603 6.52807
#
# Compressibility (1/GPa) = 0.03410760
#
# Stress axis : x y z
#
# Youngs Moduli (GPa) = 102.41895 45.11966 66.69534
#
# Poissons Ratio (x) = 0.24863 0.33405
# Poissons Ratio (y) = 0.56437 -0.27429
# Poissons Ratio (z) = 0.51298 -0.18556
#
# Static dielectric constant tensor:
#      x y z
#    x 1.781290 0.021240 -0.017380 
#    y 0.021240 1.822000 0.006110 
#    z -0.017380 0.006110 1.781350 
# 
# From -- ./inp_files/364248.got.cif
#   From: 2010.05.17/outbox.cif.g08.bks.cpg/sg2_183_cif.got.tgz:364248.got - 2010.06.03 11:33:40.
