data_PCOD9060975
_publ_section_title
;
Structure prediction by ZEFSAII (Michael W. Deem and Ramdas Pophale) SiO2 
 PCOD9060975
Probable space group: P -1
;
_chemical_formula_sum "Si O2"
_cell_formula_units_Z 14
_cell_length_a 15.268151
_cell_length_b 6.682266
_cell_length_c 12.858133
_cell_angle_alpha 131.572300
_cell_angle_beta 53.479354
_cell_angle_gamma 134.532514
_cell_volume 678.593452
_symmetry_space_group_name_H-M "P -1"
_symmetry_group_IT_number 2
_symmetry_cell_setting 'triclinic'
loop_
_space_group_symop_operation_xyz
x,y,z
-x,-y,-z
loop_
_atom_site_type_symbol
_atom_site_label
_atom_site_fract_x
_atom_site_fract_y
_atom_site_fract_z
Si Si1 0.883885 0.135084 0.733501
Si Si2 0.300138 0.915482 0.882702
Si Si3 0.549038 0.802188 0.337441
Si Si4 0.239243 0.229489 0.715741
Si Si5 0.404575 0.136947 0.099280
Si Si6 0.957028 0.158824 0.450097
Si Si7 0.080291 0.836080 0.886175
O O1 0.912967 0.133403 0.590808
O O2 0.986920 0.469830 0.820592
O O3 0.742206 0.066254 0.828555
O O4 0.925362 0.898433 0.667699
O O5 0.257836 0.569839 0.832779
O O6 0.174671 0.926519 0.947775
O O7 0.371089 0.992975 0.748436
O O8 0.386145 0.147016 0.991774
O O9 0.625918 0.736741 0.349133
O O10 0.458489 0.464919 0.233112
O O11 0.500000 0.000000 0.500000
O O12 0.163541 0.092275 0.616299
O O13 0.159413 0.974893 0.772601
O O14 0.500000 0.000000 0.000000
O O15 0.000000 0.500000 0.500000
O O16 0.000000 0.000000 0.000000
#
# Coordination Sequence:
#
# PCOD9060975 Si02
#       7
#     2   2   2   2   2   2   2
#     4  11  26  42  71 105 144 180 235 294 355 429
#     4  11  25  47  73  97 143 184 233 300 351 417
#     4  11  28  47  71 102 138 191 247 290 345 429
#     4  11  23  44  70  99 137 178 233 291 357 418
#     4  12  27  49  70 103 148 193 239 284 356 432
#     4  11  24  44  70 107 141 182 231 299 367 416
#     4  11  24  41  69 104 134 173 231 287 358 418
#
# _framework density 20.630908000000002
#
# number of rings (size 3 to 8) (size 9 to 14) (size 15 to 20)
#    0.000    0.857    4.286    1.286    8.000    2.857 
#    0.000    0.000    0.000    0.000    0.000    0.000 
#    0.000    0.000    0.000    0.000    0.000    0.000 
#
# Total GULP energy -78136.227397 kJ/mol
# GULP energy per Si atom -5581.159100 kJ/mol
# Density = 2.058395 g / cm^3
# Si number density = 20.630908 Si / 1000 Ang^3
#
#
#
# Elastic Constant Matrix: (Units=GPa)
#
#
# Indices 1 2 3 4 5 6 
#
# 1 183.6718 32.3594 77.6098 12.8975 -6.5054 -1.9387
# 2 32.3594 85.9516 25.9450 18.8138 -14.5922 1.2915
# 3 77.6098 25.9450 120.8272 16.1836 -3.1448 3.9270
# 4 12.8975 18.8138 16.1836 37.8353 -1.2049 -0.4646
# 5 -6.5054 -14.5922 -3.1448 -1.2049 32.4869 12.8412
# 6 -1.9387 1.2915 3.9270 -0.4646 12.8412 28.2874
#
#
#
# Elastic Compliance Matrix: (Units=1/GPa)
#
#
# Indices 1 2 3 4 5 6 
#
# 1 0.007692 -0.001562 -0.004673 0.000166 -0.000124 0.001306
# 2 -0.001562 0.015385 -0.001085 -0.006453 0.007989 -0.004392
# 3 -0.004673 -0.001085 0.011999 -0.003011 0.000502 -0.002214
# 4 0.000166 -0.006453 -0.003011 0.030806 -0.003047 0.002613
# 5 -0.000124 0.007989 0.000502 -0.003047 0.042015 -0.019566
# 6 0.001306 -0.004392 -0.002214 0.002613 -0.019566 0.044874
#
#
# Mechanical properties :
#
#
# Convention : Reuss Voigt Hill
#
# Bulk Modulus (GPa) = 48.93511 73.58654 61.26082
# Shear Modulus (GPa) = 28.69873 36.69101 32.69487
#
# Velocity S-wave (km/s) = 3.73373 4.22174 3.98521
# Velocity P-wave (km/s) = 6.50834 7.71425 7.13681
#
# Compressibility (1/GPa) = 0.02043523
#
# Stress axis : x y z
#
# Youngs Moduli (GPa) = 130.00247 64.99827 83.33800
#
# Poissons Ratio (x) = 0.10155 0.38946
# Poissons Ratio (y) = 0.20310 0.09043
# Poissons Ratio (z) = 0.60753 0.07053
#
# Static dielectric constant tensor:
#      x y z
#    x 1.722420 -0.054050 -0.005610 
#    y -0.054050 1.666640 0.012900 
#    z -0.005610 0.012900 1.749810 
# 
# From -- ./inp_files/69526.got.cif
#   From: 2010.05.17/outbox.cif.g08.bks.cpg/sg2_35_cif.got.tgz:69526.got - 2010.06.03 11:33:40.
