data_PCOD9060303
_publ_section_title
;
Structure prediction by ZEFSAII (Michael W. Deem and Ramdas Pophale) SiO2 
 PCOD9060303
Probable space group: P -1
;
_chemical_formula_sum "Si O2"
_cell_formula_units_Z 16
_cell_length_a 9.176578
_cell_length_b 9.088320
_cell_length_c 13.780463
_cell_angle_alpha 128.991614
_cell_angle_beta 110.402471
_cell_angle_gamma 97.400751
_cell_volume 735.425115
_symmetry_space_group_name_H-M "P -1"
_symmetry_group_IT_number 2
_symmetry_cell_setting 'triclinic'
loop_
_space_group_symop_operation_xyz
x,y,z
-x,-y,-z
loop_
_atom_site_type_symbol
_atom_site_label
_atom_site_fract_x
_atom_site_fract_y
_atom_site_fract_z
Si Si1 0.173940 0.597378 0.147733
Si Si2 0.096245 0.153978 0.232524
Si Si3 0.241794 0.238656 0.096890
Si Si4 0.142175 0.994969 0.383637
Si Si5 0.192515 0.013586 0.613854
Si Si6 0.591326 0.255556 0.113386
Si Si7 0.541894 0.304981 0.909794
Si Si8 0.013985 0.492390 0.614816
O O1 0.184423 0.422989 0.147549
O O2 0.182280 0.801868 0.288337
O O3 0.333225 0.659176 0.136217
O O4 0.000000 0.500000 0.000000
O O5 0.213664 0.160098 0.169673
O O6 0.075286 0.366850 0.311290
O O7 0.163659 0.124189 0.341645
O O8 0.900157 0.955499 0.083768
O O9 0.439722 0.313606 0.137160
O O10 0.939767 0.913168 0.336765
O O11 0.242212 0.104777 0.553270
O O12 0.359571 0.093942 0.755294
O O13 0.085800 0.754618 0.476574
O O14 0.778791 0.391136 0.263742
O O15 0.628949 0.288989 0.022042
O O16 0.500000 0.000000 0.000000
O O17 0.500000 0.500000 0.000000
O O18 0.000000 0.500000 0.500000
#
# Coordination Sequence:
#
# PCOD9060303 Si02
#       8
#     2   2   2   2   2   2   2   2
#     4  12  25  42  72 105 143 186 235 290 354 415
#     4  11  23  43  69 103 140 188 230 288 346 422
#     4  11  24  43  68 104 146 176 238 292 345 406
#     4  11  24  42  72 100 142 188 236 283 358 417
#     4  11  26  47  70 103 143 185 236 294 355 420
#     4  12  26  44  72 107 139 181 238 287 344 417
#     4  12  27  46  74 103 141 183 240 296 346 420
#     4  12  25  45  73 102 143 188 227 288 358 422
#
# _framework density 21.756122999999999
#
# number of rings (size 3 to 8) (size 9 to 14) (size 15 to 20)
#    0.000    0.500    5.000    3.000    8.750    0.500 
#    0.000    1.875    0.000    0.000    0.000    0.000 
#    0.000    0.000    0.000    0.000    0.000    0.000 
#
# Total GULP energy -89497.093755 kJ/mol
# GULP energy per Si atom -5593.568360 kJ/mol
# Density = 2.170661 g / cm^3
# Si number density = 21.756123 Si / 1000 Ang^3
#
#
#
# Elastic Constant Matrix: (Units=GPa)
#
#
# Indices 1 2 3 4 5 6 
#
# 1 73.5903 21.5745 48.1088 1.9936 -23.2815 -5.4515
# 2 21.5745 128.0470 49.0707 -17.6242 -10.0998 0.8236
# 3 48.1088 49.0707 103.2010 -7.8399 9.8547 -1.1122
# 4 1.9936 -17.6242 -7.8399 49.0547 -3.2486 -13.1115
# 5 -23.2815 -10.0998 9.8547 -3.2486 39.5284 -3.4165
# 6 -5.4515 0.8236 -1.1122 -13.1115 -3.4165 35.1072
#
#
#
# Elastic Compliance Matrix: (Units=1/GPa)
#
#
# Indices 1 2 3 4 5 6 
#
# 1 0.035681 0.004410 -0.021286 0.000671 0.028175 0.007755
# 2 0.004410 0.011188 -0.007822 0.003741 0.007916 0.002342
# 3 -0.021286 -0.007822 0.025273 -0.000544 -0.021279 -0.004595
# 4 0.000671 0.003741 -0.000544 0.024455 0.004322 0.009553
# 5 0.028175 0.007916 -0.021279 0.004322 0.050443 0.010038
# 6 0.007755 0.002342 -0.004595 0.009553 0.010038 0.034033
#
#
# Mechanical properties :
#
#
# Convention : Reuss Voigt Hill
#
# Bulk Modulus (GPa) = 43.96318 60.26070 52.11194
# Shear Modulus (GPa) = 21.00372 37.14368 29.07370
#
# Velocity S-wave (km/s) = 3.11049 4.13640 3.65957
# Velocity P-wave (km/s) = 5.75772 7.11136 6.47004
#
# Compressibility (1/GPa) = 0.02274631
#
# Stress axis : x y z
#
# Youngs Moduli (GPa) = 28.02577 89.37757 39.56731
#
# Poissons Ratio (x) = -0.39419 0.84224
# Poissons Ratio (y) = -0.12360 0.30951
# Poissons Ratio (z) = 0.59657 0.69915
#
# Static dielectric constant tensor:
#      x y z
#    x 1.794280 -0.002860 -0.026180 
#    y -0.002860 1.790480 0.017580 
#    z -0.026180 0.017580 1.804300 
# 
# From -- ./inp_files/495767.got.cif
#   From: 2010.05.17/outbox.cif.g08.bks.cpg/sg2_248_cif.got.tgz:495767.got - 2010.06.03 11:33:40.
