data_PCOD9060805
_publ_section_title
;
Structure prediction by ZEFSAII (Michael W. Deem and Ramdas Pophale) SiO2 
 PCOD9060805
Probable space group: P -1
;
_chemical_formula_sum "Si O2"
_cell_formula_units_Z 16
_cell_length_a 9.528453
_cell_length_b 11.273174
_cell_length_c 9.116391
_cell_angle_alpha 56.793213
_cell_angle_beta 120.137561
_cell_angle_gamma 99.818404
_cell_volume 701.158529
_symmetry_space_group_name_H-M "P -1"
_symmetry_group_IT_number 2
_symmetry_cell_setting 'triclinic'
loop_
_space_group_symop_operation_xyz
x,y,z
-x,-y,-z
loop_
_atom_site_type_symbol
_atom_site_label
_atom_site_fract_x
_atom_site_fract_y
_atom_site_fract_z
Si Si1 0.405311 0.450418 0.125073
Si Si2 0.105765 0.846071 0.707396
Si Si3 0.475660 0.375278 0.680404
Si Si4 0.355136 0.925703 0.032648
Si Si5 0.288660 0.768611 0.550462
Si Si6 0.832604 0.957115 0.878157
Si Si7 0.138977 0.532757 0.438982
Si Si8 0.063295 0.337468 0.026262
O O1 0.431037 0.578682 0.160454
O O2 0.519520 0.296631 0.313684
O O3 0.216873 0.425912 0.055223
O O4 0.500000 0.500000 0.000000
O O5 0.204044 0.775345 0.663468
O O6 0.004476 0.731178 0.814385
O O7 0.227091 0.892395 0.864797
O O8 0.000000 0.000000 0.500000
O O9 0.500000 0.500000 0.500000
O O10 0.560121 0.227429 0.760721
O O11 0.282325 0.396861 0.597451
O O12 0.278799 0.029235 0.048296
O O13 0.500000 0.000000 0.000000
O O14 0.246461 0.928096 0.359005
O O15 0.209816 0.663406 0.468809
O O16 0.866912 0.802159 0.934871
O O17 0.000000 0.000000 0.000000
O O18 0.000000 0.500000 0.500000
O O19 0.073746 0.577041 0.211622
#
# Coordination Sequence:
#
# PCOD9060805 Si02
#       8
#     2   2   2   2   2   2   2   2
#     4  11  26  46  71 102 142 191 239 295 360 432
#     4  12  25  44  66 110 148 187 242 300 361 428
#     4  11  25  49  69 101 141 184 238 293 359 429
#     4  12  28  45  74 107 146 192 241 307 363 433
#     4  11  23  44  68 101 146 186 238 299 356 432
#     4  12  23  46  74 103 147 189 239 298 367 433
#     4  11  25  43  75 100 136 193 241 286 360 434
#     4  12  25  46  76 108 144 193 240 302 364 428
#
# _framework density 22.819375000000001
#
# number of rings (size 3 to 8) (size 9 to 14) (size 15 to 20)
#    0.000    0.500    3.750    4.500    5.250    3.500 
#    0.000    3.750    0.000    0.000    0.000    0.000 
#    0.000    0.000    0.000    0.000    0.000    0.000 
#
# Total GULP energy -89468.750034 kJ/mol
# GULP energy per Si atom -5591.796877 kJ/mol
# Density = 2.276744 g / cm^3
# Si number density = 22.819375 Si / 1000 Ang^3
#
#
#
# Elastic Constant Matrix: (Units=GPa)
#
#
# Indices 1 2 3 4 5 6 
#
# 1 126.5899 10.2704 22.8472 20.3909 -7.2901 5.3756
# 2 10.2704 48.5739 12.9363 -6.5654 13.0365 -9.3436
# 3 22.8472 12.9363 99.0348 -1.7493 4.7452 8.8913
# 4 20.3909 -6.5654 -1.7493 27.6862 -11.0285 0.3226
# 5 -7.2901 13.0365 4.7452 -11.0285 42.6655 -3.8960
# 6 5.3756 -9.3436 8.8913 0.3226 -3.8960 46.9339
#
#
#
# Elastic Compliance Matrix: (Units=1/GPa)
#
#
# Indices 1 2 3 4 5 6 
#
# 1 0.009847 -0.003052 -0.001931 -0.007805 0.000697 -0.001258
# 2 -0.003052 0.025364 -0.002703 0.005629 -0.006025 0.005372
# 3 -0.001931 -0.002703 0.011174 0.001258 -0.000650 -0.002496
# 4 -0.007805 0.005629 0.001258 0.046893 0.009130 0.002212
# 5 0.000697 -0.006025 -0.000650 0.009130 0.027931 0.001099
# 6 -0.001258 0.005372 -0.002496 0.002212 0.001099 0.023069
#
#
# Mechanical properties :
#
#
# Convention : Reuss Voigt Hill
#
# Bulk Modulus (GPa) = 32.24639 40.70073 36.47356
# Shear Modulus (GPa) = 29.41414 38.66675 34.04045
#
# Velocity S-wave (km/s) = 3.59416 4.12086 3.86649
# Velocity P-wave (km/s) = 5.60230 6.36528 5.99594
#
# Compressibility (1/GPa) = 0.03101122
#
# Stress axis : x y z
#
# Youngs Moduli (GPa) = 101.55882 39.42647 89.49687
#
# Poissons Ratio (x) = 0.12032 0.17284
# Poissons Ratio (y) = 0.30993 0.24194
# Poissons Ratio (z) = 0.19614 0.10658
#
# Static dielectric constant tensor:
#      x y z
#    x 1.444320 0.036590 -0.032620 
#    y 0.036590 1.787910 -0.014840 
#    z -0.032620 -0.014840 1.864360 
# 
# From -- ./inp_files/185363.got.cif
#   From: 2010.05.17/outbox.cif.g08.bks.cpg/sg2_93_cif.got.tgz:185363.got - 2010.06.03 11:33:40.
