data_PCOD9060292
_publ_section_title
;
Structure prediction by ZEFSAII (Michael W. Deem and Ramdas Pophale) SiO2 
 PCOD9060292
Probable space group: P -1
;
_chemical_formula_sum "Si O2"
_cell_formula_units_Z 14
_cell_length_a 5.964565
_cell_length_b 15.223594
_cell_length_c 11.875614
_cell_angle_alpha 127.097807
_cell_angle_beta 56.354660
_cell_angle_gamma 86.612465
_cell_volume 576.901315
_symmetry_space_group_name_H-M "P -1"
_symmetry_group_IT_number 2
_symmetry_cell_setting 'triclinic'
loop_
_space_group_symop_operation_xyz
x,y,z
-x,-y,-z
loop_
_atom_site_type_symbol
_atom_site_label
_atom_site_fract_x
_atom_site_fract_y
_atom_site_fract_z
Si Si1 0.750655 0.427699 0.474955
Si Si2 0.315061 0.926836 0.992023
Si Si3 0.385342 0.371799 0.687901
Si Si4 0.375310 0.963645 0.391325
Si Si5 0.322815 0.344379 0.931858
Si Si6 0.559891 0.681964 0.878066
Si Si7 0.527186 0.132971 0.338921
O O1 0.500000 0.500000 0.500000
O O2 0.686805 0.340726 0.504828
O O3 0.658278 0.553935 0.676513
O O4 0.098424 0.332834 0.241895
O O5 0.310060 0.832664 0.015683
O O6 0.500207 0.829314 0.755518
O O7 0.500000 0.000000 0.000000
O O8 0.924449 0.045314 0.178263
O O9 0.471447 0.352272 0.779831
O O10 0.324788 0.263434 0.577210
O O11 0.062138 0.524010 0.867184
O O12 0.623728 0.799275 0.191482
O O13 0.500000 0.000000 0.500000
O O14 0.425008 0.035289 0.328933
O O15 0.000000 0.000000 0.500000
O O16 0.490853 0.343717 0.000082
#
# Coordination Sequence:
#
# PCOD9060292 Si02
#       7
#     2   2   2   2   2   2   2
#     4  11  23  43  69 101 152 195 245 314 386 451
#     4  11  25  44  77 110 147 198 264 322 389 466
#     4  11  24  47  72 106 156 194 254 318 392 461
#     4  12  29  52  79 112 158 211 264 323 395 475
#     4  11  26  46  72 114 147 201 253 320 389 471
#     4  11  25  42  72 109 143 200 256 314 383 469
#     4  11  26  48  76 108 152 201 257 325 394 464
#
# _framework density 24.267579000000001
#
# number of rings (size 3 to 8) (size 9 to 14) (size 15 to 20)
#    0.000    0.857    2.857    2.571    8.000    4.000 
#    0.000    0.000    0.000    0.000    0.000    0.000 
#    0.000    0.000    0.000    0.000    0.000    0.000 
#
# Total GULP energy -78188.747403 kJ/mol
# GULP energy per Si atom -5584.910529 kJ/mol
# Density = 2.421234 g / cm^3
# Si number density = 24.267579 Si / 1000 Ang^3
#
#
#
# Elastic Constant Matrix: (Units=GPa)
#
#
# Indices 1 2 3 4 5 6 
#
# 1 63.1069 23.9652 26.7683 -9.7912 3.1834 -6.1568
# 2 23.9652 140.3782 34.6151 -7.9409 2.8833 -15.0372
# 3 26.7683 34.6151 95.8629 10.1659 19.5915 -14.1316
# 4 -9.7912 -7.9409 10.1659 54.6910 -5.5866 4.4077
# 5 3.1834 2.8833 19.5915 -5.5866 32.3083 -19.2946
# 6 -6.1568 -15.0372 -14.1316 4.4077 -19.2946 42.6906
#
#
#
# Elastic Compliance Matrix: (Units=1/GPa)
#
#
# Indices 1 2 3 4 5 6 
#
# 1 0.019619 -0.001554 -0.005899 0.004620 0.003415 0.001396
# 2 -0.001554 0.008494 -0.003034 0.001612 0.003380 0.003124
# 3 -0.005899 -0.003034 0.015687 -0.005379 -0.010005 -0.000693
# 4 0.004620 0.001612 -0.005379 0.020985 0.006398 0.000179
# 5 0.003415 0.003380 -0.010005 0.006398 0.049473 0.020071
# 6 0.001396 0.003124 -0.000693 0.000179 0.020071 0.033549
#
#
# Mechanical properties :
#
#
# Convention : Reuss Voigt Hill
#
# Bulk Modulus (GPa) = 43.81126 52.22723 48.01924
# Shear Modulus (GPa) = 28.34620 40.20462 34.27541
#
# Velocity S-wave (km/s) = 3.42141 4.07470 3.76226
# Velocity P-wave (km/s) = 5.80523 6.61103 6.22119
#
# Compressibility (1/GPa) = 0.02282518
#
# Stress axis : x y z
#
# Youngs Moduli (GPa) = 50.97022 117.73665 63.74566
#
# Poissons Ratio (x) = 0.18296 0.37606
# Poissons Ratio (y) = 0.07921 0.19341
# Poissons Ratio (z) = 0.30069 0.35723
#
# Static dielectric constant tensor:
#      x y z
#    x 2.087050 -0.007470 0.018390 
#    y -0.007470 1.847090 -0.056030 
#    z 0.018390 -0.056030 1.900380 
# 
# From -- ./inp_files/81071.got.cif
#   From: 2010.05.17/outbox.cif.g08.bks.cpg/sg2_41_cif.got.tgz:81071.got - 2010.06.03 11:33:40.
