data_PCOD9060701
_publ_section_title
;
Structure prediction by ZEFSAII (Michael W. Deem and Ramdas Pophale) SiO2 
 PCOD9060701
Probable space group: P -1
;
_chemical_formula_sum "Si O2"
_cell_formula_units_Z 14
_cell_length_a 12.550146
_cell_length_b 9.478169
_cell_length_c 9.318944
_cell_angle_alpha 124.606590
_cell_angle_beta 57.207446
_cell_angle_gamma 134.445606
_cell_volume 631.527590
_symmetry_space_group_name_H-M "P -1"
_symmetry_group_IT_number 2
_symmetry_cell_setting 'triclinic'
loop_
_space_group_symop_operation_xyz
x,y,z
-x,-y,-z
loop_
_atom_site_type_symbol
_atom_site_label
_atom_site_fract_x
_atom_site_fract_y
_atom_site_fract_z
Si Si1 0.352696 0.370879 0.876071
Si Si2 0.511482 0.964330 0.804245
Si Si3 0.206169 0.665902 0.666390
Si Si4 0.583313 0.670293 0.659110
Si Si5 0.916395 0.781902 0.522363
Si Si6 0.080615 0.930169 0.790748
Si Si7 0.639035 0.361510 0.751300
O O1 0.454954 0.575575 0.822446
O O2 0.477404 0.329525 0.816080
O O3 0.227996 0.158131 0.767714
O O4 0.280442 0.430907 0.090146
O O5 0.345201 0.801068 0.756841
O O6 0.613526 0.873139 0.681330
O O7 0.598845 0.171565 0.769652
O O8 0.500000 0.000000 0.000000
O O9 0.095534 0.421215 0.652085
O O10 0.128252 0.788888 0.754537
O O11 0.280890 0.650790 0.455287
O O12 0.500000 0.500000 0.500000
O O13 0.739082 0.706990 0.621319
O O14 0.990385 0.822970 0.648872
O O15 0.000000 0.000000 0.500000
O O16 0.000000 0.000000 0.000000
#
# Coordination Sequence:
#
# PCOD9060701 Si02
#       7
#     2   2   2   2   2   2   2
#     4  11  23  44  76 105 143 190 249 297 357 429
#     4  12  25  41  73 109 144 180 246 307 356 418
#     4  12  26  49  73 105 144 201 246 292 367 446
#     4  12  24  45  73 106 147 184 244 304 361 423
#     4  12  28  48  72 108 149 192 240 300 373 435
#     4  12  29  48  73 106 152 195 241 299 368 443
#     4  11  23  43  77 107 140 189 251 303 353 430
#
# _framework density 22.168469000000002
#
# number of rings (size 3 to 8) (size 9 to 14) (size 15 to 20)
#    0.000    0.286    5.714    2.571    8.000    0.000 
#    0.000    0.714    0.000    0.000    0.000    0.000 
#    0.000    0.000    0.000    0.000    0.000    0.000 
#
# Total GULP energy -78224.097458 kJ/mol
# GULP energy per Si atom -5587.435533 kJ/mol
# Density = 2.211801 g / cm^3
# Si number density = 22.168469 Si / 1000 Ang^3
#
#
#
# Elastic Constant Matrix: (Units=GPa)
#
#
# Indices 1 2 3 4 5 6 
#
# 1 140.5729 47.1002 39.2327 28.5746 8.4764 -12.0379
# 2 47.1002 135.3198 30.7011 13.9617 -1.2014 -16.2103
# 3 39.2327 30.7011 113.0372 13.2632 2.1895 -5.5731
# 4 28.5746 13.9617 13.2632 39.9451 -4.8017 4.5083
# 5 8.4764 -1.2014 2.1895 -4.8017 40.3509 16.2913
# 6 -12.0379 -16.2103 -5.5731 4.5083 16.2913 49.0088
#
#
#
# Elastic Compliance Matrix: (Units=1/GPa)
#
#
# Indices 1 2 3 4 5 6 
#
# 1 0.010360 -0.002025 -0.001947 -0.007026 -0.004500 0.003796
# 2 -0.002025 0.008873 -0.001391 -0.001536 -0.000456 0.002572
# 3 -0.001947 -0.001391 0.010130 -0.001620 -0.000602 0.000563
# 4 -0.007026 -0.001536 -0.001620 0.033150 0.008860 -0.008413
# 5 -0.004500 -0.000456 -0.000602 0.008860 0.031953 -0.012761
# 6 0.003796 0.002572 0.000563 -0.008413 -0.012761 0.027268
#
#
# Mechanical properties :
#
#
# Convention : Reuss Voigt Hill
#
# Bulk Modulus (GPa) = 53.65739 69.22198 61.43969
# Shear Modulus (GPa) = 36.05629 43.98735 40.02182
#
# Velocity S-wave (km/s) = 4.03732 4.45930 4.25355
# Velocity P-wave (km/s) = 6.78161 7.60309 7.20407
#
# Compressibility (1/GPa) = 0.01863676
#
# Stress axis : x y z
#
# Youngs Moduli (GPa) = 96.52393 112.70376 98.71824
#
# Poissons Ratio (x) = 0.22817 0.19222
# Poissons Ratio (y) = 0.19542 0.13734
# Poissons Ratio (z) = 0.18795 0.15680
#
# Static dielectric constant tensor:
#      x y z
#    x 1.807170 0.008930 0.001150 
#    y 0.008930 1.902310 -0.052180 
#    z 0.001150 -0.052180 1.844570 
# 
# From -- ./inp_files/190967.got.cif
#   From: 2010.05.17/outbox.cif.g08.bks.cpg/sg2_96_cif.got.tgz:190967.got - 2010.06.03 11:33:40.
