data_PCOD9060399
_publ_section_title
;
Structure prediction by ZEFSAII (Michael W. Deem and Ramdas Pophale) SiO2 
 PCOD9060399
Probable space group: P -1
;
_chemical_formula_sum "Si O2"
_cell_formula_units_Z 14
_cell_length_a 9.803135
_cell_length_b 8.741534
_cell_length_c 9.537184
_cell_angle_alpha 76.921063
_cell_angle_beta 72.727610
_cell_angle_gamma 46.577634
_cell_volume 566.538887
_symmetry_space_group_name_H-M "P -1"
_symmetry_group_IT_number 2
_symmetry_cell_setting 'triclinic'
loop_
_space_group_symop_operation_xyz
x,y,z
-x,-y,-z
loop_
_atom_site_type_symbol
_atom_site_label
_atom_site_fract_x
_atom_site_fract_y
_atom_site_fract_z
Si Si1 0.272707 0.993589 0.442952
Si Si2 0.093246 0.553205 0.571563
Si Si3 0.018475 0.549286 0.137348
Si Si4 0.064007 0.071812 0.774920
Si Si5 0.558232 0.888635 0.848527
Si Si6 0.683168 0.354826 0.647889
Si Si7 0.614274 0.320456 0.121704
O O1 0.214419 0.028800 0.618675
O O2 0.322026 0.781861 0.429893
O O3 0.417101 0.004638 0.311092
O O4 0.065208 0.197448 0.401800
O O5 0.132456 0.432548 0.724554
O O6 0.268438 0.511724 0.458803
O O7 0.000000 0.500000 0.500000
O O8 0.230824 0.343763 0.160869
O O9 0.984657 0.753347 0.139953
O O10 0.000000 0.500000 0.000000
O O11 0.162977 0.854207 0.868386
O O12 0.862348 0.186644 0.733459
O O13 0.429522 0.831823 0.863194
O O14 0.500000 0.000000 0.000000
O O15 0.484751 0.525349 0.748313
O O16 0.500000 0.500000 0.000000
#
# Coordination Sequence:
#
# PCOD9060399 Si02
#       7
#     2   2   2   2   2   2   2
#     4  10  22  41  74 102 139 184 236 289 345 420
#     4  10  17  38  69  96 138 177 225 288 339 407
#     4  11  22  40  68 107 137 182 237 283 352 422
#     4  11  23  45  72 103 134 187 237 279 362 416
#     4  11  23  46  67  99 149 179 230 298 344 412
#     4  11  22  45  69 103 142 179 233 293 346 414
#     4  12  27  45  67  99 143 183 232 297 349 416
#
# _framework density 24.711455999999998
#
# number of rings (size 3 to 8) (size 9 to 14) (size 15 to 20)
#    0.000    1.143    4.286    4.286    0.000    2.857 
#   10.286    0.000    0.000    0.000    0.000    0.000 
#    0.000    0.000    0.000    0.000    0.000    0.000 
#
# Total GULP energy -78212.338163 kJ/mol
# GULP energy per Si atom -5586.595583 kJ/mol
# Density = 2.465521 g / cm^3
# Si number density = 24.711456 Si / 1000 Ang^3
#
#
#
# Elastic Constant Matrix: (Units=GPa)
#
#
# Indices 1 2 3 4 5 6 
#
# 1 44.9231 36.8721 27.4322 -5.5080 10.5514 6.9584
# 2 36.8721 153.9037 68.7027 21.1773 4.6080 -3.0184
# 3 27.4322 68.7027 124.6767 2.7281 5.3344 14.0344
# 4 -5.5080 21.1773 2.7281 52.3704 7.2309 12.2989
# 5 10.5514 4.6080 5.3344 7.2309 31.0503 2.6967
# 6 6.9584 -3.0184 14.0344 12.2989 2.6967 48.4246
#
#
#
# Elastic Compliance Matrix: (Units=1/GPa)
#
#
# Indices 1 2 3 4 5 6 
#
# 1 0.036409 -0.009219 -0.001800 0.011137 -0.012645 -0.007409
# 2 -0.009219 0.012011 -0.005168 -0.007264 0.003476 0.005222
# 3 -0.001800 -0.005168 0.011699 0.002346 -0.000830 -0.004004
# 4 0.011137 -0.007264 0.002346 0.026353 -0.008469 -0.008955
# 5 -0.012645 0.003476 -0.000830 -0.008469 0.037901 0.002315
# 6 -0.007409 0.005222 -0.004004 -0.008955 0.002315 0.025347
#
#
# Mechanical properties :
#
#
# Convention : Reuss Voigt Hill
#
# Bulk Modulus (GPa) = 36.04019 65.50194 50.77106
# Shear Modulus (GPa) = 26.13137 39.06883 32.60010
#
# Velocity S-wave (km/s) = 3.25539 3.98049 3.63606
# Velocity P-wave (km/s) = 5.36154 6.90580 6.18208
#
# Compressibility (1/GPa) = 0.02774680
#
# Stress axis : x y z
#
# Youngs Moduli (GPa) = 27.46588 83.25760 85.47478
#
# Poissons Ratio (x) = 0.76751 0.15383
# Poissons Ratio (y) = 0.25319 0.44172
# Poissons Ratio (z) = 0.04943 0.43027
#
# Static dielectric constant tensor:
#      x y z
#    x 2.151330 -0.078780 0.044740 
#    y -0.078780 1.863530 -0.079310 
#    z 0.044740 -0.079310 2.123640 
# 
# From -- ./inp_files/243472.got.cif
#   From: 2010.05.17/outbox.cif.g08.bks.cpg/sg2_122_cif.got.tgz:243472.got - 2010.06.03 11:33:40.
