data_PCOD9060077
_publ_section_title
;
Structure prediction by ZEFSAII (Michael W. Deem and Ramdas Pophale) SiO2 
 PCOD9060077
Probable space group: P -1
;
_chemical_formula_sum "Si O2"
_cell_formula_units_Z 16
_cell_length_a 14.078199
_cell_length_b 5.058849
_cell_length_c 9.036560
_cell_angle_alpha 104.858139
_cell_angle_beta 98.139516
_cell_angle_gamma 99.294378
_cell_volume 602.490275
_symmetry_space_group_name_H-M "P -1"
_symmetry_group_IT_number 2
_symmetry_cell_setting 'triclinic'
loop_
_space_group_symop_operation_xyz
x,y,z
-x,-y,-z
loop_
_atom_site_type_symbol
_atom_site_label
_atom_site_fract_x
_atom_site_fract_y
_atom_site_fract_z
Si Si1 0.836847 0.412252 0.049172
Si Si2 0.308195 0.608199 0.237509
Si Si3 0.315064 0.330193 0.755476
Si Si4 0.159599 0.838625 0.545617
Si Si5 0.502532 0.161439 0.867851
Si Si6 0.836907 0.764173 0.671983
Si Si7 0.417382 0.664946 0.557273
Si Si8 0.049086 0.977022 0.814278
O O1 0.754781 0.499453 0.150954
O O2 0.879470 0.164473 0.091584
O O3 0.922057 0.690976 0.111901
O O4 0.784332 0.338084 0.869422
O O5 0.396492 0.659867 0.148530
O O6 0.259816 0.306935 0.256160
O O7 0.359061 0.757626 0.418267
O O8 0.416008 0.331590 0.862346
O O9 0.344936 0.460568 0.621118
O O10 0.254363 0.013425 0.678505
O O11 0.156839 0.520472 0.457167
O O12 0.071463 0.885608 0.638553
O O13 0.159942 0.000647 0.415555
O O14 0.470266 0.921488 0.703349
O O15 0.500000 0.000000 0.000000
O O16 0.936037 0.850952 0.800019
O O17 0.500000 0.500000 0.500000
#
# Coordination Sequence:
#
# PCOD9060077 Si02
#       8
#     2   2   2   2   2   2   2   2
#     4  11  28  47  75 108 152 202 255 310 377 462
#     4  12  28  46  71 111 146 199 255 310 385 447
#     4  11  25  46  73 105 149 198 248 309 374 457
#     4  11  23  42  75 111 147 196 248 306 381 453
#     4  12  29  48  77 108 154 202 253 306 384 465
#     4  12  25  44  76 110 151 193 249 322 379 447
#     4  12  26  46  74 108 152 191 254 316 381 445
#     4  11  25  48  74 108 150 198 255 310 382 453
#
# _framework density 26.556446000000001
#
# number of rings (size 3 to 8) (size 9 to 14) (size 15 to 20)
#    0.000    0.500    2.500    4.875   10.500    3.000 
#    0.000    0.000    0.000    0.000    0.000    0.000 
#    0.000    0.000    0.000    0.000    0.000    0.000 
#
# Total GULP energy -89785.749019 kJ/mol
# GULP energy per Si atom -5611.609314 kJ/mol
# Density = 2.649600 g / cm^3
# Si number density = 26.556446 Si / 1000 Ang^3
#
#
#
# Elastic Constant Matrix: (Units=GPa)
#
#
# Indices 1 2 3 4 5 6 
#
# 1 126.9156 46.8150 55.7982 -3.2330 -1.3223 34.5682
# 2 46.8150 109.0440 52.9542 -4.5086 -22.1713 8.5739
# 3 55.7982 52.9542 178.3994 -16.4549 -6.3812 2.5501
# 4 -3.2330 -4.5086 -16.4549 53.6892 -8.5932 1.9680
# 5 -1.3223 -22.1713 -6.3812 -8.5932 51.8838 -5.8236
# 6 34.5682 8.5739 2.5501 1.9680 -5.8236 51.8672
#
#
#
# Elastic Compliance Matrix: (Units=1/GPa)
#
#
# Indices 1 2 3 4 5 6 
#
# 1 0.012743 -0.004058 -0.002819 -0.000585 -0.002747 -0.007970
# 2 -0.004058 0.013121 -0.002356 0.000973 0.005513 0.001233
# 3 -0.002819 -0.002356 0.007345 0.001870 0.000345 0.001875
# 4 -0.000585 0.000973 0.001870 0.019876 0.003903 -0.000179
# 5 -0.002747 0.005513 0.000345 0.003903 0.022618 0.003294
# 6 -0.007970 0.001233 0.001875 -0.000179 0.003294 0.024672
#
#
# Mechanical properties :
#
#
# Convention : Reuss Voigt Hill
#
# Bulk Modulus (GPa) = 67.83528 80.61043 74.22286
# Shear Modulus (GPa) = 40.40195 48.74081 44.57138
#
# Velocity S-wave (km/s) = 3.90469 4.28877 4.10123
# Velocity P-wave (km/s) = 6.77703 7.41249 7.10187
#
# Compressibility (1/GPa) = 0.01474159
#
# Stress axis : x y z
#
# Youngs Moduli (GPa) = 78.47600 76.21252 136.15352
#
# Poissons Ratio (x) = 0.30925 0.38388
# Poissons Ratio (y) = 0.31844 0.32082
# Poissons Ratio (z) = 0.22126 0.17958
#
# Static dielectric constant tensor:
#      x y z
#    x 2.094120 -0.005380 -0.012320 
#    y -0.005380 2.041400 0.036500 
#    z -0.012320 0.036500 2.094680 
# 
# From -- ./inp_files/289053.got.cif
#   From: 2010.05.17/outbox.cif.g08.bks.cpg/sg2_145_cif.got.tgz:289053.got - 2010.06.03 11:33:40.
