data_PCOD9060484
_publ_section_title
;
Structure prediction by ZEFSAII (Michael W. Deem and Ramdas Pophale) SiO2 
 PCOD9060484
Probable space group: P -1
;
_chemical_formula_sum "Si O2"
_cell_formula_units_Z 14
_cell_length_a 19.764458
_cell_length_b 13.853195
_cell_length_c 20.072302
_cell_angle_alpha 154.798118
_cell_angle_beta 165.006560
_cell_angle_gamma 25.176215
_cell_volume 580.963594
_symmetry_space_group_name_H-M "P -1"
_symmetry_group_IT_number 2
_symmetry_cell_setting 'triclinic'
loop_
_space_group_symop_operation_xyz
x,y,z
-x,-y,-z
loop_
_atom_site_type_symbol
_atom_site_label
_atom_site_fract_x
_atom_site_fract_y
_atom_site_fract_z
Si Si1 0.121694 0.534168 0.299205
Si Si2 0.587892 0.833628 0.766027
Si Si3 0.325141 0.754480 0.968961
Si Si4 0.174247 0.598203 0.592412
Si Si5 0.603104 0.401129 0.778563
Si Si6 0.919266 0.908047 0.796685
Si Si7 0.982029 0.093017 0.671278
O O1 0.231329 0.362330 0.233298
O O2 0.374389 0.503448 0.569765
O O3 0.015281 0.791317 0.325541
O O4 0.881079 0.456170 0.057585
O O5 0.309729 0.788925 0.498048
O O6 0.774478 0.865418 0.025724
O O7 0.513975 0.075342 0.803593
O O8 0.149793 0.703546 0.708738
O O9 0.141766 0.884078 0.935825
O O10 0.500000 0.500000 0.000000
O O11 0.482694 0.519984 0.808077
O O12 0.104635 0.352433 0.376285
O O13 0.014514 0.812963 0.527864
O O14 0.655996 0.117276 0.654728
O O15 0.000000 0.000000 0.000000
#
# Coordination Sequence:
#
# PCOD9060484 Si02
#       7
#     2   2   2   2   2   2   2
#     4  12  25  45  75 104 149 193 251 299 365 437
#     4  11  23  43  71 107 147 187 250 298 371 437
#     4  11  24  42  73 108 148 192 242 306 370 434
#     4  11  27  45  72 108 152 192 246 302 374 436
#     4  12  27  45  73 108 148 196 244 300 368 439
#     4  12  25  48  75 109 149 194 247 302 369 446
#     4  11  25  46  72 108 145 195 242 311 364 430
#
# _framework density 24.097895999999999
#
# number of rings (size 3 to 8) (size 9 to 14) (size 15 to 20)
#    0.000    0.571    1.429    6.000    4.000    4.571 
#    0.000    0.000    0.000    0.000    0.000    0.000 
#    0.000    0.000    0.000    0.000    0.000    0.000 
#
# Total GULP energy -78476.759024 kJ/mol
# GULP energy per Si atom -5605.482787 kJ/mol
# Density = 2.404305 g / cm^3
# Si number density = 24.097896 Si / 1000 Ang^3
#
#
#
# Elastic Constant Matrix: (Units=GPa)
#
#
# Indices 1 2 3 4 5 6 
#
# 1 106.0894 37.8716 28.1377 4.5224 -3.1436 -3.5357
# 2 37.8716 122.4395 16.2245 -2.4615 -7.1801 35.3933
# 3 28.1377 16.2245 52.5467 -5.8434 8.8463 3.7919
# 4 4.5224 -2.4615 -5.8434 39.8400 -0.6847 4.9149
# 5 -3.1436 -7.1801 8.8463 -0.6847 39.9844 -1.0067
# 6 -3.5357 35.3933 3.7919 4.9149 -1.0067 49.5328
#
#
#
# Elastic Compliance Matrix: (Units=1/GPa)
#
#
# Indices 1 2 3 4 5 6 
#
# 1 0.013233 -0.004663 -0.006690 -0.003378 0.001755 0.005159
# 2 -0.004663 0.012610 -0.000760 0.002399 0.001868 -0.009485
# 3 -0.006690 -0.000760 0.024543 0.004502 -0.006075 -0.002384
# 4 -0.003378 0.002399 0.004502 0.026898 -0.000496 -0.004979
# 5 0.001755 0.001868 -0.006075 -0.000496 0.026815 -0.000150
# 6 0.005159 -0.009485 -0.002384 -0.004979 -0.000150 0.028008
#
#
# Mechanical properties :
#
#
# Convention : Reuss Voigt Hill
#
# Bulk Modulus (GPa) = 38.22502 49.50481 43.86491
# Shear Modulus (GPa) = 30.29358 39.12755 34.71057
#
# Velocity S-wave (km/s) = 3.54941 4.03388 3.79938
# Velocity P-wave (km/s) = 5.71792 6.50262 6.12285
#
# Compressibility (1/GPa) = 0.02616088
#
# Stress axis : x y z
#
# Youngs Moduli (GPa) = 75.57000 79.30277 40.74513
#
# Poissons Ratio (x) = 0.36979 0.27257
# Poissons Ratio (y) = 0.35238 0.03096
# Poissons Ratio (z) = 0.50553 0.06025
#
# Static dielectric constant tensor:
#      x y z
#    x 1.908700 0.004400 -0.015050 
#    y 0.004400 1.973730 0.003500 
#    z -0.015050 0.003500 1.899620 
# 
# From -- ./inp_files/525943.got.cif
#   From: 2010.05.17/outbox.cif.g08.bks.cpg/sg2_263_cif.got.tgz:525943.got - 2010.06.03 11:33:40.
