data_PCOD9060675
_publ_section_title
;
Structure prediction by ZEFSAII (Michael W. Deem and Ramdas Pophale) SiO2 
 PCOD9060675
Probable space group: P -1
;
_chemical_formula_sum "Si O2"
_cell_formula_units_Z 14
_cell_length_a 11.738539
_cell_length_b 24.633380
_cell_length_c 5.585255
_cell_angle_alpha 68.475609
_cell_angle_beta 93.608612
_cell_angle_gamma 150.486205
_cell_volume 613.509114
_symmetry_space_group_name_H-M "P -1"
_symmetry_group_IT_number 2
_symmetry_cell_setting 'triclinic'
loop_
_space_group_symop_operation_xyz
x,y,z
-x,-y,-z
loop_
_atom_site_type_symbol
_atom_site_label
_atom_site_fract_x
_atom_site_fract_y
_atom_site_fract_z
Si Si1 0.408693 0.800298 0.626642
Si Si2 0.149817 0.084038 0.634855
Si Si3 0.772243 0.662714 0.366451
Si Si4 0.559734 0.664481 0.672459
Si Si5 0.989772 0.560332 0.294561
Si Si6 0.371970 0.967123 0.781028
Si Si7 0.146291 0.417999 0.341788
O O1 0.575406 0.827572 0.474767
O O2 0.105352 0.671013 0.690388
O O3 0.570481 0.936637 0.396155
O O4 0.303339 0.724281 0.987919
O O5 0.216417 0.183297 0.478117
O O6 0.000000 0.000000 0.500000
O O7 0.000000 0.000000 0.000000
O O8 0.500000 0.500000 0.500000
O O9 0.677638 0.675743 0.471941
O O10 0.891841 0.668529 0.548541
O O11 0.037973 0.799626 0.013367
O O12 0.279809 0.567603 0.708467
O O13 0.447326 0.575359 0.025750
O O14 0.897316 0.572478 0.424442
O O15 0.000000 0.500000 0.500000
O O16 0.500000 0.000000 0.500000
O O17 0.500000 0.000000 0.000000
#
# Coordination Sequence:
#
# PCOD9060675 Si02
#       7
#     2   2   2   2   2   2   2
#     4  11  26  47  74 108 150 201 257 319 387 469
#     4  12  30  50  74 107 151 203 259 319 389 463
#     4  12  25  47  78 114 157 200 262 325 391 464
#     4  11  26  45  73 110 145 199 253 317 393 451
#     4  11  23  43  77 107 150 197 257 317 386 465
#     4  12  28  49  78 112 157 206 259 317 395 466
#     4  11  23  43  75 108 148 195 253 318 387 466
#
# _framework density 22.819548999999999
#
# number of rings (size 3 to 8) (size 9 to 14) (size 15 to 20)
#    0.000    0.571    2.857    3.857    8.000    5.714 
#    0.000    0.000    0.000    0.000    0.000    0.000 
#    0.000    0.000    0.000    0.000    0.000    0.000 
#
# Total GULP energy -78118.181966 kJ/mol
# GULP energy per Si atom -5579.870140 kJ/mol
# Density = 2.276761 g / cm^3
# Si number density = 22.819549 Si / 1000 Ang^3
#
#
#
# Elastic Constant Matrix: (Units=GPa)
#
#
# Indices 1 2 3 4 5 6 
#
# 1 143.8338 34.1238 67.4585 -11.7432 -4.5341 -19.8301
# 2 34.1238 95.4410 52.0427 -19.7304 0.3085 -23.5858
# 3 67.4585 52.0427 210.1560 -27.1102 -15.4771 -24.2094
# 4 -11.7432 -19.7304 -27.1102 33.0345 -1.2751 7.8379
# 5 -4.5341 0.3085 -15.4771 -1.2751 47.9754 -7.1123
# 6 -19.8301 -23.5858 -24.2094 7.8379 -7.1123 41.5914
#
#
#
# Elastic Compliance Matrix: (Units=1/GPa)
#
#
# Indices 1 2 3 4 5 6 
#
# 1 0.008592 -0.001380 -0.002138 -0.000017 0.000449 0.002150
# 2 -0.001380 0.014410 -0.001792 0.005349 0.000155 0.005489
# 3 -0.002138 -0.001792 0.006675 0.003354 0.002291 0.001610
# 4 -0.000017 0.005349 0.003354 0.036668 0.001779 -0.001628
# 5 0.000449 0.000155 0.002291 0.001779 0.022433 0.005136
# 6 0.002150 0.005489 0.001610 -0.001628 0.005136 0.030303
#
#
# Mechanical properties :
#
#
# Convention : Reuss Voigt Hill
#
# Bulk Modulus (GPa) = 52.47108 84.07564 68.27336
# Shear Modulus (GPa) = 36.75058 44.24064 40.49561
#
# Velocity S-wave (km/s) = 4.01744 4.40786 4.21717
# Velocity P-wave (km/s) = 6.67560 7.92650 7.32779
#
# Compressibility (1/GPa) = 0.01905812
#
# Stress axis : x y z
#
# Youngs Moduli (GPa) = 116.39391 69.39666 149.81110
#
# Poissons Ratio (x) = 0.09576 0.32023
# Poissons Ratio (y) = 0.16062 0.26842
# Poissons Ratio (z) = 0.24880 0.12434
#
# Static dielectric constant tensor:
#      x y z
#    x 1.870770 0.127640 0.129120 
#    y 0.127640 1.829800 -0.035010 
#    z 0.129120 -0.035010 1.824950 
# 
# From -- ./inp_files/77146.got.cif
#   From: 2010.05.17/outbox.cif.g08.bks.cpg/sg2_39_cif.got.tgz:77146.got - 2010.06.03 11:33:40.
