data_PCOD9060171
_publ_section_title
;
Structure prediction by ZEFSAII (Michael W. Deem and Ramdas Pophale) SiO2 
 PCOD9060171
Probable space group: P -1
;
_chemical_formula_sum "Si O2"
_cell_formula_units_Z 16
_cell_length_a 7.700894
_cell_length_b 9.118663
_cell_length_c 23.200378
_cell_angle_alpha 148.917067
_cell_angle_beta 127.030616
_cell_angle_gamma 53.144181
_cell_volume 657.363188
_symmetry_space_group_name_H-M "P -1"
_symmetry_group_IT_number 2
_symmetry_cell_setting 'triclinic'
loop_
_space_group_symop_operation_xyz
x,y,z
-x,-y,-z
loop_
_atom_site_type_symbol
_atom_site_label
_atom_site_fract_x
_atom_site_fract_y
_atom_site_fract_z
Si Si1 0.739361 0.223618 0.871283
Si Si2 0.852072 0.774968 0.124572
Si Si3 0.884066 0.824073 0.873606
Si Si4 0.024931 0.235298 0.534769
Si Si5 0.477607 0.816601 0.876381
Si Si6 0.523965 0.202192 0.651827
Si Si7 0.005756 0.194253 0.706040
Si Si8 0.361983 0.250678 0.381193
O O1 0.900740 0.296553 0.877190
O O2 0.851271 0.005488 0.870081
O O3 0.581432 0.024611 0.744199
O O4 0.700826 0.535221 0.001075
O O5 0.887758 0.816211 0.212980
O O6 0.741681 0.048668 0.157092
O O7 0.662507 0.818453 0.864471
O O8 0.024264 0.498521 0.783235
O O9 0.000000 0.000000 0.000000
O O10 0.288494 0.225054 0.581178
O O11 0.880764 0.560477 0.621082
O O12 0.922558 0.098691 0.413337
O O13 0.000000 0.000000 0.500000
O O14 0.486158 0.483265 0.780478
O O15 0.500000 0.000000 0.000000
O O16 0.738015 0.224181 0.664750
O O17 0.606249 0.909956 0.605379
O O18 0.500000 0.500000 0.500000
#
# Coordination Sequence:
#
# PCOD9060171 Si02
#       8
#     2   2   2   2   2   2   2   2
#     4  11  23  44  73  99 147 183 239 293 368 426
#     4  11  23  45  75 106 139 191 238 304 367 431
#     4  11  23  43  67 100 140 186 232 300 355 426
#     4  12  26  47  72 103 143 193 241 299 357 436
#     4  11  25  43  70 104 143 187 242 294 367 437
#     4  11  25  49  69 104 141 191 241 293 366 432
#     4  11  25  47  71 105 144 187 248 294 369 431
#     4  12  25  45  72 105 143 190 242 297 360 424
#
# _framework density 24.339665
#
# number of rings (size 3 to 8) (size 9 to 14) (size 15 to 20)
#    0.000    0.750    3.750    3.375    3.500    3.000 
#    4.500    0.000    0.000    0.000    0.000    0.000 
#    0.000    0.000    0.000    0.000    0.000    0.000 
#
# Total GULP energy -89320.183780 kJ/mol
# GULP energy per Si atom -5582.511486 kJ/mol
# Density = 2.428427 g / cm^3
# Si number density = 24.339665 Si / 1000 Ang^3
#
#
#
# Elastic Constant Matrix: (Units=GPa)
#
#
# Indices 1 2 3 4 5 6 
#
# 1 41.4624 8.8236 29.8362 0.9662 0.9185 -2.9662
# 2 8.8236 121.5610 25.6135 14.9202 0.0679 0.7831
# 3 29.8362 25.6135 171.4166 3.1519 5.5209 0.5537
# 4 0.9662 14.9202 3.1519 49.2758 2.6432 5.4547
# 5 0.9185 0.0679 5.5209 2.6432 36.7934 -4.3616
# 6 -2.9662 0.7831 0.5537 5.4547 -4.3616 37.8676
#
#
#
# Elastic Compliance Matrix: (Units=1/GPa)
#
#
# Indices 1 2 3 4 5 6 
#
# 1 0.027895 -0.001020 -0.004716 -0.000212 0.000306 0.002341
# 2 -0.001020 0.008856 -0.001110 -0.002631 0.000386 0.000177
# 3 -0.004716 -0.001110 0.006852 0.000107 -0.000984 -0.000575
# 4 -0.000212 -0.002631 0.000107 0.021557 -0.001945 -0.003293
# 5 0.000306 0.000386 -0.000984 -0.001945 0.027875 0.003521
# 6 0.002341 0.000177 -0.000575 -0.003293 0.003521 0.027476
#
#
# Mechanical properties :
#
#
# Convention : Reuss Voigt Hill
#
# Bulk Modulus (GPa) = 33.43472 51.44296 42.43884
# Shear Modulus (GPa) = 34.68031 42.79848 38.73939
#
# Velocity S-wave (km/s) = 3.77881 4.19786 3.99383
# Velocity P-wave (km/s) = 5.72763 6.68411 6.22427
#
# Compressibility (1/GPa) = 0.02990903
#
# Stress axis : x y z
#
# Youngs Moduli (GPa) = 35.84893 112.91965 145.93948
#
# Poissons Ratio (x) = 0.11521 0.68830
# Poissons Ratio (y) = 0.03657 0.16204
# Poissons Ratio (z) = 0.16908 0.12538
#
# Static dielectric constant tensor:
#      x y z
#    x 1.896030 -0.075300 -0.070930 
#    y -0.075300 1.928620 0.033930 
#    z -0.070930 0.033930 1.977490 
# 
# From -- ./inp_files/606945.got.cif
#   From: 2010.05.17/outbox.cif.g08.bks.cpg/sg2_304_cif.got.tgz:606945.got - 2010.06.03 11:33:40.
