data_PCOD9060644
_publ_section_title
;
Structure prediction by ZEFSAII (Michael W. Deem and Ramdas Pophale) SiO2 
 PCOD9060644
Probable space group: P -1
;
_chemical_formula_sum "Si O2"
_cell_formula_units_Z 13
_cell_length_a 9.719023
_cell_length_b 7.673581
_cell_length_c 11.472432
_cell_angle_alpha 137.386404
_cell_angle_beta 114.551703
_cell_angle_gamma 58.710710
_cell_volume 494.216638
_symmetry_space_group_name_H-M "P -1"
_symmetry_group_IT_number 2
_symmetry_cell_setting 'triclinic'
loop_
_space_group_symop_operation_xyz
x,y,z
-x,-y,-z
loop_
_atom_site_type_symbol
_atom_site_label
_atom_site_fract_x
_atom_site_fract_y
_atom_site_fract_z
Si Si1 0.613341 0.720683 0.463854
Si Si2 0.101660 0.223477 0.535419
Si Si3 0.768433 0.653846 0.715293
Si Si4 0.018438 0.096779 0.834888
Si Si5 0.435781 0.325848 0.127758
Si Si6 0.789199 0.628043 0.117959
Si Si7 0.000000 0.000000 0.000000
O O1 0.795866 0.685933 0.479235
O O2 0.619367 0.727015 0.609058
O O3 0.557422 0.477700 0.279424
O O4 0.500000 0.000000 0.500000
O O5 0.205781 0.216585 0.685606
O O6 0.920719 0.397689 0.597430
O O7 0.082127 0.962781 0.334302
O O8 0.706315 0.581595 0.780562
O O9 0.836272 0.900686 0.873737
O O10 0.138858 0.222824 0.881084
O O11 0.915466 0.309935 0.007806
O O12 0.077810 0.853147 0.826569
O O13 0.369649 0.391413 0.005081
O O14 0.500000 0.000000 0.000000
#
# Coordination Sequence:
#
# PCOD9060644 Si02
#       7
#     2   2   2   2   2   2   1
#     4  12  30  51  77 116 159 205 262 320 393 470
#     4  12  26  46  84 112 147 205 263 326 380 459
#     4  12  27  49  81 112 155 204 266 319 391 471
#     4  11  23  43  74 112 150 188 263 327 385 441
#     4  12  30  50  75 110 165 210 252 319 405 468
#     4  11  24  46  70 112 150 200 256 320 385 464
#     4  12  22  44  78 108 150 190 262 324 374 446
#
# _framework density 26.304252000000002
#
# number of rings (size 3 to 8) (size 9 to 14) (size 15 to 20)
#    0.000    0.308    4.615    3.231    6.462    1.846 
#    0.000    0.000    0.000    0.000    0.000    0.000 
#    0.000    0.000    0.000    0.000    0.000    0.000 
#
# Total GULP energy -72586.989453 kJ/mol
# GULP energy per Si atom -5583.614573 kJ/mol
# Density = 2.624438 g / cm^3
# Si number density = 26.304252 Si / 1000 Ang^3
#
#
#
# Elastic Constant Matrix: (Units=GPa)
#
#
# Indices 1 2 3 4 5 6 
#
# 1 99.8068 9.3278 23.8571 14.0730 9.4725 9.8531
# 2 9.3278 93.3161 61.8271 -15.9025 -6.4668 -12.9618
# 3 23.8571 61.8271 185.4548 -40.2879 19.0335 -19.2725
# 4 14.0730 -15.9025 -40.2879 58.1027 2.7790 0.8829
# 5 9.4725 -6.4668 19.0335 2.7790 56.4728 -9.8813
# 6 9.8531 -12.9618 -19.2725 0.8829 -9.8813 25.6413
#
#
#
# Elastic Compliance Matrix: (Units=1/GPa)
#
#
# Indices 1 2 3 4 5 6 
#
# 1 0.012707 -0.001663 -0.002857 -0.005256 -0.002623 -0.008701
# 2 -0.001663 0.015255 -0.004375 0.001220 0.004631 0.006805
# 3 -0.002857 -0.004375 0.009268 0.005976 -0.002629 0.004633
# 4 -0.005256 0.001220 0.005976 0.022923 -0.001085 0.005921
# 5 -0.002623 0.004631 -0.002629 -0.001085 0.021300 0.009619
# 6 -0.008701 0.006805 0.004633 0.005921 0.009619 0.052768
#
#
# Mechanical properties :
#
#
# Convention : Reuss Voigt Hill
#
# Bulk Modulus (GPa) = 51.44248 63.17796 57.31022
# Shear Modulus (GPa) = 31.54733 46.94773 39.24753
#
# Velocity S-wave (km/s) = 3.46688 4.22927 3.86691
# Velocity P-wave (km/s) = 5.96866 6.92237 6.46313
#
# Compressibility (1/GPa) = 0.01943919
#
# Stress axis : x y z
#
# Youngs Moduli (GPa) = 78.69855 65.55129 107.90142
#
# Poissons Ratio (x) = 0.10903 0.30827
# Poissons Ratio (y) = 0.13090 0.47207
# Poissons Ratio (z) = 0.22484 0.28679
#
# Static dielectric constant tensor:
#      x y z
#    x 2.110800 0.253550 -0.051620 
#    y 0.253550 3.087110 0.010000 
#    z -0.051620 0.010000 2.066110 
# 
# From -- ./inp_files/173713.got.cif
#   From: 2010.05.17/outbox.cif.g08.bks.cpg/sg2_87_cif.got.tgz:173713.got - 2010.06.03 11:33:40.
