data_PCOD9060992
_publ_section_title
;
Structure prediction by ZEFSAII (Michael W. Deem and Ramdas Pophale) SiO2 
 PCOD9060992
Probable space group: P -1
;
_chemical_formula_sum "Si O2"
_cell_formula_units_Z 14
_cell_length_a 11.988258
_cell_length_b 9.750898
_cell_length_c 10.563184
_cell_angle_alpha 140.776709
_cell_angle_beta 128.859761
_cell_angle_gamma 62.676009
_cell_volume 607.092708
_symmetry_space_group_name_H-M "P -1"
_symmetry_group_IT_number 2
_symmetry_cell_setting 'triclinic'
loop_
_space_group_symop_operation_xyz
x,y,z
-x,-y,-z
loop_
_atom_site_type_symbol
_atom_site_label
_atom_site_fract_x
_atom_site_fract_y
_atom_site_fract_z
Si Si1 0.171909 0.282465 0.984522
Si Si2 0.120670 0.737872 0.147589
Si Si3 0.614328 0.007127 0.200437
Si Si4 0.348008 0.514374 0.470843
Si Si5 0.039620 0.755152 0.825813
Si Si6 0.390134 0.079751 0.583925
Si Si7 0.251005 0.478630 0.654763
O O1 0.159225 0.523700 0.095267
O O2 0.248909 0.320872 0.202222
O O3 0.269808 0.161331 0.872517
O O4 0.016372 0.169040 0.814218
O O5 0.249740 0.915596 0.355954
O O6 0.066666 0.657944 0.914051
O O7 0.552117 0.952387 0.255560
O O8 0.693660 0.244961 0.423861
O O9 0.500000 0.000000 0.000000
O O10 0.500000 0.500000 0.500000
O O11 0.344209 0.505650 0.612877
O O12 0.187229 0.701769 0.820164
O O13 0.898869 0.651048 0.582492
O O14 0.000000 0.000000 0.000000
O O15 0.339318 0.323531 0.697672
O O16 0.500000 0.000000 0.500000
#
# Coordination Sequence:
#
# PCOD9060992 Si02
#       7
#     2   2   2   2   2   2   2
#     4  11  25  45  73 104 144 186 245 301 359 425
#     4  11  24  46  71 102 148 188 234 309 360 422
#     4  12  27  46  76 105 140 195 249 296 366 430
#     4  12  24  45  71 104 144 187 244 300 352 435
#     4  11  23  44  71 102 143 183 238 297 363 435
#     4  12  27  47  74 108 152 193 243 303 369 444
#     4  11  26  42  73 107 143 191 238 295 374 431
#
# _framework density 23.060727
#
# number of rings (size 3 to 8) (size 9 to 14) (size 15 to 20)
#    0.000    0.571    5.714    1.714    2.000    1.714 
#    0.000    2.143    0.000    0.000    0.000    0.000 
#    0.000    0.000    0.000    0.000    0.000    0.000 
#
# Total GULP energy -78293.871301 kJ/mol
# GULP energy per Si atom -5592.419379 kJ/mol
# Density = 2.300824 g / cm^3
# Si number density = 23.060727 Si / 1000 Ang^3
#
#
#
# Elastic Constant Matrix: (Units=GPa)
#
#
# Indices 1 2 3 4 5 6 
#
# 1 174.5572 39.2487 34.6760 3.2458 -14.0436 -3.0193
# 2 39.2487 92.9304 27.5966 -12.2823 -11.3427 3.4531
# 3 34.6760 27.5966 63.9216 -2.6146 -9.7398 -6.1149
# 4 3.2458 -12.2823 -2.6146 40.4014 3.1186 -11.1248
# 5 -14.0436 -11.3427 -9.7398 3.1186 39.3871 -1.6961
# 6 -3.0193 3.4531 -6.1149 -11.1248 -1.6961 34.6065
#
#
#
# Elastic Compliance Matrix: (Units=1/GPa)
#
#
# Indices 1 2 3 4 5 6 
#
# 1 0.006873 -0.002147 -0.002674 -0.001498 0.001286 -0.000077
# 2 -0.002147 0.013721 -0.004449 0.003620 0.001752 -0.001093
# 3 -0.002674 -0.004449 0.019887 0.001095 0.002778 0.004213
# 4 -0.001498 0.003620 0.001095 0.028559 -0.001102 0.008828
# 5 0.001286 0.001752 0.002778 -0.001102 0.027187 0.001406
# 6 -0.000077 -0.001093 0.004213 0.008828 0.001406 0.032650
#
#
# Mechanical properties :
#
#
# Convention : Reuss Voigt Hill
#
# Bulk Modulus (GPa) = 45.57640 59.38354 52.47997
# Shear Modulus (GPa) = 32.31434 38.20487 35.25961
#
# Velocity S-wave (km/s) = 3.74742 4.07468 3.91447
# Velocity P-wave (km/s) = 6.20731 6.92418 6.57552
#
# Compressibility (1/GPa) = 0.02194118
#
# Stress axis : x y z
#
# Youngs Moduli (GPa) = 145.50314 72.87878 50.28518
#
# Poissons Ratio (x) = 0.15645 0.13447
# Poissons Ratio (y) = 0.31235 0.22371
# Poissons Ratio (z) = 0.38910 0.32423
#
# Static dielectric constant tensor:
#      x y z
#    x 1.921930 -0.024380 -0.067220 
#    y -0.024380 1.887450 -0.002660 
#    z -0.067220 -0.002660 2.004760 
# 
# From -- ./inp_files/246174.got.cif
#   From: 2010.05.17/outbox.cif.g08.bks.cpg/sg2_124_cif.got.tgz:246174.got - 2010.06.03 11:33:40.
