data_PCOD9060443
_publ_section_title
;
Structure prediction by ZEFSAII (Michael W. Deem and Ramdas Pophale) SiO2 
 PCOD9060443
Probable space group: P -1
;
_chemical_formula_sum "Si O2"
_cell_formula_units_Z 14
_cell_length_a 11.791494
_cell_length_b 15.189298
_cell_length_c 11.193134
_cell_angle_alpha 142.332188
_cell_angle_beta 52.027147
_cell_angle_gamma 150.649888
_cell_volume 581.497227
_symmetry_space_group_name_H-M "P -1"
_symmetry_group_IT_number 2
_symmetry_cell_setting 'triclinic'
loop_
_space_group_symop_operation_xyz
x,y,z
-x,-y,-z
loop_
_atom_site_type_symbol
_atom_site_label
_atom_site_fract_x
_atom_site_fract_y
_atom_site_fract_z
Si Si1 0.245232 0.364247 0.500267
Si Si2 0.915442 0.543124 0.471019
Si Si3 0.916554 0.094726 0.629891
Si Si4 0.833702 0.942377 0.942772
Si Si5 0.770280 0.152599 0.020153
Si Si6 0.525965 0.174849 0.515620
Si Si7 0.433090 0.107557 0.773829
O O1 0.500000 0.500000 0.500000
O O2 0.261533 0.495001 0.528312
O O3 0.113474 0.316769 0.650421
O O4 0.108548 0.121164 0.269465
O O5 0.778171 0.397292 0.525550
O O6 0.159435 0.827319 0.632342
O O7 0.925662 0.413120 0.240374
O O8 0.867805 0.149836 0.837557
O O9 0.671798 0.894050 0.498704
O O10 0.000000 0.000000 0.500000
O O11 0.591424 0.774973 0.998485
O O12 0.805703 0.069763 0.020174
O O13 0.000000 0.000000 0.000000
O O14 0.500000 0.000000 0.000000
O O15 0.448154 0.943619 0.308325
O O16 0.529404 0.216091 0.696734
#
# Coordination Sequence:
#
# PCOD9060443 Si02
#       7
#     2   2   2   2   2   2   2
#     4  12  26  46  72 108 147 193 247 309 370 437
#     4  12  23  44  72 104 144 189 246 300 361 441
#     4  12  23  46  71 102 146 189 242 299 368 435
#     4  12  23  46  72 103 150 192 238 305 375 428
#     4  12  25  44  75 109 146 198 246 300 374 444
#     4  11  23  43  71 100 144 189 238 300 364 435
#     4  11  24  44  71 103 144 191 242 299 368 437
#
# _framework density 24.075780999999999
#
# number of rings (size 3 to 8) (size 9 to 14) (size 15 to 20)
#    0.000    0.286    7.143    2.143    0.000    0.571 
#    5.143    0.714    0.000    0.000    0.000    0.000 
#    0.000    0.000    0.000    0.000    0.000    0.000 
#
# Total GULP energy -78120.429952 kJ/mol
# GULP energy per Si atom -5580.030711 kJ/mol
# Density = 2.402098 g / cm^3
# Si number density = 24.075781 Si / 1000 Ang^3
#
#
#
# Elastic Constant Matrix: (Units=GPa)
#
#
# Indices 1 2 3 4 5 6 
#
# 1 168.1221 35.7228 29.9799 -4.8130 -10.5841 7.5643
# 2 35.7228 135.4090 35.1573 -38.2423 16.6762 -3.9267
# 3 29.9799 35.1573 97.9728 -37.7451 -5.9159 0.4682
# 4 -4.8130 -38.2423 -37.7451 46.0206 3.9044 2.8850
# 5 -10.5841 16.6762 -5.9159 3.9044 37.3005 -1.8941
# 6 7.5643 -3.9267 0.4682 2.8850 -1.8941 40.6483
#
#
#
# Elastic Compliance Matrix: (Units=1/GPa)
#
#
# Indices 1 2 3 4 5 6 
#
# 1 0.007103 -0.002712 -0.002429 -0.003700 0.003172 -0.001145
# 2 -0.002712 0.011849 0.000071 0.010185 -0.007092 0.000595
# 3 -0.002429 0.000071 0.015905 0.012852 0.000425 -0.000617
# 4 -0.003700 0.010185 0.012852 0.041133 -0.007960 -0.001766
# 5 0.003172 -0.007092 0.000425 -0.007960 0.031820 0.000767
# 6 -0.001145 0.000595 -0.000617 -0.001766 0.000767 0.025040
#
#
# Mechanical properties :
#
#
# Convention : Reuss Voigt Hill
#
# Bulk Modulus (GPa) = 40.45854 67.02488 53.74171
# Shear Modulus (GPa) = 33.06249 44.83682 38.94966
#
# Velocity S-wave (km/s) = 3.70978 4.32014 4.02654
# Velocity P-wave (km/s) = 5.93221 7.26529 6.63233
#
# Compressibility (1/GPa) = 0.02471666
#
# Stress axis : x y z
#
# Youngs Moduli (GPa) = 140.79147 84.39298 62.87419
#
# Poissons Ratio (x) = 0.22888 0.15271
# Poissons Ratio (y) = 0.38183 -0.00445
# Poissons Ratio (z) = 0.34195 -0.00597
#
# Static dielectric constant tensor:
#      x y z
#    x 1.951360 -0.013380 -0.006050 
#    y -0.013380 1.929920 0.024420 
#    z -0.006050 0.024420 1.967480 
# 
# From -- ./inp_files/433304.got.cif
#   From: 2010.05.17/outbox.cif.g08.bks.cpg/sg2_217_cif.got.tgz:433304.got - 2010.06.03 11:33:40.
