data_PCOD9060801
_publ_section_title
;
Structure prediction by ZEFSAII (Michael W. Deem and Ramdas Pophale) SiO2 
 PCOD9060801
Probable space group: P -1
;
_chemical_formula_sum "Si O2"
_cell_formula_units_Z 16
_cell_length_a 9.554872
_cell_length_b 14.702712
_cell_length_c 11.948412
_cell_angle_alpha 62.780065
_cell_angle_beta 120.212560
_cell_angle_gamma 65.576429
_cell_volume 704.691457
_symmetry_space_group_name_H-M "P -1"
_symmetry_group_IT_number 2
_symmetry_cell_setting 'triclinic'
loop_
_space_group_symop_operation_xyz
x,y,z
-x,-y,-z
loop_
_atom_site_type_symbol
_atom_site_label
_atom_site_fract_x
_atom_site_fract_y
_atom_site_fract_z
Si Si1 0.788407 0.410695 0.131088
Si Si2 0.343657 0.184287 0.636013
Si Si3 0.717816 0.795605 0.929120
Si Si4 0.705365 0.370778 0.547633
Si Si5 0.345039 0.323143 0.204513
Si Si6 0.148612 0.322693 0.716705
Si Si7 0.752209 0.110272 0.702535
Si Si8 0.136584 0.712454 0.006199
O O1 0.939550 0.271963 0.162874
O O2 0.026769 0.324966 0.368627
O O3 0.500000 0.500000 0.000000
O O4 0.643482 0.587028 0.920405
O O5 0.351955 0.182324 0.774430
O O6 0.520595 0.189712 0.657407
O O7 0.536383 0.987445 0.787163
O O8 0.563335 0.821216 0.750732
O O9 0.007323 0.690969 0.046202
O O10 0.746304 0.707755 0.098198
O O11 0.500000 0.500000 0.500000
O O12 0.832284 0.187512 0.711469
O O13 0.948410 0.329953 0.658795
O O14 0.487475 0.510790 0.276883
O O15 0.550311 0.221916 0.449327
O O16 0.000000 0.500000 0.000000
O O17 0.000000 0.500000 0.500000
O O18 0.005831 0.890277 0.900214
#
# Coordination Sequence:
#
# PCOD9060801 Si02
#       8
#     2   2   2   2   2   2   2   2
#     4  12  24  41  66 101 140 177 224 279 346 400
#     4  11  24  43  67 100 138 175 226 285 337 403
#     4  11  23  44  68 101 130 180 234 275 335 406
#     4  12  24  45  69  97 138 176 227 278 331 410
#     4  12  21  41  74  95 133 176 227 282 333 404
#     4  12  26  45  68  97 139 183 223 274 344 402
#     4  11  24  44  73 104 130 178 233 280 342 398
#     4  11  23  44  70 102 134 176 230 283 337 401
#
# _framework density 22.704972999999999
#
# number of rings (size 3 to 8) (size 9 to 14) (size 15 to 20)
#    0.000    0.500    5.000    3.375    0.000    2.500 
#    6.750    1.250    0.000    0.000    0.000    0.000 
#    0.000    0.000    0.000    0.000    0.000    0.000 
#
# Total GULP energy -89309.782238 kJ/mol
# GULP energy per Si atom -5581.861390 kJ/mol
# Density = 2.265330 g / cm^3
# Si number density = 22.704973 Si / 1000 Ang^3
#
#
#
# Elastic Constant Matrix: (Units=GPa)
#
#
# Indices 1 2 3 4 5 6 
#
# 1 124.0461 22.9645 9.2564 -5.8034 -11.4623 5.7844
# 2 22.9645 111.5974 -6.4512 -1.1254 1.3085 4.2129
# 3 9.2564 -6.4512 65.2001 6.7571 -9.0077 -0.2028
# 4 -5.8034 -1.1254 6.7571 24.6513 -2.1608 -10.3717
# 5 -11.4623 1.3085 -9.0077 -2.1608 22.8085 -0.8331
# 6 5.7844 4.2129 -0.2028 -10.3717 -0.8331 39.8730
#
#
#
# Elastic Compliance Matrix: (Units=1/GPa)
#
#
# Indices 1 2 3 4 5 6 
#
# 1 0.009054 -0.001942 -0.001133 0.002598 0.004447 -0.000345
# 2 -0.001942 0.009467 0.001133 -0.000842 -0.001186 -0.000957
# 3 -0.001133 0.001133 0.016867 -0.004772 0.005538 -0.000995
# 4 0.002598 -0.000842 -0.004772 0.047999 0.004465 0.012266
# 5 0.004447 -0.001186 0.005538 0.004465 0.048818 0.001690
# 6 -0.000345 -0.000957 -0.000995 0.012266 0.001690 0.028452
#
#
# Mechanical properties :
#
#
# Convention : Reuss Voigt Hill
#
# Bulk Modulus (GPa) = 31.74201 39.15366 35.44784
# Shear Modulus (GPa) = 28.56433 35.80483 32.18458
#
# Velocity S-wave (km/s) = 3.55077 3.97540 3.76907
# Velocity P-wave (km/s) = 5.55168 6.19304 5.88111
#
# Compressibility (1/GPa) = 0.03150399
#
# Stress axis : x y z
#
# Youngs Moduli (GPa) = 110.44654 105.62631 59.28749
#
# Poissons Ratio (x) = 0.20508 0.06720
# Poissons Ratio (y) = 0.21444 -0.06716
# Poissons Ratio (z) = 0.12518 -0.11965
#
# Static dielectric constant tensor:
#      x y z
#    x 1.880700 -0.090210 -0.047290 
#    y -0.090210 2.050690 0.104670 
#    z -0.047290 0.104670 1.908560 
# 
# From -- ./inp_files/346073.got.cif
#   From: 2010.05.17/outbox.cif.g08.bks.cpg/sg2_174_cif.got.tgz:346073.got - 2010.06.03 11:33:40.
