data_PCOD9060356
_publ_section_title
;
Structure prediction by ZEFSAII (Michael W. Deem and Ramdas Pophale) SiO2 
 PCOD9060356
Probable space group: P -1
;
_chemical_formula_sum "Si O2"
_cell_formula_units_Z 16
_cell_length_a 18.642453
_cell_length_b 16.145009
_cell_length_c 8.883075
_cell_angle_alpha 43.158628
_cell_angle_beta 134.893702
_cell_angle_gamma 156.415966
_cell_volume 724.890886
_symmetry_space_group_name_H-M "P -1"
_symmetry_group_IT_number 2
_symmetry_cell_setting 'triclinic'
loop_
_space_group_symop_operation_xyz
x,y,z
-x,-y,-z
loop_
_atom_site_type_symbol
_atom_site_label
_atom_site_fract_x
_atom_site_fract_y
_atom_site_fract_z
Si Si1 0.411535 0.785140 0.109858
Si Si2 0.919853 0.599484 0.662159
Si Si3 0.736001 0.011628 0.136489
Si Si4 0.813111 0.462644 0.194463
Si Si5 0.747609 0.673895 0.753264
Si Si6 0.660158 0.683725 0.301758
Si Si7 0.937326 0.879240 0.221812
Si Si8 0.163677 0.682294 0.314175
O O1 0.272063 0.604581 0.269431
O O2 0.574403 0.853489 0.227275
O O3 0.298847 0.686875 0.919668
O O4 0.500000 0.000000 0.000000
O O5 0.924301 0.722431 0.402342
O O6 0.942007 0.502708 0.721490
O O7 0.075779 0.774733 0.784466
O O8 0.729002 0.882121 0.202746
O O9 0.703635 0.094912 0.869721
O O10 0.751906 0.329218 0.428726
O O11 0.020116 0.626450 0.259202
O O12 0.796837 0.591345 0.000257
O O13 0.722343 0.649723 0.567283
O O14 0.556603 0.524880 0.738673
O O15 0.904956 0.924276 0.690211
O O16 0.752587 0.745235 0.199476
O O17 0.000000 0.000000 0.000000
#
# Coordination Sequence:
#
# PCOD9060356 Si02
#       8
#     2   2   2   2   2   2   2   2
#     4  12  24  43  70 102 137 178 236 282 343 411
#     4  12  25  45  68  99 141 181 229 292 338 414
#     4  12  23  43  72 100 132 179 237 283 347 412
#     4  11  23  43  70 100 139 179 226 282 346 414
#     4  11  23  47  72 101 136 183 238 290 334 409
#     4  11  25  43  75 101 131 184 243 285 337 415
#     4  12  27  44  69 104 143 185 227 286 357 408
#     4  11  24  42  67 101 139 180 221 281 353 414
#
# _framework density 22.072288
#
# number of rings (size 3 to 8) (size 9 to 14) (size 15 to 20)
#    0.000    0.500    5.000    3.750    1.750    2.000 
#    0.000    1.250    0.000    0.000    0.000    0.000 
#    0.000    0.000    0.000    0.000    0.000    0.000 
#
# Total GULP energy -89564.836186 kJ/mol
# GULP energy per Si atom -5597.802262 kJ/mol
# Density = 2.202205 g / cm^3
# Si number density = 22.072288 Si / 1000 Ang^3
#
#
#
# Elastic Constant Matrix: (Units=GPa)
#
#
# Indices 1 2 3 4 5 6 
#
# 1 69.3872 1.9756 27.1074 -10.6618 6.9030 21.3750
# 2 1.9756 71.6471 22.4537 -17.8396 3.4354 10.6060
# 3 27.1074 22.4537 118.4046 -36.7179 15.1222 10.5539
# 4 -10.6618 -17.8396 -36.7179 26.3539 3.0670 -2.1540
# 5 6.9030 3.4354 15.1222 3.0670 31.7080 -11.7644
# 6 21.3750 10.6060 10.5539 -2.1540 -11.7644 41.1986
#
#
#
# Elastic Compliance Matrix: (Units=1/GPa)
#
#
# Indices 1 2 3 4 5 6 
#
# 1 0.022710 0.006100 0.002259 0.016766 -0.014706 -0.017254
# 2 0.006100 0.020479 0.004523 0.023097 -0.012360 -0.011917
# 3 0.002259 0.004523 0.021284 0.034883 -0.018701 -0.011306
# 4 0.016766 0.023097 0.034883 0.111694 -0.044936 -0.030572
# 5 -0.014706 -0.012360 -0.018701 -0.044936 0.060691 0.030584
# 6 -0.017254 -0.011917 -0.011306 -0.030572 0.030584 0.046324
#
#
# Mechanical properties :
#
#
# Convention : Reuss Voigt Hill
#
# Bulk Modulus (GPa) = 11.08180 40.27912 25.68046
# Shear Modulus (GPa) = 17.39145 33.71225 25.55185
#
# Velocity S-wave (km/s) = 2.81006 3.91238 3.40611
# Velocity P-wave (km/s) = 3.94463 6.22072 5.20852
#
# Compressibility (1/GPa) = 0.09023805
#
# Stress axis : x y z
#
# Youngs Moduli (GPa) = 44.03330 48.82976 46.98343
#
# Poissons Ratio (x) = -0.29784 -0.10616
# Poissons Ratio (y) = -0.26859 -0.21252
# Poissons Ratio (z) = -0.09949 -0.22087
#
# Static dielectric constant tensor:
#      x y z
#    x 1.834590 0.003610 -0.004220 
#    y 0.003610 1.792960 0.005070 
#    z -0.004220 0.005070 1.838260 
# 
# From -- ./inp_files/338182.got.cif
#   From: 2010.05.17/outbox.cif.g08.bks.cpg/sg2_170_cif.got.tgz:338182.got - 2010.06.03 11:33:40.
