data_PCOD9060974
_publ_section_title
;
Structure prediction by ZEFSAII (Michael W. Deem and Ramdas Pophale) SiO2 
 PCOD9060974
Probable space group: P -1
;
_chemical_formula_sum "Si O2"
_cell_formula_units_Z 15
_cell_length_a 9.557372
_cell_length_b 20.988522
_cell_length_c 9.157130
_cell_angle_alpha 130.359334
_cell_angle_beta 149.302545
_cell_angle_gamma 48.833171
_cell_volume 689.840330
_symmetry_space_group_name_H-M "P -1"
_symmetry_group_IT_number 2
_symmetry_cell_setting 'triclinic'
loop_
_space_group_symop_operation_xyz
x,y,z
-x,-y,-z
loop_
_atom_site_type_symbol
_atom_site_label
_atom_site_fract_x
_atom_site_fract_y
_atom_site_fract_z
Si Si1 0.575767 0.415488 0.040934
Si Si2 0.684849 0.555042 0.826978
Si Si3 0.889213 0.146536 0.346788
Si Si4 0.000000 0.000000 0.000000
Si Si5 0.255149 0.915310 0.575352
Si Si6 0.848385 0.879722 0.927818
Si Si7 0.194535 0.302241 0.492210
Si Si8 0.330171 0.254960 0.880546
O O1 0.411025 0.437110 0.078843
O O2 0.905234 0.375904 0.313416
O O3 0.500000 0.500000 0.000000
O O4 0.454939 0.341754 0.746852
O O5 0.500000 0.500000 0.500000
O O6 0.665006 0.653772 0.905872
O O7 0.000000 0.500000 0.000000
O O8 0.725827 0.136934 0.334487
O O9 0.024350 0.053920 0.256042
O O10 0.117517 0.200427 0.665335
O O11 0.650194 0.195740 0.090328
O O12 0.121998 0.070121 0.119463
O O13 0.556870 0.928903 0.820166
O O14 0.000000 0.000000 0.500000
O O15 0.127828 0.871501 0.263138
O O16 0.815081 0.784367 0.726623
O O17 0.230530 0.277405 0.658561
#
# Coordination Sequence:
#
# PCOD9060974 Si02
#       8
#     2   2   2   1   2   2   2   2
#     4  11  24  46  72 101 141 180 228 288 356 424
#     4  11  23  44  70  99 135 182 225 286 353 422
#     4  12  26  45  69 105 136 188 237 290 349 419
#     4  12  28  42  82 102 136 192 256 286 334 444
#     4  12  27  48  66  98 151 185 223 296 364 401
#     4  12  27  47  72 104 140 189 242 289 354 423
#     4  11  23  45  73 102 138 182 231 296 348 407
#     4  11  24  44  72 100 140 177 237 295 347 410
#
# _framework density 21.744161999999999
#
# number of rings (size 3 to 8) (size 9 to 14) (size 15 to 20)
#    0.000    0.533    2.667    6.400    3.733    1.067 
#   14.400    0.000    0.000    0.000    0.000    0.000 
#    0.000    0.000    0.000    0.000    0.000    0.000 
#
# Total GULP energy -83642.950937 kJ/mol
# GULP energy per Si atom -5576.196729 kJ/mol
# Density = 2.169467 g / cm^3
# Si number density = 21.744162 Si / 1000 Ang^3
#
#
#
# Elastic Constant Matrix: (Units=GPa)
#
#
# Indices 1 2 3 4 5 6 
#
# 1 79.5880 5.6180 10.5151 -3.9900 5.6425 10.4490
# 2 5.6180 75.7377 22.6804 2.5801 2.5221 5.0807
# 3 10.5151 22.6804 121.4923 -2.8031 12.0177 2.9587
# 4 -3.9900 2.5801 -2.8031 39.3378 -3.5147 6.8308
# 5 5.6425 2.5221 12.0177 -3.5147 28.5318 3.2871
# 6 10.4490 5.0807 2.9587 6.8308 3.2871 28.8915
#
#
#
# Elastic Compliance Matrix: (Units=1/GPa)
#
#
# Indices 1 2 3 4 5 6 
#
# 1 0.013576 -0.000458 -0.000771 0.002102 -0.001475 -0.005080
# 2 -0.000458 0.014163 -0.002582 -0.000831 0.000039 -0.001869
# 3 -0.000771 -0.002582 0.009126 0.000420 -0.003421 0.000088
# 4 0.002102 -0.000831 0.000420 0.027362 0.003721 -0.007550
# 5 -0.001475 0.000039 -0.003421 0.003721 0.037731 -0.004296
# 6 -0.005080 -0.001869 0.000088 -0.007550 -0.004296 0.039043
#
#
# Mechanical properties :
#
#
# Convention : Reuss Voigt Hill
#
# Bulk Modulus (GPa) = 34.19691 39.38279 36.78985
# Shear Modulus (GPa) = 31.57166 35.21917 33.39541
#
# Velocity S-wave (km/s) = 3.81459 4.02892 3.92322
# Velocity P-wave (km/s) = 5.92980 6.30826 6.12196
#
# Compressibility (1/GPa) = 0.02924241
#
# Stress axis : x y z
#
# Youngs Moduli (GPa) = 73.66048 70.60674 109.58049
#
# Poissons Ratio (x) = 0.03232 0.08453
# Poissons Ratio (y) = 0.03372 0.28292
# Poissons Ratio (z) = 0.05682 0.18230
#
# Static dielectric constant tensor:
#      x y z
#    x 1.762670 -0.023960 -0.002650 
#    y -0.023960 1.844990 0.033420 
#    z -0.002650 0.033420 1.769680 
# 
# From -- ./inp_files/224150.got.cif
#   From: 2010.05.17/outbox.cif.g08.bks.cpg/sg2_113_cif.got.tgz:224150.got - 2010.06.03 11:33:40.
