data_PCOD9060518
_publ_section_title
;
Structure prediction by ZEFSAII (Michael W. Deem and Ramdas Pophale) SiO2 
 PCOD9060518
Probable space group: P -1
;
_chemical_formula_sum "Si O2"
_cell_formula_units_Z 16
_cell_length_a 15.733147
_cell_length_b 8.301271
_cell_length_c 11.403643
_cell_angle_alpha 108.981823
_cell_angle_beta 147.914595
_cell_angle_gamma 63.910385
_cell_volume 707.013217
_symmetry_space_group_name_H-M "P -1"
_symmetry_group_IT_number 2
_symmetry_cell_setting 'triclinic'
loop_
_space_group_symop_operation_xyz
x,y,z
-x,-y,-z
loop_
_atom_site_type_symbol
_atom_site_label
_atom_site_fract_x
_atom_site_fract_y
_atom_site_fract_z
Si Si1 0.398621 0.454675 0.979061
Si Si2 0.290724 0.625471 0.502457
Si Si3 0.903991 0.208027 0.905140
Si Si4 0.222505 0.788311 0.991896
Si Si5 0.638330 0.899524 0.230748
Si Si6 0.749834 0.741555 0.728650
Si Si7 0.059647 0.947656 0.424825
Si Si8 0.517369 0.006678 0.675311
O O1 0.533050 0.391865 0.230045
O O2 0.256531 0.631635 0.899853
O O3 0.500000 0.500000 0.000000
O O4 0.322383 0.308139 0.804719
O O5 0.240136 0.745237 0.352508
O O6 0.280215 0.432270 0.405169
O O7 0.145872 0.735101 0.451188
O O8 0.825198 0.279469 0.956358
O O9 0.051701 0.283189 0.049423
O O10 0.000000 0.000000 0.000000
O O11 0.386567 0.849853 0.207329
O O12 0.085549 0.964714 0.818698
O O13 0.545588 0.958656 0.258850
O O14 0.797879 0.963866 0.418347
O O15 0.500000 0.000000 0.000000
O O16 0.654373 0.920760 0.583276
O O17 0.645959 0.809317 0.744450
O O18 0.000000 0.000000 0.500000
#
# Coordination Sequence:
#
# PCOD9060518 Si02
#       8
#     2   2   2   2   2   2   2   2
#     4  12  25  47  72 107 144 187 243 302 348 428
#     4  12  25  46  73 105 143 189 242 296 354 427
#     4  12  25  43  69 104 147 184 237 295 363 421
#     4  12  24  44  70 104 144 186 231 300 358 420
#     4  12  25  44  72 103 140 190 238 291 358 427
#     4  11  24  44  73 103 141 190 234 296 352 427
#     4  12  26  45  73 104 145 188 236 298 361 422
#     4  11  23  43  72 102 142 187 235 285 367 419
#
# _framework density 22.630413999999998
#
# number of rings (size 3 to 8) (size 9 to 14) (size 15 to 20)
#    0.000    0.250    6.250    2.625    0.000    3.000 
#    0.000    0.000    0.000    0.000    0.000    0.000 
#    0.000    0.000    0.000    0.000    0.000    0.000 
#
# Total GULP energy -89464.521667 kJ/mol
# GULP energy per Si atom -5591.532604 kJ/mol
# Density = 2.257891 g / cm^3
# Si number density = 22.630414 Si / 1000 Ang^3
#
#
#
# Elastic Constant Matrix: (Units=GPa)
#
#
# Indices 1 2 3 4 5 6 
#
# 1 135.0182 54.3655 28.8174 20.4831 -9.6394 -32.1381
# 2 54.3655 137.7938 0.5234 26.8694 7.3738 -27.6889
# 3 28.8174 0.5234 90.5093 1.8916 0.9131 11.5855
# 4 20.4831 26.8694 1.8916 38.3055 -1.5634 -8.7156
# 5 -9.6394 7.3738 0.9131 -1.5634 36.3722 1.1331
# 6 -32.1381 -27.6889 11.5855 -8.7156 1.1331 36.1168
#
#
#
# Elastic Compliance Matrix: (Units=1/GPa)
#
#
# Indices 1 2 3 4 5 6 
#
# 1 0.012651 -0.002683 -0.005320 -0.002134 0.003618 0.010278
# 2 -0.002683 0.010317 0.000380 -0.004971 -0.003160 0.004299
# 3 -0.005320 0.000380 0.013899 -0.000197 -0.001567 -0.008899
# 4 -0.002134 -0.004971 -0.000197 0.031232 0.001733 0.001836
# 5 0.003618 -0.003160 -0.001567 0.001733 0.029182 0.000803
# 6 0.010278 0.004299 -0.008899 0.001836 0.000803 0.043402
#
#
# Mechanical properties :
#
#
# Convention : Reuss Voigt Hill
#
# Bulk Modulus (GPa) = 46.25183 58.97043 52.61113
# Shear Modulus (GPa) = 30.64915 40.79989 35.72452
#
# Velocity S-wave (km/s) = 3.68412 4.25064 3.97748
# Velocity P-wave (km/s) = 6.21122 7.08556 6.66275
#
# Compressibility (1/GPa) = 0.02162076
#
# Stress axis : x y z
#
# Youngs Moduli (GPa) = 79.04631 96.92859 71.94605
#
# Poissons Ratio (x) = 0.26009 0.38275
# Poissons Ratio (y) = 0.21211 -0.02735
# Poissons Ratio (z) = 0.42052 -0.03685
#
# Static dielectric constant tensor:
#      x y z
#    x 1.888890 -0.329580 -0.344000 
#    y -0.329580 3.550180 1.586530 
#    z -0.344000 1.586530 3.333690 
# 
# From -- ./inp_files/461494.got.cif
#   From: 2010.05.17/outbox.cif.g08.bks.cpg/sg2_231_cif.got.tgz:461494.got - 2010.06.03 11:33:40.
