data_PCOD9060899
_publ_section_title
;
Structure prediction by ZEFSAII (Michael W. Deem and Ramdas Pophale) SiO2 
 PCOD9060899
Probable space group: P -1
;
_chemical_formula_sum "Si O2"
_cell_formula_units_Z 15
_cell_length_a 18.758463
_cell_length_b 6.601724
_cell_length_c 9.272180
_cell_angle_alpha 92.175208
_cell_angle_beta 141.562728
_cell_angle_gamma 87.151514
_cell_volume 712.935364
_symmetry_space_group_name_H-M "P -1"
_symmetry_group_IT_number 2
_symmetry_cell_setting 'triclinic'
loop_
_space_group_symop_operation_xyz
x,y,z
-x,-y,-z
loop_
_atom_site_type_symbol
_atom_site_label
_atom_site_fract_x
_atom_site_fract_y
_atom_site_fract_z
Si Si1 0.306628 0.339344 0.983203
Si Si2 0.238787 0.938216 0.734178
Si Si3 0.372329 0.580356 0.825739
Si Si4 0.714484 0.523639 0.615341
Si Si5 0.102360 0.646906 0.700824
Si Si6 0.834703 0.876930 0.685210
Si Si7 0.924124 0.245170 0.025266
Si Si8 0.500000 0.500000 0.500000
O O1 0.317838 0.414089 0.837792
O O2 0.210406 0.493896 0.897863
O O3 0.267060 0.110096 0.900136
O O4 0.423593 0.376996 0.253901
O O5 0.351074 0.791863 0.881080
O O6 0.141608 0.793687 0.639030
O O7 0.201759 0.030807 0.524553
O O8 0.313237 0.597025 0.578068
O O9 0.500000 0.500000 0.000000
O O10 0.736493 0.751092 0.602172
O O11 0.610114 0.510840 0.560793
O O12 0.834364 0.429245 0.859927
O O13 0.071519 0.777946 0.796146
O O14 0.000000 0.500000 0.500000
O O15 0.947122 0.733101 0.827552
O O16 0.874321 0.051924 0.860137
#
# Coordination Sequence:
#
# PCOD9060899 Si02
#       8
#     2   2   2   2   2   2   2   1
#     4  11  24  46  66 103 140 191 238 292 352 426
#     4  11  25  45  72 106 138 187 241 294 355 436
#     4  11  23  44  69  96 137 181 234 286 351 418
#     4  12  24  47  71  98 145 187 235 300 354 420
#     4  11  26  44  71 103 148 186 232 295 369 424
#     4  11  25  44  73 106 141 185 245 292 361 430
#     4  11  25  44  69 107 141 186 238 298 362 425
#     4  12  26  46  72 100 146 192 240 294 354 420
#
# _framework density 21.039776
#
# number of rings (size 3 to 8) (size 9 to 14) (size 15 to 20)
#    0.000    0.800    5.333    1.200    3.733    4.800 
#    2.400    3.333    0.000    0.000    0.000    0.000 
#    0.000    0.000    0.000    0.000    0.000    0.000 
#
# Total GULP energy -83519.900362 kJ/mol
# GULP energy per Si atom -5567.993357 kJ/mol
# Density = 2.099189 g / cm^3
# Si number density = 21.039776 Si / 1000 Ang^3
#
#
#
# Elastic Constant Matrix: (Units=GPa)
#
#
# Indices 1 2 3 4 5 6 
#
# 1 143.2010 55.4156 42.5925 9.3912 7.0041 -0.8132
# 2 55.4156 84.6460 34.2201 9.5845 5.0660 11.5847
# 3 42.5925 34.2201 93.5176 12.0450 3.7069 11.8970
# 4 9.3912 9.5845 12.0450 23.1615 -4.8129 -1.1301
# 5 7.0041 5.0660 3.7069 -4.8129 37.7513 10.2100
# 6 -0.8132 11.5847 11.8970 -1.1301 10.2100 19.7013
#
#
#
# Elastic Compliance Matrix: (Units=1/GPa)
#
#
# Indices 1 2 3 4 5 6 
#
# 1 0.010701 -0.006534 -0.003345 -0.000119 -0.002905 0.007802
# 2 -0.006534 0.018829 -0.001995 -0.004371 0.001318 -0.011071
# 3 -0.003345 -0.001995 0.014751 -0.005692 0.001084 -0.008761
# 4 -0.000119 -0.004371 -0.005692 0.049503 0.005916 0.005776
# 5 -0.002905 0.001318 0.001084 0.005916 0.032362 -0.017982
# 6 0.007802 -0.011071 -0.008761 0.005776 -0.017982 0.072530
#
#
# Mechanical properties :
#
#
# Convention : Reuss Voigt Hill
#
# Bulk Modulus (GPa) = 48.70052 65.09121 56.89586
# Shear Modulus (GPa) = 21.80844 28.73191 25.27017
#
# Velocity S-wave (km/s) = 3.22302 3.69941 3.46940
# Velocity P-wave (km/s) = 6.08667 7.01797 6.56885
#
# Compressibility (1/GPa) = 0.02053366
#
# Stress axis : x y z
#
# Youngs Moduli (GPa) = 93.45207 53.10922 67.79040
#
# Poissons Ratio (x) = 0.34700 0.22675
# Poissons Ratio (y) = 0.61059 0.13525
# Poissons Ratio (z) = 0.31259 0.10596
#
# Static dielectric constant tensor:
#      x y z
#    x 1.769200 0.013070 -0.018180 
#    y 0.013070 1.779080 -0.021120 
#    z -0.018180 -0.021120 1.773430 
# 
# From -- ./inp_files/106964.got.cif
#   From: 2010.05.17/outbox.cif.g08.bks.cpg/sg2_54_cif.got.tgz:106964.got - 2010.06.03 11:33:40.
