data_PCOD9060164
_publ_section_title
;
Structure prediction by ZEFSAII (Michael W. Deem and Ramdas Pophale) SiO2 
 PCOD9060164
Probable space group: P -1
;
_chemical_formula_sum "Si O2"
_cell_formula_units_Z 16
_cell_length_a 12.095186
_cell_length_b 17.818790
_cell_length_c 20.896454
_cell_angle_alpha 160.917706
_cell_angle_beta 29.669651
_cell_angle_gamma 149.724569
_cell_volume 703.275346
_symmetry_space_group_name_H-M "P -1"
_symmetry_group_IT_number 2
_symmetry_cell_setting 'triclinic'
loop_
_space_group_symop_operation_xyz
x,y,z
-x,-y,-z
loop_
_atom_site_type_symbol
_atom_site_label
_atom_site_fract_x
_atom_site_fract_y
_atom_site_fract_z
Si Si1 0.698367 0.991022 0.484533
Si Si2 0.073225 0.458493 0.173482
Si Si3 0.206278 0.016519 0.719393
Si Si4 0.814396 0.606489 0.644395
Si Si5 0.564823 0.146111 0.943797
Si Si6 0.334917 0.616904 0.587556
Si Si7 0.056945 0.220017 0.697792
Si Si8 0.685953 0.348620 0.174505
O O1 0.793226 0.267073 0.681036
O O2 0.421012 0.925512 0.564677
O O3 0.780683 0.968824 0.352314
O O4 0.801201 0.839674 0.361221
O O5 0.917058 0.445107 0.304230
O O6 0.886457 0.350903 0.125272
O O7 0.229718 0.275437 0.946806
O O8 0.966090 0.838948 0.718296
O O9 0.692125 0.409696 0.496140
O O10 0.000000 0.500000 0.500000
O O11 0.618656 0.700565 0.854922
O O12 0.813102 0.250231 0.870477
O O13 0.468393 0.879431 0.752581
O O14 0.591849 0.139507 0.002405
O O15 0.481026 0.427783 0.377571
O O16 0.198996 0.439084 0.761622
O O17 0.000000 0.000000 0.500000
#
# Coordination Sequence:
#
# PCOD9060164 Si02
#       8
#     2   2   2   2   2   2   2   2
#     4  11  25  45  68  96 141 177 223 281 329 402
#     4  12  22  44  67 101 135 174 230 272 333 407
#     4  11  25  45  69  97 132 185 225 271 338 401
#     4  11  26  47  68  98 135 178 227 280 333 400
#     4  11  24  44  68  99 133 173 224 273 344 396
#     4  11  23  43  67 100 133 175 224 277 340 398
#     4  12  23  45  69 103 136 174 227 279 339 397
#     4  11  25  41  69 102 138 177 219 280 342 394
#
# _framework density 22.750691
#
# number of rings (size 3 to 8) (size 9 to 14) (size 15 to 20)
#    0.000    0.750    5.000    1.875    3.500    1.000 
#    4.500    0.000    0.000    0.000    0.000    0.000 
#    0.000    0.000    0.000    0.000    0.000    0.000 
#
# Total GULP energy -89567.445152 kJ/mol
# GULP energy per Si atom -5597.965322 kJ/mol
# Density = 2.269891 g / cm^3
# Si number density = 22.750691 Si / 1000 Ang^3
#
#
#
# Elastic Constant Matrix: (Units=GPa)
#
#
# Indices 1 2 3 4 5 6 
#
# 1 86.6686 14.4300 37.2150 -16.0388 -11.1822 8.2291
# 2 14.4300 48.3146 32.3833 -12.4735 -1.3886 2.5738
# 3 37.2150 32.3833 141.2011 -16.1997 7.9347 4.6880
# 4 -16.0388 -12.4735 -16.1997 45.4259 16.8712 1.3880
# 5 -11.1822 -1.3886 7.9347 16.8712 39.4069 7.4943
# 6 8.2291 2.5738 4.6880 1.3880 7.4943 29.8149
#
#
#
# Elastic Compliance Matrix: (Units=1/GPa)
#
#
# Indices 1 2 3 4 5 6 
#
# 1 0.014670 -0.001141 -0.003500 0.001946 0.004892 -0.004721
# 2 -0.001141 0.025725 -0.004957 0.005059 -0.000343 -0.001276
# 3 -0.003500 -0.004957 0.009631 0.002409 -0.004300 0.000848
# 4 0.001946 0.005059 0.002409 0.029577 -0.012496 0.000412
# 5 0.004892 -0.000343 -0.004300 -0.012496 0.034636 -0.008769
# 6 -0.004721 -0.001276 0.000848 0.000412 -0.008769 0.037005
#
#
# Mechanical properties :
#
#
# Convention : Reuss Voigt Hill
#
# Bulk Modulus (GPa) = 32.43533 49.36011 40.89772
# Shear Modulus (GPa) = 27.66736 35.73993 31.70364
#
# Velocity S-wave (km/s) = 3.49106 3.96781 3.73704
# Velocity P-wave (km/s) = 5.52610 6.53716 6.05278
#
# Compressibility (1/GPa) = 0.03083057
#
# Stress axis : x y z
#
# Youngs Moduli (GPa) = 68.16405 38.87215 103.82994
#
# Poissons Ratio (x) = 0.04437 0.36338
# Poissons Ratio (y) = 0.07781 0.51468
# Poissons Ratio (z) = 0.23856 0.19269
#
# Static dielectric constant tensor:
#      x y z
#    x 1.889720 0.036370 -0.017330 
#    y 0.036370 1.853630 -0.004080 
#    z -0.017330 -0.004080 1.876330 
# 
# From -- ./inp_files/428882.got.cif
#   From: 2010.05.17/outbox.cif.g08.bks.cpg/sg2_215_cif.got.tgz:428882.got - 2010.06.03 11:33:40.
