data_PCOD9060425
_publ_section_title
;
Structure prediction by ZEFSAII (Michael W. Deem and Ramdas Pophale) SiO2 
 PCOD9060425
Probable space group: P -1
;
_chemical_formula_sum "Si O2"
_cell_formula_units_Z 16
_cell_length_a 23.045539
_cell_length_b 9.098679
_cell_length_c 9.596329
_cell_angle_alpha 118.904643
_cell_angle_beta 130.382770
_cell_angle_gamma 27.667488
_cell_volume 688.051777
_symmetry_space_group_name_H-M "P -1"
_symmetry_group_IT_number 2
_symmetry_cell_setting 'triclinic'
loop_
_space_group_symop_operation_xyz
x,y,z
-x,-y,-z
loop_
_atom_site_type_symbol
_atom_site_label
_atom_site_fract_x
_atom_site_fract_y
_atom_site_fract_z
Si Si1 0.114246 0.138643 0.478780
Si Si2 0.855881 0.385712 0.130346
Si Si3 0.718075 0.139340 0.650687
Si Si4 0.970038 0.797280 0.065743
Si Si5 0.710820 0.846747 0.863313
Si Si6 0.544502 0.136731 0.472391
Si Si7 0.225292 0.893391 0.842681
Si Si8 0.357703 0.285715 0.812954
O O1 0.000000 0.500000 0.500000
O O2 0.009496 0.197216 0.274323
O O3 0.239292 0.966652 0.491113
O O4 0.184461 0.950457 0.645398
O O5 0.778222 0.541625 0.233146
O O6 0.907695 0.097241 0.064708
O O7 0.743638 0.671988 0.970855
O O8 0.630508 0.148059 0.578745
O O9 0.621211 0.494447 0.662697
O O10 0.869168 0.867153 0.847270
O O11 0.141324 0.458306 0.140382
O O12 0.921168 0.852675 0.172996
O O13 0.574369 0.053584 0.645604
O O14 0.707141 0.050301 0.995324
O O15 0.610250 0.866899 0.353168
O O16 0.327433 0.541642 0.874717
O O17 0.500000 0.000000 0.000000
#
# Coordination Sequence:
#
# PCOD9060425 Si02
#       8
#     2   2   2   2   2   2   2   2
#     4  12  24  42  68 105 140 178 229 290 346 405
#     4  11  25  42  71 103 139 181 230 288 350 402
#     4  11  24  45  69  99 142 180 229 280 347 416
#     4  11  23  43  70  98 145 180 227 286 347 412
#     4  12  24  42  70 108 134 181 235 287 340 411
#     4  11  26  43  72 101 134 190 229 276 345 419
#     4  11  25  42  69 101 138 184 229 287 346 411
#     4  11  27  49  70  97 145 184 229 283 351 417
#
# _framework density 23.254062999999999
#
# number of rings (size 3 to 8) (size 9 to 14) (size 15 to 20)
#    0.000    0.750    3.750    3.000    7.000    2.000 
#    0.000    3.125    0.000    0.000    0.000    0.000 
#    0.000    0.000    0.000    0.000    0.000    0.000 
#
# Total GULP energy -89562.855008 kJ/mol
# GULP energy per Si atom -5597.678438 kJ/mol
# Density = 2.320114 g / cm^3
# Si number density = 23.254063 Si / 1000 Ang^3
#
#
#
# Elastic Constant Matrix: (Units=GPa)
#
#
# Indices 1 2 3 4 5 6 
#
# 1 46.1395 -1.3731 3.4125 4.5133 -19.8972 20.0058
# 2 -1.3731 102.4747 -6.8658 11.8937 -7.1085 18.6379
# 3 3.4125 -6.8658 60.4806 -3.2563 -16.4798 8.1086
# 4 4.5133 11.8937 -3.2563 38.4183 3.4258 2.2541
# 5 -19.8972 -7.1085 -16.4798 3.4258 42.7741 1.6407
# 6 20.0058 18.6379 8.1086 2.2541 1.6407 34.0453
#
#
#
# Elastic Compliance Matrix: (Units=1/GPa)
#
#
# Indices 1 2 3 4 5 6 
#
# 1 0.058548 0.014068 0.014241 -0.010653 0.037701 -0.046609
# 2 0.014068 0.015317 0.006591 -0.005896 0.012808 -0.018448
# 3 0.014241 0.006591 0.023640 -0.002214 0.017708 -0.018314
# 4 -0.010653 -0.005896 -0.002214 0.029261 -0.009459 0.008534
# 5 0.037701 0.012808 0.017708 -0.009459 0.051977 -0.035262
# 6 -0.046609 -0.018448 -0.018314 0.008534 -0.035262 0.072357
#
#
# Mechanical properties :
#
#
# Convention : Reuss Voigt Hill
#
# Bulk Modulus (GPa) = 5.97711 22.16024 14.06867
# Shear Modulus (GPa) = 21.09095 37.30894 29.19995
#
# Velocity S-wave (km/s) = 3.01488 4.00985 3.54742
# Velocity P-wave (km/s) = 3.83344 5.56676 4.77933
#
# Compressibility (1/GPa) = 0.16730500
#
# Stress axis : x y z
#
# Youngs Moduli (GPa) = 17.07990 65.28831 42.30116
#
# Poissons Ratio (x) = -0.91845 -0.60243
# Poissons Ratio (y) = -0.24027 -0.27881
# Poissons Ratio (z) = -0.24324 -0.43031
#
# Static dielectric constant tensor:
#      x y z
#    x 1.908100 0.007620 0.044780 
#    y 0.007620 1.880570 0.093620 
#    z 0.044780 0.093620 2.153690 
# 
# From -- ./inp_files/245471.got.cif
#   From: 2010.05.17/outbox.cif.g08.bks.cpg/sg2_123_cif.got.tgz:245471.got - 2010.06.03 11:33:40.
