data_PCOD9060663
_publ_section_title
;
Structure prediction by ZEFSAII (Michael W. Deem and Ramdas Pophale) SiO2 
 PCOD9060663
Probable space group: P -1
;
_chemical_formula_sum "Si O2"
_cell_formula_units_Z 16
_cell_length_a 14.600579
_cell_length_b 7.625678
_cell_length_c 19.859497
_cell_angle_alpha 114.649022
_cell_angle_beta 20.734113
_cell_angle_gamma 116.762817
_cell_volume 698.900119
_symmetry_space_group_name_H-M "P -1"
_symmetry_group_IT_number 2
_symmetry_cell_setting 'triclinic'
loop_
_space_group_symop_operation_xyz
x,y,z
-x,-y,-z
loop_
_atom_site_type_symbol
_atom_site_label
_atom_site_fract_x
_atom_site_fract_y
_atom_site_fract_z
Si Si1 0.500240 0.914474 0.912285
Si Si2 0.819211 0.277267 0.320254
Si Si3 0.658384 0.823445 0.045226
Si Si4 0.040907 0.341928 0.803460
Si Si5 0.505070 0.707350 0.328363
Si Si6 0.711449 0.533989 0.685462
Si Si7 0.500562 0.871050 0.598995
Si Si8 0.099777 0.792658 0.974139
O O1 0.691991 0.759414 0.747457
O O2 0.519350 0.084165 0.870330
O O3 0.214004 0.787057 0.074882
O O4 0.500000 0.000000 0.000000
O O5 0.915307 0.449604 0.228986
O O6 0.612232 0.336386 0.523702
O O7 0.680950 0.106881 0.338006
O O8 0.068151 0.224010 0.179414
O O9 0.494489 0.622889 0.154965
O O10 0.774042 0.991371 0.047598
O O11 0.284651 0.241666 0.597582
O O12 0.975053 0.335800 0.927329
O O13 0.385241 0.530002 0.333727
O O14 0.400183 0.905474 0.410517
O O15 0.822756 0.764056 0.120133
O O16 0.000000 0.500000 0.500000
O O17 0.327436 0.758447 0.760438
#
# Coordination Sequence:
#
# PCOD9060663 Si02
#       8
#     2   2   2   2   2   2   2   2
#     4  11  28  50  78 103 143 199 254 314 376 448
#     4  12  24  43  73 110 152 196 244 305 375 458
#     4  11  24  50  74 106 148 191 249 307 378 445
#     4  11  26  45  66 114 148 194 263 298 375 455
#     4  12  24  44  70 110 152 192 248 310 379 448
#     4  12  29  50  76 112 144 194 260 311 378 450
#     4  12  23  41  72 107 152 202 247 295 382 451
#     4  11  23  43  75 103 155 201 230 315 376 447
#
# _framework density 22.893115000000002
#
# number of rings (size 3 to 8) (size 9 to 14) (size 15 to 20)
#    0.000    0.500    5.000    3.375    3.500    4.500 
#    0.000    0.000    0.000    0.000    0.000    0.000 
#    0.000    0.000    0.000    0.000    0.000    0.000 
#
# Total GULP energy -89485.307473 kJ/mol
# GULP energy per Si atom -5592.831717 kJ/mol
# Density = 2.284101 g / cm^3
# Si number density = 22.893115 Si / 1000 Ang^3
#
#
#
# Elastic Constant Matrix: (Units=GPa)
#
#
# Indices 1 2 3 4 5 6 
#
# 1 106.0186 22.3860 46.8005 18.0998 10.5240 0.7558
# 2 22.3860 52.4339 -0.1126 21.5440 8.1048 -12.9471
# 3 46.8005 -0.1126 129.7812 13.8838 3.9264 -9.3503
# 4 18.0998 21.5440 13.8838 37.0129 -6.9135 2.2506
# 5 10.5240 8.1048 3.9264 -6.9135 48.3303 -3.8140
# 6 0.7558 -12.9471 -9.3503 2.2506 -3.8140 43.9103
#
#
#
# Elastic Compliance Matrix: (Units=1/GPa)
#
#
# Indices 1 2 3 4 5 6 
#
# 1 0.013156 -0.005262 -0.004697 -0.001824 -0.002088 -0.002866
# 2 -0.005262 0.034064 0.005263 -0.021269 -0.007111 0.011728
# 3 -0.004697 0.005263 0.010266 -0.005066 -0.001104 0.003982
# 4 -0.001824 -0.021269 -0.005066 0.044601 0.010067 -0.008730
# 5 -0.002088 -0.007111 -0.001104 0.010067 0.023809 -0.000744
# 6 -0.002866 0.011728 0.003982 -0.008730 -0.000744 0.027512
#
#
# Mechanical properties :
#
#
# Convention : Reuss Voigt Hill
#
# Bulk Modulus (GPa) = 20.79328 47.37572 34.08450
# Shear Modulus (GPa) = 27.95925 40.46134 34.21029
#
# Velocity S-wave (km/s) = 3.49849 4.20861 3.86987
# Velocity P-wave (km/s) = 5.04200 6.66001 5.90667
#
# Compressibility (1/GPa) = 0.04809246
#
# Stress axis : x y z
#
# Youngs Moduli (GPa) = 76.01111 29.35671 97.41068
#
# Poissons Ratio (x) = 0.15448 0.45753
# Poissons Ratio (y) = 0.39999 -0.51264
# Poissons Ratio (z) = 0.35702 -0.15449
#
# Static dielectric constant tensor:
#      x y z
#    x 1.866270 -0.045160 -0.000110 
#    y -0.045160 1.915690 0.026690 
#    z -0.000110 0.026690 1.860030 
# 
# From -- ./inp_files/597434.got.cif
#   From: 2010.05.17/outbox.cif.g08.bks.cpg/sg2_299_cif.got.tgz:597434.got - 2010.06.03 11:33:40.
