data_PCOD9060450
_publ_section_title
;
Structure prediction by ZEFSAII (Michael W. Deem and Ramdas Pophale) SiO2 
 PCOD9060450
Probable space group: P -1
;
_chemical_formula_sum "Si O2"
_cell_formula_units_Z 16
_cell_length_a 9.622094
_cell_length_b 5.305381
_cell_length_c 15.468531
_cell_angle_alpha 70.088326
_cell_angle_beta 89.272856
_cell_angle_gamma 89.722791
_cell_volume 742.384874
_symmetry_space_group_name_H-M "P -1"
_symmetry_group_IT_number 2
_symmetry_cell_setting 'triclinic'
loop_
_space_group_symop_operation_xyz
x,y,z
-x,-y,-z
loop_
_atom_site_type_symbol
_atom_site_label
_atom_site_fract_x
_atom_site_fract_y
_atom_site_fract_z
Si Si1 0.463807 0.548979 0.364270
Si Si2 0.077329 0.021380 0.233071
Si Si3 0.746915 0.478238 0.285649
Si Si4 0.744625 0.452210 0.793159
Si Si5 0.593801 0.258382 0.990315
Si Si6 0.392870 0.144092 0.547630
Si Si7 0.216026 0.898281 0.833487
Si Si8 0.920352 0.056921 0.405646
O O1 0.611094 0.419411 0.350918
O O2 0.367548 0.537832 0.283911
O O3 0.383914 0.425215 0.461409
O O4 0.520928 0.830126 0.367195
O O5 0.185705 0.260422 0.222523
O O6 0.145205 0.767187 0.215984
O O7 0.950868 0.125986 0.162319
O O8 0.008181 0.956938 0.334468
O O9 0.754380 0.791308 0.227034
O O10 0.736868 0.304116 0.218930
O O11 0.882102 0.367288 0.348172
O O12 0.670038 0.352571 0.891941
O O13 0.500000 0.500000 0.000000
O O14 0.500000 0.000000 0.000000
O O15 0.706335 0.176921 0.071092
O O16 0.234354 0.066085 0.573627
O O17 0.500000 0.000000 0.500000
O O18 0.000000 0.000000 0.500000
#
# Coordination Sequence:
#
# PCOD9060450 Si02
#       8
#     2   2   2   2   2   2   2   2
#     4  11  24  40  67  95 142 179 239 294 352 411
#     4  11  26  45  66 104 140 191 235 278 370 419
#     4  11  23  43  71 102 135 194 229 290 359 418
#     4  12  27  44  72 105 142 184 234 298 351 425
#     4  12  26  47  75 111 138 181 237 294 364 424
#     4  11  24  42  65 100 135 186 241 287 358 410
#     4  11  24  45  72  98 145 180 234 287 351 437
#     4  11  24  43  72  99 146 185 243 297 349 425
#
# _framework density 21.552163
#
# number of rings (size 3 to 8) (size 9 to 14) (size 15 to 20)
#    0.000    0.750    1.250    6.750    3.500    1.000 
#    0.000    8.125    0.000    0.000    0.000    0.000 
#    0.000    0.000    0.000    0.000    0.000    0.000 
#
# Total GULP energy -89422.908294 kJ/mol
# GULP energy per Si atom -5588.931768 kJ/mol
# Density = 2.150311 g / cm^3
# Si number density = 21.552163 Si / 1000 Ang^3
#
#
#
# Elastic Constant Matrix: (Units=GPa)
#
#
# Indices 1 2 3 4 5 6 
#
# 1 102.6032 30.3486 62.8281 9.1807 -1.3703 14.9641
# 2 30.3486 113.0038 34.0149 8.7473 -9.9106 10.9608
# 3 62.8281 34.0149 140.4867 4.2753 16.1441 15.0418
# 4 9.1807 8.7473 4.2753 27.4613 4.9081 -6.8022
# 5 -1.3703 -9.9106 16.1441 4.9081 57.8352 7.3319
# 6 14.9641 10.9608 15.0418 -6.8022 7.3319 45.2072
#
#
#
# Elastic Compliance Matrix: (Units=1/GPa)
#
#
# Indices 1 2 3 4 5 6 
#
# 1 0.014898 -0.001140 -0.006141 -0.005109 0.002791 -0.003833
# 2 -0.001140 0.010569 -0.001999 -0.003850 0.002997 -0.002585
# 3 -0.006141 -0.001999 0.010737 0.001603 -0.003592 -0.000231
# 4 -0.005109 -0.003850 0.001603 0.042524 -0.006037 0.009469
# 5 0.002791 0.002997 -0.003592 -0.006037 0.019969 -0.004602
# 6 -0.003833 -0.002585 -0.000231 0.009469 -0.004602 0.026264
#
#
# Mechanical properties :
#
#
# Convention : Reuss Voigt Hill
#
# Bulk Modulus (GPa) = 56.68286 67.83077 62.25681
# Shear Modulus (GPa) = 33.46639 41.36088 37.41363
#
# Velocity S-wave (km/s) = 3.94484 4.38551 4.17100
# Velocity P-wave (km/s) = 6.86342 7.56206 7.22119
#
# Compressibility (1/GPa) = 0.01764202
#
# Stress axis : x y z
#
# Youngs Moduli (GPa) = 67.12499 94.61725 93.13192
#
# Poissons Ratio (x) = 0.10789 0.57195
# Poissons Ratio (y) = 0.07654 0.18621
# Poissons Ratio (z) = 0.41223 0.18918
#
# Static dielectric constant tensor:
#      x y z
#    x 1.790300 0.006030 -0.013380 
#    y 0.006030 1.929790 -0.047040 
#    z -0.013380 -0.047040 1.786520 
# 
# From -- ./inp_files/488178.got.cif
#   From: 2010.05.17/outbox.cif.g08.bks.cpg/sg2_245_cif.got.tgz:488178.got - 2010.06.03 11:33:40.
