data_PCOD9060818
_publ_section_title
;
Structure prediction by ZEFSAII (Michael W. Deem and Ramdas Pophale) SiO2 
 PCOD9060818
Probable space group: P -1
;
_chemical_formula_sum "Si O2"
_cell_formula_units_Z 14
_cell_length_a 9.602486
_cell_length_b 5.019403
_cell_length_c 15.576573
_cell_angle_alpha 123.019444
_cell_angle_beta 113.490574
_cell_angle_gamma 68.544530
_cell_volume 566.462905
_symmetry_space_group_name_H-M "P -1"
_symmetry_group_IT_number 2
_symmetry_cell_setting 'triclinic'
loop_
_space_group_symop_operation_xyz
x,y,z
-x,-y,-z
loop_
_atom_site_type_symbol
_atom_site_label
_atom_site_fract_x
_atom_site_fract_y
_atom_site_fract_z
Si Si1 0.623664 0.601561 0.248628
Si Si2 0.825360 0.619189 0.130013
Si Si3 0.301465 0.454113 0.097319
Si Si4 0.420417 0.866424 0.538290
Si Si5 0.091331 0.800020 0.666914
Si Si6 0.898886 0.320795 0.606370
Si Si7 0.137856 0.181090 0.160466
O O1 0.722666 0.627003 0.191898
O O2 0.480085 0.442681 0.160137
O O3 0.738688 0.413437 0.316878
O O4 0.556768 0.941740 0.336333
O O5 0.908074 0.931152 0.210869
O O6 0.958269 0.297566 0.109687
O O7 0.726587 0.640734 0.023756
O O8 0.237209 0.231266 0.110517
O O9 0.201186 0.819825 0.145668
O O10 0.500000 0.500000 0.500000
O O11 0.241047 0.851493 0.480820
O O12 0.500000 0.000000 0.500000
O O13 0.966452 0.571367 0.606987
O O14 0.041373 0.032878 0.615541
O O15 0.844549 0.551028 0.716024
#
# Coordination Sequence:
#
# PCOD9060818 Si02
#       7
#     2   2   2   2   2   2   2
#     4  12  28  48  74 105 147 184 245 299 350 429
#     4  11  26  47  72 105 145 189 245 293 352 425
#     4  12  27  42  73 103 147 194 234 296 363 409
#     4  12  28  49  76 109 145 186 234 294 369 428
#     4  11  24  44  71 103 141 182 239 293 345 418
#     4  11  23  46  73 102 145 185 236 292 352 419
#     4  11  23  44  68 104 142 189 240 289 354 430
#
# _framework density 24.714769
#
# number of rings (size 3 to 8) (size 9 to 14) (size 15 to 20)
#    0.000    0.571    2.857    5.571    6.000    1.714 
#    0.000    0.000    0.000    0.000    0.000    0.000 
#    0.000    0.000    0.000    0.000    0.000    0.000 
#
# Total GULP energy -78474.246532 kJ/mol
# GULP energy per Si atom -5605.303324 kJ/mol
# Density = 2.465852 g / cm^3
# Si number density = 24.714769 Si / 1000 Ang^3
#
#
#
# Elastic Constant Matrix: (Units=GPa)
#
#
# Indices 1 2 3 4 5 6 
#
# 1 150.0339 22.4180 47.2658 -7.3903 2.2378 12.5731
# 2 22.4180 94.8603 -5.8877 14.5998 -3.6095 12.3858
# 3 47.2658 -5.8877 102.4577 0.7603 6.3617 7.9406
# 4 -7.3903 14.5998 0.7603 34.8070 -1.6911 2.2626
# 5 2.2378 -3.6095 6.3617 -1.6911 43.8240 -3.1822
# 6 12.5731 12.3858 7.9406 2.2626 -3.1822 38.0375
#
#
#
# Elastic Compliance Matrix: (Units=1/GPa)
#
#
# Indices 1 2 3 4 5 6 
#
# 1 0.008583 -0.002578 -0.004023 0.003077 -0.000045 -0.001345
# 2 -0.002578 0.012607 0.002190 -0.005647 0.000392 -0.003342
# 3 -0.004023 0.002190 0.012002 -0.001988 -0.001571 -0.001902
# 4 0.003077 -0.005647 -0.001988 0.031875 0.000854 -0.000588
# 5 -0.000045 0.000392 -0.001571 0.000854 0.023267 0.002111
# 6 -0.001345 -0.003342 -0.001902 -0.000588 0.002111 0.028431
#
#
# Mechanical properties :
#
#
# Convention : Reuss Voigt Hill
#
# Bulk Modulus (GPa) = 41.03395 52.77157 46.90276
# Shear Modulus (GPa) = 37.39435 42.23742 39.81589
#
# Velocity S-wave (km/s) = 3.89400 4.13848 4.01810
# Velocity P-wave (km/s) = 6.07097 6.65091 6.36755
#
# Compressibility (1/GPa) = 0.02437006
#
# Stress axis : x y z
#
# Youngs Moduli (GPa) = 116.51345 79.31922 83.32132
#
# Poissons Ratio (x) = 0.20446 0.33523
# Poissons Ratio (y) = 0.30034 -0.18249
# Poissons Ratio (z) = 0.46877 -0.17373
#
# Static dielectric constant tensor:
#      x y z
#    x 1.947680 -0.037650 0.027700 
#    y -0.037650 1.957810 -0.015920 
#    z 0.027700 -0.015920 2.008140 
# 
# From -- ./inp_files/553113.got.cif
#   From: 2010.05.17/outbox.cif.g08.bks.cpg/sg2_277_cif.got.tgz:553113.got - 2010.06.03 11:33:40.
