data_PCOD9060674
_publ_section_title
;
Structure prediction by ZEFSAII (Michael W. Deem and Ramdas Pophale) SiO2 
 PCOD9060674
Probable space group: P -1
;
_chemical_formula_sum "Si O2"
_cell_formula_units_Z 12
_cell_length_a 6.691794
_cell_length_b 14.774333
_cell_length_c 8.777026
_cell_angle_alpha 63.093247
_cell_angle_beta 77.358216
_cell_angle_gamma 120.649156
_cell_volume 539.446691
_symmetry_space_group_name_H-M "P -1"
_symmetry_group_IT_number 2
_symmetry_cell_setting 'triclinic'
loop_
_space_group_symop_operation_xyz
x,y,z
-x,-y,-z
loop_
_atom_site_type_symbol
_atom_site_label
_atom_site_fract_x
_atom_site_fract_y
_atom_site_fract_z
Si Si1 0.261396 0.328210 0.424046
Si Si2 0.281709 0.547322 0.342644
Si Si3 0.694889 0.414614 0.043729
Si Si4 0.624455 0.105446 0.611804
Si Si5 0.704685 0.840645 0.213331
Si Si6 0.665066 0.912370 0.633786
O O1 0.286052 0.428261 0.464528
O O2 0.520298 0.420051 0.191018
O O3 0.261257 0.220719 0.596909
O O4 0.966219 0.235634 0.450102
O O5 0.553979 0.710570 0.219805
O O6 0.000000 0.500000 0.500000
O O7 0.259914 0.535591 0.173209
O O8 0.511093 0.249028 0.185746
O O9 0.000000 0.500000 0.000000
O O10 0.511414 0.141005 0.733144
O O11 0.450278 0.081782 0.510652
O O12 0.592169 0.972813 0.725671
O O13 0.000000 0.000000 0.000000
O O14 0.000000 0.000000 0.500000
#
# Coordination Sequence:
#
# PCOD9060674 Si02
#       6
#     2   2   2   2   2   2
#     4  12  25  51  76 103 153 198 246 310 362 446
#     4  12  27  47  74 107 151 196 244 302 380 441
#     4  12  26  46  78 109 144 195 257 301 365 441
#     4  11  23  43  76 103 150 188 248 296 372 425
#     4  12  28  46  75 111 149 192 247 307 375 435
#     4  11  23  43  75 108 143 191 247 310 360 427
#
# _framework density 22.245014999999999
#
# number of rings (size 3 to 8) (size 9 to 14) (size 15 to 20)
#    0.000    0.333    5.000    3.000    4.667    3.333 
#    0.000    0.000    0.000    0.000    0.000    0.000 
#    0.000    0.000    0.000    0.000    0.000    0.000 
#
# Total GULP energy -67055.201796 kJ/mol
# GULP energy per Si atom -5587.933483 kJ/mol
# Density = 2.219438 g / cm^3
# Si number density = 22.245015 Si / 1000 Ang^3
#
#
#
# Elastic Constant Matrix: (Units=GPa)
#
#
# Indices 1 2 3 4 5 6 
#
# 1 140.6780 59.8016 47.9932 -0.1880 -30.0770 -5.7237
# 2 59.8016 130.0243 23.0208 -17.7186 -8.2874 -12.4875
# 3 47.9932 23.0208 93.7609 -5.6062 -17.0979 1.6629
# 4 -0.1880 -17.7186 -5.6062 41.3890 0.4701 1.6485
# 5 -30.0770 -8.2874 -17.0979 0.4701 39.7429 -4.1591
# 6 -5.7237 -12.4875 1.6629 1.6485 -4.1591 72.2817
#
#
#
# Elastic Compliance Matrix: (Units=1/GPa)
#
#
# Indices 1 2 3 4 5 6 
#
# 1 0.011785 -0.004607 -0.003902 -0.002546 0.006378 0.000652
# 2 -0.004607 0.010487 -0.000215 0.004403 -0.001311 0.001276
# 3 -0.003902 -0.000215 0.013309 0.001684 0.002652 -0.000538
# 4 -0.002546 0.004403 0.001684 0.026274 -0.000606 -0.000114
# 5 0.006378 -0.001311 0.002652 -0.000606 0.031074 0.002019
# 6 0.000652 0.001276 -0.000538 -0.000114 0.002019 0.014238
#
#
# Mechanical properties :
#
#
# Convention : Reuss Voigt Hill
#
# Bulk Modulus (GPa) = 55.14772 69.56603 62.35687
# Shear Modulus (GPa) = 38.26752 46.25924 42.26338
#
# Velocity S-wave (km/s) = 4.15212 4.56514 4.36352
# Velocity P-wave (km/s) = 6.91604 7.68946 7.31298
#
# Compressibility (1/GPa) = 0.01813312
#
# Stress axis : x y z
#
# Youngs Moduli (GPa) = 84.85629 95.35708 75.13565
#
# Poissons Ratio (x) = 0.43931 0.29317
# Poissons Ratio (y) = 0.39094 0.01615
# Poissons Ratio (z) = 0.33109 0.02050
#
# Static dielectric constant tensor:
#      x y z
#    x 1.843820 -0.028390 0.060900 
#    y -0.028390 1.853570 0.003400 
#    z 0.060900 0.003400 1.837750 
# 
# From -- ./inp_files/26014.got.cif
#   From: 2010.05.17/outbox.cif.g08.bks.cpg/sg2_14_cif.got.tgz:26014.got - 2010.06.03 11:33:40.
