data_PCOD9060244
_publ_section_title
;
Structure prediction by ZEFSAII (Michael W. Deem and Ramdas Pophale) SiO2 
 PCOD9060244
Probable space group: P -1
;
_chemical_formula_sum "Si O2"
_cell_formula_units_Z 16
_cell_length_a 9.091885
_cell_length_b 15.923125
_cell_length_c 4.970112
_cell_angle_alpha 65.229132
_cell_angle_beta 94.704602
_cell_angle_gamma 110.312735
_cell_volume 610.994308
_symmetry_space_group_name_H-M "P -1"
_symmetry_group_IT_number 2
_symmetry_cell_setting 'triclinic'
loop_
_space_group_symop_operation_xyz
x,y,z
-x,-y,-z
loop_
_atom_site_type_symbol
_atom_site_label
_atom_site_fract_x
_atom_site_fract_y
_atom_site_fract_z
Si Si1 0.155181 0.991120 0.665140
Si Si2 0.726033 0.475328 0.048968
Si Si3 0.626721 0.221188 0.838206
Si Si4 0.412465 0.201427 0.339804
Si Si5 0.097202 0.611031 0.424924
Si Si6 0.855269 0.132007 0.659765
Si Si7 0.597109 0.612765 0.172930
Si Si8 0.140154 0.323008 0.472927
O O1 0.208441 0.922102 0.557484
O O2 0.284784 0.098728 0.543240
O O3 0.119663 0.942998 0.017289
O O4 0.000000 0.000000 0.500000
O O5 0.587134 0.426729 0.878867
O O6 0.848496 0.578984 0.822610
O O7 0.811363 0.403647 0.272370
O O8 0.646150 0.520175 0.212901
O O9 0.518782 0.240366 0.563523
O O10 0.760926 0.320511 0.821639
O O11 0.726830 0.167170 0.752800
O O12 0.513226 0.182075 0.129042
O O13 0.341835 0.285305 0.126241
O O14 0.000000 0.500000 0.500000
O O15 0.971677 0.665903 0.317178
O O16 0.023156 0.217285 0.499328
O O17 0.685880 0.651282 0.414671
#
# Coordination Sequence:
#
# PCOD9060244 Si02
#       8
#     2   2   2   2   2   2   2   2
#     4  12  27  49  77 111 142 193 239 308 378 439
#     4  11  24  43  68  98 145 191 246 293 374 437
#     4  11  27  48  72 111 143 197 243 302 368 434
#     4  12  27  46  77 103 152 188 246 310 364 439
#     4  11  23  43  68 104 144 195 248 299 356 438
#     4  11  27  48  76 106 149 183 253 299 367 447
#     4  11  25  42  65 106 140 193 239 307 360 449
#     4  11  25  40  72  99 141 193 237 308 365 433
#
# _framework density 26.186820999999998
#
# number of rings (size 3 to 8) (size 9 to 14) (size 15 to 20)
#    0.000    0.750    2.500    3.375    7.000    5.000 
#    0.000    0.000    0.000    0.000    0.000    0.000 
#    0.000    0.000    0.000    0.000    0.000    0.000 
#
# Total GULP energy -89395.826285 kJ/mol
# GULP energy per Si atom -5587.239143 kJ/mol
# Density = 2.612722 g / cm^3
# Si number density = 26.186821 Si / 1000 Ang^3
#
#
#
# Elastic Constant Matrix: (Units=GPa)
#
#
# Indices 1 2 3 4 5 6 
#
# 1 103.4277 16.3295 16.2486 14.7743 10.4731 -2.8617
# 2 16.3295 106.9126 4.7127 -11.8446 -5.4475 17.3604
# 3 16.2486 4.7127 80.0854 -14.4325 -9.1308 8.9018
# 4 14.7743 -11.8446 -14.4325 50.7695 1.8389 -17.1451
# 5 10.4731 -5.4475 -9.1308 1.8389 29.8230 -3.3857
# 6 -2.8617 17.3604 8.9018 -17.1451 -3.3857 49.3885
#
#
#
# Elastic Compliance Matrix: (Units=1/GPa)
#
#
# Indices 1 2 3 4 5 6 
#
# 1 0.011915 -0.002502 -0.003793 -0.004867 -0.005481 0.000188
# 2 -0.002502 0.010580 0.000943 0.002343 0.002610 -0.003042
# 3 -0.003793 0.000943 0.014861 0.004967 0.005621 -0.001120
# 4 -0.004867 0.002343 0.004967 0.025328 0.002890 0.006990
# 5 -0.005481 0.002610 0.005621 0.002890 0.037627 0.001334
# 6 0.000188 -0.003042 -0.001120 0.006990 0.001334 0.024048
#
#
# Mechanical properties :
#
#
# Convention : Reuss Voigt Hill
#
# Bulk Modulus (GPa) = 37.51991 40.55636 39.03814
# Shear Modulus (GPa) = 34.73495 42.87184 38.80339
#
# Velocity S-wave (km/s) = 3.64597 4.05056 3.85358
# Velocity P-wave (km/s) = 5.66419 6.11531 5.89407
#
# Compressibility (1/GPa) = 0.02665251
#
# Stress axis : x y z
#
# Youngs Moduli (GPa) = 83.92795 94.51411 67.28917
#
# Poissons Ratio (x) = 0.23645 0.25524
# Poissons Ratio (y) = 0.20996 -0.06344
# Poissons Ratio (z) = 0.31836 -0.08911
#
# Static dielectric constant tensor:
#      x y z
#    x 2.170310 -0.132200 -0.094050 
#    y -0.132200 2.154710 0.015530 
#    z -0.094050 0.015530 2.087320 
# 
# From -- ./inp_files/46686.got.cif
#   From: 2010.05.17/outbox.cif.g08.bks.cpg/sg2_24_cif.got.tgz:46686.got - 2010.06.03 11:33:40.
