data_PCOD9060926
_publ_section_title
;
Structure prediction by ZEFSAII (Michael W. Deem and Ramdas Pophale) SiO2 
 PCOD9060926
Probable space group: P -1
;
_chemical_formula_sum "Si O2"
_cell_formula_units_Z 16
_cell_length_a 8.566032
_cell_length_b 5.771607
_cell_length_c 20.951179
_cell_angle_alpha 139.757765
_cell_angle_beta 95.200250
_cell_angle_gamma 79.260835
_cell_volume 655.265902
_symmetry_space_group_name_H-M "P -1"
_symmetry_group_IT_number 2
_symmetry_cell_setting 'triclinic'
loop_
_space_group_symop_operation_xyz
x,y,z
-x,-y,-z
loop_
_atom_site_type_symbol
_atom_site_label
_atom_site_fract_x
_atom_site_fract_y
_atom_site_fract_z
Si Si1 0.505291 0.395282 0.772993
Si Si2 0.237513 0.322153 0.223426
Si Si3 0.550754 0.407656 0.410565
Si Si4 0.803444 0.320306 0.572259
Si Si5 0.764786 0.114107 0.195484
Si Si6 0.006713 0.088022 0.943571
Si Si7 0.522521 0.640326 0.101409
Si Si8 0.105304 0.519082 0.609474
O O1 0.682979 0.408039 0.760874
O O2 0.392285 0.578592 0.750457
O O3 0.486047 0.585959 0.881896
O O4 0.459017 0.003814 0.694308
O O5 0.157544 0.561373 0.329648
O O6 0.124905 0.108562 0.134844
O O7 0.379782 0.989254 0.178616
O O8 0.500000 0.500000 0.500000
O O9 0.389683 0.626477 0.417827
O O10 0.734513 0.446223 0.416906
O O11 0.920406 0.552286 0.586637
O O12 0.853711 0.910943 0.462494
O O13 0.880929 0.211057 0.274193
O O14 0.696499 0.751126 0.130478
O O15 0.833224 0.111768 0.126811
O O16 0.000000 0.500000 0.000000
O O17 0.000000 0.000000 0.000000
O O18 0.500000 0.500000 0.000000
#
# Coordination Sequence:
#
# PCOD9060926 Si02
#       8
#     2   2   2   2   2   2   2   2
#     4  11  24  41  69 102 135 188 240 305 384 452
#     4  11  24  46  68 102 143 188 245 314 377 463
#     4  12  23  42  69 104 145 191 251 318 387 470
#     4  11  23  44  70 101 145 194 248 314 391 466
#     4  11  24  46  68 102 143 188 245 314 377 463
#     4  12  30  48  75 108 149 202 254 316 394 458
#     4  11  24  42  71  98 140 186 250 303 382 451
#     4  11  23  44  70 101 145 194 248 314 391 466
#
# _framework density 24.417566999999998
#
# number of rings (size 3 to 8) (size 9 to 14) (size 15 to 20)
#    0.000    0.750    3.750    3.375    7.000    1.500 
#    2.250    0.000    0.000    0.000    0.000    0.000 
#    0.000    0.000    0.000    0.000    0.000    0.000 
#
# Total GULP energy -89136.969871 kJ/mol
# GULP energy per Si atom -5571.060617 kJ/mol
# Density = 2.436199 g / cm^3
# Si number density = 24.417567 Si / 1000 Ang^3
#
#
#
# Elastic Constant Matrix: (Units=GPa)
#
#
# Indices 1 2 3 4 5 6 
#
# 1 131.4717 33.9930 29.7503 -8.9101 10.1996 44.2952
# 2 33.9930 40.8399 17.6954 -14.2588 8.8038 19.8029
# 3 29.7503 17.6954 115.9485 -21.5952 21.2899 16.2726
# 4 -8.9101 -14.2588 -21.5952 38.6007 6.4427 -9.7702
# 5 10.1996 8.8038 21.2899 6.4427 44.2125 0.2897
# 6 44.2952 19.8029 16.2726 -9.7702 0.2897 46.6886
#
#
#
# Elastic Compliance Matrix: (Units=1/GPa)
#
#
# Indices 1 2 3 4 5 6 
#
# 1 0.012482 -0.005954 -0.001284 -0.002288 -0.000681 -0.009344
# 2 -0.005954 0.039754 0.000691 0.012950 -0.008705 -0.008689
# 3 -0.001284 0.000691 0.011578 0.007111 -0.006442 -0.001582
# 4 -0.002288 0.012950 0.007111 0.036420 -0.010795 0.001887
# 5 -0.000681 -0.008705 -0.006442 -0.010795 0.029157 0.004144
# 6 -0.009344 -0.008689 -0.001582 0.001887 0.004144 0.034890
#
#
# Mechanical properties :
#
#
# Convention : Reuss Voigt Hill
#
# Bulk Modulus (GPa) = 19.71644 50.12639 34.92142
# Shear Modulus (GPa) = 25.73588 39.68846 32.71217
#
# Velocity S-wave (km/s) = 3.25004 4.03601 3.66416
# Velocity P-wave (km/s) = 4.70913 6.50327 5.67752
#
# Compressibility (1/GPa) = 0.05071908
#
# Stress axis : x y z
#
# Youngs Moduli (GPa) = 80.11434 25.15463 86.37190
#
# Poissons Ratio (x) = 0.14978 0.11087
# Poissons Ratio (y) = 0.47704 -0.05965
# Poissons Ratio (z) = 0.10284 -0.01737
#
# Static dielectric constant tensor:
#      x y z
#    x 2.090070 -0.032490 -0.049260 
#    y -0.032490 1.943150 0.067660 
#    z -0.049260 0.067660 1.915600 
# 
# From -- ./inp_files/585963.got.cif
#   From: 2010.05.17/outbox.cif.g08.bks.cpg/sg2_293_cif.got.tgz:585963.got - 2010.06.03 11:33:40.
