data_PCOD9060035
_publ_section_title
;
Structure prediction by ZEFSAII (Michael W. Deem and Ramdas Pophale) SiO2 
 PCOD9060035
Probable space group: P -1
;
_chemical_formula_sum "Si O2"
_cell_formula_units_Z 12
_cell_length_a 17.555861
_cell_length_b 5.092789
_cell_length_c 8.027086
_cell_angle_alpha 84.857925
_cell_angle_beta 45.224576
_cell_angle_gamma 64.365789
_cell_volume 432.607493
_symmetry_space_group_name_H-M "P -1"
_symmetry_group_IT_number 2
_symmetry_cell_setting 'triclinic'
loop_
_space_group_symop_operation_xyz
x,y,z
-x,-y,-z
loop_
_atom_site_type_symbol
_atom_site_label
_atom_site_fract_x
_atom_site_fract_y
_atom_site_fract_z
Si Si1 0.740812 0.276766 0.899379
Si Si2 0.324773 0.219386 0.261496
Si Si3 0.838706 0.380649 0.082543
Si Si4 0.349078 0.653994 0.426475
Si Si5 0.072646 0.298305 0.565718
Si Si6 0.388937 0.933239 0.660339
O O1 0.661754 0.625191 0.934541
O O2 0.839189 0.044480 0.626179
O O3 0.815902 0.265260 0.947866
O O4 0.652534 0.152466 0.100208
O O5 0.384491 0.337548 0.300067
O O6 0.172249 0.375259 0.486002
O O7 0.367620 0.870766 0.258784
O O8 0.794596 0.232742 0.300101
O O9 0.734955 0.746169 0.226263
O O10 0.974196 0.332463 0.853696
O O11 0.408308 0.680721 0.505938
O O12 0.000000 0.500000 0.500000
O O13 0.500000 0.000000 0.500000
#
# Coordination Sequence:
#
# PCOD9060035 Si02
#       6
#     2   2   2   2   2   2
#     4  11  23  42  74 103 144 182 240 281 353 415
#     4  12  24  45  70 106 150 183 228 294 351 419
#     4  11  24  44  72 105 144 187 238 283 347 428
#     4  11  26  46  69 105 148 183 234 291 358 411
#     4  12  23  40  73 108 143 188 232 280 349 427
#     4  11  25  50  77 100 136 189 243 294 348 421
#
# _framework density 27.738768
#
# number of rings (size 3 to 8) (size 9 to 14) (size 15 to 20)
#    0.000    0.667    6.667    0.500    0.000    4.000 
#    0.000    1.667    0.000    0.000    0.000    0.000 
#    0.000    0.000    0.000    0.000    0.000    0.000 
#
# Total GULP energy -67239.159958 kJ/mol
# GULP energy per Si atom -5603.263330 kJ/mol
# Density = 2.767563 g / cm^3
# Si number density = 27.738768 Si / 1000 Ang^3
#
#
#
# Elastic Constant Matrix: (Units=GPa)
#
#
# Indices 1 2 3 4 5 6 
#
# 1 104.2917 19.4547 8.2933 1.8674 -20.9673 9.9402
# 2 19.4547 153.7988 51.8788 -28.1553 -10.0478 13.9749
# 3 8.2933 51.8788 164.5227 -30.7264 -32.7743 -14.9939
# 4 1.8674 -28.1553 -30.7264 58.3106 -0.2022 2.5165
# 5 -20.9673 -10.0478 -32.7743 -0.2022 48.1940 -5.3739
# 6 9.9402 13.9749 -14.9939 2.5165 -5.3739 50.9996
#
#
#
# Elastic Compliance Matrix: (Units=1/GPa)
#
#
# Indices 1 2 3 4 5 6 
#
# 1 0.010842 -0.001273 0.000591 -0.000588 0.004732 -0.001063
# 2 -0.001273 0.008218 -0.002422 0.002857 -0.000803 -0.002941
# 3 0.000591 -0.002422 0.009056 0.003446 0.006339 0.003709
# 4 -0.000588 0.002857 0.003446 0.020389 0.002727 -0.000374
# 5 0.004732 -0.000803 0.006339 0.002727 0.027400 0.003914
# 6 -0.001063 -0.002941 0.003709 -0.000374 0.003914 0.022142
#
#
# Mechanical properties :
#
#
# Convention : Reuss Voigt Hill
#
# Bulk Modulus (GPa) = 45.64309 64.65188 55.14748
# Shear Modulus (GPa) = 44.81998 54.36660 49.59329
#
# Velocity S-wave (km/s) = 4.02405 4.43194 4.23291
# Velocity P-wave (km/s) = 6.17098 7.03899 6.61923
#
# Compressibility (1/GPa) = 0.02190912
#
# Stress axis : x y z
#
# Youngs Moduli (GPa) = 92.23222 121.69007 110.41950
#
# Poissons Ratio (x) = 0.15487 -0.06523
# Poissons Ratio (y) = 0.11738 0.26740
# Poissons Ratio (z) = -0.05449 0.29469
#
# Static dielectric constant tensor:
#      x y z
#    x 2.165560 -0.045000 0.021620 
#    y -0.045000 2.222190 0.044300 
#    z 0.021620 0.044300 2.149050 
# 
# From -- ./inp_files/19661.got.cif
#   From: 2010.05.17/outbox.cif.g08.bks.cpg/sg2_10_cif.got.tgz:19661.got - 2010.06.03 11:33:40.
