data_PCOD9060337
_publ_section_title
;
Structure prediction by ZEFSAII (Michael W. Deem and Ramdas Pophale) SiO2 
 PCOD9060337
Probable space group: P -1
;
_chemical_formula_sum "Si O2"
_cell_formula_units_Z 14
_cell_length_a 11.180525
_cell_length_b 11.396150
_cell_length_c 7.047757
_cell_angle_alpha 100.245488
_cell_angle_beta 42.062736
_cell_angle_gamma 93.832996
_cell_volume 589.107457
_symmetry_space_group_name_H-M "P -1"
_symmetry_group_IT_number 2
_symmetry_cell_setting 'triclinic'
loop_
_space_group_symop_operation_xyz
x,y,z
-x,-y,-z
loop_
_atom_site_type_symbol
_atom_site_label
_atom_site_fract_x
_atom_site_fract_y
_atom_site_fract_z
Si Si1 0.120446 0.537091 0.129507
Si Si2 0.574279 0.628040 0.085270
Si Si3 0.806781 0.380260 0.342703
Si Si4 0.943909 0.123985 0.214953
Si Si5 0.317216 0.019967 0.333635
Si Si6 0.814869 0.731673 0.531153
Si Si7 0.295465 0.201763 0.727073
O O1 0.971103 0.443050 0.258030
O O2 0.997889 0.658919 0.362367
O O3 0.277056 0.476847 0.056277
O O4 0.207952 0.565881 0.834174
O O5 0.374893 0.591312 0.317108
O O6 0.574844 0.728487 0.280590
O O7 0.647591 0.687003 0.827619
O O8 0.851748 0.236839 0.239618
O O9 0.798398 0.090252 0.528438
O O10 0.135891 0.170418 0.045575
O O11 0.000000 0.000000 0.000000
O O12 0.190591 0.125505 0.410900
O O13 0.363090 0.080541 0.499895
O O14 0.500000 0.000000 0.000000
O O15 0.782892 0.716380 0.336481
#
# Coordination Sequence:
#
# PCOD9060337 Si02
#       7
#     2   2   2   2   2   2   2
#     4  11  21  42  62  91 134 163 211 262 309 379
#     4  12  23  40  66  98 125 166 214 254 320 377
#     4  11  22  38  68  92 126 171 209 259 319 370
#     4  10  17  38  68  85 125 174 200 256 322 363
#     4   9  19  38  65  92 127 162 208 265 309 367
#     4  10  22  40  64  92 131 165 205 266 312 369
#     4   9  20  40  63  88 129 163 205 254 313 372
#
# _framework density 23.764766999999999
#
# number of rings (size 3 to 8) (size 9 to 14) (size 15 to 20)
#    0.857    0.857    2.857    2.571    0.000    0.571 
#    0.000   10.000    0.000    0.000    0.000    0.000 
#    0.000    0.000    0.000    0.000    0.000    0.000 
#
# Total GULP energy -78202.042050 kJ/mol
# GULP energy per Si atom -5585.860146 kJ/mol
# Density = 2.371068 g / cm^3
# Si number density = 23.764767 Si / 1000 Ang^3
#
#
#
# Elastic Constant Matrix: (Units=GPa)
#
#
# Indices 1 2 3 4 5 6 
#
# 1 67.4376 35.4569 36.7636 -16.2510 3.7258 12.3624
# 2 35.4569 128.8302 42.8718 -25.3105 -1.6963 -15.6241
# 3 36.7636 42.8718 178.2142 -36.2163 -4.1081 3.3807
# 4 -16.2510 -25.3105 -36.2163 38.9502 -1.5221 5.5684
# 5 3.7258 -1.6963 -4.1081 -1.5221 26.1763 -4.5688
# 6 12.3624 -15.6241 3.3807 5.5684 -4.5688 15.5182
#
#
#
# Elastic Compliance Matrix: (Units=1/GPa)
#
#
# Indices 1 2 3 4 5 6 
#
# 1 0.034726 -0.013037 -0.001101 0.011417 -0.013798 -0.048709
# 2 -0.013037 0.015275 -0.001493 -0.000690 0.007556 0.028562
# 3 -0.001101 -0.001493 0.007569 0.006251 0.000867 -0.004262
# 4 0.011417 -0.000690 0.006251 0.039427 -0.002964 -0.026172
# 5 -0.013798 0.007556 0.000867 -0.002964 0.046403 0.033136
# 6 -0.048709 0.028562 -0.004262 -0.026172 0.033136 0.152076
#
#
# Mechanical properties :
#
#
# Convention : Reuss Voigt Hill
#
# Bulk Modulus (GPa) = 38.01172 67.18518 52.59845
# Shear Modulus (GPa) = 14.90281 33.42160 24.16221
#
# Velocity S-wave (km/s) = 2.50691 3.75420 3.19207
# Velocity P-wave (km/s) = 4.94056 6.86472 5.98053
#
# Compressibility (1/GPa) = 0.02630768
#
# Stress axis : x y z
#
# Youngs Moduli (GPa) = 28.79687 65.46703 132.12210
#
# Poissons Ratio (x) = 0.85347 0.14550
# Poissons Ratio (y) = 0.37542 0.19726
# Poissons Ratio (z) = 0.03171 0.09774
#
# Static dielectric constant tensor:
#      x y z
#    x 1.909070 0.015610 0.031970 
#    y 0.015610 1.923520 0.056650 
#    z 0.031970 0.056650 1.916520 
# 
# From -- ./inp_files/303378.got.cif
#   From: 2010.05.17/outbox.cif.g08.bks.cpg/sg2_152_cif.got.tgz:303378.got - 2010.06.03 11:33:40.
