data_PCOD9060477
_publ_section_title
;
Structure prediction by ZEFSAII (Michael W. Deem and Ramdas Pophale) SiO2 
 PCOD9060477
Probable space group: P -1
;
_chemical_formula_sum "Si O2"
_cell_formula_units_Z 16
_cell_length_a 20.353789
_cell_length_b 9.052864
_cell_length_c 11.221868
_cell_angle_alpha 128.595296
_cell_angle_beta 150.800500
_cell_angle_gamma 42.762988
_cell_volume 684.000733
_symmetry_space_group_name_H-M "P -1"
_symmetry_group_IT_number 2
_symmetry_cell_setting 'triclinic'
loop_
_space_group_symop_operation_xyz
x,y,z
-x,-y,-z
loop_
_atom_site_type_symbol
_atom_site_label
_atom_site_fract_x
_atom_site_fract_y
_atom_site_fract_z
Si Si1 0.684350 0.359444 0.046954
Si Si2 0.645529 0.500591 0.427283
Si Si3 0.369297 0.435940 0.297292
Si Si4 0.899379 0.399889 0.593845
Si Si5 0.637047 0.786710 0.047974
Si Si6 0.834495 0.992388 0.519466
Si Si7 0.000467 0.733304 0.875641
Si Si8 0.904726 0.936146 0.088601
O O1 0.807303 0.315900 0.323704
O O2 0.665712 0.567838 0.049440
O O3 0.741139 0.150456 0.946479
O O4 0.515906 0.413651 0.852025
O O5 0.617928 0.615367 0.568669
O O6 0.775604 0.514238 0.563261
O O7 0.707612 0.245966 0.431212
O O8 0.500000 0.500000 0.500000
O O9 0.398688 0.240942 0.158100
O O10 0.185044 0.619826 0.083694
O O11 0.942237 0.560501 0.675533
O O12 0.055469 0.225166 0.819330
O O13 0.780068 0.829060 0.305801
O O14 0.500000 0.000000 0.000000
O O15 0.897892 0.929698 0.722663
O O16 0.977963 0.969927 0.661555
O O17 0.955659 0.810063 0.980385
#
# Coordination Sequence:
#
# PCOD9060477 Si02
#       8
#     2   2   2   2   2   2   2   2
#     4  12  24  45  73 103 145 191 235 287 358 424
#     4  11  25  48  73 103 147 190 235 289 357 425
#     4  12  25  44  73 103 144 185 234 290 359 412
#     4  11  25  49  71 103 146 193 235 290 351 425
#     4  12  25  43  71 109 143 179 238 302 353 411
#     4  11  23  43  71 106 136 189 233 297 350 412
#     4  12  25  45  77 104 146 185 239 296 352 421
#     4  11  26  43  72 103 146 185 242 287 358 415
#
# _framework density 23.391788999999999
#
# number of rings (size 3 to 8) (size 9 to 14) (size 15 to 20)
#    0.000    0.500    6.250    2.250    3.500    2.000 
#    0.000    0.625    0.000    0.000    0.000    0.000 
#    0.000    0.000    0.000    0.000    0.000    0.000 
#
# Total GULP energy -89488.112041 kJ/mol
# GULP energy per Si atom -5593.007003 kJ/mol
# Density = 2.333855 g / cm^3
# Si number density = 23.391789 Si / 1000 Ang^3
#
#
#
# Elastic Constant Matrix: (Units=GPa)
#
#
# Indices 1 2 3 4 5 6 
#
# 1 71.1483 27.4732 15.6278 4.8617 -13.0365 -26.2721
# 2 27.4732 78.2634 20.6117 -14.3595 5.7942 -20.5863
# 3 15.6278 20.6117 104.2563 9.3229 2.9644 -23.9056
# 4 4.8617 -14.3595 9.3229 26.0230 -0.1568 2.4681
# 5 -13.0365 5.7942 2.9644 -0.1568 40.2670 6.4361
# 6 -26.2721 -20.5863 -23.9056 2.4681 6.4361 40.7632
#
#
#
# Elastic Compliance Matrix: (Units=1/GPa)
#
#
# Indices 1 2 3 4 5 6 
#
# 1 0.022738 -0.007746 0.001385 -0.010035 0.006556 0.011128
# 2 -0.007746 0.020051 -0.003035 0.013238 -0.005669 0.003447
# 3 0.001385 -0.003035 0.012294 -0.007026 -0.001195 0.007184
# 4 -0.010035 0.013238 -0.007026 0.050714 -0.003410 -0.006435
# 5 0.006556 -0.005669 -0.001195 -0.003410 0.028426 -0.003620
# 6 0.011128 0.003447 0.007184 -0.006435 -0.003620 0.038619
#
#
# Mechanical properties :
#
#
# Convention : Reuss Voigt Hill
#
# Bulk Modulus (GPa) = 27.55491 42.34370 34.94930
# Shear Modulus (GPa) = 24.54224 34.07432 29.30828
#
# Velocity S-wave (km/s) = 3.24262 3.82079 3.54352
# Velocity P-wave (km/s) = 5.08181 6.13236 5.63163
#
# Compressibility (1/GPa) = 0.03629117
#
# Stress axis : x y z
#
# Youngs Moduli (GPa) = 43.97940 49.87221 81.34267
#
# Poissons Ratio (x) = 0.38632 -0.11270
# Poissons Ratio (y) = 0.34067 0.24688
# Poissons Ratio (z) = -0.06093 0.15137
#
# Static dielectric constant tensor:
#      x y z
#    x 1.899260 -0.045350 -0.002880 
#    y -0.045350 2.003730 -0.050340 
#    z -0.002880 -0.050340 1.926010 
# 
# From -- ./inp_files/470162.got.cif
#   From: 2010.05.17/outbox.cif.g08.bks.cpg/sg2_236_cif.got.tgz:470162.got - 2010.06.03 11:33:40.
