data_PCOD9060456
_publ_section_title
;
Structure prediction by ZEFSAII (Michael W. Deem and Ramdas Pophale) SiO2 
 PCOD9060456
Probable space group: P -1
;
_chemical_formula_sum "Si O2"
_cell_formula_units_Z 16
_cell_length_a 6.695093
_cell_length_b 11.639564
_cell_length_c 18.350317
_cell_angle_alpha 137.063037
_cell_angle_beta 57.623858
_cell_angle_gamma 94.445985
_cell_volume 688.869818
_symmetry_space_group_name_H-M "P -1"
_symmetry_group_IT_number 2
_symmetry_cell_setting 'triclinic'
loop_
_space_group_symop_operation_xyz
x,y,z
-x,-y,-z
loop_
_atom_site_type_symbol
_atom_site_label
_atom_site_fract_x
_atom_site_fract_y
_atom_site_fract_z
Si Si1 0.555400 0.646533 0.101045
Si Si2 0.471574 0.546158 0.753696
Si Si3 0.893283 0.685543 0.458680
Si Si4 0.167285 0.428332 0.843875
Si Si5 0.127717 0.052432 0.301290
Si Si6 0.265243 0.965803 0.065341
Si Si7 0.709498 0.383526 0.337963
Si Si8 0.612653 0.015478 0.406146
O O1 0.625330 0.577215 0.138261
O O2 0.302121 0.869987 0.239123
O O3 0.500000 0.500000 0.000000
O O4 0.848668 0.611332 0.999255
O O5 0.288678 0.447798 0.754243
O O6 0.459895 0.587899 0.689554
O O7 0.782785 0.390797 0.651134
O O8 0.332810 0.755126 0.921998
O O9 0.841587 0.770454 0.591141
O O10 0.877556 0.494585 0.356696
O O11 0.658406 0.862480 0.535854
O O12 0.185191 0.223018 0.761097
O O13 0.947961 0.148622 0.192030
O O14 0.255703 0.978254 0.161384
O O15 0.808855 0.102762 0.394190
O O16 0.500000 0.000000 0.000000
O O17 0.500000 0.500000 0.500000
O O18 0.500000 0.000000 0.500000
#
# Coordination Sequence:
#
# PCOD9060456 Si02
#       8
#     2   2   2   2   2   2   2   2
#     4  11  23  43  71 102 148 191 233 300 372 443
#     4  12  28  48  78 111 148 196 255 316 377 456
#     4  12  26  48  73 109 153 197 254 308 377 458
#     4  11  25  42  69 109 144 188 240 295 369 449
#     4  12  27  46  77 112 151 204 252 311 379 458
#     4  12  28  51  77 111 149 198 257 321 389 440
#     4  12  28  51  78 107 148 201 258 321 381 446
#     4  12  26  45  71 111 154 198 248 297 375 458
#
# _framework density 23.226451000000001
#
# number of rings (size 3 to 8) (size 9 to 14) (size 15 to 20)
#    0.000    0.250    3.750    4.875    7.000    5.000 
#    0.000    0.000    0.000    0.000    0.000    0.000 
#    0.000    0.000    0.000    0.000    0.000    0.000 
#
# Total GULP energy -89446.638881 kJ/mol
# GULP energy per Si atom -5590.414930 kJ/mol
# Density = 2.317359 g / cm^3
# Si number density = 23.226451 Si / 1000 Ang^3
#
#
#
# Elastic Constant Matrix: (Units=GPa)
#
#
# Indices 1 2 3 4 5 6 
#
# 1 110.5569 35.7283 49.6153 -4.2686 2.7982 -23.3418
# 2 35.7283 61.2215 28.0301 -8.6112 -5.6202 -6.5882
# 3 49.6153 28.0301 119.6982 -3.4105 -9.1750 -17.7743
# 4 -4.2686 -8.6112 -3.4105 52.5427 0.4778 3.0262
# 5 2.7982 -5.6202 -9.1750 0.4778 54.4802 8.6909
# 6 -23.3418 -6.5882 -17.7743 3.0262 8.6909 31.9208
#
#
#
# Elastic Compliance Matrix: (Units=1/GPa)
#
#
# Indices 1 2 3 4 5 6 
#
# 1 0.014496 -0.006314 -0.003572 -0.000535 -0.003310 0.008260
# 2 -0.006314 0.021553 -0.002531 0.002979 0.002501 -0.002541
# 3 -0.003572 -0.002531 0.010911 -0.000158 0.001348 0.002589
# 4 -0.000535 0.002979 -0.000158 0.019568 0.000429 -0.001836
# 5 -0.003310 0.002501 0.001348 0.000429 0.020069 -0.006659
# 6 0.008260 -0.002541 0.002589 -0.001836 -0.006659 0.040271
#
#
# Mechanical properties :
#
#
# Convention : Reuss Voigt Hill
#
# Bulk Modulus (GPa) = 45.19778 57.58045 51.38912
# Shear Modulus (GPa) = 31.43114 39.66226 35.54670
#
# Velocity S-wave (km/s) = 3.68264 4.13683 3.91633
# Velocity P-wave (km/s) = 6.13061 6.90381 6.52866
#
# Compressibility (1/GPa) = 0.02212498
#
# Stress axis : x y z
#
# Youngs Moduli (GPa) = 68.98503 46.39766 91.65062
#
# Poissons Ratio (x) = 0.29297 0.32742
# Poissons Ratio (y) = 0.43559 0.23193
# Poissons Ratio (z) = 0.24645 0.11741
#
# Static dielectric constant tensor:
#      x y z
#    x 1.913460 0.021200 0.015380 
#    y 0.021200 1.866940 -0.014840 
#    z 0.015380 -0.014840 1.915050 
# 
# From -- ./inp_files/549536.got.cif
#   From: 2010.05.17/outbox.cif.g08.bks.cpg/sg2_275_cif.got.tgz:549536.got - 2010.06.03 11:33:40.
