data_PCOD9060424
_publ_section_title
;
Structure prediction by ZEFSAII (Michael W. Deem and Ramdas Pophale) SiO2 
 PCOD9060424
Probable space group: P -1
;
_chemical_formula_sum "Si O2"
_cell_formula_units_Z 16
_cell_length_a 14.446294
_cell_length_b 11.268522
_cell_length_c 9.428153
_cell_angle_alpha 76.716092
_cell_angle_beta 109.215819
_cell_angle_gamma 152.287610
_cell_volume 667.301710
_symmetry_space_group_name_H-M "P -1"
_symmetry_group_IT_number 2
_symmetry_cell_setting 'triclinic'
loop_
_space_group_symop_operation_xyz
x,y,z
-x,-y,-z
loop_
_atom_site_type_symbol
_atom_site_label
_atom_site_fract_x
_atom_site_fract_y
_atom_site_fract_z
Si Si1 0.882379 0.203633 0.521573
Si Si2 0.302451 0.528022 0.698270
Si Si3 0.599325 0.492718 0.971675
Si Si4 0.191009 0.391791 0.180570
Si Si5 0.282785 0.750923 0.043810
Si Si6 0.478376 0.612856 0.505305
Si Si7 0.196917 0.905625 0.818698
Si Si8 0.345222 0.900281 0.346034
O O1 0.824973 0.156894 0.339798
O O2 0.841867 0.265608 0.599502
O O3 0.112204 0.405087 0.596318
O O4 0.708344 0.915553 0.560870
O O5 0.280930 0.445502 0.861128
O O6 0.336957 0.464859 0.613371
O O7 0.517725 0.838287 0.716906
O O8 0.500000 0.500000 0.000000
O O9 0.762090 0.676154 0.872965
O O10 0.412897 0.205493 0.891118
O O11 0.209318 0.531277 0.049444
O O12 0.362664 0.569350 0.342273
O O13 0.973981 0.179651 0.205569
O O14 0.294630 0.771767 0.214840
O O15 0.168134 0.747647 0.934109
O O16 0.500000 0.000000 0.000000
O O17 0.500000 0.500000 0.500000
O O18 0.500000 0.000000 0.500000
#
# Coordination Sequence:
#
# PCOD9060424 Si02
#       8
#     2   2   2   2   2   2   2   2
#     4  11  25  44  69  98 139 180 229 281 343 409
#     4  11  24  44  65 100 135 177 228 284 344 402
#     4  12  27  47  71 100 141 181 231 294 350 407
#     4  12  25  45  72 104 140 183 236 280 348 420
#     4  12  22  46  73 103 144 188 224 287 348 414
#     4  11  23  43  70  98 134 178 233 289 338 405
#     4  12  25  46  72 104 140 188 231 281 351 418
#     4  11  24  42  67 100 143 177 226 278 340 410
#
# _framework density 23.977163000000001
#
# number of rings (size 3 to 8) (size 9 to 14) (size 15 to 20)
#    0.000    0.500    5.000    3.375    1.750    2.500 
#    2.250    0.000    0.000    0.000    0.000    0.000 
#    0.000    0.000    0.000    0.000    0.000    0.000 
#
# Total GULP energy -89453.103704 kJ/mol
# GULP energy per Si atom -5590.818981 kJ/mol
# Density = 2.392259 g / cm^3
# Si number density = 23.977163 Si / 1000 Ang^3
#
#
#
# Elastic Constant Matrix: (Units=GPa)
#
#
# Indices 1 2 3 4 5 6 
#
# 1 160.8123 20.7451 55.2726 7.7135 -31.5370 21.7341
# 2 20.7451 39.5018 13.2158 2.6473 -2.4065 15.1504
# 3 55.2726 13.2158 139.5260 -7.2930 -25.9203 7.8902
# 4 7.7135 2.6473 -7.2930 21.3137 9.8220 -3.3168
# 5 -31.5370 -2.4065 -25.9203 9.8220 48.4836 -9.9739
# 6 21.7341 15.1504 7.8902 -3.3168 -9.9739 36.5765
#
#
#
# Elastic Compliance Matrix: (Units=1/GPa)
#
#
# Indices 1 2 3 4 5 6 
#
# 1 0.009167 -0.001875 -0.002669 -0.006890 0.005157 -0.003314
# 2 -0.001875 0.032177 -0.002300 -0.004957 -0.002491 -0.012847
# 3 -0.002669 -0.002300 0.009014 0.003381 0.002616 0.001614
# 4 -0.006890 -0.004957 0.003381 0.058415 -0.013296 0.007089
# 5 0.005157 -0.002491 0.002616 -0.013296 0.028781 0.004045
# 6 -0.003314 -0.012847 0.001614 0.007089 0.004045 0.036028
#
#
# Mechanical properties :
#
#
# Convention : Reuss Voigt Hill
#
# Bulk Modulus (GPa) = 27.27004 57.58968 42.42986
# Shear Modulus (GPa) = 25.06363 37.98188 31.52275
#
# Velocity S-wave (km/s) = 3.23664 3.98438 3.62981
# Velocity P-wave (km/s) = 5.03645 6.72590 5.94153
#
# Compressibility (1/GPa) = 0.03667028
#
# Stress axis : x y z
#
# Youngs Moduli (GPa) = 109.08381 31.07803 110.94324
#
# Poissons Ratio (x) = 0.05826 0.29607
# Poissons Ratio (y) = 0.20450 0.25522
# Poissons Ratio (z) = 0.29111 0.07149
#
# Static dielectric constant tensor:
#      x y z
#    x 1.991920 0.010920 -0.064180 
#    y 0.010920 1.889770 0.016950 
#    z -0.064180 0.016950 1.924530 
# 
# From -- ./inp_files/307602.got.cif
#   From: 2010.05.17/outbox.cif.g08.bks.cpg/sg2_154_cif.got.tgz:307602.got - 2010.06.03 11:33:40.
