data_PCOD9060698
_publ_section_title
;
Structure prediction by ZEFSAII (Michael W. Deem and Ramdas Pophale) SiO2 
 PCOD9060698
Probable space group: P -1
;
_chemical_formula_sum "Si O2"
_cell_formula_units_Z 16
_cell_length_a 9.113032
_cell_length_b 7.852560
_cell_length_c 22.595825
_cell_angle_alpha 147.253080
_cell_angle_beta 130.227764
_cell_angle_gamma 57.580482
_cell_volume 667.695796
_symmetry_space_group_name_H-M "P -1"
_symmetry_group_IT_number 2
_symmetry_cell_setting 'triclinic'
loop_
_space_group_symop_operation_xyz
x,y,z
-x,-y,-z
loop_
_atom_site_type_symbol
_atom_site_label
_atom_site_fract_x
_atom_site_fract_y
_atom_site_fract_z
Si Si1 0.330174 0.399320 0.295212
Si Si2 0.055827 0.809960 0.399686
Si Si3 0.258124 0.327560 0.518598
Si Si4 0.946509 0.181745 0.315533
Si Si5 0.263180 0.638015 0.806521
Si Si6 0.023735 0.474209 0.132621
Si Si7 0.351893 0.697161 0.059178
Si Si8 0.694851 0.665431 0.937175
O O1 0.206288 0.518838 0.354272
O O2 0.515114 0.628067 0.405903
O O3 0.176465 0.442637 0.215185
O O4 0.400343 0.040030 0.200519
O O5 0.854867 0.648420 0.278414
O O6 0.162256 0.059594 0.457239
O O7 0.000000 0.000000 0.500000
O O8 0.172879 0.648607 0.615311
O O9 0.168413 0.270400 0.413708
O O10 0.857457 0.291861 0.263235
O O11 0.929355 0.812947 0.209397
O O12 0.484196 0.574927 0.830459
O O13 0.276718 0.957488 0.941235
O O14 0.141277 0.460898 0.098507
O O15 0.839449 0.245084 0.012817
O O16 0.302188 0.477551 0.038309
O O17 0.500000 0.500000 0.000000
#
# Coordination Sequence:
#
# PCOD9060698 Si02
#       8
#     2   2   2   2   2   2   2   2
#     4  12  28  47  74 108 151 190 248 296 368 433
#     4  12  26  44  75 103 147 191 248 296 361 427
#     4  11  25  48  71 103 142 201 240 303 355 433
#     4  11  23  43  76  97 145 187 245 292 366 427
#     4  11  25  47  71 104 142 194 237 301 364 432
#     4  12  25  45  75 107 148 192 235 305 366 436
#     4  12  28  46  74 113 150 189 242 301 367 441
#     4  11  27  45  76 103 148 186 245 297 376 433
#
# _framework density 23.963007000000001
#
# number of rings (size 3 to 8) (size 9 to 14) (size 15 to 20)
#    0.000    0.500    3.750    3.375    7.000    2.000 
#    0.000    0.625    0.000    0.000    0.000    0.000 
#    0.000    0.000    0.000    0.000    0.000    0.000 
#
# Total GULP energy -89487.677018 kJ/mol
# GULP energy per Si atom -5592.979814 kJ/mol
# Density = 2.390847 g / cm^3
# Si number density = 23.963007 Si / 1000 Ang^3
#
#
#
# Elastic Constant Matrix: (Units=GPa)
#
#
# Indices 1 2 3 4 5 6 
#
# 1 141.6432 46.2793 82.3446 -4.1280 4.4017 -7.6337
# 2 46.2793 86.0914 41.8547 -14.4683 5.6096 -5.9972
# 3 82.3446 41.8547 153.5533 4.3570 27.3213 -16.2220
# 4 -4.1280 -14.4683 4.3570 53.6164 -16.6644 -6.8129
# 5 4.4017 5.6096 27.3213 -16.6644 48.5126 -6.4004
# 6 -7.6337 -5.9972 -16.2220 -6.8129 -6.4004 29.5119
#
#
#
# Elastic Compliance Matrix: (Units=1/GPa)
#
#
# Indices 1 2 3 4 5 6 
#
# 1 0.011488 -0.003278 -0.005859 0.001471 0.003156 0.000109
# 2 -0.003278 0.015625 -0.002771 0.005171 0.002153 0.002465
# 3 -0.005859 -0.002771 0.011994 -0.004103 -0.007043 0.002040
# 4 0.001471 0.005171 -0.004103 0.024870 0.011089 0.007322
# 5 0.003156 0.002153 -0.007043 0.011089 0.028666 0.006159
# 6 0.000109 0.002465 0.002040 0.007322 0.006159 0.038561
#
#
# Mechanical properties :
#
#
# Convention : Reuss Voigt Hill
#
# Bulk Modulus (GPa) = 65.38871 80.24947 72.81909
# Shear Modulus (GPa) = 31.22740 40.38215 35.80478
#
# Velocity S-wave (km/s) = 3.61383 4.10956 3.86964
# Velocity P-wave (km/s) = 6.69027 7.48863 7.10068
#
# Compressibility (1/GPa) = 0.01529316
#
# Stress axis : x y z
#
# Youngs Moduli (GPa) = 87.05102 63.99953 83.37208
#
# Poissons Ratio (x) = 0.20978 0.48844
# Poissons Ratio (y) = 0.28534 0.23098
# Poissons Ratio (z) = 0.50999 0.17731
#
# Static dielectric constant tensor:
#      x y z
#    x 1.909570 -0.004580 0.014640 
#    y -0.004580 1.955740 -0.004310 
#    z 0.014640 -0.004310 1.967890 
# 
# From -- ./inp_files/606951.got.cif
#   From: 2010.05.17/outbox.cif.g08.bks.cpg/sg2_304_cif.got.tgz:606951.got - 2010.06.03 11:33:40.
