data_PCOD9060495
_publ_section_title
;
Structure prediction by ZEFSAII (Michael W. Deem and Ramdas Pophale) SiO2 
 PCOD9060495
Probable space group: P -1
;
_chemical_formula_sum "Si O2"
_cell_formula_units_Z 14
_cell_length_a 9.622920
_cell_length_b 8.980481
_cell_length_c 18.288414
_cell_angle_alpha 29.924557
_cell_angle_beta 119.738710
_cell_angle_gamma 121.610245
_cell_volume 668.193873
_symmetry_space_group_name_H-M "P -1"
_symmetry_group_IT_number 2
_symmetry_cell_setting 'triclinic'
loop_
_space_group_symop_operation_xyz
x,y,z
-x,-y,-z
loop_
_atom_site_type_symbol
_atom_site_label
_atom_site_fract_x
_atom_site_fract_y
_atom_site_fract_z
Si Si1 0.670984 0.097569 0.043605
Si Si2 0.757987 0.411379 0.589741
Si Si3 0.050282 0.825657 0.016921
Si Si4 0.893958 0.206052 0.535421
Si Si5 0.393453 0.452092 0.642943
Si Si6 0.229106 0.358435 0.340678
Si Si7 0.815628 0.790078 0.832915
O O1 0.660214 0.896841 0.198469
O O2 0.797767 0.985113 0.070139
O O3 0.722926 0.457212 0.922592
O O4 0.500000 0.000000 0.000000
O O5 0.625522 0.526516 0.457630
O O6 0.768102 0.525222 0.625872
O O7 0.936310 0.555108 0.537779
O O8 0.720245 0.043267 0.730019
O O9 0.121880 0.550147 0.185524
O O10 0.920765 0.737757 0.954161
O O11 0.000000 0.000000 0.000000
O O12 0.738004 0.360568 0.440979
O O13 0.851988 0.992302 0.544616
O O14 0.902908 0.976211 0.704647
O O15 0.580740 0.580119 0.661482
#
# Coordination Sequence:
#
# PCOD9060495 Si02
#       7
#     2   2   2   2   2   2   2
#     4  12  24  45  70 100 130 174 225 276 330 396
#     4  11  24  44  67  98 134 175 222 274 329 394
#     4  12  24  42  67  96 140 172 221 272 335 389
#     4  11  23  44  71  96 128 177 231 265 325 400
#     4  11  24  43  67  96 132 173 225 270 330 396
#     4  12  24  43  66 100 137 174 215 281 333 383
#     4  11  23  43  71  95 132 179 221 271 330 391
#
# _framework density 20.952003999999999
#
# number of rings (size 3 to 8) (size 9 to 14) (size 15 to 20)
#    0.000    0.571    4.286    5.143    2.000    1.143 
#    0.000    2.857    0.000    0.000    0.000    0.000 
#    0.000    0.000    0.000    0.000    0.000    0.000 
#
# Total GULP energy -78119.526004 kJ/mol
# GULP energy per Si atom -5579.966143 kJ/mol
# Density = 2.090432 g / cm^3
# Si number density = 20.952004 Si / 1000 Ang^3
#
#
#
# Elastic Constant Matrix: (Units=GPa)
#
#
# Indices 1 2 3 4 5 6 
#
# 1 81.3495 52.8894 33.2294 -4.9461 11.8335 3.3761
# 2 52.8894 146.6015 67.0337 -2.9948 11.9546 -9.2700
# 3 33.2294 67.0337 141.4355 9.0944 11.0665 6.7821
# 4 -4.9461 -2.9948 9.0944 33.0591 -2.8846 -11.6694
# 5 11.8335 11.9546 11.0665 -2.8846 11.9882 -2.7662
# 6 3.3761 -9.2700 6.7821 -11.6694 -2.7662 32.6020
#
#
#
# Elastic Compliance Matrix: (Units=1/GPa)
#
#
# Indices 1 2 3 4 5 6 
#
# 1 0.018183 -0.005657 -0.000289 -0.000548 -0.013268 -0.004753
# 2 -0.005657 0.011401 -0.004682 0.003744 0.000872 0.006216
# 3 -0.000289 -0.004682 0.010703 -0.006399 -0.007964 -0.006494
# 4 -0.000548 0.003744 -0.006399 0.040148 0.016581 0.018230
# 5 -0.013268 0.000872 -0.007964 0.016581 0.111290 0.018656
# 6 -0.004753 0.006216 -0.006494 0.018230 0.018656 0.042391
#
#
# Mechanical properties :
#
#
# Convention : Reuss Voigt Hill
#
# Bulk Modulus (GPa) = 52.54579 75.07683 63.81131
# Shear Modulus (GPa) = 19.10458 29.94544 24.52501
#
# Velocity S-wave (km/s) = 3.02292 3.78463 3.42502
# Velocity P-wave (km/s) = 6.10882 7.41677 6.79434
#
# Compressibility (1/GPa) = 0.01903102
#
# Stress axis : x y z
#
# Youngs Moduli (GPa) = 54.99645 87.70916 93.43001
#
# Poissons Ratio (x) = 0.49620 0.02703
# Poissons Ratio (y) = 0.31114 0.43740
# Poissons Ratio (z) = 0.01591 0.41062
#
# Static dielectric constant tensor:
#      x y z
#    x 1.786620 -0.012470 -0.002070 
#    y -0.012470 1.748140 0.014210 
#    z -0.002070 0.014210 1.745440 
# 
# From -- ./inp_files/158613.got.cif
#   From: 2010.05.17/outbox.cif.g08.bks.cpg/sg2_80_cif.got.tgz:158613.got - 2010.06.03 11:33:40.
