data_PCOD9060472
_publ_section_title
;
Structure prediction by ZEFSAII (Michael W. Deem and Ramdas Pophale) SiO2 
 PCOD9060472
Probable space group: P -1
;
_chemical_formula_sum "Si O2"
_cell_formula_units_Z 12
_cell_length_a 6.775715
_cell_length_b 9.613230
_cell_length_c 11.885535
_cell_angle_alpha 72.623814
_cell_angle_beta 119.037633
_cell_angle_gamma 132.117446
_cell_volume 501.650335
_symmetry_space_group_name_H-M "P -1"
_symmetry_group_IT_number 2
_symmetry_cell_setting 'triclinic'
loop_
_space_group_symop_operation_xyz
x,y,z
-x,-y,-z
loop_
_atom_site_type_symbol
_atom_site_label
_atom_site_fract_x
_atom_site_fract_y
_atom_site_fract_z
Si Si1 0.385590 0.462389 0.286314
Si Si2 0.922800 0.125168 0.394086
Si Si3 0.058051 0.687960 0.437672
Si Si4 0.466631 0.349294 0.110143
Si Si5 0.877736 0.345172 0.775323
Si Si6 0.428268 0.007686 0.106292
O O1 0.732984 0.618646 0.350435
O O2 0.312306 0.340044 0.183597
O O3 0.278949 0.584667 0.226022
O O4 0.221704 0.316762 0.379609
O O5 0.687862 0.046897 0.247337
O O6 0.806292 0.173714 0.453984
O O7 0.000000 0.000000 0.500000
O O8 0.000000 0.500000 0.500000
O O9 0.230549 0.752329 0.353127
O O10 0.381433 0.159976 0.079407
O O11 0.804815 0.464240 0.208402
O O12 0.500000 0.500000 0.000000
O O13 0.856343 0.197331 0.885034
O O14 0.500000 0.000000 0.000000
#
# Coordination Sequence:
#
# PCOD9060472 Si02
#       6
#     2   2   2   2   2   2
#     4  11  23  46  71 105 148 190 240 304 366 429
#     4  12  26  43  73 112 147 191 243 300 363 435
#     4  11  23  43  71 105 142 192 242 292 372 427
#     4  11  26  47  74 105 143 198 244 300 365 431
#     4  11  25  47  74 104 148 189 242 303 361 439
#     4  12  28  49  74 108 147 196 247 298 364 436
#
# _framework density 23.921046
#
# number of rings (size 3 to 8) (size 9 to 14) (size 15 to 20)
#    0.000    0.667    3.333    3.500    7.000    4.000 
#    0.000    0.000    0.000    0.000    0.000    0.000 
#    0.000    0.000    0.000    0.000    0.000    0.000 
#
# Total GULP energy -67128.210696 kJ/mol
# GULP energy per Si atom -5594.017558 kJ/mol
# Density = 2.386660 g / cm^3
# Si number density = 23.921046 Si / 1000 Ang^3
#
#
#
# Elastic Constant Matrix: (Units=GPa)
#
#
# Indices 1 2 3 4 5 6 
#
# 1 119.8511 52.3211 43.1322 1.1045 -28.0553 -41.5016
# 2 52.3211 147.8076 39.9020 -20.6574 -23.6521 -36.4342
# 3 43.1322 39.9020 114.9521 -1.3677 -30.5624 -33.7657
# 4 1.1045 -20.6574 -1.3677 47.2103 -1.0767 3.3691
# 5 -28.0553 -23.6521 -30.5624 -1.0767 59.7616 6.7798
# 6 -41.5016 -36.4342 -33.7657 3.3691 6.7798 52.9884
#
#
#
# Elastic Compliance Matrix: (Units=1/GPa)
#
#
# Indices 1 2 3 4 5 6 
#
# 1 0.013309 -0.002097 -0.000853 -0.001735 0.004039 0.008032
# 2 -0.002097 0.009568 -0.000800 0.003979 0.002021 0.003915
# 3 -0.000853 -0.000800 0.012383 -0.000292 0.004923 0.006061
# 4 -0.001735 0.003979 -0.000292 0.023009 0.001072 -0.000408
# 5 0.004039 0.002021 0.004923 0.001072 0.021412 0.004882
# 6 0.008032 0.003915 0.006061 -0.000408 0.004882 0.031118
#
#
# Mechanical properties :
#
#
# Convention : Reuss Voigt Hill
#
# Bulk Modulus (GPa) = 36.02347 72.59128 54.30738
# Shear Modulus (GPa) = 39.19939 48.47576 43.83757
#
# Velocity S-wave (km/s) = 4.05248 4.50654 4.28553
# Velocity P-wave (km/s) = 6.08184 7.58226 6.87311
#
# Compressibility (1/GPa) = 0.02775968
#
# Stress axis : x y z
#
# Youngs Moduli (GPa) = 75.13763 104.50993 80.75747
#
# Poissons Ratio (x) = 0.21916 0.06892
# Poissons Ratio (y) = 0.15757 0.06459
# Poissons Ratio (z) = 0.06412 0.08358
#
# Static dielectric constant tensor:
#      x y z
#    x 1.759090 0.019320 0.048440 
#    y 0.019320 1.918070 0.082620 
#    z 0.048440 0.082620 2.002470 
# 
# From -- ./inp_files/26369.got.cif
#   From: 2010.05.17/outbox.cif.g08.bks.cpg/sg2_14_cif.got.tgz:26369.got - 2010.06.03 11:33:40.
