data_PCOD9060735
_publ_section_title
;
Structure prediction by ZEFSAII (Michael W. Deem and Ramdas Pophale) SiO2 
 PCOD9060735
Probable space group: P -1
;
_chemical_formula_sum "Si O2"
_cell_formula_units_Z 14
_cell_length_a 25.206796
_cell_length_b 8.419731
_cell_length_c 17.890651
_cell_angle_alpha 145.863973
_cell_angle_beta 160.713025
_cell_angle_gamma 32.990891
_cell_volume 669.053421
_symmetry_space_group_name_H-M "P -1"
_symmetry_group_IT_number 2
_symmetry_cell_setting 'triclinic'
loop_
_space_group_symop_operation_xyz
x,y,z
-x,-y,-z
loop_
_atom_site_type_symbol
_atom_site_label
_atom_site_fract_x
_atom_site_fract_y
_atom_site_fract_z
Si Si1 0.380254 0.175919 0.025835
Si Si2 0.897449 0.733628 0.515196
Si Si3 0.622480 0.260471 0.270623
Si Si4 0.817158 0.709003 0.665298
Si Si5 0.962279 0.228686 0.885954
Si Si6 0.611125 0.237949 0.493070
Si Si7 0.999535 0.338340 0.628376
O O1 0.450193 0.351058 0.123503
O O2 0.493656 0.161872 0.243998
O O3 0.186004 0.326159 0.846113
O O4 0.396359 0.859225 0.883963
O O5 0.000000 0.500000 0.500000
O O6 0.870483 0.537196 0.472721
O O7 0.739399 0.967464 0.355622
O O8 0.992094 0.950321 0.761911
O O9 0.713618 0.510137 0.487811
O O10 0.952151 0.489324 0.704158
O O11 0.694782 0.960260 0.549581
O O12 0.914447 0.844329 0.907583
O O13 0.768904 0.306214 0.688068
O O14 0.000000 0.500000 0.000000
O O15 0.500000 0.500000 0.500000
O O16 0.000000 0.000000 0.500000
#
# Coordination Sequence:
#
# PCOD9060735 Si02
#       7
#     2   2   2   2   2   2   2
#     4  11  23  44  65  97 141 175 222 285 345 410
#     4  12  23  45  70 107 138 182 236 285 345 422
#     4  11  23  45  68  99 139 177 230 285 350 409
#     4  12  24  47  69 102 136 185 233 290 343 419
#     4  12  25  47  76  97 141 187 236 285 349 424
#     4  12  27  46  66 102 142 181 231 289 354 406
#     4  12  24  43  73 104 138 179 236 286 346 412
#
# _framework density 20.925084999999999
#
# number of rings (size 3 to 8) (size 9 to 14) (size 15 to 20)
#    0.000    0.286    7.143    1.286    2.000    0.571 
#    7.714    1.429    0.000    0.000    0.000    0.000 
#    0.000    0.000    0.000    0.000    0.000    0.000 
#
# Total GULP energy -78302.549812 kJ/mol
# GULP energy per Si atom -5593.039272 kJ/mol
# Density = 2.087746 g / cm^3
# Si number density = 20.925085 Si / 1000 Ang^3
#
#
#
# Elastic Constant Matrix: (Units=GPa)
#
#
# Indices 1 2 3 4 5 6 
#
# 1 98.8309 49.7958 57.3506 1.7248 5.7006 -11.5355
# 2 49.7958 115.0182 51.7658 9.7234 2.9852 2.7465
# 3 57.3506 51.7658 146.2286 3.2006 -19.9249 -10.9818
# 4 1.7248 9.7234 3.2006 32.2639 -7.2173 -6.4240
# 5 5.7006 2.9852 -19.9249 -7.2173 59.2286 0.0970
# 6 -11.5355 2.7465 -10.9818 -6.4240 0.0970 44.5874
#
#
#
# Elastic Compliance Matrix: (Units=1/GPa)
#
#
# Indices 1 2 3 4 5 6 
#
# 1 0.015773 -0.004871 -0.004596 0.001162 -0.002683 0.003422
# 2 -0.004871 0.012615 -0.002943 -0.004297 -0.001675 -0.003378
# 3 -0.004596 -0.002943 0.010361 0.001400 0.004244 0.001737
# 4 0.001162 -0.004297 0.001400 0.034314 0.004748 0.005844
# 5 -0.002683 -0.001675 0.004244 0.004748 0.019231 0.001097
# 6 0.003422 -0.003378 0.001737 0.005844 0.001097 0.024789
#
#
# Mechanical properties :
#
#
# Convention : Reuss Voigt Hill
#
# Bulk Modulus (GPa) = 71.79060 75.32244 73.55652
# Shear Modulus (GPa) = 34.11897 40.62699 37.37298
#
# Velocity S-wave (km/s) = 4.04236 4.41108 4.23074
# Velocity P-wave (km/s) = 7.49470 7.87514 7.68727
#
# Compressibility (1/GPa) = 0.01392940
#
# Stress axis : x y z
#
# Youngs Moduli (GPa) = 63.39845 79.27027 96.51377
#
# Poissons Ratio (x) = 0.38610 0.44358
# Poissons Ratio (y) = 0.30879 0.28408
# Poissons Ratio (z) = 0.29138 0.23333
#
# Static dielectric constant tensor:
#      x y z
#    x 1.775080 -0.000380 -0.009070 
#    y -0.000380 1.744370 -0.018370 
#    z -0.009070 -0.018370 1.759380 
# 
# From -- ./inp_files/298044.got.cif
#   From: 2010.05.17/outbox.cif.g08.bks.cpg/sg2_150_cif.got.tgz:298044.got - 2010.06.03 11:33:40.
