data_PCOD9060004
_publ_section_title
;
Structure prediction by ZEFSAII (Michael W. Deem and Ramdas Pophale) SiO2 
 PCOD9060004
Probable space group: P -1
;
_chemical_formula_sum "Si O2"
_cell_formula_units_Z 14
_cell_length_a 13.300402
_cell_length_b 18.024186
_cell_length_c 5.856033
_cell_angle_alpha 134.032040
_cell_angle_beta 126.871032
_cell_angle_gamma 35.669282
_cell_volume 586.436640
_symmetry_space_group_name_H-M "P -1"
_symmetry_group_IT_number 2
_symmetry_cell_setting 'triclinic'
loop_
_space_group_symop_operation_xyz
x,y,z
-x,-y,-z
loop_
_atom_site_type_symbol
_atom_site_label
_atom_site_fract_x
_atom_site_fract_y
_atom_site_fract_z
Si Si1 0.792919 0.843220 0.557368
Si Si2 0.988115 0.896602 0.640606
Si Si3 0.084933 0.429737 0.713582
Si Si4 0.665539 0.171121 0.605793
Si Si5 0.483719 0.094325 0.981549
Si Si6 0.419152 0.385463 0.064794
Si Si7 0.659249 0.358295 0.673920
O O1 0.917444 0.852810 0.626850
O O2 0.886096 0.709759 0.559480
O O3 0.701201 0.822318 0.199881
O O4 0.634819 0.987948 0.777566
O O5 0.169615 0.757855 0.492229
O O6 0.836948 0.004144 0.478897
O O7 0.000000 0.000000 0.000000
O O8 0.000000 0.500000 0.500000
O O9 0.262297 0.395706 0.894116
O O10 0.000000 0.500000 0.000000
O O11 0.694135 0.267598 0.746884
O O12 0.588509 0.228423 0.874872
O O13 0.516548 0.190602 0.318326
O O14 0.500000 0.000000 0.000000
O O15 0.486514 0.409047 0.428023
O O16 0.369195 0.502982 0.064129
#
# Coordination Sequence:
#
# PCOD9060004 Si02
#       7
#     2   2   2   2   2   2   2
#     4  11  26  45  70 104 145 185 246 306 376 443
#     4  12  24  44  69 106 145 185 238 303 367 441
#     4  12  30  50  78 110 153 199 252 315 377 452
#     4  12  24  43  75 103 142 191 246 303 369 449
#     4  11  23  42  73 102 138 187 240 309 371 442
#     4  11  26  48  73 104 144 194 247 307 373 452
#     4  11  25  46  71 101 148 191 246 300 377 447
#
# _framework density 23.872995
#
# number of rings (size 3 to 8) (size 9 to 14) (size 15 to 20)
#    0.000    0.571    2.857    4.286    8.000    2.286 
#    0.000    0.000    0.000    0.000    0.000    0.000 
#    0.000    0.000    0.000    0.000    0.000    0.000 
#
# Total GULP energy -78325.711489 kJ/mol
# GULP energy per Si atom -5594.693678 kJ/mol
# Density = 2.381866 g / cm^3
# Si number density = 23.872995 Si / 1000 Ang^3
#
#
#
# Elastic Constant Matrix: (Units=GPa)
#
#
# Indices 1 2 3 4 5 6 
#
# 1 184.7916 59.2192 25.6805 3.6940 14.9336 -1.5961
# 2 59.2192 108.1645 2.8085 2.5167 2.3894 13.4797
# 3 25.6805 2.8085 52.8923 3.2005 8.3552 -12.5668
# 4 3.6940 2.5167 3.2005 38.7435 2.1470 0.8852
# 5 14.9336 2.3894 8.3552 2.1470 33.5963 5.5268
# 6 -1.5961 13.4797 -12.5668 0.8852 5.5268 51.2064
#
#
#
# Elastic Compliance Matrix: (Units=1/GPa)
#
#
# Indices 1 2 3 4 5 6 
#
# 1 0.007262 -0.003957 -0.002726 -0.000097 -0.002404 0.000860
# 2 -0.003957 0.011793 0.000314 -0.000418 0.001411 -0.003296
# 3 -0.002726 0.000314 0.022558 -0.001466 -0.005309 0.005967
# 4 -0.000097 -0.000418 -0.001466 0.026044 -0.001131 -0.000581
# 5 -0.002404 0.001411 -0.005309 -0.001131 0.032996 -0.005291
# 6 0.000860 -0.003296 0.005967 -0.000581 -0.005291 0.022469
#
#
# Mechanical properties :
#
#
# Convention : Reuss Voigt Hill
#
# Bulk Modulus (GPa) = 34.63077 57.91830 46.27454
# Shear Modulus (GPa) = 34.36812 41.91860 38.14336
#
# Velocity S-wave (km/s) = 3.79835 4.19489 4.00154
# Velocity P-wave (km/s) = 5.81157 6.91206 6.38557
#
# Compressibility (1/GPa) = 0.02887605
#
# Stress axis : x y z
#
# Youngs Moduli (GPa) = 137.70297 84.79842 44.33017
#
# Poissons Ratio (x) = 0.33554 0.12084
# Poissons Ratio (y) = 0.54489 -0.01394
# Poissons Ratio (z) = 0.37535 -0.02667
#
# Static dielectric constant tensor:
#      x y z
#    x 1.879080 0.013330 -0.068130 
#    y 0.013330 2.027900 -0.035670 
#    z -0.068130 -0.035670 2.020010 
# 
# From -- ./inp_files/28429.got.cif
#   From: 2010.05.17/outbox.cif.g08.bks.cpg/sg2_15_cif.got.tgz:28429.got - 2010.06.03 11:33:40.
