data_PCOD9060286
_publ_section_title
;
Structure prediction by ZEFSAII (Michael W. Deem and Ramdas Pophale) SiO2 
 PCOD9060286
Probable space group: P -1
;
_chemical_formula_sum "Si O2"
_cell_formula_units_Z 16
_cell_length_a 14.370778
_cell_length_b 6.570155
_cell_length_c 9.570515
_cell_angle_alpha 83.817661
_cell_angle_beta 112.546919
_cell_angle_gamma 70.531433
_cell_volume 757.525682
_symmetry_space_group_name_H-M "P -1"
_symmetry_group_IT_number 2
_symmetry_cell_setting 'triclinic'
loop_
_space_group_symop_operation_xyz
x,y,z
-x,-y,-z
loop_
_atom_site_type_symbol
_atom_site_label
_atom_site_fract_x
_atom_site_fract_y
_atom_site_fract_z
Si Si1 0.202320 0.006195 0.240794
Si Si2 0.341475 0.609639 0.769174
Si Si3 0.059525 0.436348 0.305310
Si Si4 0.395449 0.150738 0.340244
Si Si5 0.066109 0.065963 0.914872
Si Si6 0.479949 0.202544 0.080542
Si Si7 0.265022 0.534156 0.447014
Si Si8 0.919124 0.194338 0.340357
O O1 0.112586 0.233416 0.240347
O O2 0.317662 0.020020 0.318740
O O3 0.205965 0.790971 0.342402
O O4 0.180635 0.004685 0.063870
O O5 0.407208 0.768668 0.815331
O O6 0.349086 0.512281 0.623355
O O7 0.208807 0.721600 0.699009
O O8 0.397356 0.420397 0.932164
O O9 0.166695 0.455869 0.436192
O O10 0.992653 0.673717 0.175973
O O11 0.972852 0.375768 0.349370
O O12 0.425837 0.178050 0.196962
O O13 0.330461 0.387067 0.363944
O O14 0.500000 0.000000 0.500000
O O15 0.075127 0.916710 0.798305
O O16 0.000000 0.000000 0.000000
O O17 0.500000 0.000000 0.000000
O O18 0.000000 0.000000 0.500000
#
# Coordination Sequence:
#
# PCOD9060286 Si02
#       8
#     2   2   2   2   2   2   2   2
#     4  11  24  40  70 103 135 177 234 288 346 408
#     4  11  27  46  69  99 140 186 230 292 347 418
#     4  11  23  43  69 101 143 182 231 282 347 418
#     4  11  26  44  73 103 132 182 235 292 352 417
#     4  12  24  41  69  99 140 183 230 290 339 419
#     4  11  27  48  70 100 138 180 235 291 356 410
#     4  11  24  46  72 100 140 181 233 287 348 418
#     4  12  28  44  67 105 143 189 235 282 358 420
#
# _framework density 21.121397000000002
#
# number of rings (size 3 to 8) (size 9 to 14) (size 15 to 20)
#    0.000    0.750    2.500    3.375    5.250    8.000 
#    0.000    0.000    0.000    0.000    0.000    0.000 
#    0.000    0.000    0.000    0.000    0.000    0.000 
#
# Total GULP energy -89433.751616 kJ/mol
# GULP energy per Si atom -5589.609476 kJ/mol
# Density = 2.107332 g / cm^3
# Si number density = 21.121397 Si / 1000 Ang^3
#
#
#
# Elastic Constant Matrix: (Units=GPa)
#
#
# Indices 1 2 3 4 5 6 
#
# 1 128.2871 42.2727 25.4398 11.5542 8.7812 12.1529
# 2 42.2727 95.1704 22.7564 8.9088 -1.6099 17.2231
# 3 25.4398 22.7564 100.0747 22.7065 11.1623 6.0404
# 4 11.5542 8.9088 22.7065 45.2366 3.1113 0.2773
# 5 8.7812 -1.6099 11.1623 3.1113 43.3220 7.1364
# 6 12.1529 17.2231 6.0404 0.2773 7.1364 30.8305
#
#
#
# Elastic Compliance Matrix: (Units=1/GPa)
#
#
# Indices 1 2 3 4 5 6 
#
# 1 0.009537 -0.003698 -0.001110 -0.001038 -0.001526 -0.001113
# 2 -0.003698 0.013955 -0.001934 -0.000994 0.002930 -0.006628
# 3 -0.001110 -0.001934 0.012216 -0.005289 -0.002576 -0.000231
# 4 -0.001038 -0.000994 -0.005289 0.025251 -0.000592 0.001910
# 5 -0.001526 0.002930 -0.002576 -0.000592 0.025257 -0.006371
# 6 -0.001113 -0.006628 -0.000231 0.001910 -0.006371 0.038080
#
#
# Mechanical properties :
#
#
# Convention : Reuss Voigt Hill
#
# Bulk Modulus (GPa) = 44.99981 56.05221 50.52601
# Shear Modulus (GPa) = 34.43808 39.41540 36.92674
#
# Velocity S-wave (km/s) = 4.04230 4.32457 4.18582
# Velocity P-wave (km/s) = 6.56799 7.17855 6.88005
#
# Compressibility (1/GPa) = 0.02222232
#
# Stress axis : x y z
#
# Youngs Moduli (GPa) = 104.85244 71.66109 81.85987
#
# Poissons Ratio (x) = 0.26499 0.09090
# Poissons Ratio (y) = 0.38773 0.15835
# Poissons Ratio (z) = 0.11644 0.13862
#
# Static dielectric constant tensor:
#      x y z
#    x 1.775250 0.040240 0.024230 
#    y 0.040240 1.790100 0.076040 
#    z 0.024230 0.076040 1.776680 
# 
# From -- ./inp_files/288678.got.cif
#   From: 2010.05.17/outbox.cif.g08.bks.cpg/sg2_145_cif.got.tgz:288678.got - 2010.06.03 11:33:40.
