data_PCOD9060375
_publ_section_title
;
Structure prediction by ZEFSAII (Michael W. Deem and Ramdas Pophale) SiO2 
 PCOD9060375
Probable space group: P -1
;
_chemical_formula_sum "Si O2"
_cell_formula_units_Z 14
_cell_length_a 8.762962
_cell_length_b 12.572733
_cell_length_c 17.902038
_cell_angle_alpha 147.516364
_cell_angle_beta 148.147470
_cell_angle_gamma 49.103718
_cell_volume 545.550301
_symmetry_space_group_name_H-M "P -1"
_symmetry_group_IT_number 2
_symmetry_cell_setting 'triclinic'
loop_
_space_group_symop_operation_xyz
x,y,z
-x,-y,-z
loop_
_atom_site_type_symbol
_atom_site_label
_atom_site_fract_x
_atom_site_fract_y
_atom_site_fract_z
Si Si1 0.650694 0.995910 0.343045
Si Si2 0.522835 0.714380 0.682188
Si Si3 0.269309 0.574497 0.765764
Si Si4 0.115946 0.619438 0.889486
Si Si5 0.099396 0.783364 0.681196
Si Si6 0.159766 0.484539 0.979757
Si Si7 0.680817 0.045850 0.676622
O O1 0.577181 0.127555 0.321435
O O2 0.506502 0.071725 0.402662
O O3 0.000000 0.000000 0.500000
O O4 0.440951 0.769418 0.113215
O O5 0.500000 0.500000 0.500000
O O6 0.345550 0.733059 0.696982
O O7 0.872621 0.757822 0.873654
O O8 0.100705 0.521114 0.742371
O O9 0.171652 0.738493 0.769806
O O10 0.605267 0.640224 0.969743
O O11 0.195552 0.376955 0.564885
O O12 0.039014 0.453361 0.826118
O O13 0.000465 0.995234 0.766094
O O14 0.308120 0.719608 0.167288
O O15 0.000000 0.500000 0.000000
O O16 0.500000 0.000000 0.500000
#
# Coordination Sequence:
#
# PCOD9060375 Si02
#       7
#     2   2   2   2   2   2   2
#     4  11  27  47  73 105 146 196 241 295 362 430
#     4  12  25  44  73 105 142 190 243 293 365 429
#     4  11  23  43  70 103 144 187 237 301 351 428
#     4  11  25  47  72 107 148 189 243 298 358 437
#     4  11  24  43  71 105 143 188 241 294 368 422
#     4  11  25  44  70 104 143 188 240 297 365 425
#     4  11  23  44  70  99 145 187 237 296 358 430
#
# _framework density 25.662164000000001
#
# number of rings (size 3 to 8) (size 9 to 14) (size 15 to 20)
#    0.000    0.857    2.857    3.429    4.000    5.714 
#    0.000    4.286    0.000    0.000    0.000    0.000 
#    0.000    0.000    0.000    0.000    0.000    0.000 
#
# Total GULP energy -78139.614302 kJ/mol
# GULP energy per Si atom -5581.401022 kJ/mol
# Density = 2.560376 g / cm^3
# Si number density = 25.662164 Si / 1000 Ang^3
#
#
#
# Elastic Constant Matrix: (Units=GPa)
#
#
# Indices 1 2 3 4 5 6 
#
# 1 191.5260 47.1414 36.0988 -37.3151 -12.2431 25.7014
# 2 47.1414 114.7828 31.7080 -38.5340 -7.3761 25.2847
# 3 36.0988 31.7080 64.3820 -15.7333 6.0101 2.5566
# 4 -37.3151 -38.5340 -15.7333 49.8456 -3.0896 -1.5394
# 5 -12.2431 -7.3761 6.0101 -3.0896 41.6552 -8.4907
# 6 25.7014 25.2847 2.5566 -1.5394 -8.4907 55.6406
#
#
#
# Elastic Compliance Matrix: (Units=1/GPa)
#
#
# Indices 1 2 3 4 5 6 
#
# 1 0.007181 0.000236 -0.003121 0.004634 0.002378 -0.002790
# 2 0.000236 0.014892 -0.005042 0.010100 0.002978 -0.005911
# 3 -0.003121 -0.005042 0.020053 -0.000103 -0.004271 0.002157
# 4 0.004634 0.010100 -0.000103 0.031422 0.004440 -0.005179
# 5 0.002378 0.002978 -0.004271 0.004440 0.026570 0.001922
# 6 -0.002790 -0.005911 0.002157 -0.005179 0.001922 0.021998
#
#
# Mechanical properties :
#
#
# Convention : Reuss Voigt Hill
#
# Bulk Modulus (GPa) = 38.06277 66.73190 52.39734
# Shear Modulus (GPa) = 34.07681 46.47780 40.27730
#
# Velocity S-wave (km/s) = 3.64799 4.26037 3.96602
# Velocity P-wave (km/s) = 5.71036 7.08953 6.43699
#
# Compressibility (1/GPa) = 0.02627239
#
# Stress axis : x y z
#
# Youngs Moduli (GPa) = 139.26431 67.15014 49.86685
#
# Poissons Ratio (x) = -0.01586 0.15564
# Poissons Ratio (y) = -0.03289 0.25142
# Poissons Ratio (z) = 0.43467 0.33856
#
# Static dielectric constant tensor:
#      x y z
#    x 2.431640 0.074240 -0.113290 
#    y 0.074240 1.990840 -0.089980 
#    z -0.113290 -0.089980 2.212620 
# 
# From -- ./inp_files/560085.got.cif
#   From: 2010.05.17/outbox.cif.g08.bks.cpg/sg2_281_cif.got.tgz:560085.got - 2010.06.03 11:33:40.
