data_PCOD9060915
_publ_section_title
;
Structure prediction by ZEFSAII (Michael W. Deem and Ramdas Pophale) SiO2 
 PCOD9060915
Probable space group: P -1
;
_chemical_formula_sum "Si O2"
_cell_formula_units_Z 14
_cell_length_a 18.279006
_cell_length_b 5.724021
_cell_length_c 9.190929
_cell_angle_alpha 125.020474
_cell_angle_beta 129.687068
_cell_angle_gamma 51.124581
_cell_volume 551.555905
_symmetry_space_group_name_H-M "P -1"
_symmetry_group_IT_number 2
_symmetry_cell_setting 'triclinic'
loop_
_space_group_symop_operation_xyz
x,y,z
-x,-y,-z
loop_
_atom_site_type_symbol
_atom_site_label
_atom_site_fract_x
_atom_site_fract_y
_atom_site_fract_z
Si Si1 0.966233 0.483776 0.113003
Si Si2 0.890880 0.631391 0.491778
Si Si3 0.685356 0.158434 0.454866
Si Si4 0.228069 0.621974 0.110814
Si Si5 0.622382 0.059925 0.039805
Si Si6 0.526048 0.114252 0.415468
Si Si7 0.208739 0.847923 0.872119
O O1 0.070267 0.365302 0.295797
O O2 0.884194 0.829543 0.180243
O O3 0.890838 0.307535 0.976856
O O4 0.000000 0.500000 0.000000
O O5 0.836458 0.400629 0.313166
O O6 0.000000 0.500000 0.500000
O O7 0.799936 0.967826 0.464502
O O8 0.705846 0.410727 0.670282
O O9 0.646215 0.981180 0.464554
O O10 0.608976 0.202199 0.236020
O O11 0.289986 0.298441 0.986606
O O12 0.223139 0.871118 0.071864
O O13 0.529243 0.023632 0.822408
O O14 0.678640 0.237236 0.083581
O O15 0.500000 0.500000 0.500000
O O16 0.500000 0.000000 0.500000
#
# Coordination Sequence:
#
# PCOD9060915 Si02
#       7
#     2   2   2   2   2   2   2
#     4  11  25  38  64  99 142 198 257 310 383 448
#     4  12  24  44  69 106 151 200 256 313 384 458
#     4  12  26  46  80 109 151 203 255 316 396 466
#     4  11  23  46  68 104 149 191 258 312 383 462
#     4  11  25  48  74 111 147 193 253 323 387 468
#     4  12  28  54  86 118 158 203 259 329 399 473
#     4  11  23  44  69  99 150 199 252 325 377 464
#
# _framework density 25.382742
#
# number of rings (size 3 to 8) (size 9 to 14) (size 15 to 20)
#    0.000    0.571    4.286    3.429    4.000    3.429 
#    0.000    2.143    0.000    0.000    0.000    0.000 
#    0.000    0.000    0.000    0.000    0.000    0.000 
#
# Total GULP energy -78130.931597 kJ/mol
# GULP energy per Si atom -5580.780828 kJ/mol
# Density = 2.532497 g / cm^3
# Si number density = 25.382742 Si / 1000 Ang^3
#
#
#
# Elastic Constant Matrix: (Units=GPa)
#
#
# Indices 1 2 3 4 5 6 
#
# 1 155.2698 -2.6654 44.1662 -3.2391 -2.5285 22.0582
# 2 -2.6654 48.8166 18.9294 7.8099 -2.4085 -0.3674
# 3 44.1662 18.9294 222.5561 -3.6032 -8.7103 21.3310
# 4 -3.2391 7.8099 -3.6032 35.4816 -0.8418 -0.5413
# 5 -2.5285 -2.4085 -8.7103 -0.8418 48.3432 -3.7584
# 6 22.0582 -0.3674 21.3310 -0.5413 -3.7584 32.1613
#
#
#
# Elastic Compliance Matrix: (Units=1/GPa)
#
#
# Indices 1 2 3 4 5 6 
#
# 1 0.007390 0.000745 -0.001114 0.000329 -0.000108 -0.004328
# 2 0.000745 0.022229 -0.002206 -0.005013 0.000756 0.001210
# 3 -0.001114 -0.002206 0.005190 0.000885 0.000579 -0.002621
# 4 0.000329 -0.005013 0.000885 0.029412 0.000414 -0.000326
# 5 -0.000108 0.000756 0.000579 0.000414 0.020997 0.002159
# 6 -0.004328 0.001210 -0.002621 -0.000326 0.002159 0.036061
#
#
# Mechanical properties :
#
#
# Convention : Reuss Voigt Hill
#
# Bulk Modulus (GPa) = 33.71630 60.83365 47.27497
# Shear Modulus (GPa) = 36.67961 47.61138 42.14550
#
# Velocity S-wave (km/s) = 3.80552 4.33568 4.07922
# Velocity P-wave (km/s) = 5.71151 7.00591 6.39156
#
# Compressibility (1/GPa) = 0.02965924
#
# Stress axis : x y z
#
# Youngs Moduli (GPa) = 135.31704 44.98568 192.67321
#
# Poissons Ratio (x) = -0.03351 0.21463
# Poissons Ratio (y) = -0.10080 0.42506
# Poissons Ratio (z) = 0.15074 0.09924
#
# Static dielectric constant tensor:
#      x y z
#    x 1.965440 -0.207660 0.173820 
#    y -0.207660 1.755350 0.540150 
#    z 0.173820 0.540150 1.528200 
# 
# From -- ./inp_files/54731.got.cif
#   From: 2010.05.17/outbox.cif.g08.bks.cpg/sg2_28_cif.got.tgz:54731.got - 2010.06.03 11:33:40.
