data_PCOD9060033
_publ_section_title
;
Structure prediction by ZEFSAII (Michael W. Deem and Ramdas Pophale) SiO2 
 PCOD9060033
Probable space group: P -1
;
_chemical_formula_sum "Si O2"
_cell_formula_units_Z 12
_cell_length_a 16.943402
_cell_length_b 9.223232
_cell_length_c 5.687832
_cell_angle_alpha 82.137536
_cell_angle_beta 107.437722
_cell_angle_gamma 44.569932
_cell_volume 507.171108
_symmetry_space_group_name_H-M "P -1"
_symmetry_group_IT_number 2
_symmetry_cell_setting 'triclinic'
loop_
_space_group_symop_operation_xyz
x,y,z
-x,-y,-z
loop_
_atom_site_type_symbol
_atom_site_label
_atom_site_fract_x
_atom_site_fract_y
_atom_site_fract_z
Si Si1 0.299559 0.891342 0.664226
Si Si2 0.803448 0.170675 0.759580
Si Si3 0.415139 0.467392 0.185413
Si Si4 0.155133 0.352633 0.698588
Si Si5 0.966822 0.166777 0.629860
Si Si6 0.414212 0.140072 0.145627
O O1 0.186775 0.963353 0.401265
O O2 0.422695 0.759966 0.630233
O O3 0.238945 0.122853 0.663328
O O4 0.362242 0.682642 0.944540
O O5 0.649698 0.424007 0.640050
O O6 0.875627 0.215492 0.732850
O O7 0.887967 0.994052 0.094948
O O8 0.368870 0.376265 0.058041
O O9 0.114424 0.575878 0.562533
O O10 0.000000 0.500000 0.500000
O O11 0.282875 0.214509 0.024671
O O12 0.000000 0.000000 0.500000
O O13 0.500000 0.000000 0.500000
O O14 0.500000 0.000000 0.000000
#
# Coordination Sequence:
#
# PCOD9060033 Si02
#       6
#     2   2   2   2   2   2
#     4  11  25  45  69 112 152 199 263 325 401 468
#     4  11  23  42  74 103 142 210 253 325 396 479
#     4  11  25  45  75 103 158 199 264 315 399 473
#     4  12  26  49  77 114 156 202 269 335 402 478
#     4  11  25  47  71 104 149 199 262 323 408 471
#     4  12  29  53  81 117 160 213 270 330 398 480
#
# _framework density 23.660654999999998
#
# number of rings (size 3 to 8) (size 9 to 14) (size 15 to 20)
#    0.000    0.667    1.667    5.500    4.667    4.667 
#    0.000    0.000    0.000    0.000    0.000    0.000 
#    0.000    0.000    0.000    0.000    0.000    0.000 
#
# Total GULP energy -66880.980510 kJ/mol
# GULP energy per Si atom -5573.415042 kJ/mol
# Density = 2.360680 g / cm^3
# Si number density = 23.660655 Si / 1000 Ang^3
#
#
#
# Elastic Constant Matrix: (Units=GPa)
#
#
# Indices 1 2 3 4 5 6 
#
# 1 95.1592 39.9508 35.2020 -8.0422 23.1078 -7.9037
# 2 39.9508 168.7602 40.2573 -15.6500 -11.1724 26.4414
# 3 35.2020 40.2573 110.9656 -12.2766 19.0975 1.4444
# 4 -8.0422 -15.6500 -12.2766 26.8824 3.1979 6.7486
# 5 23.1078 -11.1724 19.0975 3.1979 43.4542 1.9500
# 6 -7.9037 26.4414 1.4444 6.7486 1.9500 43.7861
#
#
#
# Elastic Compliance Matrix: (Units=1/GPa)
#
#
# Indices 1 2 3 4 5 6 
#
# 1 0.016069 -0.004936 -0.001691 0.000712 -0.009403 0.006246
# 2 -0.004936 0.009664 -0.002448 0.004192 0.006216 -0.007569
# 3 -0.001691 -0.002448 0.011766 0.003960 -0.005211 0.000406
# 4 0.000712 0.004192 0.003960 0.044437 -0.003898 -0.009209
# 5 -0.009403 0.006216 -0.005211 -0.003898 0.032463 -0.006124
# 6 0.006246 -0.007569 0.000406 -0.009209 -0.006124 0.030215
#
#
# Mechanical properties :
#
#
# Convention : Reuss Voigt Hill
#
# Bulk Modulus (GPa) = 51.68029 67.30059 59.49044
# Shear Modulus (GPa) = 29.54849 40.12287 34.83568
#
# Velocity S-wave (km/s) = 3.53773 4.12243 3.84122
# Velocity P-wave (km/s) = 6.21105 7.15298 6.69859
#
# Compressibility (1/GPa) = 0.01934974
#
# Stress axis : x y z
#
# Youngs Moduli (GPa) = 62.23209 103.47484 84.99129
#
# Poissons Ratio (x) = 0.51072 0.14373
# Poissons Ratio (y) = 0.30716 0.20804
# Poissons Ratio (z) = 0.10524 0.25329
#
# Static dielectric constant tensor:
#      x y z
#    x 1.934880 -0.203680 0.087130 
#    y -0.203680 1.589990 0.052010 
#    z 0.087130 0.052010 1.997840 
# 
# From -- ./inp_files/62990.got.cif
#   From: 2010.05.17/outbox.cif.g08.bks.cpg/sg2_32_cif.got.tgz:62990.got - 2010.06.03 11:33:40.
