data_PCOD9060564
_publ_section_title
;
Structure prediction by ZEFSAII (Michael W. Deem and Ramdas Pophale) SiO2 
 PCOD9060564
Probable space group: P -1
;
_chemical_formula_sum "Si O2"
_cell_formula_units_Z 16
_cell_length_a 6.547250
_cell_length_b 26.182262
_cell_length_c 11.271599
_cell_angle_alpha 150.075108
_cell_angle_beta 47.612689
_cell_angle_gamma 120.016615
_cell_volume 693.191755
_symmetry_space_group_name_H-M "P -1"
_symmetry_group_IT_number 2
_symmetry_cell_setting 'triclinic'
loop_
_space_group_symop_operation_xyz
x,y,z
-x,-y,-z
loop_
_atom_site_type_symbol
_atom_site_label
_atom_site_fract_x
_atom_site_fract_y
_atom_site_fract_z
Si Si1 0.906055 0.714872 0.020988
Si Si2 0.313812 0.895013 0.995863
Si Si3 0.138218 0.837517 0.374521
Si Si4 0.737888 0.734361 0.665899
Si Si5 0.674041 0.330460 0.833435
Si Si6 0.261291 0.144272 0.850623
Si Si7 0.751970 0.010647 0.025505
Si Si8 0.461918 0.546918 0.477409
O O1 0.837701 0.756733 0.999375
O O2 0.133161 0.604988 0.708172
O O3 0.606039 0.705321 0.174682
O O4 0.047541 0.795699 0.201922
O O5 0.503644 0.792386 0.778048
O O6 0.476997 0.986528 0.147251
O O7 0.982470 0.918286 0.205036
O O8 0.308840 0.893892 0.850912
O O9 0.235709 0.735475 0.213906
O O10 0.878814 0.912426 0.692353
O O11 0.403368 0.894270 0.381941
O O12 0.753530 0.816566 0.929639
O O13 0.633589 0.637105 0.568203
O O14 0.047918 0.696175 0.410222
O O15 0.573078 0.452250 0.152362
O O16 0.000000 0.000000 0.000000
O O17 0.500000 0.500000 0.500000
#
# Coordination Sequence:
#
# PCOD9060564 Si02
#       8
#     2   2   2   2   2   2   2   2
#     4  11  23  45  70  99 139 191 232 281 352 404
#     4  11  24  43  72 101 141 180 222 288 354 407
#     4  11  23  46  70 101 140 180 233 289 347 415
#     4  12  24  45  66 106 146 179 238 290 346 402
#     4  11  25  39  71 102 139 187 234 288 341 416
#     4  11  23  43  72  99 138 189 227 289 341 417
#     4  11  26  46  73 106 139 180 229 288 356 423
#     4  12  22  46  69  99 146 186 236 288 342 410
#
# _framework density 23.081637000000001
#
# number of rings (size 3 to 8) (size 9 to 14) (size 15 to 20)
#    0.000    0.750    5.000    2.250    1.750    3.500 
#    0.000    4.375    0.000    0.000    0.000    0.000 
#    0.000    0.000    0.000    0.000    0.000    0.000 
#
# Total GULP energy -89472.758986 kJ/mol
# GULP energy per Si atom -5592.047437 kJ/mol
# Density = 2.302910 g / cm^3
# Si number density = 23.081637 Si / 1000 Ang^3
#
#
#
# Elastic Constant Matrix: (Units=GPa)
#
#
# Indices 1 2 3 4 5 6 
#
# 1 141.9437 60.1301 32.9399 -3.1504 -26.8980 7.1652
# 2 60.1301 132.9977 4.8317 -2.6212 -23.7468 12.1727
# 3 32.9399 4.8317 87.2017 -8.0884 -21.9139 -8.8736
# 4 -3.1504 -2.6212 -8.0884 29.0209 0.6502 -8.2043
# 5 -26.8980 -23.7468 -21.9139 0.6502 42.2510 0.7322
# 6 7.1652 12.1727 -8.8736 -8.2043 0.7322 50.7689
#
#
#
# Elastic Compliance Matrix: (Units=1/GPa)
#
#
# Indices 1 2 3 4 5 6 
#
# 1 0.009904 -0.003806 -0.003033 -0.000493 0.002620 -0.001133
# 2 -0.003806 0.010075 0.001823 0.000474 0.004204 -0.001544
# 3 -0.003033 0.001823 0.014983 0.004790 0.006734 0.003287
# 4 -0.000493 0.000474 0.004790 0.037682 0.001738 0.006857
# 5 0.002620 0.004204 0.006734 0.001738 0.031172 -0.000369
# 6 -0.001133 -0.001544 0.003287 0.006857 -0.000369 0.021915
#
#
# Mechanical properties :
#
#
# Convention : Reuss Voigt Hill
#
# Bulk Modulus (GPa) = 40.11122 61.99405 51.05264
# Shear Modulus (GPa) = 34.70491 42.02424 38.36458
#
# Velocity S-wave (km/s) = 3.88180 4.27157 4.08134
# Velocity P-wave (km/s) = 6.12428 7.15858 6.66154
#
# Compressibility (1/GPa) = 0.02493068
#
# Stress axis : x y z
#
# Youngs Moduli (GPa) = 100.97193 99.25920 66.74073
#
# Poissons Ratio (x) = 0.37774 0.20241
# Poissons Ratio (y) = 0.38426 -0.12165
# Poissons Ratio (z) = 0.30622 -0.18093
#
# Static dielectric constant tensor:
#      x y z
#    x 1.890240 0.021420 0.001990 
#    y 0.021420 1.931570 0.015490 
#    z 0.001990 0.015490 1.830600 
# 
# From -- ./inp_files/49288.got.cif
#   From: 2010.05.17/outbox.cif.g08.bks.cpg/sg2_25_cif.got.tgz:49288.got - 2010.06.03 11:33:40.
