data_PCOD9060300
_publ_section_title
;
Structure prediction by ZEFSAII (Michael W. Deem and Ramdas Pophale) SiO2 
 PCOD9060300
Probable space group: P -1
;
_chemical_formula_sum "Si O2"
_cell_formula_units_Z 16
_cell_length_a 11.992290
_cell_length_b 17.544620
_cell_length_c 9.044670
_cell_angle_alpha 45.278204
_cell_angle_beta 133.383380
_cell_angle_gamma 149.553085
_cell_volume 667.949648
_symmetry_space_group_name_H-M "P -1"
_symmetry_group_IT_number 2
_symmetry_cell_setting 'triclinic'
loop_
_space_group_symop_operation_xyz
x,y,z
-x,-y,-z
loop_
_atom_site_type_symbol
_atom_site_label
_atom_site_fract_x
_atom_site_fract_y
_atom_site_fract_z
Si Si1 0.094019 0.660820 0.306115
Si Si2 0.739510 0.663465 0.062278
Si Si3 0.876543 0.967143 0.647531
Si Si4 0.510935 0.892844 0.576808
Si Si5 0.043381 0.374799 0.099521
Si Si6 0.653034 0.827674 0.328569
Si Si7 0.675463 0.272218 0.070973
Si Si8 0.525672 0.534259 0.647801
O O1 0.342084 0.802115 0.408013
O O2 0.000000 0.500000 0.500000
O O3 0.932757 0.674332 0.197413
O O4 0.079816 0.653489 0.125524
O O5 0.662552 0.626564 0.213341
O O6 0.500000 0.500000 0.000000
O O7 0.812896 0.813843 0.852922
O O8 0.758507 0.983728 0.633352
O O9 0.765906 0.934831 0.430391
O O10 0.141279 0.111292 0.666759
O O11 0.415969 0.770382 0.788583
O O12 0.500000 0.000000 0.500000
O O13 0.216612 0.370832 0.215603
O O14 0.852123 0.268310 0.196629
O O15 0.199445 0.549503 0.068274
O O16 0.507594 0.652376 0.494124
O O17 0.513904 0.829778 0.088056
O O18 0.500000 0.500000 0.500000
#
# Coordination Sequence:
#
# PCOD9060300 Si02
#       8
#     2   2   2   2   2   2   2   2
#     4  12  25  44  74 103 141 186 238 298 354 426
#     4  12  24  44  74 107 137 185 249 293 352 432
#     4  11  26  50  73 102 147 192 245 292 364 443
#     4  12  29  48  69 105 144 193 237 296 365 433
#     4  11  23  43  69 103 139 182 232 296 351 424
#     4  11  25  45  74 104 143 193 234 300 364 424
#     4  11  25  43  68 104 143 180 235 294 363 419
#     4  12  25  41  70 106 142 182 238 298 354 417
#
# _framework density 23.953900000000001
#
# number of rings (size 3 to 8) (size 9 to 14) (size 15 to 20)
#    0.000    0.500    5.000    2.250    7.000    0.500 
#    0.000    1.250    0.000    0.000    0.000    0.000 
#    0.000    0.000    0.000    0.000    0.000    0.000 
#
# Total GULP energy -89529.026490 kJ/mol
# GULP energy per Si atom -5595.564156 kJ/mol
# Density = 2.389938 g / cm^3
# Si number density = 23.953900 Si / 1000 Ang^3
#
#
#
# Elastic Constant Matrix: (Units=GPa)
#
#
# Indices 1 2 3 4 5 6 
#
# 1 130.5897 2.3960 19.2861 -3.2903 -0.8773 32.5701
# 2 2.3960 49.9451 18.2815 -3.5765 1.5012 9.5396
# 3 19.2861 18.2815 84.7998 7.4447 -8.7895 12.7592
# 4 -3.2903 -3.5765 7.4447 30.1705 -6.9524 0.5126
# 5 -0.8773 1.5012 -8.7895 -6.9524 45.0475 -2.1565
# 6 32.5701 9.5396 12.7592 0.5126 -2.1565 40.3560
#
#
#
# Elastic Compliance Matrix: (Units=1/GPa)
#
#
# Indices 1 2 3 4 5 6 
#
# 1 0.009882 0.001766 -0.001621 0.001754 -0.000291 -0.007918
# 2 0.001766 0.023153 -0.005068 0.003963 -0.001374 -0.005420
# 3 -0.001621 -0.005068 0.014078 -0.003708 0.002227 -0.001779
# 4 0.001754 0.003963 -0.003708 0.035814 0.004640 -0.001387
# 5 -0.000291 -0.001374 0.002227 0.004640 0.023440 0.001049
# 6 -0.007918 -0.005420 -0.001779 -0.001387 0.001049 0.033087
#
#
# Mechanical properties :
#
#
# Convention : Reuss Voigt Hill
#
# Bulk Modulus (GPa) = 26.83397 38.36242 32.59820
# Shear Modulus (GPa) = 30.91772 38.13954 34.52863
#
# Velocity S-wave (km/s) = 3.59655 3.99457 3.80078
# Velocity P-wave (km/s) = 5.33606 6.10945 5.73581
#
# Compressibility (1/GPa) = 0.03726619
#
# Stress axis : x y z
#
# Youngs Moduli (GPa) = 101.19814 43.19187 71.03484
#
# Poissons Ratio (x) = -0.07628 0.11514
# Poissons Ratio (y) = -0.17871 0.35999
# Poissons Ratio (z) = 0.16403 0.21889
#
# Static dielectric constant tensor:
#      x y z
#    x 1.922730 -0.028370 0.065220 
#    y -0.028370 1.797960 0.217320 
#    z 0.065220 0.217320 1.574010 
# 
# From -- ./inp_files/279129.got.cif
#   From: 2010.05.17/outbox.cif.g08.bks.cpg/sg2_140_cif.got.tgz:279129.got - 2010.06.03 11:33:40.
