data_PCOD9060720
_publ_section_title
;
Structure prediction by ZEFSAII (Michael W. Deem and Ramdas Pophale) SiO2 
 PCOD9060720
Probable space group: P -1
;
_chemical_formula_sum "Si O2"
_cell_formula_units_Z 14
_cell_length_a 16.395252
_cell_length_b 14.527882
_cell_length_c 7.986789
_cell_angle_alpha 53.574578
_cell_angle_beta 108.462132
_cell_angle_gamma 149.573085
_cell_volume 680.350541
_symmetry_space_group_name_H-M "P -1"
_symmetry_group_IT_number 2
_symmetry_cell_setting 'triclinic'
loop_
_space_group_symop_operation_xyz
x,y,z
-x,-y,-z
loop_
_atom_site_type_symbol
_atom_site_label
_atom_site_fract_x
_atom_site_fract_y
_atom_site_fract_z
Si Si1 0.958140 0.715141 0.638850
Si Si2 0.221114 0.363572 0.134994
Si Si3 0.512340 0.500484 0.704266
Si Si4 0.329646 0.066010 0.580369
Si Si5 0.137906 0.083993 0.100933
Si Si6 0.499785 0.867310 0.693746
Si Si7 0.476299 0.843496 0.088975
O O1 0.947333 0.802605 0.677381
O O2 0.745192 0.433950 0.773647
O O3 0.107436 0.802619 0.714862
O O4 0.039996 0.861700 0.363055
O O5 0.377572 0.486915 0.212535
O O6 0.194715 0.238568 0.114262
O O7 0.298520 0.571836 0.882778
O O8 0.500000 0.500000 0.500000
O O9 0.607533 0.726469 0.599701
O O10 0.313882 0.256729 0.922140
O O11 0.394054 0.079690 0.436592
O O12 0.426606 0.122158 0.744669
O O13 0.000000 0.000000 0.000000
O O14 0.500000 0.000000 0.500000
O O15 0.558142 0.928035 0.862169
O O16 0.500000 0.000000 0.000000
#
# Coordination Sequence:
#
# PCOD9060720 Si02
#       7
#     2   2   2   2   2   2   2
#     4  11  26  43  69 105 137 183 241 290 356 429
#     4  11  23  44  63  98 141 180 224 290 356 411
#     4  12  24  42  70 101 143 189 228 285 360 426
#     4  12  24  46  74 101 144 187 236 296 356 423
#     4  12  23  38  65 102 143 178 234 285 349 427
#     4  11  23  45  72  98 136 191 239 289 355 420
#     4  11  25  49  73  99 140 187 239 299 360 420
#
# _framework density 20.577627
#
# number of rings (size 3 to 8) (size 9 to 14) (size 15 to 20)
#    0.000    0.571    4.286    5.143    2.000    0.571 
#    0.000    0.714    0.000    0.000    0.000    0.000 
#    0.000    0.000    0.000    0.000    0.000    0.000 
#
# Total GULP energy -78170.736802 kJ/mol
# GULP energy per Si atom -5583.624057 kJ/mol
# Density = 2.053079 g / cm^3
# Si number density = 20.577627 Si / 1000 Ang^3
#
#
#
# Elastic Constant Matrix: (Units=GPa)
#
#
# Indices 1 2 3 4 5 6 
#
# 1 122.6285 38.7777 58.9326 4.6402 -16.0787 -5.4766
# 2 38.7777 114.9153 54.3826 15.1114 -12.0704 15.6159
# 3 58.9326 54.3826 117.4371 12.1215 -12.7148 7.6281
# 4 4.6402 15.1114 12.1215 29.1205 -5.8154 -5.3866
# 5 -16.0787 -12.0704 -12.7148 -5.8154 55.8260 0.7651
# 6 -5.4766 15.6159 7.6281 -5.3866 0.7651 41.3018
#
#
#
# Elastic Compliance Matrix: (Units=1/GPa)
#
#
# Indices 1 2 3 4 5 6 
#
# 1 0.011597 -0.002085 -0.005125 0.002409 0.001924 0.003551
# 2 -0.002085 0.012728 -0.003870 -0.005451 0.000772 -0.005099
# 3 -0.005125 -0.003870 0.013377 -0.003041 0.000446 -0.002092
# 4 0.002409 -0.005451 -0.003041 0.040131 0.002892 0.008122
# 5 0.001924 0.000772 0.000446 0.002892 0.019038 -0.000095
# 6 0.003551 -0.005099 -0.002092 0.008122 -0.000095 0.028058
#
#
# Mechanical properties :
#
#
# Convention : Reuss Voigt Hill
#
# Bulk Modulus (GPa) = 64.34406 73.24076 68.79241
# Shear Modulus (GPa) = 32.83642 38.77552 35.80597
#
# Velocity S-wave (km/s) = 3.99900 4.34562 4.17591
# Velocity P-wave (km/s) = 7.25668 7.80057 7.53354
#
# Compressibility (1/GPa) = 0.01554145
#
# Stress axis : x y z
#
# Youngs Moduli (GPa) = 86.23132 78.56643 74.75378
#
# Poissons Ratio (x) = 0.16382 0.38310
# Poissons Ratio (y) = 0.17981 0.28932
# Poissons Ratio (z) = 0.44192 0.30408
#
# Static dielectric constant tensor:
#      x y z
#    x 1.739670 -0.000090 0.021990 
#    y -0.000090 1.748640 -0.005690 
#    z 0.021990 -0.005690 1.763050 
# 
# From -- ./inp_files/169905.got.cif
#   From: 2010.05.17/outbox.cif.g08.bks.cpg/sg2_85_cif.got.tgz:169905.got - 2010.06.03 11:33:40.
