data_PCOD9060870
_publ_section_title
;
Structure prediction by ZEFSAII (Michael W. Deem and Ramdas Pophale) SiO2 
 PCOD9060870
Probable space group: P -1
;
_chemical_formula_sum "Si O2"
_cell_formula_units_Z 14
_cell_length_a 5.784786
_cell_length_b 6.736555
_cell_length_c 19.537196
_cell_angle_alpha 60.042830
_cell_angle_beta 93.048207
_cell_angle_gamma 72.983696
_cell_volume 612.234535
_symmetry_space_group_name_H-M "P -1"
_symmetry_group_IT_number 2
_symmetry_cell_setting 'triclinic'
loop_
_space_group_symop_operation_xyz
x,y,z
-x,-y,-z
loop_
_atom_site_type_symbol
_atom_site_label
_atom_site_fract_x
_atom_site_fract_y
_atom_site_fract_z
Si Si1 0.631213 0.163920 0.936609
Si Si2 0.596686 0.964715 0.676395
Si Si3 0.013051 0.926942 0.779786
Si Si4 0.140067 0.369660 0.656685
Si Si5 0.790695 0.905385 0.544777
Si Si6 0.097904 0.721442 0.962942
Si Si7 0.388003 0.552205 0.749394
O O1 0.492433 0.328012 0.842612
O O2 0.685018 0.325322 0.970219
O O3 0.883384 0.970440 0.942845
O O4 0.500000 0.000000 0.000000
O O5 0.756372 0.984968 0.610493
O O6 0.568634 0.701381 0.714224
O O7 0.729156 0.965071 0.751371
O O8 0.330654 0.190503 0.635602
O O9 0.133487 0.788599 0.874550
O O10 0.160378 0.750442 0.751732
O O11 0.042310 0.187618 0.729273
O O12 0.298303 0.473822 0.691610
O O13 0.913267 0.609612 0.587292
O O14 0.500000 0.000000 0.500000
O O15 0.000000 0.000000 0.500000
O O16 0.000000 0.500000 0.000000
#
# Coordination Sequence:
#
# PCOD9060870 Si02
#       7
#     2   2   2   2   2   2   2
#     4  11  24  39  63  95 143 192 243 306 371 417
#     4  11  26  46  75 107 143 193 251 295 379 452
#     4  11  24  42  71 103 137 192 249 299 365 446
#     4  11  26  46  76 104 147 192 247 303 369 451
#     4  12  29  51  79 114 155 193 244 317 386 461
#     4  11  24  40  61  99 141 187 243 307 363 426
#     4  11  23  44  69 102 143 194 247 307 361 443
#
# _framework density 22.867054
#
# number of rings (size 3 to 8) (size 9 to 14) (size 15 to 20)
#    0.000    0.857    1.429    4.286    8.000    8.000 
#    0.000    0.000    0.000    0.000    0.000    0.000 
#    0.000    0.000    0.000    0.000    0.000    0.000 
#
# Total GULP energy -78283.589373 kJ/mol
# GULP energy per Si atom -5591.684955 kJ/mol
# Density = 2.281501 g / cm^3
# Si number density = 22.867054 Si / 1000 Ang^3
#
#
#
# Elastic Constant Matrix: (Units=GPa)
#
#
# Indices 1 2 3 4 5 6 
#
# 1 92.6793 26.6551 52.3761 -6.9131 -1.4010 10.3241
# 2 26.6551 88.0097 28.5289 -10.9593 -7.4097 7.9686
# 3 52.3761 28.5289 119.2848 -12.5392 -0.2769 -6.3513
# 4 -6.9131 -10.9593 -12.5392 43.8141 0.4482 2.6987
# 5 -1.4010 -7.4097 -0.2769 0.4482 41.8660 -4.5176
# 6 10.3241 7.9686 -6.3513 2.6987 -4.5176 48.4235
#
#
#
# Elastic Compliance Matrix: (Units=1/GPa)
#
#
# Indices 1 2 3 4 5 6 
#
# 1 0.015530 -0.002258 -0.006454 0.000278 -0.000339 -0.003833
# 2 -0.002258 0.013366 -0.002041 0.002501 0.002041 -0.001935
# 3 -0.006454 -0.002041 0.012056 0.001727 -0.000173 0.003181
# 4 0.000278 0.002501 0.001727 0.024085 0.000035 -0.001583
# 5 -0.000339 0.002041 -0.000173 0.000035 0.024449 0.001993
# 6 -0.003833 -0.001935 0.003181 -0.001583 0.001993 0.022478
#
#
# Mechanical properties :
#
#
# Convention : Reuss Voigt Hill
#
# Bulk Modulus (GPa) = 51.42561 57.23265 54.32913
# Shear Modulus (GPa) = 35.72665 39.64830 37.68747
#
# Velocity S-wave (km/s) = 3.95696 4.16848 4.06410
# Velocity P-wave (km/s) = 6.58897 6.94630 6.76999
#
# Compressibility (1/GPa) = 0.01944556
#
# Stress axis : x y z
#
# Youngs Moduli (GPa) = 64.39356 74.81536 82.94686
#
# Poissons Ratio (x) = 0.16893 0.53537
# Poissons Ratio (y) = 0.14540 0.16926
# Poissons Ratio (z) = 0.41562 0.15267
#
# Static dielectric constant tensor:
#      x y z
#    x 1.949390 -0.004550 0.053740 
#    y -0.004550 1.830550 0.022710 
#    z 0.053740 0.022710 1.954930 
# 
# From -- ./inp_files/7376.got.cif
#   From: 2010.05.17/outbox.cif.g08.bks.cpg/sg2_4_cif.got.tgz:7376.got - 2010.06.03 11:33:40.
