data_PCOD9060865
_publ_section_title
;
Structure prediction by ZEFSAII (Michael W. Deem and Ramdas Pophale) SiO2 
 PCOD9060865
Probable space group: P -1
;
_chemical_formula_sum "Si O2"
_cell_formula_units_Z 16
_cell_length_a 11.550102
_cell_length_b 15.583606
_cell_length_c 15.275863
_cell_angle_alpha 151.298173
_cell_angle_beta 57.662265
_cell_angle_gamma 140.014293
_cell_volume 760.125931
_symmetry_space_group_name_H-M "P -1"
_symmetry_group_IT_number 2
_symmetry_cell_setting 'triclinic'
loop_
_space_group_symop_operation_xyz
x,y,z
-x,-y,-z
loop_
_atom_site_type_symbol
_atom_site_label
_atom_site_fract_x
_atom_site_fract_y
_atom_site_fract_z
Si Si1 0.936496 0.424848 0.756463
Si Si2 0.620230 0.387649 0.920968
Si Si3 0.654203 0.440555 0.639143
Si Si4 0.338341 0.170581 0.673856
Si Si5 0.596447 0.640823 0.680569
Si Si6 0.657821 0.064116 0.234732
Si Si7 0.607077 0.191885 0.044569
Si Si8 0.031080 0.798302 0.905209
O O1 0.786255 0.392554 0.850237
O O2 0.157932 0.615221 0.875438
O O3 0.960082 0.565363 0.785073
O O4 0.840785 0.140523 0.522947
O O5 0.500825 0.282017 0.783252
O O6 0.456483 0.182198 0.876548
O O7 0.715062 0.672275 0.154071
O O8 0.453246 0.252611 0.609454
O O9 0.617702 0.501574 0.616526
O O10 0.834223 0.701693 0.856760
O O11 0.723026 0.301965 0.473102
O O12 0.500000 0.500000 0.500000
O O13 0.451410 0.655590 0.791354
O O14 0.821155 0.942242 0.861093
O O15 0.831327 0.138802 0.174335
O O16 0.495004 0.978419 0.153579
O O17 0.500000 0.000000 0.000000
#
# Coordination Sequence:
#
# PCOD9060865 Si02
#       8
#     2   2   2   2   2   2   2   2
#     4  12  23  45  73  99 139 185 233 281 354 418
#     4  11  24  45  70  98 146 178 233 291 355 408
#     4  12  23  44  72 104 141 181 239 288 352 418
#     4  11  24  44  69 105 138 185 227 294 352 420
#     4  11  25  43  67 103 144 181 232 292 349 414
#     4  11  23  44  69 102 138 187 230 295 352 406
#     4  11  23  46  65  95 141 185 226 284 354 418
#     4  11  24  43  72 105 140 182 235 292 353 410
#
# _framework density 21.049143999999998
#
# number of rings (size 3 to 8) (size 9 to 14) (size 15 to 20)
#    0.000    0.750    5.000    4.125    0.000    1.500 
#    0.000    1.250    0.000    0.000    0.000    0.000 
#    0.000    0.000    0.000    0.000    0.000    0.000 
#
# Total GULP energy -89477.866237 kJ/mol
# GULP energy per Si atom -5592.366640 kJ/mol
# Density = 2.100123 g / cm^3
# Si number density = 21.049144 Si / 1000 Ang^3
#
#
#
# Elastic Constant Matrix: (Units=GPa)
#
#
# Indices 1 2 3 4 5 6 
#
# 1 83.4997 11.7288 32.4443 12.4557 11.6570 -7.9696
# 2 11.7288 84.5899 32.3367 22.9322 1.4440 -16.1199
# 3 32.4443 32.3367 117.0651 16.5669 5.9527 -10.8644
# 4 12.4557 22.9322 16.5669 27.1858 -6.8495 -3.5369
# 5 11.6570 1.4440 5.9527 -6.8495 36.9135 -0.5216
# 6 -7.9696 -16.1199 -10.8644 -3.5369 -0.5216 40.0684
#
#
#
# Elastic Compliance Matrix: (Units=1/GPa)
#
#
# Indices 1 2 3 4 5 6 
#
# 1 0.015064 0.001632 -0.003071 -0.007573 -0.005701 0.002077
# 2 0.001632 0.017482 -0.002631 -0.014025 -0.003301 0.005363
# 3 -0.003071 -0.002631 0.010705 -0.003080 -0.001212 0.000946
# 4 -0.007573 -0.014025 -0.003080 0.057129 0.013998 -0.002759
# 5 -0.005701 -0.003301 -0.001212 0.013998 0.031797 -0.001141
# 6 0.002077 0.005363 0.000946 -0.002759 -0.001141 0.027526
#
#
# Mechanical properties :
#
#
# Convention : Reuss Voigt Hill
#
# Bulk Modulus (GPa) = 28.48166 48.68603 38.58385
# Shear Modulus (GPa) = 27.84779 34.74320 31.29549
#
# Velocity S-wave (km/s) = 3.64124 4.06713 3.86006
# Velocity P-wave (km/s) = 5.58915 6.72572 6.18360
#
# Compressibility (1/GPa) = 0.03511032
#
# Stress axis : x y z
#
# Youngs Moduli (GPa) = 66.38285 57.20253 93.41109
#
# Poissons Ratio (x) = -0.09333 0.28689
# Poissons Ratio (y) = -0.10830 0.24574
# Poissons Ratio (z) = 0.20388 0.15048
#
# Static dielectric constant tensor:
#      x y z
#    x 1.754450 -0.010950 0.002260 
#    y -0.010950 1.749050 -0.004290 
#    z 0.002260 -0.004290 1.804710 
# 
# From -- ./inp_files/455494.got.cif
#   From: 2010.05.17/outbox.cif.g08.bks.cpg/sg2_228_cif.got.tgz:455494.got - 2010.06.03 11:33:40.
