data_PCOD9060686
_publ_section_title
;
Structure prediction by ZEFSAII (Michael W. Deem and Ramdas Pophale) SiO2 
 PCOD9060686
Probable space group: P -1
;
_chemical_formula_sum "Si O2"
_cell_formula_units_Z 16
_cell_length_a 20.813162
_cell_length_b 18.655307
_cell_length_c 9.074122
_cell_angle_alpha 29.540070
_cell_angle_beta 29.138229
_cell_angle_gamma 27.026498
_cell_volume 709.045984
_symmetry_space_group_name_H-M "P -1"
_symmetry_group_IT_number 2
_symmetry_cell_setting 'triclinic'
loop_
_space_group_symop_operation_xyz
x,y,z
-x,-y,-z
loop_
_atom_site_type_symbol
_atom_site_label
_atom_site_fract_x
_atom_site_fract_y
_atom_site_fract_z
Si Si1 0.710520 0.050304 0.801945
Si Si2 0.745850 0.039961 0.095569
Si Si3 0.544367 0.621791 0.784257
Si Si4 0.643928 0.856567 0.063941
Si Si5 0.978350 0.357005 0.725503
Si Si6 0.351073 0.591714 0.743970
Si Si7 0.966425 0.106584 0.722418
Si Si8 0.993251 0.648372 0.658296
O O1 0.699690 0.079031 0.946688
O O2 0.658086 0.233135 0.505631
O O3 0.887853 0.933569 0.598657
O O4 0.631924 0.951901 0.072359
O O5 0.865739 0.081307 0.853253
O O6 0.596036 0.179573 0.243015
O O7 0.856736 0.829392 0.254201
O O8 0.647264 0.680252 0.387139
O O9 0.500000 0.500000 0.000000
O O10 0.612229 0.525632 0.976065
O O11 0.809075 0.807128 0.747129
O O12 0.500000 0.000000 0.000000
O O13 0.000000 0.500000 0.500000
O O14 0.958676 0.400185 0.516321
O O15 0.816996 0.361121 0.075674
O O16 0.500000 0.500000 0.500000
O O17 0.898438 0.295704 0.583382
O O18 0.000000 0.000000 0.000000
O O19 0.000000 0.500000 0.000000
#
# Coordination Sequence:
#
# PCOD9060686 Si02
#       8
#     2   2   2   2   2   2   2   2
#     4  11  25  46  74 104 149 193 250 311 376 451
#     4  12  26  46  74 107 146 199 252 304 379 448
#     4  12  29  46  77 110 152 199 252 313 388 458
#     4  11  26  47  75 105 145 194 250 309 379 447
#     4  12  29  46  77 110 154 200 259 311 380 457
#     4  12  26  49  69 114 153 196 248 320 383 450
#     4  11  23  43  76 101 141 190 251 300 364 443
#     4  11  25  45  71 107 140 189 244 313 365 439
#
# _framework density 22.565532000000001
#
# number of rings (size 3 to 8) (size 9 to 14) (size 15 to 20)
#    0.000    0.500    3.750    2.625   12.250    3.500 
#    0.000    0.000    0.000    0.000    0.000    0.000 
#    0.000    0.000    0.000    0.000    0.000    0.000 
#
# Total GULP energy -89229.848094 kJ/mol
# GULP energy per Si atom -5576.865506 kJ/mol
# Density = 2.251417 g / cm^3
# Si number density = 22.565532 Si / 1000 Ang^3
#
#
#
# Elastic Constant Matrix: (Units=GPa)
#
#
# Indices 1 2 3 4 5 6 
#
# 1 111.0108 42.4313 35.1048 -10.3386 -16.5779 25.2700
# 2 42.4313 115.0353 33.1202 -12.8966 -15.7465 8.8070
# 3 35.1048 33.1202 95.5592 -26.3881 -13.7028 12.4724
# 4 -10.3386 -12.8966 -26.3881 52.8629 7.8845 0.8193
# 5 -16.5779 -15.7465 -13.7028 7.8845 39.3577 -10.2303
# 6 25.2700 8.8070 12.4724 0.8193 -10.2303 46.0863
#
#
#
# Elastic Compliance Matrix: (Units=1/GPa)
#
#
# Indices 1 2 3 4 5 6 
#
# 1 0.012485 -0.003234 -0.002478 0.000242 0.001707 -0.005183
# 2 -0.003234 0.010833 -0.002184 0.000564 0.002305 0.000796
# 3 -0.002478 -0.002184 0.014199 0.005897 0.001359 -0.001870
# 4 0.000242 0.000564 0.005897 0.022519 -0.002878 -0.002875
# 5 0.001707 0.002305 0.001359 -0.002878 0.029352 0.004823
# 6 -0.005183 0.000796 -0.001870 -0.002875 0.004823 0.026016
#
#
# Mechanical properties :
#
#
# Convention : Reuss Voigt Hill
#
# Bulk Modulus (GPa) = 46.03010 60.32420 53.17715
# Shear Modulus (GPa) = 36.11736 41.72464 38.92100
#
# Velocity S-wave (km/s) = 4.00503 4.30472 4.15758
# Velocity P-wave (km/s) = 6.46759 7.17624 6.83111
#
# Compressibility (1/GPa) = 0.02172491
#
# Stress axis : x y z
#
# Youngs Moduli (GPa) = 80.09621 92.31408 70.42663
#
# Poissons Ratio (x) = 0.29857 0.17449
# Poissons Ratio (y) = 0.25906 0.15381
# Poissons Ratio (z) = 0.19845 0.20161
#
# Static dielectric constant tensor:
#      x y z
#    x 1.933250 0.108830 -0.178060 
#    y 0.108830 2.274030 -0.118200 
#    z -0.178060 -0.118200 2.014210 
# 
# From -- ./inp_files/348766.got.cif
#   From: 2010.05.17/outbox.cif.g08.bks.cpg/sg2_175_cif.got.tgz:348766.got - 2010.06.03 11:33:40.
