data_PCOD9060715
_publ_section_title
;
Structure prediction by ZEFSAII (Michael W. Deem and Ramdas Pophale) SiO2 
 PCOD9060715
Probable space group: P -1
;
_chemical_formula_sum "Si O2"
_cell_formula_units_Z 14
_cell_length_a 12.145760
_cell_length_b 11.829002
_cell_length_c 9.839954
_cell_angle_alpha 128.204425
_cell_angle_beta 36.033797
_cell_angle_gamma 135.287242
_cell_volume 581.820102
_symmetry_space_group_name_H-M "P -1"
_symmetry_group_IT_number 2
_symmetry_cell_setting 'triclinic'
loop_
_space_group_symop_operation_xyz
x,y,z
-x,-y,-z
loop_
_atom_site_type_symbol
_atom_site_label
_atom_site_fract_x
_atom_site_fract_y
_atom_site_fract_z
Si Si1 0.799755 0.859536 0.521139
Si Si2 0.265376 0.521400 0.393590
Si Si3 0.994181 0.641586 0.198225
Si Si4 0.730805 0.612813 0.998699
Si Si5 0.184247 0.811812 0.716874
Si Si6 0.580169 0.981352 0.610091
Si Si7 0.602989 0.260585 0.982064
O O1 0.703611 0.919897 0.541500
O O2 0.878146 0.729603 0.303490
O O3 0.612902 0.781077 0.758486
O O4 0.000000 0.000000 0.500000
O O5 0.248833 0.405933 0.198368
O O6 0.183534 0.650874 0.534322
O O7 0.135215 0.426194 0.583185
O O8 0.514166 0.618722 0.248241
O O9 0.232692 0.755351 0.090065
O O10 0.000000 0.500000 0.000000
O O11 0.701841 0.444202 0.967245
O O12 0.942835 0.761309 0.946911
O O13 0.340924 0.855143 0.720005
O O14 0.290482 0.956853 0.612687
O O15 0.569635 0.135033 0.803021
#
# Coordination Sequence:
#
# PCOD9060715 Si02
#       7
#     2   2   2   2   2   2   2
#     4  12  28  48  74 106 152 202 246 300 377 459
#     4  11  23  44  76 112 141 188 254 310 369 432
#     4  12  28  46  75 110 148 195 253 314 365 437
#     4  11  23  43  81 108 143 188 256 309 370 429
#     4  11  24  46  73 108 148 193 240 316 364 444
#     4  11  26  48  71 106 157 195 244 297 389 453
#     4  12  24  47  73 109 143 201 247 306 374 446
#
# _framework density 24.062422000000002
#
# number of rings (size 3 to 8) (size 9 to 14) (size 15 to 20)
#    0.000    0.571    5.714    1.714    2.000    1.714 
#    2.571    1.429    0.000    0.000    0.000    0.000 
#    0.000    0.000    0.000    0.000    0.000    0.000 
#
# Total GULP energy -78504.667690 kJ/mol
# GULP energy per Si atom -5607.476264 kJ/mol
# Density = 2.400766 g / cm^3
# Si number density = 24.062422 Si / 1000 Ang^3
#
#
#
# Elastic Constant Matrix: (Units=GPa)
#
#
# Indices 1 2 3 4 5 6 
#
# 1 132.8553 35.5823 56.4719 -24.1142 -19.1889 13.5049
# 2 35.5823 67.5157 33.3029 -14.1163 -9.4310 9.6798
# 3 56.4719 33.3029 119.9673 -15.5721 -19.2251 9.4276
# 4 -24.1142 -14.1163 -15.5721 37.3332 4.7315 -12.1261
# 5 -19.1889 -9.4310 -19.2251 4.7315 48.3152 -8.5534
# 6 13.5049 9.6798 9.4276 -12.1261 -8.5534 50.8835
#
#
#
# Elastic Compliance Matrix: (Units=1/GPa)
#
#
# Indices 1 2 3 4 5 6 
#
# 1 0.010802 -0.002818 -0.003433 0.004110 0.001901 -0.000396
# 2 -0.002818 0.018913 -0.003259 0.003459 0.000706 -0.001303
# 3 -0.003433 -0.003259 0.011373 0.001009 0.002440 0.000075
# 4 0.004110 0.003459 0.001009 0.033061 0.000539 0.006034
# 5 0.001901 0.000706 0.002440 0.000539 0.023023 0.002908
# 6 -0.000396 -0.001303 0.000075 0.006034 0.002908 0.021918
#
#
# Mechanical properties :
#
#
# Convention : Reuss Voigt Hill
#
# Bulk Modulus (GPa) = 45.31681 63.45027 54.38354
# Shear Modulus (GPa) = 34.37245 40.30513 37.33879
#
# Velocity S-wave (km/s) = 3.78361 4.09715 3.94350
# Velocity P-wave (km/s) = 6.16129 6.98630 6.58673
#
# Compressibility (1/GPa) = 0.02206687
#
# Stress axis : x y z
#
# Youngs Moduli (GPa) = 92.57676 52.87454 87.93101
#
# Poissons Ratio (x) = 0.14898 0.30189
# Poissons Ratio (y) = 0.26085 0.28659
# Poissons Ratio (z) = 0.31784 0.17233
#
# Static dielectric constant tensor:
#      x y z
#    x 1.939990 0.006300 0.026170 
#    y 0.006300 1.919120 0.018210 
#    z 0.026170 0.018210 1.893960 
# 
# From -- ./inp_files/262871.got.cif
#   From: 2010.05.17/outbox.cif.g08.bks.cpg/sg2_132_cif.got.tgz:262871.got - 2010.06.03 11:33:40.
