data_PCOD9060491
_publ_section_title
;
Structure prediction by ZEFSAII (Michael W. Deem and Ramdas Pophale) SiO2 
 PCOD9060491
Probable space group: P -1
;
_chemical_formula_sum "Si O2"
_cell_formula_units_Z 14
_cell_length_a 13.381340
_cell_length_b 20.321416
_cell_length_c 6.474578
_cell_angle_alpha 76.067341
_cell_angle_beta 68.962692
_cell_angle_gamma 22.107739
_cell_volume 596.948596
_symmetry_space_group_name_H-M "P -1"
_symmetry_group_IT_number 2
_symmetry_cell_setting 'triclinic'
loop_
_space_group_symop_operation_xyz
x,y,z
-x,-y,-z
loop_
_atom_site_type_symbol
_atom_site_label
_atom_site_fract_x
_atom_site_fract_y
_atom_site_fract_z
Si Si1 0.477159 0.591570 0.394749
Si Si2 0.281319 0.072435 0.689221
Si Si3 0.179957 0.562695 0.096656
Si Si4 0.921222 0.526094 0.788453
Si Si5 0.164779 0.008217 0.567147
Si Si6 0.682157 0.063921 0.957893
Si Si7 0.280599 0.786659 0.778819
O O1 0.500000 0.500000 0.500000
O O2 0.172026 0.781443 0.368523
O O3 0.451656 0.656763 0.555247
O O4 0.753857 0.446464 0.167865
O O5 0.280492 0.005416 0.603265
O O6 0.977153 0.288925 0.763070
O O7 0.500000 0.000000 0.500000
O O8 0.337457 0.004440 0.922087
O O9 0.005859 0.595964 0.181758
O O10 0.491325 0.358637 0.102450
O O11 0.587165 0.741475 0.886223
O O12 0.000000 0.500000 0.500000
O O13 0.000000 0.500000 0.000000
O O14 0.206930 0.907832 0.698775
O O15 0.312242 0.923416 0.297773
O O16 0.990446 0.912908 0.917079
#
# Coordination Sequence:
#
# PCOD9060491 Si02
#       7
#     2   2   2   2   2   2   2
#     4  11  23  43  71 112 150 191 248 328 405 470
#     4  12  28  47  67 104 151 208 262 313 390 474
#     4  12  26  45  76 109 151 199 259 330 393 477
#     4  12  30  52  80 115 158 215 271 324 388 473
#     4  11  24  44  73 108 150 192 253 324 395 472
#     4  11  25  48  78 108 152 199 258 328 398 472
#     4  11  24  45  80 115 146 193 257 331 412 463
#
# _framework density 23.452605999999999
#
# number of rings (size 3 to 8) (size 9 to 14) (size 15 to 20)
#    0.000    0.571    0.000    8.571    8.000    4.000 
#    2.571    0.000    0.000    0.000    0.000    0.000 
#    0.000    0.000    0.000    0.000    0.000    0.000 
#
# Total GULP energy -78120.749298 kJ/mol
# GULP energy per Si atom -5580.053521 kJ/mol
# Density = 2.339923 g / cm^3
# Si number density = 23.452606 Si / 1000 Ang^3
#
#
#
# Elastic Constant Matrix: (Units=GPa)
#
#
# Indices 1 2 3 4 5 6 
#
# 1 119.2933 13.0184 62.3419 -3.7471 -7.2112 39.0277
# 2 13.0184 83.6380 35.4263 17.5120 1.1408 35.6372
# 3 62.3419 35.4263 154.7018 13.7249 -20.2275 5.8651
# 4 -3.7471 17.5120 13.7249 39.9582 4.5236 1.8390
# 5 -7.2112 1.1408 -20.2275 4.5236 48.9255 -8.2659
# 6 39.0277 35.6372 5.8651 1.8390 -8.2659 42.3960
#
#
#
# Elastic Compliance Matrix: (Units=1/GPa)
#
#
# Indices 1 2 3 4 5 6 
#
# 1 0.027564 0.019862 -0.015598 0.002320 -0.010158 -0.041992
# 2 0.019862 0.038726 -0.016087 -0.005810 -0.012677 -0.050831
# 3 -0.015598 -0.016087 0.016925 -0.002626 0.009979 0.027599
# 4 0.002320 -0.005810 -0.002626 0.028982 -0.003076 0.001254
# 5 -0.010158 -0.012677 0.009979 -0.003076 0.027731 0.024167
# 6 -0.041992 -0.050831 0.027599 0.001254 0.024167 0.105810
#
#
# Mechanical properties :
#
#
# Convention : Reuss Voigt Hill
#
# Bulk Modulus (GPa) = 16.78748 64.35626 40.57187
# Shear Modulus (GPa) = 17.28663 42.71238 29.99951
#
# Velocity S-wave (km/s) = 2.71788 4.27221 3.58041
# Velocity P-wave (km/s) = 4.12586 7.19974 5.86766
#
# Compressibility (1/GPa) = 0.05956819
#
# Stress axis : x y z
#
# Youngs Moduli (GPa) = 36.27982 25.82212 59.08417
#
# Poissons Ratio (x) = -0.51287 0.92159
# Poissons Ratio (y) = -0.72058 0.95050
# Poissons Ratio (z) = 0.56589 0.41541
#
# Static dielectric constant tensor:
#      x y z
#    x 1.857250 -0.066050 0.014300 
#    y -0.066050 1.913030 -0.098890 
#    z 0.014300 -0.098890 1.984010 
# 
# From -- ./inp_files/101126.got.cif
#   From: 2010.05.17/outbox.cif.g08.bks.cpg/sg2_51_cif.got.tgz:101126.got - 2010.06.03 11:33:40.
