data_PCOD9060764
_publ_section_title
;
Structure prediction by ZEFSAII (Michael W. Deem and Ramdas Pophale) SiO2 
 PCOD9060764
Probable space group: P -1
;
_chemical_formula_sum "Si O2"
_cell_formula_units_Z 14
_cell_length_a 15.384113
_cell_length_b 8.669253
_cell_length_c 14.849499
_cell_angle_alpha 104.033132
_cell_angle_beta 26.435386
_cell_angle_gamma 119.713914
_cell_volume 653.713534
_symmetry_space_group_name_H-M "P -1"
_symmetry_group_IT_number 2
_symmetry_cell_setting 'triclinic'
loop_
_space_group_symop_operation_xyz
x,y,z
-x,-y,-z
loop_
_atom_site_type_symbol
_atom_site_label
_atom_site_fract_x
_atom_site_fract_y
_atom_site_fract_z
Si Si1 0.676878 0.646243 0.578491
Si Si2 0.619076 0.677331 0.046531
Si Si3 0.601220 0.263798 0.279438
Si Si4 0.997273 0.076721 0.417100
Si Si5 0.137799 0.522257 0.750130
Si Si6 0.907117 0.209747 0.292849
Si Si7 0.183670 0.693912 0.424532
O O1 0.475611 0.640619 0.706485
O O2 0.750336 0.527893 0.439296
O O3 0.913776 0.889214 0.403504
O O4 0.573670 0.548417 0.759651
O O5 0.747107 0.718135 0.835802
O O6 0.857199 0.788481 0.912071
O O7 0.451002 0.746804 0.200020
O O8 0.678852 0.378473 0.319615
O O9 0.360440 0.021705 0.480479
O O10 0.858424 0.316777 0.011351
O O11 0.797478 0.117111 0.604482
O O12 0.000000 0.000000 0.500000
O O13 0.103659 0.684763 0.769103
O O14 0.937063 0.344192 0.369796
O O15 0.000000 0.500000 0.500000
#
# Coordination Sequence:
#
# PCOD9060764 Si02
#       7
#     2   2   2   2   2   2   2
#     4  12  23  42  69 100 137 176 227 277 337 401
#     4  11  24  45  70  96 140 176 218 283 338 391
#     4  11  24  45  66 102 136 177 234 278 333 403
#     4  11  27  45  68 103 134 176 226 277 332 411
#     4  11  25  42  72  97 138 182 222 285 339 393
#     4  11  23  44  67 100 136 176 226 281 334 403
#     4  11  24  44  70  98 132 179 223 270 341 398
#
# _framework density 21.416108999999999
#
# number of rings (size 3 to 8) (size 9 to 14) (size 15 to 20)
#    0.000    0.857    5.714    1.714    2.000    5.714 
#    0.000    0.714    0.000    0.000    0.000    0.000 
#    0.000    0.000    0.000    0.000    0.000    0.000 
#
# Total GULP energy -78128.305537 kJ/mol
# GULP energy per Si atom -5580.593253 kJ/mol
# Density = 2.136737 g / cm^3
# Si number density = 21.416109 Si / 1000 Ang^3
#
#
#
# Elastic Constant Matrix: (Units=GPa)
#
#
# Indices 1 2 3 4 5 6 
#
# 1 119.1295 36.1436 13.6846 9.0894 5.4784 -7.6727
# 2 36.1436 62.9826 36.9110 -1.8660 -1.3949 -5.2992
# 3 13.6846 36.9110 92.7981 -10.7118 -2.3993 5.0008
# 4 9.0894 -1.8660 -10.7118 30.6938 -9.2131 -1.1443
# 5 5.4784 -1.3949 -2.3993 -9.2131 28.2285 -3.8135
# 6 -7.6727 -5.2992 5.0008 -1.1443 -3.8135 28.6202
#
#
#
# Elastic Compliance Matrix: (Units=1/GPa)
#
#
# Indices 1 2 3 4 5 6 
#
# 1 0.010957 -0.006624 0.000333 -0.004639 -0.003810 0.000960
# 2 -0.006624 0.025632 -0.009260 0.001340 0.002882 0.005026
# 3 0.000333 -0.009260 0.015254 0.005095 0.001920 -0.003831
# 4 -0.004639 0.001340 0.005095 0.040315 0.014786 0.001696
# 5 -0.003810 0.002882 0.001920 0.014786 0.042021 0.005367
# 6 0.000960 0.005026 -0.003831 0.001696 0.005367 0.037580
#
#
# Mechanical properties :
#
#
# Convention : Reuss Voigt Hill
#
# Bulk Modulus (GPa) = 48.21251 49.82095 49.01673
# Shear Modulus (GPa) = 23.83513 30.05324 26.94418
#
# Velocity S-wave (km/s) = 3.33971 3.75013 3.55086
# Velocity P-wave (km/s) = 6.11823 6.48576 6.30467
#
# Compressibility (1/GPa) = 0.02074150
#
# Stress axis : x y z
#
# Youngs Moduli (GPa) = 91.26936 39.01386 65.55494
#
# Poissons Ratio (x) = 0.25843 -0.02185
# Poissons Ratio (y) = 0.60457 0.60704
# Poissons Ratio (z) = -0.03043 0.36127
#
# Static dielectric constant tensor:
#      x y z
#    x 1.785700 0.002280 -0.014810 
#    y 0.002280 1.756380 0.012060 
#    z -0.014810 0.012060 1.799050 
# 
# From -- ./inp_files/503612.got.cif
#   From: 2010.05.17/outbox.cif.g08.bks.cpg/sg2_252_cif.got.tgz:503612.got - 2010.06.03 11:33:40.
