data_PCOD9060609
_publ_section_title
;
Structure prediction by ZEFSAII (Michael W. Deem and Ramdas Pophale) SiO2 
 PCOD9060609
Probable space group: P -1
;
_chemical_formula_sum "Si O2"
_cell_formula_units_Z 14
_cell_length_a 9.567958
_cell_length_b 10.613063
_cell_length_c 9.374755
_cell_angle_alpha 99.429004
_cell_angle_beta 44.643593
_cell_angle_gamma 105.587529
_cell_volume 643.809557
_symmetry_space_group_name_H-M "P -1"
_symmetry_group_IT_number 2
_symmetry_cell_setting 'triclinic'
loop_
_space_group_symop_operation_xyz
x,y,z
-x,-y,-z
loop_
_atom_site_type_symbol
_atom_site_label
_atom_site_fract_x
_atom_site_fract_y
_atom_site_fract_z
Si Si1 0.557329 0.665330 0.085378
Si Si2 0.615162 0.825017 0.569053
Si Si3 0.047587 0.818136 0.142214
Si Si4 0.564075 0.968940 0.109601
Si Si5 0.399565 0.601585 0.497273
Si Si6 0.333578 0.642501 0.961511
Si Si7 0.950049 0.620754 0.909509
O O1 0.456474 0.595401 0.289604
O O2 0.432422 0.607293 0.026558
O O3 0.539454 0.816612 0.124942
O O4 0.798143 0.666086 0.914838
O O5 0.563894 0.961592 0.675053
O O6 0.502554 0.749150 0.500340
O O7 0.850642 0.834553 0.372543
O O8 0.512022 0.725608 0.750385
O O9 0.180230 0.736920 0.121919
O O10 0.201648 0.954665 0.023187
O O11 0.991077 0.729805 0.024286
O O12 0.500000 0.000000 0.000000
O O13 0.500000 0.500000 0.500000
O O14 0.158942 0.590515 0.692644
O O15 0.191721 0.518094 0.964715
#
# Coordination Sequence:
#
# PCOD9060609 Si02
#       7
#     2   2   2   2   2   2   2
#     4  12  27  45  71 109 145 182 241 302 349 418
#     4  11  23  43  74 102 139 192 234 288 355 420
#     4  11  23  43  76 103 135 198 234 284 361 425
#     4  11  24  50  69 102 149 185 239 296 351 418
#     4  12  26  46  74 109 143 185 238 295 361 427
#     4  11  24  45  71 106 147 181 235 300 359 418
#     4  12  25  44  73 106 141 187 241 292 359 423
#
# _framework density 21.745559
#
# number of rings (size 3 to 8) (size 9 to 14) (size 15 to 20)
#    0.000    0.571    7.143    2.571    0.000    4.571 
#    0.000    0.000    0.000    0.000    0.000    0.000 
#    0.000    0.000    0.000    0.000    0.000    0.000 
#
# Total GULP energy -78250.811256 kJ/mol
# GULP energy per Si atom -5589.343661 kJ/mol
# Density = 2.169607 g / cm^3
# Si number density = 21.745559 Si / 1000 Ang^3
#
#
#
# Elastic Constant Matrix: (Units=GPa)
#
#
# Indices 1 2 3 4 5 6 
#
# 1 138.9482 21.1467 67.0293 1.4526 -14.5750 8.6326
# 2 21.1467 96.6408 23.5317 1.1759 -14.1572 10.4381
# 3 67.0293 23.5317 161.8741 7.6479 -46.5688 0.6675
# 4 1.4526 1.1759 7.6479 28.3280 -0.9822 1.7377
# 5 -14.5750 -14.1572 -46.5688 -0.9822 45.2781 2.1169
# 6 8.6326 10.4381 0.6675 1.7377 2.1169 35.3641
#
#
#
# Elastic Compliance Matrix: (Units=1/GPa)
#
#
# Indices 1 2 3 4 5 6 
#
# 1 0.009315 -0.001057 -0.004168 0.000751 -0.001517 -0.001829
# 2 -0.001057 0.011465 -0.000336 -0.000023 0.003053 -0.003301
# 3 -0.004168 -0.000336 0.010831 -0.002391 0.009620 0.000454
# 4 0.000751 -0.000023 -0.002391 0.035973 -0.001359 -0.001818
# 5 -0.001517 0.003053 0.009620 -0.001359 0.032538 -0.002593
# 6 -0.001829 -0.003301 0.000454 -0.001818 -0.002593 0.029934
#
#
# Mechanical properties :
#
#
# Convention : Reuss Voigt Hill
#
# Bulk Modulus (GPa) = 48.80742 68.98648 58.89695
# Shear Modulus (GPa) = 33.78208 40.84440 37.31324
#
# Velocity S-wave (km/s) = 3.94574 4.33862 4.14684
# Velocity P-wave (km/s) = 6.57663 7.54264 7.07614
#
# Compressibility (1/GPa) = 0.02048869
#
# Stress axis : x y z
#
# Youngs Moduli (GPa) = 107.35246 87.22371 92.32839
#
# Poissons Ratio (x) = 0.09221 0.38481
# Poissons Ratio (y) = 0.11349 0.03102
# Poissons Ratio (z) = 0.44743 0.02930
#
# Static dielectric constant tensor:
#      x y z
#    x 1.820500 -0.014630 0.010890 
#    y -0.014630 1.836740 0.022370 
#    z 0.010890 0.022370 1.792750 
# 
# From -- ./inp_files/179812.got.cif
#   From: 2010.05.17/outbox.cif.g08.bks.cpg/sg2_90_cif.got.tgz:179812.got - 2010.06.03 11:33:40.
