data_PCOD9060697
_publ_section_title
;
Structure prediction by ZEFSAII (Michael W. Deem and Ramdas Pophale) SiO2 
 PCOD9060697
Probable space group: P -1
;
_chemical_formula_sum "Si O2"
_cell_formula_units_Z 14
_cell_length_a 13.485162
_cell_length_b 26.405435
_cell_length_c 10.434871
_cell_angle_alpha 23.183085
_cell_angle_beta 33.359164
_cell_angle_gamma 22.374232
_cell_volume 554.076477
_symmetry_space_group_name_H-M "P -1"
_symmetry_group_IT_number 2
_symmetry_cell_setting 'triclinic'
loop_
_space_group_symop_operation_xyz
x,y,z
-x,-y,-z
loop_
_atom_site_type_symbol
_atom_site_label
_atom_site_fract_x
_atom_site_fract_y
_atom_site_fract_z
Si Si1 0.677390 0.782532 0.821160
Si Si2 0.950333 0.738779 0.265117
Si Si3 0.888539 0.306112 0.311916
Si Si4 0.422321 0.849707 0.201186
Si Si5 0.052473 0.101742 0.365561
Si Si6 0.554292 0.585421 0.344004
Si Si7 0.401743 0.299725 0.367614
O O1 0.964634 0.692707 0.737257
O O2 0.500000 0.000000 0.500000
O O3 0.593511 0.759280 0.099937
O O4 0.628876 0.694340 0.976338
O O5 0.809568 0.678293 0.526603
O O6 0.211539 0.583875 0.423914
O O7 0.990824 0.789850 0.966387
O O8 0.742862 0.933601 0.112778
O O9 0.731843 0.264859 0.628404
O O10 0.082742 0.167204 0.310864
O O11 0.676444 0.512882 0.000456
O O12 0.599264 0.741666 0.386950
O O13 0.203046 0.852679 0.443244
O O14 0.308710 0.883712 0.569491
O O15 0.500000 0.500000 0.500000
#
# Coordination Sequence:
#
# PCOD9060697 Si02
#       7
#     2   2   2   2   2   2   2
#     4  12  29  50  74 107 147 206 259 309 369 444
#     4  11  23  44  74 111 152 190 241 310 379 448
#     4  12  26  48  80 108 150 192 248 314 374 452
#     4  11  23  44  74 111 152 190 241 310 379 448
#     4  11  23  43  76 118 151 187 239 310 386 450
#     4  12  29  50  74 107 147 206 259 309 369 444
#     4  11  23  43  76 118 151 187 239 310 386 450
#
# _framework density 25.26727
#
# number of rings (size 3 to 8) (size 9 to 14) (size 15 to 20)
#    0.000    0.571    2.857    6.857    4.000    6.857 
#    0.000    1.429    0.000    0.000    0.000    0.000 
#    0.000    0.000    0.000    0.000    0.000    0.000 
#
# Total GULP energy -78493.602085 kJ/mol
# GULP energy per Si atom -5606.685863 kJ/mol
# Density = 2.520976 g / cm^3
# Si number density = 25.267270 Si / 1000 Ang^3
#
#
#
# Elastic Constant Matrix: (Units=GPa)
#
#
# Indices 1 2 3 4 5 6 
#
# 1 127.6814 35.0957 24.5950 5.6722 -21.9963 -14.6474
# 2 35.0957 63.2386 3.5634 11.4289 10.1878 -11.7807
# 3 24.5950 3.5634 65.7080 -19.8020 -11.8599 -14.4150
# 4 5.6722 11.4289 -19.8020 39.5246 -5.5340 -6.4194
# 5 -21.9963 10.1878 -11.8599 -5.5340 37.5344 2.6244
# 6 -14.6474 -11.7807 -14.4150 -6.4194 2.6244 51.7734
#
#
#
# Elastic Compliance Matrix: (Units=1/GPa)
#
#
# Indices 1 2 3 4 5 6 
#
# 1 0.011917 -0.007898 -0.002097 0.000826 0.008540 0.000660
# 2 -0.007898 0.024648 -0.003202 -0.009203 -0.013830 0.002043
# 3 -0.002097 -0.003202 0.024032 0.015648 0.009062 0.006850
# 4 0.000826 -0.009203 0.015648 0.038599 0.013155 0.006616
# 5 0.008540 -0.013830 0.009062 0.013155 0.040106 0.001390
# 6 0.000660 0.002043 0.006850 0.006616 0.001390 0.022623
#
#
# Mechanical properties :
#
#
# Convention : Reuss Voigt Hill
#
# Bulk Modulus (GPa) = 29.23710 42.57070 35.90390
# Shear Modulus (GPa) = 25.03494 38.65807 31.84650
#
# Velocity S-wave (km/s) = 3.15112 3.91572 3.55404
# Velocity P-wave (km/s) = 4.98354 6.10971 5.57513
#
# Compressibility (1/GPa) = 0.03420312
#
# Stress axis : x y z
#
# Youngs Moduli (GPa) = 83.91288 40.57088 41.61192
#
# Poissons Ratio (x) = 0.32041 0.08727
# Poissons Ratio (y) = 0.66271 0.13324
# Poissons Ratio (z) = 0.17599 0.12991
#
# Static dielectric constant tensor:
#      x y z
#    x 2.043770 0.057800 -0.028740 
#    y 0.057800 1.970150 0.014200 
#    z -0.028740 0.014200 1.989010 
# 
# From -- ./inp_files/458355.got.cif
#   From: 2010.05.17/outbox.cif.g08.bks.cpg/sg2_230_cif.got.tgz:458355.got - 2010.06.03 11:33:40.
