data_PCOD9060595
_publ_section_title
;
Structure prediction by ZEFSAII (Michael W. Deem and Ramdas Pophale) SiO2 
 PCOD9060595
Probable space group: P -1
;
_chemical_formula_sum "Si O2"
_cell_formula_units_Z 14
_cell_length_a 16.044069
_cell_length_b 31.503804
_cell_length_c 24.686263
_cell_angle_alpha 8.914652
_cell_angle_beta 160.874569
_cell_angle_gamma 161.939090
_cell_volume 595.433159
_symmetry_space_group_name_H-M "P -1"
_symmetry_group_IT_number 2
_symmetry_cell_setting 'triclinic'
loop_
_space_group_symop_operation_xyz
x,y,z
-x,-y,-z
loop_
_atom_site_type_symbol
_atom_site_label
_atom_site_fract_x
_atom_site_fract_y
_atom_site_fract_z
Si Si1 0.970248 0.720194 0.385296
Si Si2 0.103567 0.917691 0.539038
Si Si3 0.315291 0.603942 0.550229
Si Si4 0.396338 0.921611 0.306901
Si Si5 0.349240 0.815182 0.709728
Si Si6 0.213400 0.572615 0.820405
Si Si7 0.517150 0.202987 0.701512
O O1 0.747335 0.492766 0.498193
O O2 0.260838 0.775762 0.464695
O O3 0.989667 0.623860 0.579612
O O4 0.853352 0.980265 0.988290
O O5 0.316536 0.828523 0.819376
O O6 0.169106 0.845095 0.610854
O O7 0.206110 0.260453 0.186924
O O8 0.782846 0.802159 0.491328
O O9 0.443282 0.739145 0.515577
O O10 0.377577 0.828525 0.254881
O O11 0.000000 0.500000 0.500000
O O12 0.434988 0.343055 0.941670
O O13 0.172841 0.616742 0.803284
O O14 0.511722 0.150201 0.369824
O O15 0.500000 0.000000 0.000000
#
# Coordination Sequence:
#
# PCOD9060595 Si02
#       7
#     2   2   2   2   2   2   2
#     4  11  23  46  71 106 149 195 244 305 366 438
#     4  12  25  47  70 106 155 193 235 310 372 437
#     4  12  25  47  74 107 146 193 256 298 359 448
#     4  11  24  44  77 104 142 197 252 303 361 432
#     4  11  25  42  76 112 141 196 253 303 362 437
#     4  11  23  43  73 108 149 189 251 301 360 436
#     4  12  28  47  73 107 154 196 238 305 384 435
#
# _framework density 23.512294000000001
#
# number of rings (size 3 to 8) (size 9 to 14) (size 15 to 20)
#    0.000    0.571    5.714    2.143    0.000    6.286 
#    2.571    1.429    0.000    0.000    0.000    0.000 
#    0.000    0.000    0.000    0.000    0.000    0.000 
#
# Total GULP energy -78070.654680 kJ/mol
# GULP energy per Si atom -5576.475334 kJ/mol
# Density = 2.345878 g / cm^3
# Si number density = 23.512294 Si / 1000 Ang^3
#
#
#
# Elastic Constant Matrix: (Units=GPa)
#
#
# Indices 1 2 3 4 5 6 
#
# 1 159.4765 60.8973 41.4719 5.1070 20.4465 -11.8181
# 2 60.8973 151.6730 12.6400 19.6002 9.6931 -11.3714
# 3 41.4719 12.6400 65.3419 -20.0133 9.7236 -5.0895
# 4 5.1070 19.6002 -20.0133 26.4703 -10.9884 0.2444
# 5 20.4465 9.6931 9.7236 -10.9884 35.1359 -0.2783
# 6 -11.8181 -11.3714 -5.0895 0.2444 -0.2783 47.2638
#
#
#
# Elastic Compliance Matrix: (Units=1/GPa)
#
#
# Indices 1 2 3 4 5 6 
#
# 1 0.010175 -0.001745 -0.007934 -0.009221 -0.006117 0.001282
# 2 -0.001745 0.009313 -0.003260 -0.010691 -0.003983 0.001485
# 3 -0.007934 -0.003260 0.028702 0.028312 0.006430 0.000214
# 4 -0.009221 -0.010691 0.028312 0.079399 0.025295 -0.002091
# 5 -0.006117 -0.003983 0.006430 0.025295 0.039238 -0.001695
# 6 0.001282 0.001485 0.000214 -0.002091 -0.001695 0.021859
#
#
# Mechanical properties :
#
#
# Convention : Reuss Voigt Hill
#
# Bulk Modulus (GPa) = 44.82129 67.38998 56.10563
# Shear Modulus (GPa) = 22.52227 39.20615 30.86421
#
# Velocity S-wave (km/s) = 3.09834 4.08790 3.62703
# Velocity P-wave (km/s) = 5.64836 7.14178 6.43852
#
# Compressibility (1/GPa) = 0.02231083
#
# Stress axis : x y z
#
# Youngs Moduli (GPa) = 98.28106 107.37604 34.84061
#
# Poissons Ratio (x) = 0.18742 0.27644
# Poissons Ratio (y) = 0.17154 0.11358
# Poissons Ratio (z) = 0.77979 0.35003
#
# Static dielectric constant tensor:
#      x y z
#    x 1.936460 0.004930 -0.020570 
#    y 0.004930 1.887820 0.019950 
#    z -0.020570 0.019950 2.057640 
# 
# From -- ./inp_files/612470.got.cif
#   From: 2010.05.17/outbox.cif.g08.bks.cpg/sg2_307_cif.got.tgz:612470.got - 2010.06.03 11:33:40.
