data_PCOD9060428
_publ_section_title
;
Structure prediction by ZEFSAII (Michael W. Deem and Ramdas Pophale) SiO2 
 PCOD9060428
Probable space group: P -1
;
_chemical_formula_sum "Si O2"
_cell_formula_units_Z 14
_cell_length_a 19.517498
_cell_length_b 27.095853
_cell_length_c 8.327959
_cell_angle_alpha 39.959070
_cell_angle_beta 138.252227
_cell_angle_gamma 167.424200
_cell_volume 615.796978
_symmetry_space_group_name_H-M "P -1"
_symmetry_group_IT_number 2
_symmetry_cell_setting 'triclinic'
loop_
_space_group_symop_operation_xyz
x,y,z
-x,-y,-z
loop_
_atom_site_type_symbol
_atom_site_label
_atom_site_fract_x
_atom_site_fract_y
_atom_site_fract_z
Si Si1 0.207502 0.719768 0.282391
Si Si2 0.875376 0.182237 0.470135
Si Si3 0.850618 0.718234 0.037076
Si Si4 0.739872 0.972418 0.285615
Si Si5 0.293990 0.536679 0.774122
Si Si6 0.222462 0.720149 0.923669
Si Si7 0.697865 0.561377 0.694491
O O1 0.000000 0.500000 0.500000
O O2 0.023571 0.653744 0.227047
O O3 0.555627 0.952939 0.378405
O O4 0.191157 0.716501 0.069615
O O5 0.835451 0.236023 0.358231
O O6 0.926740 0.144175 0.766484
O O7 0.192291 0.402276 0.367237
O O8 0.786844 0.589771 0.168699
O O9 0.500000 0.500000 0.000000
O O10 0.032824 0.899899 0.774137
O O11 0.503022 0.747816 0.522125
O O12 0.548991 0.905302 0.030044
O O13 0.972685 0.176275 0.309665
O O14 0.457536 0.610092 0.029608
O O15 0.000000 0.500000 0.000000
O O16 0.500000 0.500000 0.500000
#
# Coordination Sequence:
#
# PCOD9060428 Si02
#       7
#     2   2   2   2   2   2   2
#     4  12  24  43  71 108 144 177 232 291 361 434
#     4  12  23  43  72 101 141 194 221 293 367 402
#     4  11  27  47  68 101 143 188 243 290 340 417
#     4  11  24  45  68  99 143 178 235 291 348 423
#     4  11  23  45  71 100 142 185 229 294 354 416
#     4  12  25  42  71 109 143 176 230 293 360 433
#     4  11  23  43  70  99 135 184 245 285 335 418
#
# _framework density 22.734766
#
# number of rings (size 3 to 8) (size 9 to 14) (size 15 to 20)
#    0.000    0.571    4.286    4.714    2.000    2.286 
#    0.000    2.857    0.000    0.000    0.000    0.000 
#    0.000    0.000    0.000    0.000    0.000    0.000 
#
# Total GULP energy -78133.398710 kJ/mol
# GULP energy per Si atom -5580.957051 kJ/mol
# Density = 2.268302 g / cm^3
# Si number density = 22.734766 Si / 1000 Ang^3
#
#
#
# Elastic Constant Matrix: (Units=GPa)
#
#
# Indices 1 2 3 4 5 6 
#
# 1 95.3115 55.4270 27.3888 14.1813 8.3506 20.1001
# 2 55.4270 115.9293 44.6887 3.9929 10.0848 20.4171
# 3 27.3888 44.6887 110.3471 -7.6847 -0.2464 26.1553
# 4 14.1813 3.9929 -7.6847 41.3300 11.7515 5.4266
# 5 8.3506 10.0848 -0.2464 11.7515 36.9837 -1.2240
# 6 20.1001 20.4171 26.1553 5.4266 -1.2240 49.7239
#
#
#
# Elastic Compliance Matrix: (Units=1/GPa)
#
#
# Indices 1 2 3 4 5 6 
#
# 1 0.015854 -0.006534 -0.000952 -0.004492 -0.000468 -0.002746
# 2 -0.006534 0.013499 -0.003463 0.001217 -0.002658 -0.001278
# 3 -0.000952 -0.003463 0.012128 0.003586 -0.000064 -0.004965
# 4 -0.004492 0.001217 0.003586 0.029292 -0.008733 -0.003982
# 5 -0.000468 -0.002658 -0.000064 -0.008733 0.030744 0.003024
# 6 -0.002746 -0.001278 -0.004965 -0.003982 0.003024 0.024867
#
#
# Mechanical properties :
#
#
# Convention : Reuss Voigt Hill
#
# Bulk Modulus (GPa) = 51.06569 64.06630 57.56599
# Shear Modulus (GPa) = 32.29787 38.54641 35.42214
#
# Velocity S-wave (km/s) = 3.77322 4.12209 3.95151
# Velocity P-wave (km/s) = 6.44152 7.13418 6.79668
#
# Compressibility (1/GPa) = 0.01958262
#
# Stress axis : x y z
#
# Youngs Moduli (GPa) = 63.07740 74.07786 82.45556
#
# Poissons Ratio (x) = 0.48401 0.07848
# Poissons Ratio (y) = 0.41213 0.28558
# Poissons Ratio (z) = 0.06004 0.25657
#
# Static dielectric constant tensor:
#      x y z
#    x 1.820990 -0.004650 -0.003620 
#    y -0.004650 1.820790 0.044750 
#    z -0.003620 0.044750 1.925050 
# 
# From -- ./inp_files/350321.got.cif
#   From: 2010.05.17/outbox.cif.g08.bks.cpg/sg2_176_cif.got.tgz:350321.got - 2010.06.03 11:33:40.
