data_PCOD9060929
_publ_section_title
;
Structure prediction by ZEFSAII (Michael W. Deem and Ramdas Pophale) SiO2 
 PCOD9060929
Probable space group: P -1
;
_chemical_formula_sum "Si O2"
_cell_formula_units_Z 16
_cell_length_a 13.958621
_cell_length_b 5.432876
_cell_length_c 17.966361
_cell_angle_alpha 62.543552
_cell_angle_beta 31.915607
_cell_angle_gamma 76.893515
_cell_volume 598.530202
_symmetry_space_group_name_H-M "P -1"
_symmetry_group_IT_number 2
_symmetry_cell_setting 'triclinic'
loop_
_space_group_symop_operation_xyz
x,y,z
-x,-y,-z
loop_
_atom_site_type_symbol
_atom_site_label
_atom_site_fract_x
_atom_site_fract_y
_atom_site_fract_z
Si Si1 0.397537 0.752654 0.041745
Si Si2 0.270242 0.019023 0.830754
Si Si3 0.023925 0.410136 0.412465
Si Si4 0.961665 0.130450 0.278428
Si Si5 0.755231 0.879630 0.596554
Si Si6 0.423385 0.775618 0.510779
Si Si7 0.663736 0.379139 0.050204
Si Si8 0.035627 0.213331 0.050554
O O1 0.173400 0.650514 0.228463
O O2 0.500000 0.500000 0.000000
O O3 0.405255 0.860728 0.936830
O O4 0.500000 0.000000 0.000000
O O5 0.213493 0.713577 0.955615
O O6 0.130859 0.028459 0.854464
O O7 0.474713 0.065528 0.653921
O O8 0.246064 0.244558 0.875926
O O9 0.159930 0.220970 0.370969
O O10 0.000000 0.500000 0.500000
O O11 0.829369 0.229495 0.521485
O O12 0.802055 0.287300 0.345280
O O13 0.001717 0.072846 0.174186
O O14 0.862475 0.899173 0.442759
O O15 0.178808 0.334603 0.130343
O O16 0.537004 0.649480 0.774894
O O17 0.500000 0.500000 0.500000
O O18 0.500000 0.000000 0.500000
O O19 0.000000 0.500000 0.000000
#
# Coordination Sequence:
#
# PCOD9060929 Si02
#       8
#     2   2   2   2   2   2   2   2
#     4  12  27  50  81 114 158 209 255 319 404 472
#     4  11  25  43  71 104 151 199 258 320 381 459
#     4  11  25  48  78 106 152 205 256 321 395 472
#     4  12  25  46  78 111 154 209 261 323 397 464
#     4  11  25  49  71 112 155 192 266 323 391 468
#     4  12  27  49  76 111 156 208 262 320 391 466
#     4  12  25  46  74 117 154 198 266 326 392 465
#     4  11  23  44  70 102 148 204 253 311 388 459
#
# _framework density 26.732150000000001
#
# number of rings (size 3 to 8) (size 9 to 14) (size 15 to 20)
#    0.000    0.500    6.250    1.500    3.500    2.000 
#    4.500    0.000    0.000    0.000    0.000    0.000 
#    0.000    0.000    0.000    0.000    0.000    0.000 
#
# Total GULP energy -89133.904184 kJ/mol
# GULP energy per Si atom -5570.869011 kJ/mol
# Density = 2.667131 g / cm^3
# Si number density = 26.732150 Si / 1000 Ang^3
#
#
#
# Elastic Constant Matrix: (Units=GPa)
#
#
# Indices 1 2 3 4 5 6 
#
# 1 132.8011 7.4185 28.8087 3.7310 8.0189 20.3853
# 2 7.4185 62.8240 27.1983 9.5196 1.3655 11.0959
# 3 28.8087 27.1983 209.8052 12.1661 1.6783 19.5324
# 4 3.7310 9.5196 12.1661 33.8605 3.0784 10.7962
# 5 8.0189 1.3655 1.6783 3.0784 60.7632 4.1848
# 6 20.3853 11.0959 19.5324 10.7962 4.1848 39.1952
#
#
#
# Elastic Compliance Matrix: (Units=1/GPa)
#
#
# Indices 1 2 3 4 5 6 
#
# 1 0.008358 -0.000017 -0.000804 0.000742 -0.000839 -0.004056
# 2 -0.000017 0.017773 -0.001811 -0.003325 0.000042 -0.003209
# 3 -0.000804 -0.001811 0.005298 -0.000843 0.000146 -0.001493
# 4 0.000742 -0.003325 -0.000843 0.033373 -0.001133 -0.008096
# 5 -0.000839 0.000042 0.000146 -0.001133 0.016698 -0.001119
# 6 -0.004056 -0.003209 -0.001493 -0.008096 -0.001119 0.031625
#
#
# Mechanical properties :
#
#
# Convention : Reuss Voigt Hill
#
# Bulk Modulus (GPa) = 38.21681 59.14238 48.67959
# Shear Modulus (GPa) = 39.33613 49.56410 44.45011
#
# Velocity S-wave (km/s) = 3.84016 4.31060 4.08216
# Velocity P-wave (km/s) = 5.83007 6.85180 6.36148
#
# Compressibility (1/GPa) = 0.02616650
#
# Stress axis : x y z
#
# Youngs Moduli (GPa) = 119.64744 56.26516 188.74462
#
# Poissons Ratio (x) = 0.00093 0.15178
# Poissons Ratio (y) = 0.00198 0.34172
# Poissons Ratio (z) = 0.09622 0.10187
#
# Static dielectric constant tensor:
#      x y z
#    x 2.183690 0.043190 -0.100260 
#    y 0.043190 3.289250 -0.494710 
#    z -0.100260 -0.494710 2.528720 
# 
# From -- ./inp_files/571634.got.cif
#   From: 2010.05.17/outbox.cif.g08.bks.cpg/sg2_286_cif.got.tgz:571634.got - 2010.06.03 11:33:40.
