data_PCOD9060062
_publ_section_title
;
Structure prediction by ZEFSAII (Michael W. Deem and Ramdas Pophale) SiO2 
 PCOD9060062
Probable space group: P -1
;
_chemical_formula_sum "Si O2"
_cell_formula_units_Z 16
_cell_length_a 11.852495
_cell_length_b 18.642303
_cell_length_c 15.123720
_cell_angle_alpha 155.239909
_cell_angle_beta 148.778851
_cell_angle_gamma 44.791715
_cell_volume 690.169423
_symmetry_space_group_name_H-M "P -1"
_symmetry_group_IT_number 2
_symmetry_cell_setting 'triclinic'
loop_
_space_group_symop_operation_xyz
x,y,z
-x,-y,-z
loop_
_atom_site_type_symbol
_atom_site_label
_atom_site_fract_x
_atom_site_fract_y
_atom_site_fract_z
Si Si1 0.264883 0.877636 0.747068
Si Si2 0.258972 0.641570 0.150173
Si Si3 0.697328 0.557767 0.430318
Si Si4 0.141271 0.762107 0.852545
Si Si5 0.560109 0.877382 0.475659
Si Si6 0.069981 0.264860 0.510953
Si Si7 0.474914 0.609334 0.691680
Si Si8 0.011924 0.301424 0.809391
O O1 0.356191 0.748320 0.728561
O O2 0.114822 0.813010 0.486042
O O3 0.081072 0.909123 0.729177
O O4 0.500000 0.000000 0.000000
O O5 0.485275 0.620053 0.325118
O O6 0.345552 0.760345 0.255236
O O7 0.125151 0.734813 0.230877
O O8 0.111640 0.441630 0.797604
O O9 0.695792 0.365114 0.171513
O O10 0.667517 0.522501 0.475580
O O11 0.935639 0.694601 0.709374
O O12 0.040815 0.718389 0.638313
O O13 0.266011 0.973968 0.179298
O O14 0.688230 0.753465 0.375971
O O15 0.500000 0.000000 0.500000
O O16 0.500000 0.500000 0.500000
O O17 0.728650 0.697396 0.001135
O O18 0.000000 0.500000 0.000000
#
# Coordination Sequence:
#
# PCOD9060062 Si02
#       8
#     2   2   2   2   2   2   2   2
#     4  12  28  46  72 106 145 185 231 296 355 412
#     4  12  25  45  73  98 138 184 227 289 344 413
#     4  11  23  42  74  97 137 180 234 277 353 408
#     4  11  26  43  68 104 133 181 229 286 343 418
#     4  12  29  44  67 101 143 178 230 287 351 406
#     4  12  24  47  71  98 137 179 237 279 345 424
#     4  12  23  44  74 105 137 187 238 285 347 421
#     4  12  24  45  72 106 137 182 241 285 342 424
#
# _framework density 23.182714000000001
#
# number of rings (size 3 to 8) (size 9 to 14) (size 15 to 20)
#    0.000    0.250    6.250    1.500    5.250    2.500 
#    0.000    0.000    0.000    0.000    0.000    0.000 
#    0.000    0.000    0.000    0.000    0.000    0.000 
#
# Total GULP energy -89464.761231 kJ/mol
# GULP energy per Si atom -5591.547577 kJ/mol
# Density = 2.312995 g / cm^3
# Si number density = 23.182714 Si / 1000 Ang^3
#
#
#
# Elastic Constant Matrix: (Units=GPa)
#
#
# Indices 1 2 3 4 5 6 
#
# 1 158.5945 12.0877 28.7203 3.4792 30.1345 31.7986
# 2 12.0877 55.4922 5.2218 -13.5118 -1.9288 18.2366
# 3 28.7203 5.2218 75.3982 -12.2079 7.9158 14.0039
# 4 3.4792 -13.5118 -12.2079 31.4923 14.0729 7.1095
# 5 30.1345 -1.9288 7.9158 14.0729 41.6151 5.6687
# 6 31.7986 18.2366 14.0039 7.1095 5.6687 36.1057
#
#
#
# Elastic Compliance Matrix: (Units=1/GPa)
#
#
# Indices 1 2 3 4 5 6 
#
# 1 0.009190 0.001705 -0.000599 0.004450 -0.006804 -0.008530
# 2 0.001705 0.029553 0.005527 0.022007 -0.005353 -0.022065
# 3 -0.000599 0.005527 0.018274 0.014877 -0.006278 -0.011296
# 4 0.004450 0.022007 0.014877 0.063169 -0.022344 -0.029736
# 5 -0.006804 -0.005353 -0.006278 -0.022344 0.036116 0.009861
# 6 -0.008530 -0.022065 -0.011296 -0.029736 0.009861 0.055042
#
#
# Mechanical properties :
#
#
# Convention : Reuss Voigt Hill
#
# Bulk Modulus (GPa) = 14.22822 42.39384 28.31103
# Shear Modulus (GPa) = 22.57281 38.07295 30.32288
#
# Velocity S-wave (km/s) = 3.12379 4.05693 3.62055
# Velocity P-wave (km/s) = 4.37738 6.34597 5.45128
#
# Compressibility (1/GPa) = 0.07028284
#
# Stress axis : x y z
#
# Youngs Moduli (GPa) = 108.81971 33.83750 54.72171
#
# Poissons Ratio (x) = -0.05769 0.03279
# Poissons Ratio (y) = -0.18554 -0.30246
# Poissons Ratio (z) = 0.06521 -0.18703
#
# Static dielectric constant tensor:
#      x y z
#    x 1.903320 -0.091750 0.062870 
#    y -0.091750 1.976290 0.005780 
#    z 0.062870 0.005780 1.932870 
# 
# From -- ./inp_files/523493.got.cif
#   From: 2010.05.17/outbox.cif.g08.bks.cpg/sg2_262_cif.got.tgz:523493.got - 2010.06.03 11:33:40.
