data_PCOD9060322
_publ_section_title
;
Structure prediction by ZEFSAII (Michael W. Deem and Ramdas Pophale) SiO2 
 PCOD9060322
Probable space group: P -1
;
_chemical_formula_sum "Si O2"
_cell_formula_units_Z 13
_cell_length_a 16.155692
_cell_length_b 15.479542
_cell_length_c 8.563692
_cell_angle_alpha 129.644287
_cell_angle_beta 127.833543
_cell_angle_gamma 18.545115
_cell_volume 524.183703
_symmetry_space_group_name_H-M "P -1"
_symmetry_group_IT_number 2
_symmetry_cell_setting 'triclinic'
loop_
_space_group_symop_operation_xyz
x,y,z
-x,-y,-z
loop_
_atom_site_type_symbol
_atom_site_label
_atom_site_fract_x
_atom_site_fract_y
_atom_site_fract_z
Si Si1 0.578909 0.583454 0.751029
Si Si2 0.245114 0.185026 0.969024
Si Si3 0.791915 0.163372 0.642290
Si Si4 0.500000 0.500000 0.000000
Si Si5 0.257282 0.484631 0.716282
Si Si6 0.730494 0.964637 0.856944
Si Si7 0.916535 0.336527 0.620112
O O1 0.793358 0.290422 0.736275
O O2 0.415132 0.684572 0.543179
O O3 0.736103 0.528107 0.784240
O O4 0.379014 0.819633 0.924199
O O5 0.188198 0.128168 0.737006
O O6 0.000000 0.500000 0.000000
O O7 0.500000 0.000000 0.000000
O O8 0.246419 0.150429 0.113096
O O9 0.685957 0.262894 0.808177
O O10 0.040640 0.840162 0.548645
O O11 0.342102 0.532193 0.869900
O O12 0.495958 0.178846 0.709822
O O13 0.193779 0.514527 0.498881
O O14 0.999643 0.720089 0.795819
#
# Coordination Sequence:
#
# PCOD9060322 Si02
#       7
#     2   2   2   1   2   2   2
#     4  11  23  43  69 109 148 209 255 306 359 457
#     4  12  28  52  85 110 140 194 264 333 397 449
#     4  11  24  39  69 109 155 206 257 298 362 454
#     4  12  24  44  66 114 166 212 246 282 368 456
#     4  12  28  46  75 112 165 207 247 304 380 453
#     4  12  26  51  76 112 153 200 257 320 383 451
#     4  12  26  47  75 108 157 199 258 320 383 450
#
# _framework density 24.800466
#
# number of rings (size 3 to 8) (size 9 to 14) (size 15 to 20)
#    0.000    0.308    4.615    4.154    0.000    4.923 
#    0.000    4.615    0.000    0.000    0.000    0.000 
#    0.000    0.000    0.000    0.000    0.000    0.000 
#
# Total GULP energy -72538.051538 kJ/mol
# GULP energy per Si atom -5579.850118 kJ/mol
# Density = 2.474402 g / cm^3
# Si number density = 24.800466 Si / 1000 Ang^3
#
#
#
# Elastic Constant Matrix: (Units=GPa)
#
#
# Indices 1 2 3 4 5 6 
#
# 1 173.5400 99.4022 36.3036 -13.8303 -24.6809 -20.2420
# 2 99.4022 158.7745 20.6431 -18.9856 -19.1323 2.3757
# 3 36.3036 20.6431 41.7793 -9.9807 -24.4051 -6.8900
# 4 -13.8303 -18.9856 -9.9807 42.6680 2.9294 -2.9168
# 5 -24.6809 -19.1323 -24.4051 2.9294 35.2825 9.6500
# 6 -20.2420 2.3757 -6.8900 -2.9168 9.6500 57.1121
#
#
#
# Elastic Compliance Matrix: (Units=1/GPa)
#
#
# Indices 1 2 3 4 5 6 
#
# 1 0.010922 -0.006232 -0.006702 -0.000471 -0.001298 0.003517
# 2 -0.006232 0.010708 0.002524 0.002886 0.003729 -0.002832
# 3 -0.006702 0.002524 0.047099 0.007892 0.028957 -0.001288
# 4 -0.000471 0.002886 0.007892 0.026217 0.004162 0.001301
# 5 -0.001298 0.003729 0.028957 0.004162 0.050635 -0.005465
# 6 0.003517 -0.002832 -0.001288 0.001301 -0.005465 0.019708
#
#
# Mechanical properties :
#
#
# Convention : Reuss Voigt Hill
#
# Bulk Modulus (GPa) = 20.87207 76.31019 48.59113
# Shear Modulus (GPa) = 24.74276 41.52882 33.13579
#
# Velocity S-wave (km/s) = 3.16202 4.09653 3.65923
# Velocity P-wave (km/s) = 4.66535 7.29464 6.12280
#
# Compressibility (1/GPa) = 0.04791092
#
# Stress axis : x y z
#
# Youngs Moduli (GPa) = 91.55826 93.38648 21.23175
#
# Poissons Ratio (x) = 0.58196 0.14229
# Poissons Ratio (y) = 0.57057 -0.05360
# Poissons Ratio (z) = 0.61361 -0.23574
#
# Static dielectric constant tensor:
#      x y z
#    x 2.032980 0.070050 0.055140 
#    y 0.070050 1.967240 0.003590 
#    z 0.055140 0.003590 1.967120 
# 
# From -- ./inp_files/314007.got.cif
#   From: 2010.05.17/outbox.cif.g08.bks.cpg/sg2_158_cif.got.tgz:314007.got - 2010.06.03 11:33:40.
