data_PCOD9060110
_publ_section_title
;
Structure prediction by ZEFSAII (Michael W. Deem and Ramdas Pophale) SiO2 
 PCOD9060110
Probable space group: P -1
;
_chemical_formula_sum "Si O2"
_cell_formula_units_Z 12
_cell_length_a 14.232366
_cell_length_b 15.112641
_cell_length_c 7.941262
_cell_angle_alpha 91.427799
_cell_angle_beta 81.631222
_cell_angle_gamma 19.031409
_cell_volume 476.034817
_symmetry_space_group_name_H-M "P -1"
_symmetry_group_IT_number 2
_symmetry_cell_setting 'triclinic'
loop_
_space_group_symop_operation_xyz
x,y,z
-x,-y,-z
loop_
_atom_site_type_symbol
_atom_site_label
_atom_site_fract_x
_atom_site_fract_y
_atom_site_fract_z
Si Si1 0.200686 0.230666 0.473182
Si Si2 0.206157 0.650810 0.710841
Si Si3 0.644614 0.579002 0.684274
Si Si4 0.828135 0.862855 0.053420
Si Si5 0.615194 0.298197 0.921043
Si Si6 0.675821 0.733594 0.042706
O O1 0.000000 0.500000 0.500000
O O2 0.954600 0.371570 0.605519
O O3 0.500000 0.000000 0.500000
O O4 0.391510 0.013573 0.260718
O O5 0.310800 0.525490 0.492436
O O6 0.488804 0.391818 0.768570
O O7 0.011273 0.918714 0.792097
O O8 0.931334 0.826942 0.860820
O O9 0.321270 0.933963 0.765171
O O10 0.558868 0.601217 0.876575
O O11 0.151245 0.517096 0.999803
O O12 0.509552 0.090567 0.080105
O O13 0.500000 0.500000 0.000000
O O14 0.000000 0.500000 0.000000
#
# Coordination Sequence:
#
# PCOD9060110 Si02
#       6
#     2   2   2   2   2   2
#     4  12  26  43  69 108 149 198 258 303 363 443
#     4  11  25  46  77 106 152 190 249 304 377 453
#     4  11  26  48  78 107 154 203 244 314 378 434
#     4  11  23  43  65 101 138 188 245 292 364 434
#     4  11  27  49  77 115 148 189 249 309 381 461
#     4  12  23  41  64  95 145 188 245 313 353 418
#
# _framework density 25.208238999999999
#
# number of rings (size 3 to 8) (size 9 to 14) (size 15 to 20)
#    0.000    0.667    1.667    6.000    0.000    8.000 
#    0.000    0.000    0.000    0.000    0.000    0.000 
#    0.000    0.000    0.000    0.000    0.000    0.000 
#
# Total GULP energy -67114.348159 kJ/mol
# GULP energy per Si atom -5592.862347 kJ/mol
# Density = 2.515086 g / cm^3
# Si number density = 25.208239 Si / 1000 Ang^3
#
#
#
# Elastic Constant Matrix: (Units=GPa)
#
#
# Indices 1 2 3 4 5 6 
#
# 1 79.3756 33.5110 41.1617 -1.8492 11.2765 27.8852
# 2 33.5110 184.0654 57.8776 16.3652 5.5643 25.5322
# 3 41.1617 57.8776 179.1348 17.3293 37.9514 25.9068
# 4 -1.8492 16.3652 17.3293 39.1914 2.2773 15.8604
# 5 11.2765 5.5643 37.9514 2.2773 40.4554 3.5008
# 6 27.8852 25.5322 25.9068 15.8604 3.5008 45.4575
#
#
#
# Elastic Compliance Matrix: (Units=1/GPa)
#
#
# Indices 1 2 3 4 5 6 
#
# 1 0.019284 -0.001703 -0.002404 0.007675 -0.002279 -0.012005
# 2 -0.001703 0.006543 -0.001672 -0.001666 0.001341 -0.001199
# 3 -0.002404 -0.001672 0.008513 -0.002338 -0.006859 -0.001093
# 4 0.007675 -0.001666 -0.002338 0.033308 -0.000377 -0.014032
# 5 -0.002279 0.001341 -0.006859 -0.000377 0.031429 0.002265
# 6 -0.012005 -0.001199 -0.001093 -0.014032 0.002265 0.035381
#
#
# Mechanical properties :
#
#
# Convention : Reuss Voigt Hill
#
# Bulk Modulus (GPa) = 43.89758 78.63072 61.26415
# Shear Modulus (GPa) = 32.54992 45.68925 39.11958
#
# Velocity S-wave (km/s) = 3.59728 4.26193 3.94364
# Velocity P-wave (km/s) = 5.89116 7.44842 6.71508
#
# Compressibility (1/GPa) = 0.02278030
#
# Stress axis : x y z
#
# Youngs Moduli (GPa) = 51.85603 152.84481 117.47252
#
# Poissons Ratio (x) = 0.26031 0.28245
# Poissons Ratio (y) = 0.08832 0.19642
# Poissons Ratio (z) = 0.12468 0.25557
#
# Static dielectric constant tensor:
#      x y z
#    x 2.133250 -0.029710 -0.014950 
#    y -0.029710 1.999940 -0.027510 
#    z -0.014950 -0.027510 1.966460 
# 
# From -- ./inp_files/313320.got.cif
#   From: 2010.05.17/outbox.cif.g08.bks.cpg/sg2_157_cif.got.tgz:313320.got - 2010.06.03 11:33:40.
