data_PCOD9060493
_publ_section_title
;
Structure prediction by ZEFSAII (Michael W. Deem and Ramdas Pophale) SiO2 
 PCOD9060493
Probable space group: P -1
;
_chemical_formula_sum "Si O2"
_cell_formula_units_Z 12
_cell_length_a 10.151028
_cell_length_b 9.070843
_cell_length_c 11.103578
_cell_angle_alpha 126.209298
_cell_angle_beta 72.810824
_cell_angle_gamma 67.580224
_cell_volume 545.879590
_symmetry_space_group_name_H-M "P -1"
_symmetry_group_IT_number 2
_symmetry_cell_setting 'triclinic'
loop_
_space_group_symop_operation_xyz
x,y,z
-x,-y,-z
loop_
_atom_site_type_symbol
_atom_site_label
_atom_site_fract_x
_atom_site_fract_y
_atom_site_fract_z
Si Si1 0.406636 0.957474 0.175655
Si Si2 0.100372 0.210132 0.802535
Si Si3 0.075163 0.743313 0.912595
Si Si4 0.814632 0.675262 0.818825
Si Si5 0.900662 0.907360 0.524728
Si Si6 0.538204 0.829664 0.522069
O O1 0.294096 0.115290 0.159254
O O2 0.297523 0.894948 0.244479
O O3 0.379759 0.141291 0.371272
O O4 0.642067 0.740423 0.976889
O O5 0.129154 0.158567 0.629132
O O6 0.318827 0.972829 0.683383
O O7 0.000000 0.500000 0.000000
O O8 0.959303 0.208777 0.911568
O O9 0.304261 0.474884 0.700076
O O10 0.944700 0.700052 0.869714
O O11 0.000000 0.000000 0.000000
O O12 0.949597 0.379401 0.590758
O O13 0.000000 0.000000 0.500000
O O14 0.500000 0.000000 0.500000
#
# Coordination Sequence:
#
# PCOD9060493 Si02
#       6
#     2   2   2   2   2   2
#     4  11  23  43  71  92 134 183 225 275 350 402
#     4  12  22  45  72  98 135 181 229 283 345 402
#     4  12  27  42  69 103 137 176 233 285 337 410
#     4  11  24  46  65  94 141 182 218 283 345 406
#     4  12  26  42  69 102 135 176 228 284 339 408
#     4  12  21  42  73  95 128 182 224 280 339 404
#
# _framework density 21.982870999999999
#
# number of rings (size 3 to 8) (size 9 to 14) (size 15 to 20)
#    0.000    0.333    8.333    0.500    2.333    1.333 
#    6.000    0.000    0.000    0.000    0.000    0.000 
#    0.000    0.000    0.000    0.000    0.000    0.000 
#
# Total GULP energy -66970.081900 kJ/mol
# GULP energy per Si atom -5580.840158 kJ/mol
# Density = 2.193284 g / cm^3
# Si number density = 21.982871 Si / 1000 Ang^3
#
#
#
# Elastic Constant Matrix: (Units=GPa)
#
#
# Indices 1 2 3 4 5 6 
#
# 1 84.2009 11.2957 34.6653 4.9636 -14.8855 9.4772
# 2 11.2957 77.2984 29.4756 1.9251 -1.1650 9.3077
# 3 34.6653 29.4756 107.5515 1.3653 -39.5386 12.0896
# 4 4.9636 1.9251 1.3653 46.3420 -0.6841 -1.4931
# 5 -14.8855 -1.1650 -39.5386 -0.6841 30.3300 -6.8169
# 6 9.4772 9.3077 12.0896 -1.4931 -6.8169 39.9626
#
#
#
# Elastic Compliance Matrix: (Units=1/GPa)
#
#
# Indices 1 2 3 4 5 6 
#
# 1 0.013991 -0.000426 -0.003479 -0.001412 0.001856 -0.001903
# 2 -0.000426 0.016204 -0.007788 -0.000653 -0.010456 -0.003125
# 3 -0.003479 -0.007788 0.022656 0.000454 0.027655 0.000519
# 4 -0.001412 -0.000653 0.000454 0.021794 0.000651 0.001275
# 5 0.001856 -0.010456 0.027655 0.000651 0.070836 0.005736
# 6 -0.001903 -0.003125 0.000519 0.001275 0.005736 0.027072
#
#
# Mechanical properties :
#
#
# Convention : Reuss Voigt Hill
#
# Bulk Modulus (GPa) = 33.93736 46.65824 40.29780
# Shear Modulus (GPa) = 24.30018 36.23453 30.26736
#
# Velocity S-wave (km/s) = 3.32838 4.06434 3.71463
# Velocity P-wave (km/s) = 5.49931 6.57997 6.06377
#
# Compressibility (1/GPa) = 0.02946605
#
# Stress axis : x y z
#
# Youngs Moduli (GPa) = 71.47356 61.71405 44.13815
#
# Poissons Ratio (x) = 0.02627 0.15355
# Poissons Ratio (y) = 0.03043 0.34374
# Poissons Ratio (z) = 0.24865 0.48062
#
# Static dielectric constant tensor:
#      x y z
#    x 1.962570 0.043640 -0.057800 
#    y 0.043640 1.796570 -0.082170 
#    z -0.057800 -0.082170 1.782560 
# 
# From -- ./inp_files/260572.got.cif
#   From: 2010.05.17/outbox.cif.g08.bks.cpg/sg2_131_cif.got.tgz:260572.got - 2010.06.03 11:33:40.
