data_PCOD9060246
_publ_section_title
;
Structure prediction by ZEFSAII (Michael W. Deem and Ramdas Pophale) SiO2 
 PCOD9060246
Probable space group: P -1
;
_chemical_formula_sum "Si O2"
_cell_formula_units_Z 14
_cell_length_a 14.212968
_cell_length_b 9.209235
_cell_length_c 5.273962
_cell_angle_alpha 104.534698
_cell_angle_beta 75.575179
_cell_angle_gamma 112.882455
_cell_volume 606.682295
_symmetry_space_group_name_H-M "P -1"
_symmetry_group_IT_number 2
_symmetry_cell_setting 'triclinic'
loop_
_space_group_symop_operation_xyz
x,y,z
-x,-y,-z
loop_
_atom_site_type_symbol
_atom_site_label
_atom_site_fract_x
_atom_site_fract_y
_atom_site_fract_z
Si Si1 0.993834 0.175425 0.538146
Si Si2 0.645874 0.349615 0.534534
Si Si3 0.380748 0.989046 0.062275
Si Si4 0.890889 0.649551 0.966444
Si Si5 0.420178 0.167914 0.614501
Si Si6 0.196152 0.716550 0.289461
Si Si7 0.658507 0.555119 0.117792
O O1 0.878973 0.182735 0.590307
O O2 0.043561 0.281534 0.797544
O O3 0.054703 0.256823 0.279635
O O4 0.000000 0.000000 0.500000
O O5 0.542470 0.194300 0.546277
O O6 0.750807 0.313873 0.499908
O O7 0.643934 0.438276 0.314604
O O8 0.640131 0.460145 0.825095
O O9 0.372475 0.102528 0.347809
O O10 0.295934 0.817361 0.100899
O O11 0.364136 0.055549 0.832649
O O12 0.500000 0.000000 0.000000
O O13 0.778891 0.666511 0.082875
O O14 0.865542 0.459427 0.858217
O O15 0.412189 0.339533 0.748867
#
# Coordination Sequence:
#
# PCOD9060246 Si02
#       7
#     2   2   2   2   2   2   2
#     4  12  28  49  77 110 143 183 244 312 368 426
#     4  11  23  43  68 105 139 197 239 291 354 445
#     4  12  27  45  68 107 145 197 244 296 354 434
#     4  11  26  49  73 108 144 190 246 294 361 446
#     4  12  25  42  70  99 155 183 248 295 357 416
#     4  11  27  47  79 102 152 195 243 295 369 433
#     4  11  24  42  73 103 144 187 241 296 368 419
#
# _framework density 23.076326999999999
#
# number of rings (size 3 to 8) (size 9 to 14) (size 15 to 20)
#    0.000    0.571    1.429    6.000    6.000    4.571 
#    0.000    0.000    0.000    0.000    0.000    0.000 
#    0.000    0.000    0.000    0.000    0.000    0.000 
#
# Total GULP energy -78456.264745 kJ/mol
# GULP energy per Si atom -5604.018910 kJ/mol
# Density = 2.302380 g / cm^3
# Si number density = 23.076327 Si / 1000 Ang^3
#
#
#
# Elastic Constant Matrix: (Units=GPa)
#
#
# Indices 1 2 3 4 5 6 
#
# 1 95.1855 33.7294 11.8111 6.3507 -20.1739 -9.6847
# 2 33.7294 87.1322 27.5196 -3.9003 -19.8418 10.4861
# 3 11.8111 27.5196 127.1944 -7.1916 -5.0638 5.9459
# 4 6.3507 -3.9003 -7.1916 52.4747 7.9791 -9.2320
# 5 -20.1739 -19.8418 -5.0638 7.9791 13.0229 2.8857
# 6 -9.6847 10.4861 5.9459 -9.2320 2.8857 33.6451
#
#
#
# Elastic Compliance Matrix: (Units=1/GPa)
#
#
# Indices 1 2 3 4 5 6 
#
# 1 0.017770 0.000228 -0.000858 -0.006970 0.031685 0.000566
# 2 0.000228 0.022815 -0.003173 -0.007079 0.040861 -0.011931
# 3 -0.000858 -0.003173 0.008568 0.001625 -0.003829 0.000002
# 4 -0.006970 -0.007079 0.001625 0.027657 -0.040324 0.010960
# 5 0.031685 0.040861 -0.003829 -0.040324 0.218603 -0.032752
# 6 0.000566 -0.011931 0.000002 0.010960 -0.032752 0.039419
#
#
# Mechanical properties :
#
#
# Convention : Reuss Voigt Hill
#
# Bulk Modulus (GPa) = 24.07062 50.62580 37.34821
# Shear Modulus (GPa) = 14.03367 35.59202 24.81284
#
# Velocity S-wave (km/s) = 2.46873 3.93155 3.28266
# Velocity P-wave (km/s) = 4.31041 6.52652 5.53060
#
# Compressibility (1/GPa) = 0.04154443
#
# Stress axis : x y z
#
# Youngs Moduli (GPa) = 56.27563 43.83153 116.71948
#
# Poissons Ratio (x) = -0.00998 0.10019
# Poissons Ratio (y) = -0.01282 0.37036
# Poissons Ratio (z) = 0.04831 0.13908
#
# Static dielectric constant tensor:
#      x y z
#    x 1.878680 -0.003810 -0.008990 
#    y -0.003810 1.866850 0.012800 
#    z -0.008990 0.012800 1.871790 
# 
# From -- ./inp_files/87779.got.cif
#   From: 2010.05.17/outbox.cif.g08.bks.cpg/sg2_44_cif.got.tgz:87779.got - 2010.06.03 11:33:40.
