data_PCOD9060509
_publ_section_title
;
Structure prediction by ZEFSAII (Michael W. Deem and Ramdas Pophale) SiO2 
 PCOD9060509
Probable space group: P -1
;
_chemical_formula_sum "Si O2"
_cell_formula_units_Z 12
_cell_length_a 8.029104
_cell_length_b 11.105929
_cell_length_c 13.648758
_cell_angle_alpha 34.353690
_cell_angle_beta 57.682021
_cell_angle_gamma 46.847373
_cell_volume 499.703750
_symmetry_space_group_name_H-M "P -1"
_symmetry_group_IT_number 2
_symmetry_cell_setting 'triclinic'
loop_
_space_group_symop_operation_xyz
x,y,z
-x,-y,-z
loop_
_atom_site_type_symbol
_atom_site_label
_atom_site_fract_x
_atom_site_fract_y
_atom_site_fract_z
Si Si1 0.705689 0.528076 0.457888
Si Si2 0.265572 0.124770 0.926616
Si Si3 0.342736 0.615531 0.219680
Si Si4 0.786377 0.456192 0.088030
Si Si5 0.915071 0.940424 0.464209
Si Si6 0.226953 0.413074 0.200332
O O1 0.500000 0.500000 0.500000
O O2 0.685460 0.778108 0.255529
O O3 0.703760 0.501950 0.592064
O O4 0.917969 0.298181 0.492566
O O5 0.042341 0.369181 0.874709
O O6 0.500000 0.000000 0.000000
O O7 0.204705 0.910956 0.074749
O O8 0.605266 0.552031 0.169495
O O9 0.299802 0.504493 0.210683
O O10 0.861578 0.169095 0.258414
O O11 0.664334 0.586480 0.937837
O O12 0.000000 0.500000 0.000000
O O13 0.736381 0.858648 0.609726
O O14 0.000000 0.000000 0.500000
#
# Coordination Sequence:
#
# PCOD9060509 Si02
#       6
#     2   2   2   2   2   2
#     4  11  24  41  71 103 135 180 236 286 343 411
#     4  11  23  43  72 101 137 181 233 283 342 420
#     4  12  26  44  70 106 143 177 232 297 353 403
#     4  12  25  43  71  98 140 188 235 281 343 424
#     4  11  24  44  70  99 138 183 235 283 340 419
#     4  11  26  46  69 104 141 182 231 290 356 404
#
# _framework density 24.014227000000002
#
# number of rings (size 3 to 8) (size 9 to 14) (size 15 to 20)
#    0.000    0.667    3.333    4.000    2.333    6.000 
#    0.000    0.000    0.000    0.000    0.000    0.000 
#    0.000    0.000    0.000    0.000    0.000    0.000 
#
# Total GULP energy -67068.881246 kJ/mol
# GULP energy per Si atom -5589.073437 kJ/mol
# Density = 2.395957 g / cm^3
# Si number density = 24.014227 Si / 1000 Ang^3
#
#
#
# Elastic Constant Matrix: (Units=GPa)
#
#
# Indices 1 2 3 4 5 6 
#
# 1 90.2509 11.7364 31.5720 4.9445 -1.8838 25.7243
# 2 11.7364 68.2222 33.4000 19.6700 9.9777 9.7607
# 3 31.5720 33.4000 222.9428 21.6927 -2.5612 24.9112
# 4 4.9445 19.6700 21.6927 47.3620 13.1972 6.8156
# 5 -1.8838 9.9777 -2.5612 13.1972 28.2160 0.1262
# 6 25.7243 9.7607 24.9112 6.8156 0.1262 41.3744
#
#
#
# Elastic Compliance Matrix: (Units=1/GPa)
#
#
# Indices 1 2 3 4 5 6 
#
# 1 0.013775 -0.001026 -0.000934 0.000224 0.001128 -0.007800
# 2 -0.001026 0.018109 -0.001939 -0.005109 -0.004252 -0.001612
# 3 -0.000934 -0.001939 0.005316 -0.001809 0.001960 -0.001870
# 4 0.000224 -0.005109 -0.001809 0.027497 -0.011193 -0.002340
# 5 0.001128 -0.004252 0.001960 -0.011193 0.042429 0.000836
# 6 -0.007800 -0.001612 -0.001870 -0.002340 0.000836 0.030909
#
#
# Mechanical properties :
#
#
# Convention : Reuss Voigt Hill
#
# Bulk Modulus (GPa) = 34.01220 59.42587 46.71903
# Shear Modulus (GPa) = 32.12665 43.70430 37.91548
#
# Velocity S-wave (km/s) = 3.66159 4.27070 3.97782
# Velocity P-wave (km/s) = 5.66307 7.00844 6.37137
#
# Compressibility (1/GPa) = 0.02940122
#
# Stress axis : x y z
#
# Youngs Moduli (GPa) = 72.59482 55.21981 188.11796
#
# Poissons Ratio (x) = 0.05665 0.17576
# Poissons Ratio (y) = 0.07447 0.36483
# Poissons Ratio (z) = 0.06783 0.10709
#
# Static dielectric constant tensor:
#      x y z
#    x 1.985680 0.006320 0.043650 
#    y 0.006320 1.880590 -0.099110 
#    z 0.043650 -0.099110 1.873200 
# 
# From -- ./inp_files/163011.got.cif
#   From: 2010.05.17/outbox.cif.g08.bks.cpg/sg2_82_cif.got.tgz:163011.got - 2010.06.03 11:33:40.
