data_PCOD9060728
_publ_section_title
;
Structure prediction by ZEFSAII (Michael W. Deem and Ramdas Pophale) SiO2 
 PCOD9060728
Probable space group: P -1
;
_chemical_formula_sum "Si O2"
_cell_formula_units_Z 16
_cell_length_a 7.919973
_cell_length_b 18.245357
_cell_length_c 9.959830
_cell_angle_alpha 29.353914
_cell_angle_beta 94.293187
_cell_angle_gamma 96.327207
_cell_volume 700.549661
_symmetry_space_group_name_H-M "P -1"
_symmetry_group_IT_number 2
_symmetry_cell_setting 'triclinic'
loop_
_space_group_symop_operation_xyz
x,y,z
-x,-y,-z
loop_
_atom_site_type_symbol
_atom_site_label
_atom_site_fract_x
_atom_site_fract_y
_atom_site_fract_z
Si Si1 0.917789 0.413274 0.502748
Si Si2 0.406966 0.431326 0.732845
Si Si3 0.233560 0.915244 0.048621
Si Si4 0.572630 0.047152 0.727005
Si Si5 0.960754 0.604171 0.953471
Si Si6 0.239460 0.105271 0.247885
Si Si7 0.442665 0.358194 0.134948
Si Si8 0.080779 0.079671 0.558154
O O1 0.722379 0.450214 0.423426
O O2 0.889707 0.235002 0.754477
O O3 0.000000 0.500000 0.500000
O O4 0.008276 0.509079 0.235152
O O5 0.500000 0.500000 0.500000
O O6 0.295752 0.276316 0.942718
O O7 0.510361 0.388275 0.939145
O O8 0.281994 0.935823 0.175210
O O9 0.418793 0.930150 0.960893
O O10 0.148326 0.052898 0.753537
O O11 0.505913 0.209888 0.440142
O O12 0.640901 0.990248 0.680796
O O13 0.761732 0.637071 0.888692
O O14 0.031703 0.777982 0.682656
O O15 0.000000 0.500000 0.000000
O O16 0.225957 0.084200 0.442362
O O17 0.047088 0.062725 0.260014
O O18 0.500000 0.500000 0.000000
#
# Coordination Sequence:
#
# PCOD9060728 Si02
#       8
#     2   2   2   2   2   2   2   2
#     4  11  24  44  67 100 138 174 232 285 344 407
#     4  11  23  44  65 100 138 178 228 278 341 410
#     4  11  24  44  69 103 143 178 230 294 337 415
#     4  11  24  44  70 104 140 182 231 281 358 405
#     4  11  25  48  70  97 134 184 229 282 348 406
#     4  11  24  42  72 100 138 182 230 280 352 403
#     4  11  24  45  69  99 136 178 235 283 337 419
#     4  11  24  47  70 102 141 179 237 283 337 422
#
# _framework density 22.839207999999999
#
# number of rings (size 3 to 8) (size 9 to 14) (size 15 to 20)
#    0.000    1.000    3.750    3.000    5.250    5.500 
#    2.250    0.000    0.000    0.000    0.000    0.000 
#    0.000    0.000    0.000    0.000    0.000    0.000 
#
# Total GULP energy -89285.619397 kJ/mol
# GULP energy per Si atom -5580.351212 kJ/mol
# Density = 2.278722 g / cm^3
# Si number density = 22.839208 Si / 1000 Ang^3
#
#
#
# Elastic Constant Matrix: (Units=GPa)
#
#
# Indices 1 2 3 4 5 6 
#
# 1 28.5034 16.0196 22.0135 3.1416 -10.9149 -0.3793
# 2 16.0196 139.6804 73.9631 7.5938 -6.1067 -1.0912
# 3 22.0135 73.9631 166.5358 6.3911 -10.2429 3.3704
# 4 3.1416 7.5938 6.3911 44.0763 7.0586 2.8536
# 5 -10.9149 -6.1067 -10.2429 7.0586 31.8197 -5.3895
# 6 -0.3793 -1.0912 3.3704 2.8536 -5.3895 40.9539
#
#
#
# Elastic Compliance Matrix: (Units=1/GPa)
#
#
# Indices 1 2 3 4 5 6 
#
# 1 0.046027 -0.002160 -0.004027 -0.005045 0.015725 0.003121
# 2 -0.002160 0.009549 -0.003921 -0.000990 0.000159 0.000647
# 3 -0.004027 -0.003921 0.008334 -0.000275 0.000484 -0.000745
# 4 -0.005045 -0.000990 -0.000275 0.024717 -0.007970 -0.002822
# 5 0.015725 0.000159 0.000484 -0.007970 0.039775 0.005900
# 6 0.003121 0.000647 -0.000745 -0.002822 0.005900 0.025498
#
#
# Mechanical properties :
#
#
# Convention : Reuss Voigt Hill
#
# Bulk Modulus (GPa) = 22.88661 62.07908 42.48285
# Shear Modulus (GPa) = 26.49995 38.21820 32.35907
#
# Velocity S-wave (km/s) = 3.40999 4.09511 3.76815
# Velocity P-wave (km/s) = 5.05436 7.04271 6.12970
#
# Compressibility (1/GPa) = 0.04369367
#
# Stress axis : x y z
#
# Youngs Moduli (GPa) = 21.72639 104.72484 119.99478
#
# Poissons Ratio (x) = 0.22623 0.48322
# Poissons Ratio (y) = 0.04693 0.47046
# Poissons Ratio (z) = 0.08749 0.41059
#
# Static dielectric constant tensor:
#      x y z
#    x 1.977760 -0.113050 0.001960 
#    y -0.113050 2.103560 0.105400 
#    z 0.001960 0.105400 1.572830 
# 
# From -- ./inp_files/216351.got.cif
#   From: 2010.05.17/outbox.cif.g08.bks.cpg/sg2_109_cif.got.tgz:216351.got - 2010.06.03 11:33:40.
