data_PCOD9060410
_publ_section_title
;
Structure prediction by ZEFSAII (Michael W. Deem and Ramdas Pophale) SiO2 
 PCOD9060410
Probable space group: P -1
;
_chemical_formula_sum "Si O2"
_cell_formula_units_Z 12
_cell_length_a 13.482709
_cell_length_b 9.719685
_cell_length_c 12.860272
_cell_angle_alpha 50.801997
_cell_angle_beta 147.029256
_cell_angle_gamma 145.830238
_cell_volume 504.369451
_symmetry_space_group_name_H-M "P -1"
_symmetry_group_IT_number 2
_symmetry_cell_setting 'triclinic'
loop_
_space_group_symop_operation_xyz
x,y,z
-x,-y,-z
loop_
_atom_site_type_symbol
_atom_site_label
_atom_site_fract_x
_atom_site_fract_y
_atom_site_fract_z
Si Si1 0.409451 0.289237 0.175264
Si Si2 0.712063 0.732095 0.362665
Si Si3 0.089507 0.025651 0.232579
Si Si4 0.733028 0.213577 0.394892
Si Si5 0.863307 0.615102 0.739686
Si Si6 0.607880 0.171259 0.880813
O O1 0.638900 0.582228 0.264375
O O2 0.247204 0.162732 0.199444
O O3 0.529133 0.184218 0.297416
O O4 0.205544 0.211028 0.947354
O O5 0.698346 0.582370 0.517089
O O6 0.518353 0.760617 0.195929
O O7 0.000000 0.000000 0.500000
O O8 0.728596 0.354259 0.798647
O O9 0.101472 0.208599 0.226942
O O10 0.207827 0.941272 0.436926
O O11 0.000000 0.500000 0.500000
O O12 0.608906 0.107148 0.222210
O O13 0.148859 0.755327 0.888185
#
# Coordination Sequence:
#
# PCOD9060410 Si02
#       6
#     2   2   2   2   2   2
#     4  11  25  42  65 103 125 165 225 266 314 376
#     4  12  25  42  66  97 134 169 211 268 321 383
#     4  11  23  44  70  93 130 171 215 270 318 374
#     4  12  25  41  66  98 133 172 210 262 328 386
#     4  11  23  43  73  92 125 177 215 265 320 378
#     4  11  23  43  70  95 125 170 226 255 318 390
#
# _framework density 23.792081
#
# number of rings (size 3 to 8) (size 9 to 14) (size 15 to 20)
#    0.000    0.667    5.000    3.000    0.000    4.000 
#    0.000    0.000    0.000    0.000    0.000    0.000 
#    0.000    0.000    0.000    0.000    0.000    0.000 
#
# Total GULP energy -67264.475053 kJ/mol
# GULP energy per Si atom -5605.372921 kJ/mol
# Density = 2.373793 g / cm^3
# Si number density = 23.792081 Si / 1000 Ang^3
#
#
#
# Elastic Constant Matrix: (Units=GPa)
#
#
# Indices 1 2 3 4 5 6 
#
# 1 63.6664 6.8893 55.8119 -9.4982 13.7839 -17.6613
# 2 6.8893 93.0725 36.0940 25.3825 2.4976 -17.1596
# 3 55.8119 36.0940 122.4292 12.5595 32.6201 -18.9063
# 4 -9.4982 25.3825 12.5595 34.1188 -12.5276 -2.0735
# 5 13.7839 2.4976 32.6201 -12.5276 42.2245 -7.8013
# 6 -17.6613 -17.1596 -18.9063 -2.0735 -7.8013 40.0164
#
#
#
# Elastic Compliance Matrix: (Units=1/GPa)
#
#
# Indices 1 2 3 4 5 6 
#
# 1 0.039005 0.000878 -0.022525 0.024234 0.013821 0.010899
# 2 0.000878 0.015569 -0.002837 -0.010433 -0.001197 0.004950
# 3 -0.022525 -0.002837 0.026096 -0.021200 -0.019623 -0.003752
# 4 0.024234 -0.010433 -0.021200 0.062397 0.028520 0.004999
# 5 0.013821 -0.001197 -0.019623 0.028520 0.044041 0.006379
# 6 0.010899 0.004950 -0.003752 0.004999 0.006379 0.031652
#
#
# Mechanical properties :
#
#
# Convention : Reuss Voigt Hill
#
# Bulk Modulus (GPa) = 31.54369 52.97314 42.25842
# Shear Modulus (GPa) = 17.96641 35.29680 26.63160
#
# Velocity S-wave (km/s) = 2.75097 3.85587 3.34929
# Velocity P-wave (km/s) = 4.83500 6.49130 5.72339
#
# Compressibility (1/GPa) = 0.03170206
#
# Stress axis : x y z
#
# Youngs Moduli (GPa) = 25.63777 64.22901 38.31934
#
# Poissons Ratio (x) = -0.05637 0.86316
# Poissons Ratio (y) = -0.02250 0.10870
# Poissons Ratio (z) = 0.57750 0.18220
#
# Static dielectric constant tensor:
#      x y z
#    x 1.888760 0.085930 0.003320 
#    y 0.085930 1.949680 0.024120 
#    z 0.003320 0.024120 1.850130 
# 
# From -- ./inp_files/527292.got.cif
#   From: 2010.05.17/outbox.cif.g08.bks.cpg/sg2_264_cif.got.tgz:527292.got - 2010.06.03 11:33:40.
