data_PCOD9060952
_publ_section_title
;
Structure prediction by ZEFSAII (Michael W. Deem and Ramdas Pophale) SiO2 
 PCOD9060952
Probable space group: P -1
;
_chemical_formula_sum "Si O2"
_cell_formula_units_Z 12
_cell_length_a 17.152334
_cell_length_b 13.349046
_cell_length_c 10.738855
_cell_angle_alpha 146.299222
_cell_angle_beta 36.451263
_cell_angle_gamma 156.051091
_cell_volume 543.111045
_symmetry_space_group_name_H-M "P -1"
_symmetry_group_IT_number 2
_symmetry_cell_setting 'triclinic'
loop_
_space_group_symop_operation_xyz
x,y,z
-x,-y,-z
loop_
_atom_site_type_symbol
_atom_site_label
_atom_site_fract_x
_atom_site_fract_y
_atom_site_fract_z
Si Si1 0.568676 0.702853 0.790391
Si Si2 0.098408 0.788963 0.977602
Si Si3 0.477416 0.616590 0.264760
Si Si4 0.078720 0.387429 0.506317
Si Si5 0.916576 0.116622 0.196296
Si Si6 0.819596 0.802166 0.350325
O O1 0.591062 0.560995 0.710263
O O2 0.685654 0.775865 0.590820
O O3 0.337018 0.467723 0.814187
O O4 0.686606 0.979866 0.997512
O O5 0.956311 0.790037 0.225662
O O6 0.091464 0.850008 0.905456
O O7 0.025744 0.510604 0.779105
O O8 0.309528 0.587300 0.424311
O O9 0.693294 0.907985 0.311531
O O10 0.500000 0.500000 0.000000
O O11 0.038411 0.367305 0.390629
O O12 0.956228 0.089220 0.403424
O O13 0.000000 0.000000 0.000000
#
# Coordination Sequence:
#
# PCOD9060952 Si02
#       6
#     2   2   2   2   2   2
#     4  11  23  44  70  93 125 181 213 259 330 378
#     4  12  25  42  68  96 132 169 214 271 318 383
#     4  12  21  40  70  90 128 171 212 263 318 383
#     4  12  26  40  67 101 127 171 215 267 325 377
#     4  12  21  42  68  92 132 171 211 263 324 379
#     4  11  24  46  67  91 134 170 218 266 316 387
#
# _framework density 22.094929
#
# number of rings (size 3 to 8) (size 9 to 14) (size 15 to 20)
#    0.000    0.333    8.333    1.000    0.000    2.667 
#    0.000    1.667    0.000    0.000    0.000    0.000 
#    0.000    0.000    0.000    0.000    0.000    0.000 
#
# Total GULP energy -67015.253010 kJ/mol
# GULP energy per Si atom -5584.604417 kJ/mol
# Density = 2.204464 g / cm^3
# Si number density = 22.094929 Si / 1000 Ang^3
#
#
#
# Elastic Constant Matrix: (Units=GPa)
#
#
# Indices 1 2 3 4 5 6 
#
# 1 47.8485 28.6269 7.8148 1.3660 2.4311 19.6931
# 2 28.6269 105.1304 35.5376 0.2210 -12.9263 29.9480
# 3 7.8148 35.5376 74.3226 10.0782 -13.6033 1.0351
# 4 1.3660 0.2210 10.0782 32.3855 1.1249 9.5923
# 5 2.4311 -12.9263 -13.6033 1.1249 26.4862 -1.1071
# 6 19.6931 29.9480 1.0351 9.5923 -1.1071 37.7712
#
#
#
# Elastic Compliance Matrix: (Units=1/GPa)
#
#
# Indices 1 2 3 4 5 6 
#
# 1 0.029506 -0.004270 -0.002636 0.003714 -0.006850 -0.013069
# 2 -0.004270 0.017467 -0.007806 0.006154 0.004109 -0.012851
# 3 -0.002636 -0.007806 0.019934 -0.009128 0.007457 0.009554
# 4 0.003714 0.006154 -0.009128 0.038553 -0.004352 -0.016484
# 5 -0.006850 0.004109 0.007457 -0.004352 0.044510 0.002519
# 6 -0.013069 -0.012851 0.009554 -0.016484 0.002519 0.047477
#
#
# Mechanical properties :
#
#
# Convention : Reuss Voigt Hill
#
# Bulk Modulus (GPa) = 26.67979 41.25113 33.96546
# Shear Modulus (GPa) = 20.88858 29.68339 25.28598
#
# Velocity S-wave (km/s) = 3.07807 3.66928 3.38660
# Velocity P-wave (km/s) = 4.97333 6.05492 5.54058
#
# Compressibility (1/GPa) = 0.03748155
#
# Stress axis : x y z
#
# Youngs Moduli (GPa) = 33.89169 57.25225 50.16507
#
# Poissons Ratio (x) = 0.24449 0.13223
# Poissons Ratio (y) = 0.14473 0.39160
# Poissons Ratio (z) = 0.08934 0.44692
#
# Static dielectric constant tensor:
#      x y z
#    x 1.845750 0.046800 0.072740 
#    y 0.046800 1.894910 0.051980 
#    z 0.072740 0.051980 1.865110 
# 
# From -- ./inp_files/281578.got.cif
#   From: 2010.05.17/outbox.cif.g08.bks.cpg/sg2_141_cif.got.tgz:281578.got - 2010.06.03 11:33:40.
