data_PCOD9060277
_publ_section_title
;
Structure prediction by ZEFSAII (Michael W. Deem and Ramdas Pophale) SiO2 
 PCOD9060277
Probable space group: P -1
;
_chemical_formula_sum "Si O2"
_cell_formula_units_Z 16
_cell_length_a 23.307113
_cell_length_b 21.063627
_cell_length_c 9.189021
_cell_angle_alpha 150.948550
_cell_angle_beta 138.256037
_cell_angle_gamma 23.121884
_cell_volume 819.707203
_symmetry_space_group_name_H-M "P -1"
_symmetry_group_IT_number 2
_symmetry_cell_setting 'triclinic'
loop_
_space_group_symop_operation_xyz
x,y,z
-x,-y,-z
loop_
_atom_site_type_symbol
_atom_site_label
_atom_site_fract_x
_atom_site_fract_y
_atom_site_fract_z
Si Si1 0.570502 0.159507 0.627562
Si Si2 0.055188 0.947905 0.664300
Si Si3 0.408434 0.594524 0.665469
Si Si4 0.615469 0.839596 0.762487
Si Si5 0.390544 0.852488 0.656283
Si Si6 0.097771 0.373784 0.781324
Si Si7 0.044692 0.185463 0.628049
Si Si8 0.945353 0.320411 0.381272
O O1 0.447762 0.204827 0.537593
O O2 0.543754 0.231911 0.553523
O O3 0.729183 0.879796 0.368066
O O4 0.585322 0.273901 0.975135
O O5 0.232623 0.770410 0.658705
O O6 0.019619 0.859477 0.504273
O O7 0.000000 0.000000 0.500000
O O8 0.953079 0.185541 0.026235
O O9 0.500000 0.500000 0.500000
O O10 0.498070 0.371336 0.480099
O O11 0.776825 0.587254 0.623100
O O12 0.500000 0.000000 0.000000
O O13 0.625645 0.972804 0.982345
O O14 0.220674 0.001436 0.627658
O O15 0.032127 0.331115 0.488166
O O16 0.000000 0.500000 0.000000
O O17 0.060923 0.558648 0.014545
O O18 0.026921 0.189277 0.427304
#
# Coordination Sequence:
#
# PCOD9060277 Si02
#       8
#     2   2   2   2   2   2   2   2
#     4  11  22  40  68  98 129 165 207 257 322 376
#     4  12  28  45  63  90 126 175 220 257 309 374
#     4  12  28  46  62  87 132 175 212 261 313 375
#     4  10  22  36  65 105 132 159 200 264 322 376
#     4  11  21  41  66 100 129 159 205 265 323 375
#     4  10  17  38  66  98 128 156 198 266 319 373
#     4  11  21  39  70  98 127 160 206 267 318 374
#     4  11  21  41  69  96 130 163 213 258 314 375
#
# _framework density 19.519165000000001
#
# number of rings (size 3 to 8) (size 9 to 14) (size 15 to 20)
#    0.000    1.000    5.000    3.750    8.750    0.000 
#    0.000    2.500    0.000    0.000    0.000    0.000 
#    0.000    0.000    0.000    0.000    0.000    0.000 
#
# Total GULP energy -89295.712843 kJ/mol
# GULP energy per Si atom -5580.982053 kJ/mol
# Density = 1.947474 g / cm^3
# Si number density = 19.519165 Si / 1000 Ang^3
#
#
#
# Elastic Constant Matrix: (Units=GPa)
#
#
# Indices 1 2 3 4 5 6 
#
# 1 58.9124 31.2731 95.4041 -21.4500 11.7912 -11.4902
# 2 31.2731 132.9997 71.0036 -1.2363 6.9007 -9.2216
# 3 95.4041 71.0036 120.4106 -0.7491 44.6852 15.4416
# 4 -21.4500 -1.2363 -0.7491 33.1293 -13.5191 3.9053
# 5 11.7912 6.9007 44.6852 -13.5191 27.3105 -6.7849
# 6 -11.4902 -9.2216 15.4416 3.9053 -6.7849 29.8507
#
#
#
# Elastic Compliance Matrix: (Units=1/GPa)
#
#
# Indices 1 2 3 4 5 6 
#
# 1 0.003445 -0.006061 0.010590 -0.005810 -0.022752 -0.010436
# 2 -0.006061 0.008983 0.000102 -0.004414 -0.001870 0.000542
# 3 0.010590 0.000102 -0.004665 0.009863 0.009769 0.007451
# 4 -0.005810 -0.004414 0.009863 0.027049 -0.002294 -0.012762
# 5 -0.022752 -0.001870 0.009769 -0.002294 0.027866 -0.007755
# 6 -0.010436 0.000542 0.007451 -0.012762 -0.007755 0.025703
#
#
# Mechanical properties :
#
#
# Convention : Reuss Voigt Hill
#
# Bulk Modulus (GPa) = 58.73670 78.63159 68.68414
# Shear Modulus (GPa) = 58.96663 25.70089 42.33376
#
# Velocity S-wave (km/s) = 5.50229 3.63257 4.66212
# Velocity P-wave (km/s) = 8.39786 7.61353 8.01530
#
# Compressibility (1/GPa) = 0.01702513
#
# Stress axis : x y z
#
# Youngs Moduli (GPa) = 290.28602 111.32086 -214.35478
#
# Poissons Ratio (x) = 0.67468 2.26999
# Poissons Ratio (y) = 1.75932 0.02185
# Poissons Ratio (z) = -3.07410 -0.01135
#
# Static dielectric constant tensor:
#      x y z
#    x 1.705170 -0.023540 0.043710 
#    y -0.023540 1.744710 -0.032340 
#    z 0.043710 -0.032340 1.720390 
# 
# From -- ./inp_files/355326.got.cif
#   From: 2010.05.17/outbox.cif.g08.bks.cpg/sg2_178_cif.got.tgz:355326.got - 2010.06.03 11:33:40.
