data_PCOD9060116
_publ_section_title
;
Structure prediction by ZEFSAII (Michael W. Deem and Ramdas Pophale) SiO2 
 PCOD9060116
Probable space group: P -1
;
_chemical_formula_sum "Si O2"
_cell_formula_units_Z 16
_cell_length_a 6.611818
_cell_length_b 12.875811
_cell_length_c 15.667535
_cell_angle_alpha 123.946508
_cell_angle_beta 55.545100
_cell_angle_gamma 127.566788
_cell_volume 823.955337
_symmetry_space_group_name_H-M "P -1"
_symmetry_group_IT_number 2
_symmetry_cell_setting 'triclinic'
loop_
_space_group_symop_operation_xyz
x,y,z
-x,-y,-z
loop_
_atom_site_type_symbol
_atom_site_label
_atom_site_fract_x
_atom_site_fract_y
_atom_site_fract_z
Si Si1 0.308810 0.526710 0.445644
Si Si2 0.389913 0.058485 0.171594
Si Si3 0.446335 0.350033 0.910457
Si Si4 0.689256 0.737826 0.581227
Si Si5 0.589340 0.674376 0.291770
Si Si6 0.300505 0.872093 0.434234
Si Si7 0.935296 0.081655 0.976328
Si Si8 0.781669 0.180025 0.761520
O O1 0.475828 0.668646 0.523919
O O2 0.314489 0.395836 0.431341
O O3 0.452673 0.545645 0.328397
O O4 0.000000 0.500000 0.500000
O O5 0.376630 0.168847 0.292267
O O6 0.165034 0.011808 0.128574
O O7 0.336730 0.921976 0.177494
O O8 0.681209 0.109807 0.080591
O O9 0.393017 0.354024 0.824491
O O10 0.694829 0.306576 0.843867
O O11 0.190667 0.224026 0.956821
O O12 0.500000 0.500000 0.000000
O O13 0.989140 0.826232 0.512688
O O14 0.392733 0.751343 0.377734
O O15 0.895036 0.766652 0.291663
O O16 0.333077 0.896571 0.336036
O O17 0.500000 0.000000 0.500000
O O18 0.000000 0.000000 0.000000
#
# Coordination Sequence:
#
# PCOD9060116 Si02
#       8
#     2   2   2   2   2   2   2   2
#     4  11  24  44  64  95 143 178 218 273 333 406
#     4  11  25  42  71  97 131 176 227 279 345 394
#     4  11  26  44  69 100 132 179 231 278 344 404
#     4  11  25  41  67 102 130 179 228 267 333 416
#     4  11  23  43  65  94 136 176 217 275 335 398
#     4  11  24  38  66 102 136 171 222 269 334 401
#     4  11  24  47  67  98 138 171 226 291 337 398
#     4  11  23  43  66  99 136 174 222 283 327 409
#
# _framework density 19.418527000000001
#
# number of rings (size 3 to 8) (size 9 to 14) (size 15 to 20)
#    0.000    1.000    5.000    0.750    3.500    5.500 
#    0.000    0.000    0.000    0.000    0.000    0.000 
#    0.000    0.000    0.000    0.000    0.000    0.000 
#
# Total GULP energy -89401.840026 kJ/mol
# GULP energy per Si atom -5587.615002 kJ/mol
# Density = 1.937433 g / cm^3
# Si number density = 19.418527 Si / 1000 Ang^3
#
#
#
# Elastic Constant Matrix: (Units=GPa)
#
#
# Indices 1 2 3 4 5 6 
#
# 1 112.4003 34.6801 43.3184 1.9495 17.4873 10.2234
# 2 34.6801 83.0191 47.9111 -10.4255 19.5319 11.3825
# 3 43.3184 47.9111 109.7976 7.4355 12.7739 5.6237
# 4 1.9495 -10.4255 7.4355 42.6421 1.6594 1.6965
# 5 17.4873 19.5319 12.7739 1.6594 32.5436 -14.6165
# 6 10.2234 11.3825 5.6237 1.6965 -14.6165 32.6936
#
#
#
# Elastic Compliance Matrix: (Units=1/GPa)
#
#
# Indices 1 2 3 4 5 6 
#
# 1 0.012168 -0.000123 -0.003481 0.000614 -0.008214 -0.006868
# 2 -0.000123 0.024761 -0.008282 0.008901 -0.019294 -0.016246
# 3 -0.003481 -0.008282 0.013884 -0.004532 0.003053 0.003184
# 4 0.000614 0.008901 -0.004532 0.027044 -0.008796 -0.007847
# 5 -0.008214 -0.019294 0.003053 -0.008796 0.062702 0.037250
# 6 -0.006868 -0.016246 0.003184 -0.007847 0.037250 0.054904
#
#
# Mechanical properties :
#
#
# Convention : Reuss Voigt Hill
#
# Bulk Modulus (GPa) = 36.98159 61.89294 49.43726
# Shear Modulus (GPa) = 21.90590 33.52969 27.71779
#
# Velocity S-wave (km/s) = 3.36235 4.15985 3.78218
# Velocity P-wave (km/s) = 5.84463 7.41720 6.67737
#
# Compressibility (1/GPa) = 0.02704048
#
# Stress axis : x y z
#
# Youngs Moduli (GPa) = 82.18048 40.38624 72.02648
#
# Poissons Ratio (x) = 0.00496 0.25075
# Poissons Ratio (y) = 0.01009 0.59653
# Poissons Ratio (z) = 0.28610 0.33448
#
# Static dielectric constant tensor:
#      x y z
#    x 1.692680 -0.007650 0.006670 
#    y -0.007650 1.660670 -0.012920 
#    z 0.006670 -0.012920 1.674830 
# 
# From -- ./inp_files/70793.got.cif
#   From: 2010.05.17/outbox.cif.g08.bks.cpg/sg2_36_cif.got.tgz:70793.got - 2010.06.03 11:33:40.
