data_PCOD9060634
_publ_section_title
;
Structure prediction by ZEFSAII (Michael W. Deem and Ramdas Pophale) SiO2 
 PCOD9060634
Probable space group: P -1
;
_chemical_formula_sum "Si O2"
_cell_formula_units_Z 13
_cell_length_a 10.723782
_cell_length_b 7.380444
_cell_length_c 13.500236
_cell_angle_alpha 45.162264
_cell_angle_beta 136.784732
_cell_angle_gamma 117.272545
_cell_volume 515.393722
_symmetry_space_group_name_H-M "P -1"
_symmetry_group_IT_number 2
_symmetry_cell_setting 'triclinic'
loop_
_space_group_symop_operation_xyz
x,y,z
-x,-y,-z
loop_
_atom_site_type_symbol
_atom_site_label
_atom_site_fract_x
_atom_site_fract_y
_atom_site_fract_z
Si Si1 0.039513 0.704391 0.659924
Si Si2 0.289070 0.587125 0.359124
Si Si3 0.500000 0.000000 0.000000
Si Si4 0.194054 0.965412 0.996915
Si Si5 0.203637 0.001670 0.315167
Si Si6 0.333966 0.588785 0.710522
Si Si7 0.734924 0.635750 0.949602
O O1 0.163797 0.578467 0.690195
O O2 0.844084 0.605468 0.601139
O O3 0.161761 0.641221 0.854232
O O4 0.000000 0.000000 0.500000
O O5 0.500000 0.500000 0.500000
O O6 0.204089 0.698864 0.164410
O O7 0.283736 0.815345 0.346064
O O8 0.375332 0.976794 0.034379
O O9 0.607348 0.690238 0.197756
O O10 0.177465 0.176629 0.994609
O O11 0.014082 0.998505 0.813339
O O12 0.284029 0.848543 0.516287
O O13 0.247414 0.273160 0.188741
O O14 0.523110 0.639504 0.853110
#
# Coordination Sequence:
#
# PCOD9060634 Si02
#       7
#     2   2   1   2   2   2   2
#     4  12  27  47  75 109 151 196 249 307 372 445
#     4  11  23  43  74 107 143 202 254 294 373 454
#     4  12  26  46  76 108 150 190 250 312 372 436
#     4  11  23  46  78 100 149 199 252 305 371 445
#     4  11  23  47  76 107 150 192 254 312 370 443
#     4  12  28  46  75 113 154 188 252 311 382 434
#     4  11  23  51  73 107 150 204 243 306 375 455
#
# _framework density 25.223434000000001
#
# number of rings (size 3 to 8) (size 9 to 14) (size 15 to 20)
#    0.000    0.615    4.615    2.769    4.308    6.154 
#    2.769    1.538    0.000    0.000    0.000    0.000 
#    0.000    0.000    0.000    0.000    0.000    0.000 
#
# Total GULP energy -72501.684138 kJ/mol
# GULP energy per Si atom -5577.052626 kJ/mol
# Density = 2.516602 g / cm^3
# Si number density = 25.223434 Si / 1000 Ang^3
#
#
#
# Elastic Constant Matrix: (Units=GPa)
#
#
# Indices 1 2 3 4 5 6 
#
# 1 145.3455 36.9376 62.6364 -9.8146 1.6937 16.2924
# 2 36.9376 37.8445 49.1553 -7.1448 9.6915 2.6759
# 3 62.6364 49.1553 199.4657 -10.0428 -2.8368 17.3214
# 4 -9.8146 -7.1448 -10.0428 35.4977 13.0326 5.0678
# 5 1.6937 9.6915 -2.8368 13.0326 55.2338 -12.8688
# 6 16.2924 2.6759 17.3214 5.0678 -12.8688 39.0482
#
#
#
# Elastic Compliance Matrix: (Units=1/GPa)
#
#
# Indices 1 2 3 4 5 6 
#
# 1 0.009698 -0.008059 -0.000700 0.001350 -0.000022 -0.003367
# 2 -0.008059 0.052225 -0.009909 0.010064 -0.012056 -0.001100
# 3 -0.000700 -0.009909 0.007844 -0.000370 0.001816 -0.001862
# 4 0.001350 0.010064 -0.000370 0.036603 -0.012807 -0.010060
# 5 -0.000022 -0.012056 0.001816 -0.012807 0.025704 0.010163
# 6 -0.003367 -0.001100 -0.001862 -0.010060 0.010163 0.032570
#
#
# Mechanical properties :
#
#
# Convention : Reuss Voigt Hill
#
# Bulk Modulus (GPa) = 30.83254 75.56825 53.20039
# Shear Modulus (GPa) = 23.49741 41.55103 32.52422
#
# Velocity S-wave (km/s) = 3.05548 4.06312 3.59478
# Velocity P-wave (km/s) = 4.96973 7.21363 6.19414
#
# Compressibility (1/GPa) = 0.03243327
#
# Stress axis : x y z
#
# Youngs Moduli (GPa) = 103.10900 19.14799 127.48913
#
# Poissons Ratio (x) = 0.15431 0.08918
# Poissons Ratio (y) = 0.83093 1.26324
# Poissons Ratio (z) = 0.07213 0.18973
#
# Static dielectric constant tensor:
#      x y z
#    x 2.016650 0.055350 -0.012100 
#    y 0.055350 2.110510 -0.052930 
#    z -0.012100 -0.052930 2.105920 
# 
# From -- ./inp_files/491888.got.cif
#   From: 2010.05.17/outbox.cif.g08.bks.cpg/sg2_246_cif.got.tgz:491888.got - 2010.06.03 11:33:40.
