data_PCOD9060430
_publ_section_title
;
Structure prediction by ZEFSAII (Michael W. Deem and Ramdas Pophale) SiO2 
 PCOD9060430
Probable space group: P -1
;
_chemical_formula_sum "Si O2"
_cell_formula_units_Z 14
_cell_length_a 9.120208
_cell_length_b 8.546203
_cell_length_c 11.980297
_cell_angle_alpha 72.378242
_cell_angle_beta 82.414576
_cell_angle_gamma 48.981063
_cell_volume 668.578963
_symmetry_space_group_name_H-M "P -1"
_symmetry_group_IT_number 2
_symmetry_cell_setting 'triclinic'
loop_
_space_group_symop_operation_xyz
x,y,z
-x,-y,-z
loop_
_atom_site_type_symbol
_atom_site_label
_atom_site_fract_x
_atom_site_fract_y
_atom_site_fract_z
Si Si1 0.215872 0.776080 0.037828
Si Si2 0.630390 0.570155 0.723023
Si Si3 0.571397 0.999364 0.667151
Si Si4 0.737857 0.364425 0.187917
Si Si5 0.197717 0.454863 0.515605
Si Si6 0.985428 0.849162 0.608384
Si Si7 0.495772 0.840845 0.108276
O O1 0.239711 0.603067 0.154456
O O2 0.345443 0.824105 0.069879
O O3 0.280584 0.683444 0.926501
O O4 0.000000 0.000000 0.000000
O O5 0.582927 0.794286 0.704476
O O6 0.432084 0.607466 0.733351
O O7 0.739754 0.486800 0.611821
O O8 0.620959 0.793862 0.419821
O O9 0.769085 0.931078 0.610071
O O10 0.559315 0.069914 0.780288
O O11 0.941852 0.176028 0.267006
O O12 0.694412 0.590244 0.144289
O O13 0.141166 0.611045 0.590536
O O14 0.000000 0.500000 0.500000
O O15 0.000000 0.000000 0.500000
O O16 0.500000 0.000000 0.000000
#
# Coordination Sequence:
#
# PCOD9060430 Si02
#       7
#     2   2   2   2   2   2   2
#     4  11  25  44  68 104 138 183 231 282 348 413
#     4  11  25  44  73  96 141 187 229 286 345 412
#     4  12  25  47  70 105 138 181 235 284 346 411
#     4  11  24  46  68 103 139 180 232 281 348 413
#     4  12  27  47  70 105 139 184 236 280 349 411
#     4  12  28  44  72 104 141 182 229 289 343 410
#     4  11  23  43  70  99 136 180 227 286 339 407
#
# _framework density 20.939935999999999
#
# number of rings (size 3 to 8) (size 9 to 14) (size 15 to 20)
#    0.000    0.571    2.857    5.571    8.000    3.429 
#    0.000    2.857    0.000    0.000    0.000    0.000 
#    0.000    0.000    0.000    0.000    0.000    0.000 
#
# Total GULP energy -78347.908141 kJ/mol
# GULP energy per Si atom -5596.279153 kJ/mol
# Density = 2.089228 g / cm^3
# Si number density = 20.939936 Si / 1000 Ang^3
#
#
#
# Elastic Constant Matrix: (Units=GPa)
#
#
# Indices 1 2 3 4 5 6 
#
# 1 90.2984 52.6070 53.1920 -25.5507 -6.4176 -5.7999
# 2 52.6070 105.5884 43.1894 -26.9233 -6.1401 -6.5265
# 3 53.1920 43.1894 141.3516 -10.4820 -1.0655 -2.8838
# 4 -25.5507 -26.9233 -10.4820 54.7697 1.8972 4.3465
# 5 -6.4176 -6.1401 -1.0655 1.8972 40.8730 -1.5623
# 6 -5.7999 -6.5265 -2.8838 4.3465 -1.5623 41.0056
#
#
#
# Elastic Compliance Matrix: (Units=1/GPa)
#
#
# Indices 1 2 3 4 5 6 
#
# 1 0.019081 -0.006101 -0.004926 0.004824 0.001763 0.000937
# 2 -0.006101 0.014304 -0.001771 0.003737 0.001007 0.000931
# 3 -0.004926 -0.001771 0.009361 -0.001335 -0.000741 -0.000207
# 4 0.004824 0.003737 -0.001335 0.022175 0.000210 -0.001159
# 5 0.001763 0.001007 -0.000741 0.000210 0.024914 0.001284
# 6 0.000937 0.000931 -0.000207 -0.001159 0.001284 0.024825
#
#
# Mechanical properties :
#
#
# Convention : Reuss Voigt Hill
#
# Bulk Modulus (GPa) = 58.31106 70.57946 64.44526
# Shear Modulus (GPa) = 34.25288 39.87965 37.06626
#
# Velocity S-wave (km/s) = 4.04885 4.36877 4.21185
# Velocity P-wave (km/s) = 7.05442 7.69591 7.38214
#
# Compressibility (1/GPa) = 0.01714941
#
# Stress axis : x y z
#
# Youngs Moduli (GPa) = 52.40717 69.91056 106.83127
#
# Poissons Ratio (x) = 0.42655 0.52626
# Poissons Ratio (y) = 0.31975 0.18918
# Poissons Ratio (z) = 0.25816 0.12380
#
# Static dielectric constant tensor:
#      x y z
#    x 1.728640 -0.011500 0.025170 
#    y -0.011500 1.774470 0.011460 
#    z 0.025170 0.011460 1.757580 
# 
# From -- ./inp_files/346412.got.cif
#   From: 2010.05.17/outbox.cif.g08.bks.cpg/sg2_174_cif.got.tgz:346412.got - 2010.06.03 11:33:40.
