data_PCOD9060319
_publ_section_title
;
Structure prediction by ZEFSAII (Michael W. Deem and Ramdas Pophale) SiO2 
 PCOD9060319
Probable space group: P -1
;
_chemical_formula_sum "Si O2"
_cell_formula_units_Z 16
_cell_length_a 23.064852
_cell_length_b 5.211409
_cell_length_c 6.852778
_cell_angle_alpha 73.851798
_cell_angle_beta 102.265458
_cell_angle_gamma 118.116458
_cell_volume 694.612038
_symmetry_space_group_name_H-M "P -1"
_symmetry_group_IT_number 2
_symmetry_cell_setting 'triclinic'
loop_
_space_group_symop_operation_xyz
x,y,z
-x,-y,-z
loop_
_atom_site_type_symbol
_atom_site_label
_atom_site_fract_x
_atom_site_fract_y
_atom_site_fract_z
Si Si1 0.559578 0.438253 0.974221
Si Si2 0.532760 0.956210 0.338009
Si Si3 0.721300 0.504195 0.562647
Si Si4 0.361027 0.191210 0.375266
Si Si5 0.193266 0.067226 0.795734
Si Si6 0.037524 0.205480 0.163751
Si Si7 0.820060 0.525864 0.956070
Si Si8 0.051802 0.784797 0.589780
O O1 0.526489 0.218583 0.815634
O O2 0.616893 0.718373 0.852674
O O3 0.500000 0.500000 0.000000
O O4 0.577269 0.264386 0.192637
O O5 0.575847 0.785814 0.461265
O O6 0.500000 0.000000 0.500000
O O7 0.668275 0.598410 0.600343
O O8 0.751830 0.691699 0.351318
O O9 0.690398 0.153009 0.577943
O O10 0.779887 0.588307 0.743131
O O11 0.174744 0.250380 0.909992
O O12 0.215383 0.822303 0.941463
O O13 0.127914 0.867907 0.662877
O O14 0.982236 0.278755 0.208530
O O15 0.053399 0.048495 0.396349
O O16 0.108560 0.423697 0.085578
O O17 0.000000 0.000000 0.000000
O O18 0.000000 0.500000 0.500000
#
# Coordination Sequence:
#
# PCOD9060319 Si02
#       8
#     2   2   2   2   2   2   2   2
#     4  11  25  44  76 112 150 185 242 298 371 431
#     4  11  24  46  74 113 153 191 232 306 372 428
#     4  12  29  51  69 106 149 198 250 304 353 443
#     4  12  27  48  78 106 149 196 248 296 365 439
#     4  12  27  49  73 103 144 196 246 304 372 442
#     4  11  23  43  69 108 141 183 242 310 378 441
#     4  12  27  48  77 101 148 194 248 308 376 434
#     4  11  25  40  72 108 144 184 242 307 381 448
#
# _framework density 23.034441000000001
#
# number of rings (size 3 to 8) (size 9 to 14) (size 15 to 20)
#    0.000    0.500    3.750    3.375    7.000    5.000 
#    0.000    0.000    0.000    0.000    0.000    0.000 
#    0.000    0.000    0.000    0.000    0.000    0.000 
#
# Total GULP energy -89508.216946 kJ/mol
# GULP energy per Si atom -5594.263559 kJ/mol
# Density = 2.298201 g / cm^3
# Si number density = 23.034441 Si / 1000 Ang^3
#
#
#
# Elastic Constant Matrix: (Units=GPa)
#
#
# Indices 1 2 3 4 5 6 
#
# 1 67.8039 -9.4804 20.7740 -1.1928 2.8911 -1.4797
# 2 -9.4804 77.9122 29.3270 -10.0560 -12.3548 4.4136
# 3 20.7740 29.3270 129.0377 -17.9703 -15.9204 -0.1279
# 4 -1.1928 -10.0560 -17.9703 53.5198 -5.9316 -2.9964
# 5 2.8911 -12.3548 -15.9204 -5.9316 38.6260 -4.0908
# 6 -1.4797 4.4136 -0.1279 -2.9964 -4.0908 36.6585
#
#
#
# Elastic Compliance Matrix: (Units=1/GPa)
#
#
# Indices 1 2 3 4 5 6 
#
# 1 0.016340 0.002991 -0.003602 -0.000483 -0.001821 0.000044
# 2 0.002991 0.015325 -0.003220 0.002195 0.003565 -0.001158
# 3 -0.003602 -0.003220 0.009989 0.003161 0.003946 0.000976
# 4 -0.000483 0.002195 0.003161 0.020867 0.005462 0.002042
# 5 -0.001821 0.003565 0.003946 0.005462 0.029981 0.003303
# 6 0.000044 -0.001158 0.000976 0.002042 0.003303 0.027959
#
#
# Mechanical properties :
#
#
# Convention : Reuss Voigt Hill
#
# Bulk Modulus (GPa) = 29.41881 39.55502 34.48691
# Shear Modulus (GPa) = 35.85364 41.36974 38.61169
#
# Velocity S-wave (km/s) = 3.94956 4.24252 4.09866
# Velocity P-wave (km/s) = 5.79639 6.41934 6.11580
#
# Compressibility (1/GPa) = 0.03399186
#
# Stress axis : x y z
#
# Youngs Moduli (GPa) = 61.19835 65.25180 100.10624
#
# Poissons Ratio (x) = -0.19515 0.36060
# Poissons Ratio (y) = -0.18302 0.32235
# Poissons Ratio (z) = 0.22045 0.21012
#
# Static dielectric constant tensor:
#      x y z
#    x 1.888170 -0.011520 0.015800 
#    y -0.011520 1.909660 -0.041270 
#    z 0.015800 -0.041270 1.856170 
# 
# From -- ./inp_files/121561.got.cif
#   From: 2010.05.17/outbox.cif.g08.bks.cpg/sg2_61_cif.got.tgz:121561.got - 2010.06.03 11:33:40.
