data_PCOD9060331
_publ_section_title
;
Structure prediction by ZEFSAII (Michael W. Deem and Ramdas Pophale) SiO2 
 PCOD9060331
Probable space group: P -1
;
_chemical_formula_sum "Si O2"
_cell_formula_units_Z 14
_cell_length_a 6.548148
_cell_length_b 22.110667
_cell_length_c 13.369976
_cell_angle_alpha 19.774177
_cell_angle_beta 109.928129
_cell_angle_gamma 101.693493
_cell_volume 571.687224
_symmetry_space_group_name_H-M "P -1"
_symmetry_group_IT_number 2
_symmetry_cell_setting 'triclinic'
loop_
_space_group_symop_operation_xyz
x,y,z
-x,-y,-z
loop_
_atom_site_type_symbol
_atom_site_label
_atom_site_fract_x
_atom_site_fract_y
_atom_site_fract_z
Si Si1 0.513660 0.532728 0.567404
Si Si2 0.093779 0.690187 0.760566
Si Si3 0.016793 0.465202 0.809756
Si Si4 0.738176 0.003732 0.756769
Si Si5 0.805745 0.219534 0.714449
Si Si6 0.617676 0.742165 0.547127
Si Si7 0.641062 0.793640 0.891015
O O1 0.500000 0.500000 0.500000
O O2 0.288835 0.696440 0.322088
O O3 0.745235 0.571736 0.570841
O O4 0.514191 0.337738 0.923029
O O5 0.193202 0.856498 0.523287
O O6 0.866717 0.760178 0.541212
O O7 0.294679 0.491093 0.068237
O O8 0.994662 0.639897 0.925495
O O9 0.148461 0.614352 0.600878
O O10 0.142323 0.317168 0.972624
O O11 0.500010 0.134260 0.567824
O O12 0.717628 0.831691 0.955655
O O13 0.940734 0.937706 0.977064
O O14 0.586253 0.187148 0.679049
O O15 0.500000 0.000000 0.500000
#
# Coordination Sequence:
#
# PCOD9060331 Si02
#       7
#     2   2   2   2   2   2   2
#     4  11  23  43  69  95 135 178 221 268 332 403
#     4  11  26  44  72  99 128 183 229 272 330 399
#     4  11  24  44  70  97 133 180 220 274 334 396
#     4  12  26  44  68 103 138 173 223 282 331 394
#     4  11  26  44  69 101 137 176 220 278 338 394
#     4  11  26  46  68  98 137 178 225 273 337 398
#     4  11  25  42  67 101 136 173 222 278 333 390
#
# _framework density 24.488918000000002
#
# number of rings (size 3 to 8) (size 9 to 14) (size 15 to 20)
#    0.000    0.857    1.429    4.286    8.000    9.714 
#    0.000    0.000    0.000    0.000    0.000    0.000 
#    0.000    0.000    0.000    0.000    0.000    0.000 
#
# Total GULP energy -78380.493298 kJ/mol
# GULP energy per Si atom -5598.606664 kJ/mol
# Density = 2.443318 g / cm^3
# Si number density = 24.488918 Si / 1000 Ang^3
#
#
#
# Elastic Constant Matrix: (Units=GPa)
#
#
# Indices 1 2 3 4 5 6 
#
# 1 84.3472 27.8878 30.2710 -13.8073 25.7164 -14.2518
# 2 27.8878 93.4787 8.0660 1.8225 16.1371 -10.4007
# 3 30.2710 8.0660 74.6692 -0.1028 28.9817 -11.0258
# 4 -13.8073 1.8225 -0.1028 34.2929 8.1656 9.0036
# 5 25.7164 16.1371 28.9817 8.1656 46.3658 0.4683
# 6 -14.2518 -10.4007 -11.0258 9.0036 0.4683 49.2880
#
#
#
# Elastic Compliance Matrix: (Units=1/GPa)
#
#
# Indices 1 2 3 4 5 6 
#
# 1 0.018902 -0.003777 -0.003576 0.009252 -0.008586 0.002260
# 2 -0.003777 0.012489 0.001668 -0.002088 -0.002950 0.002326
# 3 -0.003576 0.001668 0.019398 0.000115 -0.010781 0.003739
# 4 0.009252 -0.002088 0.000115 0.036734 -0.010902 -0.004346
# 5 -0.008586 -0.002950 -0.010781 -0.010902 0.036054 -0.003868
# 6 0.002260 0.002326 0.003739 -0.004346 -0.003868 0.023100
#
#
# Mechanical properties :
#
#
# Convention : Reuss Voigt Hill
#
# Bulk Modulus (GPa) = 25.36826 42.77163 34.06994
# Shear Modulus (GPa) = 29.20749 38.40735 33.80742
#
# Velocity S-wave (km/s) = 3.45727 3.96454 3.71956
# Velocity P-wave (km/s) = 5.13016 6.20165 5.69118
#
# Compressibility (1/GPa) = 0.03941934
#
# Stress axis : x y z
#
# Youngs Moduli (GPa) = 52.90404 80.06833 51.55059
#
# Poissons Ratio (x) = 0.30244 0.18433
# Poissons Ratio (y) = 0.19983 -0.08597
# Poissons Ratio (z) = 0.18917 -0.13353
#
# Static dielectric constant tensor:
#      x y z
#    x 1.884860 -0.010470 -0.005340 
#    y -0.010470 2.024320 0.031970 
#    z -0.005340 0.031970 1.931060 
# 
# From -- ./inp_files/36550.got.cif
#   From: 2010.05.17/outbox.cif.g08.bks.cpg/sg2_19_cif.got.tgz:36550.got - 2010.06.03 11:33:40.
