data_PCOD9060503
_publ_section_title
;
Structure prediction by ZEFSAII (Michael W. Deem and Ramdas Pophale) SiO2 
 PCOD9060503
Probable space group: P -1
;
_chemical_formula_sum "Si O2"
_cell_formula_units_Z 15
_cell_length_a 13.214050
_cell_length_b 8.732113
_cell_length_c 20.420145
_cell_angle_alpha 41.463717
_cell_angle_beta 24.108006
_cell_angle_gamma 41.178447
_cell_volume 616.386965
_symmetry_space_group_name_H-M "P -1"
_symmetry_group_IT_number 2
_symmetry_cell_setting 'triclinic'
loop_
_space_group_symop_operation_xyz
x,y,z
-x,-y,-z
loop_
_atom_site_type_symbol
_atom_site_label
_atom_site_fract_x
_atom_site_fract_y
_atom_site_fract_z
Si Si1 0.532133 0.189704 0.472252
Si Si2 0.143735 0.656104 0.588625
Si Si3 0.377960 0.888458 0.755696
Si Si4 0.500000 0.000000 0.000000
Si Si5 0.245493 0.615215 0.325302
Si Si6 0.670768 0.049459 0.714354
Si Si7 0.838287 0.933835 0.035448
Si Si8 0.030687 0.608460 0.820410
O O1 0.289443 0.415279 0.544513
O O2 0.782695 0.280161 0.281867
O O3 0.500000 0.000000 0.500000
O O4 0.551892 0.055588 0.573385
O O5 0.289430 0.847899 0.413046
O O6 0.144452 0.601294 0.682149
O O7 0.851617 0.786154 0.701036
O O8 0.518791 0.620123 0.739418
O O9 0.304794 0.911978 0.867929
O O10 0.105507 0.994712 0.846007
O O11 0.300267 0.812032 0.179206
O O12 0.254644 0.229788 0.065174
O O13 0.244312 0.772542 0.341788
O O14 0.000000 0.500000 0.500000
O O15 0.376486 0.049126 0.898428
O O16 0.931548 0.660162 0.091664
#
# Coordination Sequence:
#
# PCOD9060503 Si02
#       8
#     2   2   2   1   2   2   2   2
#     4  12  25  43  69 106 139 181 239 300 354 429
#     4  11  23  43  72 100 137 187 241 290 361 429
#     4  11  25  43  70 102 140 185 239 294 359 433
#     4  12  26  48  72 106 144 194 238 296 366 426
#     4  12  27  46  74 107 149 190 242 299 363 431
#     4  11  25  44  71 109 138 190 240 296 365 428
#     4  11  24  46  73  99 140 188 235 295 360 431
#     4  12  23  48  73  98 140 193 237 283 369 438
#
# _framework density 24.335360999999999
#
# number of rings (size 3 to 8) (size 9 to 14) (size 15 to 20)
#    0.000    0.533    5.333    2.800    3.733    1.600 
#    0.000    0.667    0.000    0.000    0.000    0.000 
#    0.000    0.000    0.000    0.000    0.000    0.000 
#
# Total GULP energy -83642.221146 kJ/mol
# GULP energy per Si atom -5576.148076 kJ/mol
# Density = 2.427997 g / cm^3
# Si number density = 24.335361 Si / 1000 Ang^3
#
#
#
# Elastic Constant Matrix: (Units=GPa)
#
#
# Indices 1 2 3 4 5 6 
#
# 1 50.0668 22.7943 18.0915 8.9277 -13.1236 23.1006
# 2 22.7943 147.1452 26.3671 27.2271 -21.9638 -6.4185
# 3 18.0915 26.3671 113.9270 -0.6258 -34.3778 9.3281
# 4 8.9277 27.2271 -0.6258 46.5389 -3.9077 6.8442
# 5 -13.1236 -21.9638 -34.3778 -3.9077 39.1570 -9.7943
# 6 23.1006 -6.4185 9.3281 6.8442 -9.7943 29.4993
#
#
#
# Elastic Compliance Matrix: (Units=1/GPa)
#
#
# Indices 1 2 3 4 5 6 
#
# 1 0.037987 -0.007284 -0.002019 0.001483 -0.000810 -0.031306
# 2 -0.007284 0.010375 -0.000690 -0.005911 0.004985 0.011206
# 3 -0.002019 -0.000690 0.012237 0.001723 0.009970 0.000472
# 4 0.001483 -0.005911 0.001723 0.025973 -0.001057 -0.009370
# 5 -0.000810 0.004985 0.009970 -0.001057 0.039711 0.011996
# 6 -0.031306 0.011206 0.000472 -0.009370 0.011996 0.066860
#
#
# Mechanical properties :
#
#
# Convention : Reuss Voigt Hill
#
# Bulk Modulus (GPa) = 24.62295 49.51609 37.06952
# Shear Modulus (GPa) = 22.05874 39.29811 30.67843
#
# Velocity S-wave (km/s) = 3.01399 4.02289 3.55442
# Velocity P-wave (km/s) = 4.71724 6.47840 5.66666
#
# Compressibility (1/GPa) = 0.04061253
#
# Stress axis : x y z
#
# Youngs Moduli (GPa) = 26.32485 96.38869 81.71828
#
# Poissons Ratio (x) = 0.70205 0.16503
# Poissons Ratio (y) = 0.19174 0.05640
# Poissons Ratio (z) = 0.05316 0.06652
#
# Static dielectric constant tensor:
#      x y z
#    x 2.025340 0.018100 0.042050 
#    y 0.018100 1.851460 0.005570 
#    z 0.042050 0.005570 1.982330 
# 
# From -- ./inp_files/611593.got.cif
#   From: 2010.05.17/outbox.cif.g08.bks.cpg/sg2_306_cif.got.tgz:611593.got - 2010.06.03 11:33:40.
