data_PCOD9060549
_publ_section_title
;
Structure prediction by ZEFSAII (Michael W. Deem and Ramdas Pophale) SiO2 
 PCOD9060549
Probable space group: P -1
;
_chemical_formula_sum "Si O2"
_cell_formula_units_Z 16
_cell_length_a 11.481961
_cell_length_b 9.619512
_cell_length_c 14.794582
_cell_angle_alpha 80.389487
_cell_angle_beta 30.070780
_cell_angle_gamma 68.064333
_cell_volume 715.255025
_symmetry_space_group_name_H-M "P -1"
_symmetry_group_IT_number 2
_symmetry_cell_setting 'triclinic'
loop_
_space_group_symop_operation_xyz
x,y,z
-x,-y,-z
loop_
_atom_site_type_symbol
_atom_site_label
_atom_site_fract_x
_atom_site_fract_y
_atom_site_fract_z
Si Si1 0.721551 0.021346 0.901894
Si Si2 0.565251 0.643938 0.463142
Si Si3 0.026062 0.615069 0.044987
Si Si4 0.266975 0.668497 0.168258
Si Si5 0.638681 0.456234 0.686648
Si Si6 0.680600 0.737056 0.562426
Si Si7 0.337135 0.076495 0.851340
Si Si8 0.741124 0.184904 0.519659
O O1 0.970653 0.949584 0.676176
O O2 0.656788 0.202700 0.937479
O O3 0.766430 0.940336 0.979148
O O4 0.500000 0.000000 0.000000
O O5 0.500000 0.500000 0.500000
O O6 0.859690 0.600200 0.241104
O O7 0.534502 0.706291 0.578342
O O8 0.389739 0.778647 0.495342
O O9 0.888785 0.791800 0.074521
O O10 0.000000 0.500000 0.000000
O O11 0.324109 0.551107 0.879666
O O12 0.276345 0.656630 0.271799
O O13 0.963294 0.718714 0.344251
O O14 0.500000 0.500000 0.000000
O O15 0.734427 0.589813 0.608113
O O16 0.740738 0.341417 0.543716
O O17 0.495499 0.905860 0.714386
O O18 0.553852 0.139621 0.710365
#
# Coordination Sequence:
#
# PCOD9060549 Si02
#       8
#     2   2   2   2   2   2   2   2
#     4  12  29  46  79 106 147 200 249 300 360 443
#     4  11  23  43  74 106 142 190 248 295 375 438
#     4  11  23  43  72 108 147 187 246 307 359 438
#     4  12  28  49  70 109 150 194 248 299 371 446
#     4  12  25  45  76 103 148 200 241 301 369 440
#     4  12  26  47  73 107 152 194 237 314 374 433
#     4  11  26  48  71 111 151 187 245 307 376 424
#     4  11  25  46  73 110 145 188 248 306 355 445
#
# _framework density 22.369643
#
# number of rings (size 3 to 8) (size 9 to 14) (size 15 to 20)
#    0.000    0.500    5.000    2.625    7.000    3.500 
#    2.250    0.000    0.000    0.000    0.000    0.000 
#    0.000    0.000    0.000    0.000    0.000    0.000 
#
# Total GULP energy -89511.868448 kJ/mol
# GULP energy per Si atom -5594.491778 kJ/mol
# Density = 2.231873 g / cm^3
# Si number density = 22.369643 Si / 1000 Ang^3
#
#
#
# Elastic Constant Matrix: (Units=GPa)
#
#
# Indices 1 2 3 4 5 6 
#
# 1 82.7659 13.6017 2.9766 -2.1849 1.0560 0.0849
# 2 13.6017 123.7794 19.8534 -2.9705 -5.3921 3.5531
# 3 2.9766 19.8534 62.9680 3.4284 -4.2179 3.1243
# 4 -2.1849 -2.9705 3.4284 45.9224 -0.7975 7.0395
# 5 1.0560 -5.3921 -4.2179 -0.7975 27.5347 -7.9164
# 6 0.0849 3.5531 3.1243 7.0395 -7.9164 27.5637
#
#
#
# Elastic Compliance Matrix: (Units=1/GPa)
#
#
# Indices 1 2 3 4 5 6 
#
# 1 0.012335 -0.001334 -0.000236 0.000536 -0.000815 -0.000210
# 2 -0.001334 0.008738 -0.002623 0.000825 0.001184 -0.000695
# 3 -0.000236 -0.002623 0.016950 -0.001304 0.001847 -0.000719
# 4 0.000536 0.000825 -0.001304 0.022872 -0.001160 -0.006135
# 5 -0.000815 0.001184 0.001847 -0.001160 0.040126 0.011461
# 6 -0.000210 -0.000695 -0.000719 -0.006135 0.011461 0.041310
#
#
# Mechanical properties :
#
#
# Convention : Reuss Voigt Hill
#
# Bulk Modulus (GPa) = 33.74255 38.04185 35.89220
# Shear Modulus (GPa) = 31.13441 35.74295 33.43868
#
# Velocity S-wave (km/s) = 3.73475 4.00163 3.87049
# Velocity P-wave (km/s) = 5.80643 6.19626 6.00451
#
# Compressibility (1/GPa) = 0.02963617
#
# Stress axis : x y z
#
# Youngs Moduli (GPa) = 81.07155 114.44868 58.99838
#
# Poissons Ratio (x) = 0.15270 0.01391
# Poissons Ratio (y) = 0.10817 0.15475
# Poissons Ratio (z) = 0.01912 0.30019
#
# Static dielectric constant tensor:
#      x y z
#    x 1.857520 -0.053890 0.053870 
#    y -0.053890 1.994810 -0.143220 
#    z 0.053870 -0.143220 1.952030 
# 
# From -- ./inp_files/515488.got.cif
#   From: 2010.05.17/outbox.cif.g08.bks.cpg/sg2_258_cif.got.tgz:515488.got - 2010.06.03 11:33:40.
