data_PCOD9060003
_publ_section_title
;
Structure prediction by ZEFSAII (Michael W. Deem and Ramdas Pophale) SiO2 
 PCOD9060003
Probable space group: P -1
;
_chemical_formula_sum "Si O2"
_cell_formula_units_Z 12
_cell_length_a 9.429435
_cell_length_b 8.393449
_cell_length_c 9.647595
_cell_angle_alpha 106.621653
_cell_angle_beta 132.316747
_cell_angle_gamma 96.256130
_cell_volume 489.569616
_symmetry_space_group_name_H-M "P -1"
_symmetry_group_IT_number 2
_symmetry_cell_setting 'triclinic'
loop_
_space_group_symop_operation_xyz
x,y,z
-x,-y,-z
loop_
_atom_site_type_symbol
_atom_site_label
_atom_site_fract_x
_atom_site_fract_y
_atom_site_fract_z
Si Si1 0.410950 0.791323 0.336780
Si Si2 0.938120 0.277354 0.695707
Si Si3 0.160872 0.151199 0.040080
Si Si4 0.395177 0.774882 0.733022
Si Si5 0.203428 0.686910 0.878497
Si Si6 0.250850 0.364926 0.416760
O O1 0.210335 0.684727 0.278819
O O2 0.598680 0.727091 0.455054
O O3 0.500000 0.000000 0.500000
O O4 0.319983 0.765120 0.117416
O O5 0.769364 0.164589 0.438367
O O6 0.104253 0.464732 0.781237
O O7 0.052300 0.179949 0.837430
O O8 0.362562 0.116372 0.122903
O O9 0.243542 0.333084 0.237717
O O10 0.000000 0.000000 0.000000
O O11 0.354741 0.756375 0.864212
O O12 0.334493 0.568950 0.583396
O O13 0.996247 0.724385 0.725387
#
# Coordination Sequence:
#
# PCOD9060003 Si02
#       6
#     2   2   2   2   2   2
#     4  12  25  42  72 106 141 192 242 287 352 432
#     4  11  23  42  73 102 137 189 241 288 347 425
#     4  12  25  42  72 106 141 192 242 287 352 432
#     4  11  26  45  71 109 145 180 237 304 357 414
#     4  11  26  45  71 109 145 180 237 304 357 414
#     4  11  23  42  73 102 137 189 241 288 347 425
#
# _framework density 24.511327999999999
#
# number of rings (size 3 to 8) (size 9 to 14) (size 15 to 20)
#    0.000    0.667    3.333    5.000    4.667    4.000 
#    0.000    5.000    0.000   10.000    0.000    0.000 
#    0.000    0.000    0.000    0.000    0.000    0.000 
#
# Total GULP energy -67239.155130 kJ/mol
# GULP energy per Si atom -5603.262928 kJ/mol
# Density = 2.445554 g / cm^3
# Si number density = 24.511328 Si / 1000 Ang^3
#
#
#
# Elastic Constant Matrix: (Units=GPa)
#
#
# Indices 1 2 3 4 5 6 
#
# 1 96.4800 14.0742 38.6857 -9.7397 2.4605 48.4613
# 2 14.0742 72.4681 27.9821 -21.5131 16.7490 8.2450
# 3 38.6857 27.9821 133.2454 -28.8890 14.5150 15.5652
# 4 -9.7397 -21.5131 -28.8890 43.8654 -0.0281 0.4537
# 5 2.4605 16.7490 14.5150 -0.0281 48.9600 -10.9510
# 6 48.4613 8.2450 15.5652 0.4537 -10.9510 44.0301
#
#
#
# Elastic Compliance Matrix: (Units=1/GPa)
#
#
# Indices 1 2 3 4 5 6 
#
# 1 0.028867 0.003438 -0.002672 0.006680 -0.009409 -0.033880
# 2 0.003438 0.019455 -0.000930 0.009783 -0.008638 -0.009347
# 3 -0.002672 -0.000930 0.010154 0.005649 -0.002831 -0.001237
# 4 0.006680 0.009783 0.005649 0.032934 -0.008381 -0.013605
# 5 -0.009409 -0.008638 -0.002831 -0.008381 0.029235 0.020332
# 6 -0.033880 -0.009347 -0.001237 -0.013605 0.020332 0.067386
#
#
# Mechanical properties :
#
#
# Convention : Reuss Voigt Hill
#
# Bulk Modulus (GPa) = 17.19768 51.51972 34.35870
# Shear Modulus (GPa) = 24.06856 42.13454 33.10155
#
# Velocity S-wave (km/s) = 3.13699 4.15056 3.67885
# Velocity P-wave (km/s) = 4.48914 6.63580 5.66508
#
# Compressibility (1/GPa) = 0.05814737
#
# Stress axis : x y z
#
# Youngs Moduli (GPa) = 34.64185 51.40158 98.48766
#
# Poissons Ratio (x) = -0.17671 0.26315
# Poissons Ratio (y) = -0.11909 0.09156
# Poissons Ratio (z) = 0.09256 0.04779
#
# Static dielectric constant tensor:
#      x y z
#    x 1.901810 -0.001440 0.028600 
#    y -0.001440 2.080230 0.066660 
#    z 0.028600 0.066660 1.974900 
# 
# From -- ./inp_files/151612.got.cif
#   From: 2010.05.17/outbox.cif.g08.bks.cpg/sg2_76_cif.got.tgz:151612.got - 2010.06.03 11:33:40.
