data_PCOD9060667
_publ_section_title
;
Structure prediction by ZEFSAII (Michael W. Deem and Ramdas Pophale) SiO2 
 PCOD9060667
Probable space group: P -1
;
_chemical_formula_sum "Si O2"
_cell_formula_units_Z 15
_cell_length_a 15.029791
_cell_length_b 5.509834
_cell_length_c 14.804338
_cell_angle_alpha 91.011521
_cell_angle_beta 31.053614
_cell_angle_gamma 82.887298
_cell_volume 608.929453
_symmetry_space_group_name_H-M "P -1"
_symmetry_group_IT_number 2
_symmetry_cell_setting 'triclinic'
loop_
_space_group_symop_operation_xyz
x,y,z
-x,-y,-z
loop_
_atom_site_type_symbol
_atom_site_label
_atom_site_fract_x
_atom_site_fract_y
_atom_site_fract_z
Si Si1 0.644616 0.245931 0.339931
Si Si2 0.252886 0.746379 0.936416
Si Si3 0.731547 0.888481 0.933786
Si Si4 0.185578 0.391212 0.386402
Si Si5 0.659825 0.935611 0.488453
Si Si6 0.500000 0.000000 0.000000
Si Si7 0.569681 0.305960 0.737900
Si Si8 0.039982 0.405253 0.690172
O O1 0.500000 0.500000 0.500000
O O2 0.772346 0.284591 0.148131
O O3 0.735299 0.082491 0.345199
O O4 0.526583 0.090291 0.388309
O O5 0.431041 0.539468 0.811300
O O6 0.094295 0.704614 0.135612
O O7 0.275315 0.007309 0.958317
O O8 0.918342 0.678483 0.767158
O O9 0.549219 0.787685 0.081474
O O10 0.666218 0.095588 0.915423
O O11 0.336891 0.213509 0.193249
O O12 0.273340 0.600174 0.353737
O O13 0.120074 0.261311 0.528874
O O14 0.000000 0.500000 0.500000
O O15 0.630275 0.105685 0.604186
O O16 0.784776 0.655786 0.399206
#
# Coordination Sequence:
#
# PCOD9060667 Si02
#       8
#     2   2   2   2   2   1   2   2
#     4  11  23  43  75 106 142 188 248 299 363 437
#     4  11  23  45  72 103 144 196 236 298 369 434
#     4  11  24  45  70 103 144 195 243 297 376 430
#     4  12  26  47  74 111 142 191 251 302 366 436
#     4  11  24  42  71 111 138 189 244 299 361 437
#     4  12  24  46  74 100 146 188 244 316 354 436
#     4  11  23  44  76  98 146 192 236 298 363 433
#     4  11  27  43  69 106 148 190 240 298 366 443
#
# _framework density 24.633396000000001
#
# number of rings (size 3 to 8) (size 9 to 14) (size 15 to 20)
#    0.000    0.800    5.333    1.600    1.867    2.133 
#    0.000    3.333    0.000    0.000    0.000    0.000 
#    0.000    0.000    0.000    0.000    0.000    0.000 
#
# Total GULP energy -83579.442988 kJ/mol
# GULP energy per Si atom -5571.962866 kJ/mol
# Density = 2.457733 g / cm^3
# Si number density = 24.633396 Si / 1000 Ang^3
#
#
#
# Elastic Constant Matrix: (Units=GPa)
#
#
# Indices 1 2 3 4 5 6 
#
# 1 61.3935 5.2970 86.6213 48.5795 9.7778 -21.4478
# 2 5.2970 36.4155 55.7503 32.8412 3.1704 -3.5912
# 3 86.6213 55.7503 159.6267 5.5411 14.6484 13.3368
# 4 48.5795 32.8412 5.5411 35.7031 -9.6522 5.0892
# 5 9.7778 3.1704 14.6484 -9.6522 52.5900 18.2905
# 6 -21.4478 -3.5912 13.3368 5.0892 18.2905 34.9467
#
#
#
# Elastic Compliance Matrix: (Units=1/GPa)
#
#
# Indices 1 2 3 4 5 6 
#
# 1 0.003295 -0.015222 0.003242 0.010208 0.002523 -0.003586
# 2 -0.015222 0.018772 0.001902 0.006811 0.006839 -0.012711
# 3 0.003242 0.001902 0.004237 -0.008840 -0.005092 0.004521
# 4 0.010208 0.006811 -0.008840 0.007156 -0.002159 0.010427
# 5 0.002523 0.006839 -0.005092 -0.002159 0.021501 -0.006744
# 6 -0.003586 -0.012711 0.004521 0.010427 -0.006744 0.025394
#
#
# Mechanical properties :
#
#
# Convention : Reuss Voigt Hill
#
# Bulk Modulus (GPa) = 162.64416 61.41923 112.03170
# Shear Modulus (GPa) = 48.75088 31.96575 40.35832
#
# Velocity S-wave (km/s) = 4.45349 3.60621 4.05205
# Velocity P-wave (km/s) = 9.62361 6.50593 8.21404
#
# Compressibility (1/GPa) = 0.00614839
#
# Stress axis : x y z
#
# Youngs Moduli (GPa) = 303.45890 53.27116 235.98822
#
# Poissons Ratio (x) = 0.81091 -0.76507
# Poissons Ratio (y) = 4.61933 -0.44888
# Poissons Ratio (z) = -0.98381 -0.10133
#
# Static dielectric constant tensor:
#      x y z
#    x 1.715350 0.262000 -0.101320 
#    y 0.262000 1.793650 0.000100 
#    z -0.101320 0.000100 1.964170 
# 
# From -- ./inp_files/105879.got.cif
#   From: 2010.05.17/outbox.cif.g08.bks.cpg/sg2_53_cif.got.tgz:105879.got - 2010.06.03 11:33:40.
