data_PCOD9060095
_publ_section_title
;
Structure prediction by ZEFSAII (Michael W. Deem and Ramdas Pophale) SiO2 
 PCOD9060095
Probable space group: P -1
;
_chemical_formula_sum "Si O2"
_cell_formula_units_Z 12
_cell_length_a 6.190362
_cell_length_b 17.452781
_cell_length_c 15.995904
_cell_angle_alpha 24.254162
_cell_angle_beta 89.296201
_cell_angle_gamma 72.603015
_cell_volume 506.492899
_symmetry_space_group_name_H-M "P -1"
_symmetry_group_IT_number 2
_symmetry_cell_setting 'triclinic'
loop_
_space_group_symop_operation_xyz
x,y,z
-x,-y,-z
loop_
_atom_site_type_symbol
_atom_site_label
_atom_site_fract_x
_atom_site_fract_y
_atom_site_fract_z
Si Si1 0.354915 0.156328 0.569344
Si Si2 0.189353 0.156496 0.390270
Si Si3 0.761580 0.070131 0.069827
Si Si4 0.249680 0.685675 0.887212
Si Si5 0.224045 0.528129 0.510904
Si Si6 0.929984 0.297807 0.950605
O O1 0.204890 0.248378 0.387000
O O2 0.196170 0.424183 0.350094
O O3 0.264934 0.026418 0.747843
O O4 0.722468 0.935295 0.787399
O O5 0.982180 0.315773 0.152650
O O6 0.500000 0.000000 0.500000
O O7 0.151078 0.961209 0.609269
O O8 0.430245 0.291833 0.811597
O O9 0.890420 0.190724 0.977550
O O10 0.988096 0.820196 0.258554
O O11 0.500000 0.500000 0.000000
O O12 0.285792 0.622154 0.047902
O O13 0.500000 0.500000 0.500000
O O14 0.000000 0.500000 0.500000
#
# Coordination Sequence:
#
# PCOD9060095 Si02
#       6
#     2   2   2   2   2   2
#     4  12  27  45  77 107 153 204 262 313 396 447
#     4  11  23  43  62 100 142 203 258 319 374 445
#     4  12  28  52  82 115 162 196 256 320 391 483
#     4  11  25  40  67  97 148 197 267 322 380 443
#     4  12  30  55  89 124 161 207 255 322 406 494
#     4  12  27  46  73 112 150 203 257 326 382 458
#
# _framework density 23.692339
#
# number of rings (size 3 to 8) (size 9 to 14) (size 15 to 20)
#    0.000    0.333    3.333    4.000   11.667    2.667 
#    0.000    0.000    0.000    0.000    0.000    0.000 
#    0.000    0.000    0.000    0.000    0.000    0.000 
#
# Total GULP energy -66899.549966 kJ/mol
# GULP energy per Si atom -5574.962497 kJ/mol
# Density = 2.363841 g / cm^3
# Si number density = 23.692339 Si / 1000 Ang^3
#
#
#
# Elastic Constant Matrix: (Units=GPa)
#
#
# Indices 1 2 3 4 5 6 
#
# 1 90.6980 37.8487 17.6897 -10.1739 9.5810 20.3414
# 2 37.8487 89.6541 24.9241 -28.5736 4.6749 29.3554
# 3 17.6897 24.9241 112.5464 -14.0799 2.4021 19.4100
# 4 -10.1739 -28.5736 -14.0799 49.1638 -0.4840 -10.7736
# 5 9.5810 4.6749 2.4021 -0.4840 44.6008 -2.4131
# 6 20.3414 29.3554 19.4100 -10.7736 -2.4131 42.9541
#
#
#
# Elastic Compliance Matrix: (Units=1/GPa)
#
#
# Indices 1 2 3 4 5 6 
#
# 1 0.014110 -0.004757 -0.000602 -0.000814 -0.002699 -0.003514
# 2 -0.004757 0.018651 -0.000974 0.007773 -0.001238 -0.008173
# 3 -0.000602 -0.000974 0.009939 0.001449 -0.000461 -0.003203
# 4 -0.000814 0.007773 0.001449 0.025261 -0.000404 0.000731
# 5 -0.002699 -0.001238 -0.000461 -0.000404 0.023343 0.003543
# 6 -0.003514 -0.008173 -0.003203 0.000731 0.003543 0.032361
#
#
# Mechanical properties :
#
#
# Convention : Reuss Voigt Hill
#
# Bulk Modulus (GPa) = 33.29690 50.42484 41.86087
# Shear Modulus (GPa) = 34.16603 41.50614 37.83609
#
# Velocity S-wave (km/s) = 3.80158 4.19009 4.00055
# Velocity P-wave (km/s) = 5.77527 6.68868 6.24869
#
# Compressibility (1/GPa) = 0.03003282
#
# Stress axis : x y z
#
# Youngs Moduli (GPa) = 70.86978 53.61514 100.61238
#
# Poissons Ratio (x) = 0.25507 0.06061
# Poissons Ratio (y) = 0.33716 0.09802
# Poissons Ratio (z) = 0.04269 0.05223
#
# Static dielectric constant tensor:
#      x y z
#    x 1.949250 -0.026570 -0.045800 
#    y -0.026570 1.952380 0.011050 
#    z -0.045800 0.011050 1.901350 
# 
# From -- ./inp_files/4647.got.cif
#   From: 2010.05.17/outbox.cif.g08.bks.cpg/sg2_3_cif.got.tgz:4647.got - 2010.06.03 11:33:40.
