data_PCOD9060613
_publ_section_title
;
Structure prediction by ZEFSAII (Michael W. Deem and Ramdas Pophale) SiO2 
 PCOD9060613
Probable space group: P -1
;
_chemical_formula_sum "Si O2"
_cell_formula_units_Z 16
_cell_length_a 11.517746
_cell_length_b 11.676655
_cell_length_c 5.347934
_cell_angle_alpha 92.085785
_cell_angle_beta 117.743945
_cell_angle_gamma 101.563928
_cell_volume 616.612214
_symmetry_space_group_name_H-M "P -1"
_symmetry_group_IT_number 2
_symmetry_cell_setting 'triclinic'
loop_
_space_group_symop_operation_xyz
x,y,z
-x,-y,-z
loop_
_atom_site_type_symbol
_atom_site_label
_atom_site_fract_x
_atom_site_fract_y
_atom_site_fract_z
Si Si1 0.096045 0.448478 0.270080
Si Si2 0.616195 0.430538 0.581549
Si Si3 0.336478 0.769183 0.031075
Si Si4 0.143594 0.223369 0.834949
Si Si5 0.918423 0.328666 0.462365
Si Si6 0.883026 0.913890 0.707628
Si Si7 0.654404 0.999676 0.689780
Si Si8 0.574594 0.775041 0.950406
O O1 0.248784 0.468071 0.337346
O O2 0.117860 0.547087 0.521201
O O3 0.998806 0.333319 0.282346
O O4 0.000000 0.500000 0.000000
O O5 0.500000 0.500000 0.500000
O O6 0.666314 0.354409 0.844150
O O7 0.541502 0.323860 0.312285
O O8 0.289664 0.865493 0.158355
O O9 0.228751 0.757331 0.697879
O O10 0.491828 0.809033 0.101606
O O11 0.089516 0.125334 0.550015
O O12 0.031371 0.297979 0.747855
O O13 0.159783 0.189834 0.137153
O O14 0.294916 0.278639 0.883997
O O15 0.754464 0.971888 0.578400
O O16 0.000000 0.000000 0.000000
O O17 0.500000 0.000000 0.500000
O O18 0.638357 0.895597 0.873123
#
# Coordination Sequence:
#
# PCOD9060613 Si02
#       8
#     2   2   2   2   2   2   2   2
#     4  11  25  46  68 101 142 186 253 315 378 440
#     4  12  28  45  74 108 145 194 247 320 379 452
#     4  12  24  46  71 108 143 194 249 300 381 445
#     4  11  27  44  74 106 148 199 242 308 381 439
#     4  11  26  44  72 104 140 196 249 313 374 450
#     4  11  25  46  69 109 148 192 251 305 368 446
#     4  11  23  43  74 103 145 195 241 300 367 445
#     4  11  26  46  69 108 153 191 250 302 375 457
#
# _framework density 25.948236999999999
#
# number of rings (size 3 to 8) (size 9 to 14) (size 15 to 20)
#    0.000    0.750    3.750    2.250    7.000    4.500 
#    0.000    0.000    0.000    0.000    0.000    0.000 
#    0.000    0.000    0.000    0.000    0.000    0.000 
#
# Total GULP energy -89197.411718 kJ/mol
# GULP energy per Si atom -5574.838232 kJ/mol
# Density = 2.588918 g / cm^3
# Si number density = 25.948237 Si / 1000 Ang^3
#
#
#
# Elastic Constant Matrix: (Units=GPa)
#
#
# Indices 1 2 3 4 5 6 
#
# 1 143.0835 38.4742 15.3287 8.2096 29.1302 -23.1619
# 2 38.4742 75.8977 4.0116 -7.0103 -1.1772 -18.3787
# 3 15.3287 4.0116 74.4399 10.2217 20.5863 3.6433
# 4 8.2096 -7.0103 10.2217 28.5169 1.7455 3.1736
# 5 29.1302 -1.1772 20.5863 1.7455 61.8318 8.0061
# 6 -23.1619 -18.3787 3.6433 3.1736 8.0061 39.1857
#
#
#
# Elastic Compliance Matrix: (Units=1/GPa)
#
#
# Indices 1 2 3 4 5 6 
#
# 1 0.010496 -0.004448 -0.000041 -0.004382 -0.005620 0.005624
# 2 -0.004448 0.017185 -0.001590 0.005419 0.002192 0.004692
# 3 -0.000041 -0.001590 0.015716 -0.005623 -0.004987 -0.000757
# 4 -0.004382 0.005419 -0.005623 0.039853 0.003360 -0.003440
# 5 -0.005620 0.002192 -0.004987 0.003360 0.021263 -0.006447
# 6 0.005624 0.004692 -0.000757 -0.003440 -0.006447 0.032711
#
#
# Mechanical properties :
#
#
# Convention : Reuss Voigt Hill
#
# Bulk Modulus (GPa) = 32.01139 45.45001 38.73070
# Shear Modulus (GPa) = 31.29018 41.61398 36.45208
#
# Velocity S-wave (km/s) = 3.47633 4.00900 3.75213
# Velocity P-wave (km/s) = 5.33634 6.24365 5.80774
#
# Compressibility (1/GPa) = 0.03123888
#
# Stress axis : x y z
#
# Youngs Moduli (GPa) = 95.27858 58.18936 63.62947
#
# Poissons Ratio (x) = 0.25884 0.00259
# Poissons Ratio (y) = 0.42382 0.10117
# Poissons Ratio (z) = 0.00388 0.09252
#
# Static dielectric constant tensor:
#      x y z
#    x 2.034320 0.086240 -0.014370 
#    y 0.086240 1.953780 0.101830 
#    z -0.014370 0.101830 2.196010 
# 
# From -- ./inp_files/70886.got.cif
#   From: 2010.05.17/outbox.cif.g08.bks.cpg/sg2_36_cif.got.tgz:70886.got - 2010.06.03 11:33:40.
