data_PCOD9060692
_publ_section_title
;
Structure prediction by ZEFSAII (Michael W. Deem and Ramdas Pophale) SiO2 
 PCOD9060692
Probable space group: P -1
;
_chemical_formula_sum "Si O2"
_cell_formula_units_Z 14
_cell_length_a 5.158442
_cell_length_b 24.435225
_cell_length_c 8.728111
_cell_angle_alpha 146.167828
_cell_angle_beta 72.035761
_cell_angle_gamma 113.498504
_cell_volume 561.170267
_symmetry_space_group_name_H-M "P -1"
_symmetry_group_IT_number 2
_symmetry_cell_setting 'triclinic'
loop_
_space_group_symop_operation_xyz
x,y,z
-x,-y,-z
loop_
_atom_site_type_symbol
_atom_site_label
_atom_site_fract_x
_atom_site_fract_y
_atom_site_fract_z
Si Si1 0.992700 0.738274 0.391854
Si Si2 0.081800 0.556368 0.779533
Si Si3 0.344235 0.147442 0.462762
Si Si4 0.958982 0.357991 0.519170
Si Si5 0.100061 0.946214 0.209681
Si Si6 0.505350 0.193180 0.082753
Si Si7 0.624522 0.707781 0.945433
O O1 0.317753 0.807869 0.497642
O O2 0.953371 0.674722 0.408825
O O3 0.799523 0.813111 0.562555
O O4 0.955775 0.650599 0.064093
O O5 0.416980 0.610173 0.835686
O O6 0.000000 0.500000 0.500000
O O7 0.998641 0.475032 0.742275
O O8 0.241737 0.029285 0.249184
O O9 0.241596 0.204749 0.756724
O O10 0.154036 0.324084 0.277374
O O11 0.639398 0.291743 0.391968
O O12 0.323068 0.887255 0.089630
O O13 0.000000 0.000000 0.500000
O O14 0.823658 0.866819 0.006813
O O15 0.563118 0.241139 0.013352
#
# Coordination Sequence:
#
# PCOD9060692 Si02
#       7
#     2   2   2   2   2   2   2
#     4  11  28  46  71 102 146 186 227 283 355 419
#     4  11  23  43  76 107 137 181 237 290 345 411
#     4  11  25  47  70 103 139 180 237 294 343 409
#     4  12  25  47  68 103 147 188 228 284 351 425
#     4  12  24  40  73 105 138 177 238 294 349 399
#     4  12  24  40  69 105 136 181 230 286 352 403
#     4  11  24  43  74 101 143 179 238 289 349 405
#
# _framework density 24.947863000000002
#
# number of rings (size 3 to 8) (size 9 to 14) (size 15 to 20)
#    0.000    0.571    4.286    3.000    8.000    1.143 
#    0.000    8.571    0.000    0.000    0.000    0.000 
#    0.000    0.000    0.000    0.000    0.000    0.000 
#
# Total GULP energy -78435.977033 kJ/mol
# GULP energy per Si atom -5602.569788 kJ/mol
# Density = 2.489108 g / cm^3
# Si number density = 24.947863 Si / 1000 Ang^3
#
#
#
# Elastic Constant Matrix: (Units=GPa)
#
#
# Indices 1 2 3 4 5 6 
#
# 1 146.8520 51.4154 33.3737 32.3563 -0.4078 -17.9790
# 2 51.4154 150.7667 37.2728 45.0978 1.3267 -13.6232
# 3 33.3737 37.2728 75.6559 25.7448 13.3750 0.3929
# 4 32.3563 45.0978 25.7448 59.8912 -9.3321 0.8484
# 5 -0.4078 1.3267 13.3750 -9.3321 34.0741 1.8137
# 6 -17.9790 -13.6232 0.3929 0.8484 1.8137 46.6768
#
#
#
# Elastic Compliance Matrix: (Units=1/GPa)
#
#
# Indices 1 2 3 4 5 6 
#
# 1 0.008786 -0.001315 -0.002324 -0.002778 0.000144 0.003065
# 2 -0.001315 0.009553 -0.001871 -0.005933 -0.001409 0.002460
# 3 -0.002324 -0.001871 0.019224 -0.007044 -0.009371 -0.001111
# 4 -0.002778 -0.005933 -0.007044 0.027407 0.010663 -0.003655
# 5 0.000144 -0.001409 -0.009371 0.010663 0.036103 -0.001873
# 6 0.003065 0.002460 -0.001111 -0.003655 -0.001873 0.023471
#
#
# Mechanical properties :
#
#
# Convention : Reuss Voigt Hill
#
# Bulk Modulus (GPa) = 37.67433 68.59982 53.13707
# Shear Modulus (GPa) = 34.62338 44.87594 39.74966
#
# Velocity S-wave (km/s) = 3.72940 4.24581 3.99596
# Velocity P-wave (km/s) = 5.80332 7.18282 6.52960
#
# Compressibility (1/GPa) = 0.02654327
#
# Stress axis : x y z
#
# Youngs Moduli (GPa) = 113.81892 104.67654 52.01858
#
# Poissons Ratio (x) = 0.13765 0.12088
# Poissons Ratio (y) = 0.14967 0.09733
# Poissons Ratio (z) = 0.26450 0.19586
#
# Static dielectric constant tensor:
#      x y z
#    x 1.951960 -0.002390 -0.027140 
#    y -0.002390 2.015150 -0.044980 
#    z -0.027140 -0.044980 1.978840 
# 
# From -- ./inp_files/38410.got.cif
#   From: 2010.05.17/outbox.cif.g08.bks.cpg/sg2_20_cif.got.tgz:38410.got - 2010.06.03 11:33:40.
