data_PCOD9060353
_publ_section_title
;
Structure prediction by ZEFSAII (Michael W. Deem and Ramdas Pophale) SiO2 
 PCOD9060353
Probable space group: P -1
;
_chemical_formula_sum "Si O2"
_cell_formula_units_Z 14
_cell_length_a 15.381518
_cell_length_b 14.922134
_cell_length_c 9.339739
_cell_angle_alpha 38.522645
_cell_angle_beta 141.744410
_cell_angle_gamma 151.734711
_cell_volume 597.704341
_symmetry_space_group_name_H-M "P -1"
_symmetry_group_IT_number 2
_symmetry_cell_setting 'triclinic'
loop_
_space_group_symop_operation_xyz
x,y,z
-x,-y,-z
loop_
_atom_site_type_symbol
_atom_site_label
_atom_site_fract_x
_atom_site_fract_y
_atom_site_fract_z
Si Si1 0.104792 0.430615 0.667290
Si Si2 0.338970 0.777671 0.332046
Si Si3 0.789166 0.993233 0.123106
Si Si4 0.619497 0.448262 0.864678
Si Si5 0.809431 0.869501 0.600063
Si Si6 0.785490 0.340251 0.991285
Si Si7 0.236195 0.938738 0.463653
O O1 0.218049 0.560105 0.509621
O O2 0.000000 0.500000 0.500000
O O3 0.938490 0.201364 0.696904
O O4 0.254333 0.489210 0.907652
O O5 0.549466 0.926060 0.491156
O O6 0.354473 0.775735 0.182321
O O7 0.237338 0.858099 0.130531
O O8 0.594370 0.766818 0.118337
O O9 0.811668 0.990419 0.327180
O O10 0.982767 0.061854 0.223452
O O11 0.644648 0.636345 0.639519
O O12 0.721774 0.432827 0.886822
O O13 0.774410 0.920683 0.640290
O O14 0.780011 0.204474 0.264911
O O15 0.000000 0.500000 0.000000
#
# Coordination Sequence:
#
# PCOD9060353 Si02
#       7
#     2   2   2   2   2   2   2
#     4  12  25  44  69 104 140 177 227 282 337 405
#     4  12  24  43  76 103 132 179 233 284 334 398
#     4  11  23  43  70 100 138 178 226 279 345 397
#     4  12  26  45  67 101 142 179 224 276 345 409
#     4  11  26  42  68 101 139 178 222 285 341 397
#     4  12  21  42  73  99 135 174 230 287 327 391
#     4  12  25  44  70 104 135 176 234 279 336 401
#
# _framework density 23.422951999999999
#
# number of rings (size 3 to 8) (size 9 to 14) (size 15 to 20)
#    0.000    0.286    5.714    3.429    2.000    5.143 
#    0.000    1.429    0.000    0.000    0.000    0.000 
#    0.000    0.000    0.000    0.000    0.000    0.000 
#
# Total GULP energy -78480.594167 kJ/mol
# GULP energy per Si atom -5605.756726 kJ/mol
# Density = 2.336964 g / cm^3
# Si number density = 23.422952 Si / 1000 Ang^3
#
#
#
# Elastic Constant Matrix: (Units=GPa)
#
#
# Indices 1 2 3 4 5 6 
#
# 1 69.2615 23.9619 16.7493 5.8079 11.3411 -19.7403
# 2 23.9619 134.8888 17.1608 26.8217 7.7268 -3.0537
# 3 16.7493 17.1608 64.4395 13.5902 -6.6151 -2.7272
# 4 5.8079 26.8217 13.5902 38.3442 -3.2581 6.2915
# 5 11.3411 7.7268 -6.6151 -3.2581 35.2499 -3.0922
# 6 -19.7403 -3.0537 -2.7272 6.2915 -3.0922 32.4917
#
#
#
# Elastic Compliance Matrix: (Units=1/GPa)
#
#
# Indices 1 2 3 4 5 6 
#
# 1 0.020903 -0.001967 -0.004474 -0.002721 -0.006327 0.012064
# 2 -0.001967 0.009219 -0.000838 -0.006126 -0.002059 0.000591
# 3 -0.004474 -0.000838 0.018419 -0.004892 0.004640 0.000138
# 4 -0.002721 -0.006126 -0.004892 0.034289 0.003686 -0.008928
# 5 -0.006327 -0.002059 0.004640 0.003686 0.031951 -0.001321
# 6 0.012064 0.000591 0.000138 -0.008928 -0.001321 0.039777
#
#
# Mechanical properties :
#
#
# Convention : Reuss Voigt Hill
#
# Bulk Modulus (GPa) = 29.42836 42.70375 36.06606
# Shear Modulus (GPa) = 27.70932 35.26503 31.48718
#
# Velocity S-wave (km/s) = 3.44321 3.88438 3.67043
# Velocity P-wave (km/s) = 5.32905 6.19589 5.77875
#
# Compressibility (1/GPa) = 0.03398083
#
# Stress axis : x y z
#
# Youngs Moduli (GPa) = 47.83933 108.47140 54.29308
#
# Poissons Ratio (x) = 0.21341 0.24293
# Poissons Ratio (y) = 0.09412 0.04551
# Poissons Ratio (z) = 0.21405 0.09093
#
# Static dielectric constant tensor:
#      x y z
#    x 1.856630 0.021330 -0.038310 
#    y 0.021330 1.901350 0.004410 
#    z -0.038310 0.004410 1.948180 
# 
# From -- ./inp_files/283418.got.cif
#   From: 2010.05.17/outbox.cif.g08.bks.cpg/sg2_142_cif.got.tgz:283418.got - 2010.06.03 11:33:40.
