data_PCOD9060336
_publ_section_title
;
Structure prediction by ZEFSAII (Michael W. Deem and Ramdas Pophale) SiO2 
 PCOD9060336
Probable space group: P -1
;
_chemical_formula_sum "Si O2"
_cell_formula_units_Z 14
_cell_length_a 12.225769
_cell_length_b 28.028118
_cell_length_c 11.419302
_cell_angle_alpha 28.899733
_cell_angle_beta 36.600542
_cell_angle_gamma 19.705619
_cell_volume 632.129636
_symmetry_space_group_name_H-M "P -1"
_symmetry_group_IT_number 2
_symmetry_cell_setting 'triclinic'
loop_
_space_group_symop_operation_xyz
x,y,z
-x,-y,-z
loop_
_atom_site_type_symbol
_atom_site_label
_atom_site_fract_x
_atom_site_fract_y
_atom_site_fract_z
Si Si1 0.372569 0.523688 0.390312
Si Si2 0.256884 0.366486 0.905061
Si Si3 0.079962 0.001406 0.555360
Si Si4 0.405572 0.359668 0.030915
Si Si5 0.307988 0.654468 0.742375
Si Si6 0.412867 0.098015 0.241387
Si Si7 0.622711 0.919421 0.202297
O O1 0.416254 0.402821 0.681878
O O2 0.461592 0.448992 0.344811
O O3 0.995050 0.720682 0.298308
O O4 0.584566 0.525643 0.236716
O O5 0.864192 0.538902 0.852995
O O6 0.293639 0.332612 0.084588
O O7 0.429018 0.205674 0.029915
O O8 0.792074 0.193529 0.448023
O O9 0.223900 0.840556 0.838622
O O10 0.383710 0.939340 0.408665
O O11 0.000000 0.000000 0.500000
O O12 0.962602 0.762123 0.766915
O O13 0.500000 0.500000 0.000000
O O14 0.500000 0.000000 0.500000
O O15 0.598000 0.999127 0.170244
O O16 0.500000 0.000000 0.000000
#
# Coordination Sequence:
#
# PCOD9060336 Si02
#       7
#     2   2   2   2   2   2   2
#     4  12  24  42  70 104 135 183 243 291 347 431
#     4  11  24  42  71 101 137 184 233 290 358 423
#     4  11  23  43  69  97 141 192 232 286 365 420
#     4  11  23  44  66 100 145 181 226 294 361 417
#     4  11  24  44  70 103 145 189 238 299 361 428
#     4  11  25  47  73 101 146 191 236 298 365 428
#     4  11  24  44  68 106 143 186 243 295 351 433
#
# _framework density 22.147355999999998
#
# number of rings (size 3 to 8) (size 9 to 14) (size 15 to 20)
#    0.000    0.857    2.857    5.571    2.000    3.429 
#    0.000    4.286    0.000    0.000    0.000    0.000 
#    0.000    0.000    0.000    0.000    0.000    0.000 
#
# Total GULP energy -77993.905727 kJ/mol
# GULP energy per Si atom -5570.993266 kJ/mol
# Density = 2.209695 g / cm^3
# Si number density = 22.147356 Si / 1000 Ang^3
#
#
#
# Elastic Constant Matrix: (Units=GPa)
#
#
# Indices 1 2 3 4 5 6 
#
# 1 126.5959 36.3211 38.4981 -24.8085 -17.2065 37.1323
# 2 36.3211 111.0965 17.8874 -17.5413 -7.2751 44.3358
# 3 38.4981 17.8874 95.3715 -12.8041 -20.1964 16.9875
# 4 -24.8085 -17.5413 -12.8041 36.4003 -1.4681 -9.0656
# 5 -17.2065 -7.2751 -20.1964 -1.4681 50.1335 -8.7121
# 6 37.1323 44.3358 16.9875 -9.0656 -8.7121 48.8542
#
#
#
# Elastic Compliance Matrix: (Units=1/GPa)
#
#
# Indices 1 2 3 4 5 6 
#
# 1 0.012083 0.000388 -0.002423 0.005857 0.002143 -0.007224
# 2 0.000388 0.014641 -0.000043 0.004129 0.000141 -0.012775
# 3 -0.002423 -0.000043 0.012977 0.002722 0.004231 -0.001372
# 4 0.005857 0.004129 0.002722 0.034077 0.004348 -0.002046
# 5 0.002143 0.000141 0.004231 0.004348 0.022821 0.001648
# 6 -0.007224 -0.012775 -0.001372 -0.002046 0.001648 0.037945
#
#
# Mechanical properties :
#
#
# Convention : Reuss Voigt Hill
#
# Bulk Modulus (GPa) = 28.13363 57.60854 42.87109
# Shear Modulus (GPa) = 33.21205 43.10144 38.15674
#
# Velocity S-wave (km/s) = 3.87666 4.41627 4.15524
# Velocity P-wave (km/s) = 5.72438 7.21613 6.51310
#
# Compressibility (1/GPa) = 0.03554464
#
# Stress axis : x y z
#
# Youngs Moduli (GPa) = 82.76292 68.30297 77.05731
#
# Poissons Ratio (x) = -0.02650 0.18673
# Poissons Ratio (y) = -0.03211 0.00330
# Poissons Ratio (z) = 0.20055 0.00292
#
# Static dielectric constant tensor:
#      x y z
#    x 1.599660 0.131990 -0.078620 
#    y 0.131990 1.534550 0.111830 
#    z -0.078620 0.111830 1.864880 
# 
# From -- ./inp_files/184729.got.cif
#   From: 2010.05.17/outbox.cif.g08.bks.cpg/sg2_93_cif.got.tgz:184729.got - 2010.06.03 11:33:40.
