data_PCOD9060787
_publ_section_title
;
Structure prediction by ZEFSAII (Michael W. Deem and Ramdas Pophale) SiO2 
 PCOD9060787
Probable space group: P -1
;
_chemical_formula_sum "Si O2"
_cell_formula_units_Z 16
_cell_length_a 27.183753
_cell_length_b 5.070798
_cell_length_c 24.817860
_cell_angle_alpha 111.654422
_cell_angle_beta 168.565541
_cell_angle_gamma 68.341464
_cell_volume 629.827663
_symmetry_space_group_name_H-M "P -1"
_symmetry_group_IT_number 2
_symmetry_cell_setting 'triclinic'
loop_
_space_group_symop_operation_xyz
x,y,z
-x,-y,-z
loop_
_atom_site_type_symbol
_atom_site_label
_atom_site_fract_x
_atom_site_fract_y
_atom_site_fract_z
Si Si1 0.566739 0.852389 0.746088
Si Si2 0.753309 0.840688 0.240303
Si Si3 0.781829 0.860266 0.537679
Si Si4 0.372346 0.783818 0.266737
Si Si5 0.154546 0.205641 0.146623
Si Si6 0.392868 0.625735 0.031313
Si Si7 0.164954 0.161569 0.554491
Si Si8 0.020409 0.272661 0.740873
O O1 0.665167 0.551772 0.804910
O O2 0.287118 0.940775 0.471036
O O3 0.593700 0.086843 0.746423
O O4 0.706938 0.829698 0.953357
O O5 0.823863 0.703417 0.363676
O O6 0.662837 0.666878 0.079273
O O7 0.000000 0.000000 0.500000
O O8 0.500000 0.000000 0.000000
O O9 0.552395 0.666509 0.259205
O O10 0.988001 0.606707 0.741693
O O11 0.855089 0.086534 0.588993
O O12 0.597414 0.762839 0.550040
O O13 0.199087 0.028873 0.126646
O O14 0.000000 0.500000 0.000000
O O15 0.000000 0.000000 0.000000
O O16 0.581584 0.767923 0.200089
O O17 0.111300 0.728698 0.751874
O O18 0.099202 0.824820 0.452283
#
# Coordination Sequence:
#
# PCOD9060787 Si02
#       8
#     2   2   2   2   2   2   2   2
#     4  12  24  45  66 103 140 182 236 294 346 422
#     4  12  24  40  64 102 134 184 241 311 378 453
#     4  11  25  44  67  99 137 186 236 294 363 435
#     4  11  26  42  70 104 140 181 238 290 342 425
#     4  11  24  45  70 102 142 187 228 285 354 414
#     4  11  23  44  67  97 137 189 242 306 378 453
#     4  11  23  44  67  97 137 189 242 306 378 453
#     4  11  25  44  67  99 137 186 236 294 363 435
#
# _framework density 25.403773999999999
#
# number of rings (size 3 to 8) (size 9 to 14) (size 15 to 20)
#    0.000    0.750    1.250    6.000    0.000   10.000 
#    2.250    0.000    0.000    0.000    0.000    0.000 
#    0.000    0.000    0.000    0.000    0.000    0.000 
#
# Total GULP energy -89073.365046 kJ/mol
# GULP energy per Si atom -5567.085315 kJ/mol
# Density = 2.534595 g / cm^3
# Si number density = 25.403774 Si / 1000 Ang^3
#
#
#
# Elastic Constant Matrix: (Units=GPa)
#
#
# Indices 1 2 3 4 5 6 
#
# 1 69.4061 32.8198 22.9915 -10.5004 18.3099 8.1409
# 2 32.8198 146.0771 23.9237 -17.3807 6.3048 -13.5750
# 3 22.9915 23.9237 100.5977 -2.8258 -1.6039 -13.1963
# 4 -10.5004 -17.3807 -2.8258 39.5763 1.9980 -0.6925
# 5 18.3099 6.3048 -1.6039 1.9980 40.5427 -2.8142
# 6 8.1409 -13.5750 -13.1963 -0.6925 -2.8142 41.8752
#
#
#
# Elastic Compliance Matrix: (Units=1/GPa)
#
#
# Indices 1 2 3 4 5 6 
#
# 1 0.022326 -0.003940 -0.005251 0.004207 -0.010434 -0.007904
# 2 -0.003940 0.008432 -0.000576 0.002648 0.000551 0.003399
# 3 -0.005251 -0.000576 0.011936 -0.000877 0.003310 0.004803
# 4 0.004207 0.002648 -0.000877 0.027671 -0.003712 -0.000027
# 5 -0.010434 0.000551 0.003310 -0.003712 0.029967 0.005202
# 6 -0.007904 0.003399 0.004803 -0.000027 0.005202 0.028382
#
#
# Mechanical properties :
#
#
# Convention : Reuss Voigt Hill
#
# Bulk Modulus (GPa) = 43.17462 52.83897 48.00679
# Shear Modulus (GPa) = 32.05778 40.15523 36.10651
#
# Velocity S-wave (km/s) = 3.55622 3.98009 3.77411
# Velocity P-wave (km/s) = 5.82190 6.47814 6.15877
#
# Compressibility (1/GPa) = 0.02316176
#
# Stress axis : x y z
#
# Youngs Moduli (GPa) = 44.78985 118.58994 83.78133
#
# Poissons Ratio (x) = 0.46723 0.43991
# Poissons Ratio (y) = 0.17647 0.04825
# Poissons Ratio (z) = 0.23518 0.06829
#
# Static dielectric constant tensor:
#      x y z
#    x 2.187880 -0.031850 0.015930 
#    y -0.031850 2.064240 -0.059380 
#    z 0.015930 -0.059380 2.106750 
# 
# From -- ./inp_files/621448.got.cif
#   From: 2010.05.17/outbox.cif.g08.bks.cpg/sg2_311_cif.got.tgz:621448.got - 2010.06.03 11:33:40.
