data_PCOD9060392
_publ_section_title
;
Structure prediction by ZEFSAII (Michael W. Deem and Ramdas Pophale) SiO2 
 PCOD9060392
Probable space group: P -1
;
_chemical_formula_sum "Si O2"
_cell_formula_units_Z 16
_cell_length_a 7.932387
_cell_length_b 15.434074
_cell_length_c 6.549566
_cell_angle_alpha 67.841373
_cell_angle_beta 84.046362
_cell_angle_gamma 108.950800
_cell_volume 678.555950
_symmetry_space_group_name_H-M "P -1"
_symmetry_group_IT_number 2
_symmetry_cell_setting 'triclinic'
loop_
_space_group_symop_operation_xyz
x,y,z
-x,-y,-z
loop_
_atom_site_type_symbol
_atom_site_label
_atom_site_fract_x
_atom_site_fract_y
_atom_site_fract_z
Si Si1 0.484094 0.654300 0.916232
Si Si2 0.079096 0.609493 0.002744
Si Si3 0.233362 0.187920 0.996376
Si Si4 0.202571 0.788986 0.492963
Si Si5 0.455465 0.462827 0.310126
Si Si6 0.124691 0.946111 0.631965
Si Si7 0.112418 0.333601 0.651735
Si Si8 0.582863 0.929702 0.178015
O O1 0.283377 0.634046 0.044057
O O2 0.634356 0.761492 0.872466
O O3 0.472080 0.619935 0.712845
O O4 0.541826 0.567392 0.081598
O O5 0.127281 0.700593 0.750800
O O6 0.000000 0.500000 0.000000
O O7 0.944917 0.615067 0.194858
O O8 0.022290 0.139592 0.133181
O O9 0.240177 0.275917 0.761924
O O10 0.292528 0.105380 0.956406
O O11 0.187876 0.889180 0.500244
O O12 0.414500 0.828018 0.365819
O O13 0.071645 0.747072 0.353292
O O14 0.500000 0.500000 0.500000
O O15 0.232457 0.409788 0.392245
O O16 0.293527 0.014144 0.692919
O O17 0.000000 0.000000 0.500000
O O18 0.500000 0.000000 0.000000
#
# Coordination Sequence:
#
# PCOD9060392 Si02
#       8
#     2   2   2   2   2   2   2   2
#     4  11  26  42  71 105 145 187 244 294 355 429
#     4  12  28  46  71 108 150 192 242 297 361 436
#     4  12  25  45  74 105 142 186 239 301 360 438
#     4  12  27  47  76 105 148 193 239 302 367 433
#     4  11  23  43  70 105 145 190 241 295 354 427
#     4  12  26  48  75 108 146 189 245 307 368 438
#     4  12  25  46  72 105 146 191 242 292 360 432
#     4  12  28  48  76 108 147 190 246 305 375 440
#
# _framework density 23.579484000000001
#
# number of rings (size 3 to 8) (size 9 to 14) (size 15 to 20)
#    0.000    0.250    2.500    6.000    7.000    4.000 
#    0.000    0.000    0.000    0.000    0.000    0.000 
#    0.000    0.000    0.000    0.000    0.000    0.000 
#
# Total GULP energy -89531.817885 kJ/mol
# GULP energy per Si atom -5595.738618 kJ/mol
# Density = 2.352582 g / cm^3
# Si number density = 23.579484 Si / 1000 Ang^3
#
#
#
# Elastic Constant Matrix: (Units=GPa)
#
#
# Indices 1 2 3 4 5 6 
#
# 1 84.9563 30.9521 -2.1687 8.0253 -1.1284 13.3971
# 2 30.9521 115.7462 19.4961 21.5202 19.3392 12.8630
# 3 -2.1687 19.4961 56.6147 -3.9870 -7.3991 -9.6564
# 4 8.0253 21.5202 -3.9870 39.6145 3.3028 -6.0940
# 5 -1.1284 19.3392 -7.3991 3.3028 45.5558 0.2090
# 6 13.3971 12.8630 -9.6564 -6.0940 0.2090 54.8504
#
#
#
# Elastic Compliance Matrix: (Units=1/GPa)
#
#
# Indices 1 2 3 4 5 6 
#
# 1 0.013725 -0.003916 0.001728 -0.001023 0.002368 -0.002252
# 2 -0.003916 0.013863 -0.007057 -0.007570 -0.006559 -0.004353
# 3 0.001728 -0.007057 0.022396 0.006117 0.006206 0.005832
# 4 -0.001023 -0.007570 0.006117 0.031026 0.001902 0.006542
# 5 0.002368 -0.006559 0.006206 0.001902 0.025654 0.002166
# 6 -0.002252 -0.004353 0.005832 0.006542 0.002166 0.021548
#
#
# Mechanical properties :
#
#
# Convention : Reuss Voigt Hill
#
# Bulk Modulus (GPa) = 31.75314 39.31957 35.53636
# Shear Modulus (GPa) = 31.80659 41.94001 36.87330
#
# Velocity S-wave (km/s) = 3.67673 4.22200 3.95877
# Velocity P-wave (km/s) = 5.61428 6.36228 5.99995
#
# Compressibility (1/GPa) = 0.03149295
#
# Stress axis : x y z
#
# Youngs Moduli (GPa) = 72.85999 72.13636 44.65081
#
# Poissons Ratio (x) = 0.28251 -0.07714
# Poissons Ratio (y) = 0.28534 0.31508
# Poissons Ratio (z) = -0.12587 0.50904
#
# Static dielectric constant tensor:
#      x y z
#    x 1.908500 0.018250 0.013930 
#    y 0.018250 1.906290 -0.067600 
#    z 0.013930 -0.067600 2.020200 
# 
# From -- ./inp_files/37957.got.cif
#   From: 2010.05.17/outbox.cif.g08.bks.cpg/sg2_19_cif.got.tgz:37957.got - 2010.06.03 11:33:40.
