data_PCOD9060226
_publ_section_title
;
Structure prediction by ZEFSAII (Michael W. Deem and Ramdas Pophale) SiO2 
 PCOD9060226
Probable space group: P -1
;
_chemical_formula_sum "Si O2"
_cell_formula_units_Z 16
_cell_length_a 12.395946
_cell_length_b 18.651066
_cell_length_c 8.611642
_cell_angle_alpha 48.060232
_cell_angle_beta 78.608480
_cell_angle_gamma 40.426555
_cell_volume 733.682466
_symmetry_space_group_name_H-M "P -1"
_symmetry_group_IT_number 2
_symmetry_cell_setting 'triclinic'
loop_
_space_group_symop_operation_xyz
x,y,z
-x,-y,-z
loop_
_atom_site_type_symbol
_atom_site_label
_atom_site_fract_x
_atom_site_fract_y
_atom_site_fract_z
Si Si1 0.175860 0.341336 0.464095
Si Si2 0.486079 0.745072 0.536698
Si Si3 0.711611 0.376303 0.026476
Si Si4 0.818970 0.939198 0.610838
Si Si5 0.722735 0.285319 0.811326
Si Si6 0.205508 0.230134 0.955047
Si Si7 0.316733 0.068502 0.642946
Si Si8 0.185798 0.979304 0.987601
O O1 0.384524 0.253062 0.522827
O O2 0.197407 0.260686 0.730456
O O3 0.169898 0.273188 0.420454
O O4 0.969858 0.566032 0.213307
O O5 0.657514 0.529596 0.795265
O O6 0.317602 0.856494 0.284252
O O7 0.348676 0.855456 0.574487
O O8 0.737164 0.303213 0.961130
O O9 0.500000 0.500000 0.000000
O O10 0.946629 0.194400 0.305936
O O11 0.718907 0.951319 0.484967
O O12 0.847830 0.840150 0.887128
O O13 0.500000 0.500000 0.500000
O O14 0.741411 0.156900 0.959998
O O15 0.930681 0.167941 0.826637
O O16 0.440026 0.081344 0.171365
O O17 0.252628 0.032620 0.831029
#
# Coordination Sequence:
#
# PCOD9060226 Si02
#       8
#     2   2   2   2   2   2   2   2
#     4  11  24  41  73 101 133 178 230 276 335 405
#     4  12  23  46  71  98 135 182 226 283 342 400
#     4  12  29  47  69 101 139 181 229 287 347 407
#     4  12  27  44  66  98 146 183 220 278 346 412
#     4  11  25  46  72  99 134 176 242 290 341 390
#     4  11  23  43  68 102 135 178 224 280 337 406
#     4  12  26  41  67 103 144 177 225 272 344 414
#     4  11  25  44  72 103 132 181 233 290 331 404
#
# _framework density 21.807797999999998
#
# number of rings (size 3 to 8) (size 9 to 14) (size 15 to 20)
#    0.000    0.500    6.250    1.500    3.500    3.000 
#    0.000    0.000    0.000    0.000    0.000    0.000 
#    0.000    0.000    0.000    0.000    0.000    0.000 
#
# Total GULP energy -89560.616594 kJ/mol
# GULP energy per Si atom -5597.538537 kJ/mol
# Density = 2.175816 g / cm^3
# Si number density = 21.807798 Si / 1000 Ang^3
#
#
#
# Elastic Constant Matrix: (Units=GPa)
#
#
# Indices 1 2 3 4 5 6 
#
# 1 91.8405 43.8888 8.0139 -20.7474 3.0374 10.5974
# 2 43.8888 113.2863 23.7238 -32.8855 -5.1749 23.8057
# 3 8.0139 23.7238 34.9278 -24.4095 -1.2181 6.1698
# 4 -20.7474 -32.8855 -24.4095 35.7184 -2.0501 1.7790
# 5 3.0374 -5.1749 -1.2181 -2.0501 8.6900 -3.7762
# 6 10.5974 23.8057 6.1698 1.7790 -3.7762 56.4979
#
#
#
# Elastic Compliance Matrix: (Units=1/GPa)
#
#
# Indices 1 2 3 4 5 6 
#
# 1 0.014744 -0.004332 0.005288 0.007950 -0.006061 -0.002173
# 2 -0.004332 0.016130 0.001526 0.014366 0.012208 -0.005787
# 3 0.005288 0.001526 0.062303 0.048378 0.015322 -0.008938
# 4 0.007950 0.014366 0.048378 0.081060 0.025745 -0.013659
# 5 -0.006061 0.012208 0.015322 0.025745 0.133749 0.002449
# 6 -0.002173 -0.005787 -0.008938 -0.013659 0.002449 0.022116
#
#
# Mechanical properties :
#
#
# Convention : Reuss Voigt Hill
#
# Bulk Modulus (GPa) = 10.18944 43.47863 26.83403
# Shear Modulus (GPa) = 13.97227 31.14314 22.55770
#
# Velocity S-wave (km/s) = 2.53395 3.78309 3.21968
# Velocity P-wave (km/s) = 3.63920 6.25002 5.11403
#
# Compressibility (1/GPa) = 0.09814079
#
# Stress axis : x y z
#
# Youngs Moduli (GPa) = 67.82244 61.99670 16.05056
#
# Poissons Ratio (x) = 0.26857 -0.08487
# Poissons Ratio (y) = 0.29380 -0.02449
# Poissons Ratio (z) = -0.35863 -0.09459
#
# Static dielectric constant tensor:
#      x y z
#    x 1.773590 -0.018200 -0.011670 
#    y -0.018200 1.810950 0.013130 
#    z -0.011670 0.013130 1.775130 
# 
# From -- ./inp_files/279024.got.cif
#   From: 2010.05.17/outbox.cif.g08.bks.cpg/sg2_140_cif.got.tgz:279024.got - 2010.06.03 11:33:40.
