data_PCOD9060341
_publ_section_title
;
Structure prediction by ZEFSAII (Michael W. Deem and Ramdas Pophale) SiO2 
 PCOD9060341
Probable space group: P -1
;
_chemical_formula_sum "Si O2"
_cell_formula_units_Z 16
_cell_length_a 8.999922
_cell_length_b 14.621552
_cell_length_c 13.277811
_cell_angle_alpha 40.252369
_cell_angle_beta 119.078382
_cell_angle_gamma 88.208309
_cell_volume 692.639049
_symmetry_space_group_name_H-M "P -1"
_symmetry_group_IT_number 2
_symmetry_cell_setting 'triclinic'
loop_
_space_group_symop_operation_xyz
x,y,z
-x,-y,-z
loop_
_atom_site_type_symbol
_atom_site_label
_atom_site_fract_x
_atom_site_fract_y
_atom_site_fract_z
Si Si1 0.228759 0.316093 0.605511
Si Si2 0.721252 0.562225 0.191498
Si Si3 0.226837 0.161711 0.316457
Si Si4 0.905814 0.460819 0.114795
Si Si5 0.018247 0.027440 0.249973
Si Si6 0.710716 0.437193 0.691639
Si Si7 0.594072 0.060981 0.123641
Si Si8 0.489275 0.409824 0.285817
O O1 0.179201 0.496206 0.387540
O O2 0.419472 0.211180 0.846588
O O3 0.963207 0.415152 0.463049
O O4 0.342481 0.138211 0.712236
O O5 0.818883 0.476594 0.183882
O O6 0.569718 0.796967 0.954808
O O7 0.539425 0.546703 0.175675
O O8 0.104997 0.083896 0.318084
O O9 0.157630 0.246012 0.337349
O O10 0.500000 0.000000 0.500000
O O11 0.098852 0.366732 0.041913
O O12 0.702450 0.525998 0.914789
O O13 0.258327 0.816112 0.462062
O O14 0.889865 0.204830 0.976990
O O15 0.834823 0.014277 0.236391
O O16 0.500000 0.500000 0.500000
O O17 0.598937 0.560595 0.655232
#
# Coordination Sequence:
#
# PCOD9060341 Si02
#       8
#     2   2   2   2   2   2   2   2
#     4  11  25  44  72 105 135 183 239 289 347 419
#     4  12  24  43  72 102 138 187 230 290 351 413
#     4  11  23  43  69  98 137 183 227 291 346 411
#     4  11  25  43  68 102 138 182 239 284 351 420
#     4  12  23  45  69  98 139 187 227 286 354 409
#     4  12  25  46  71 103 139 183 233 290 350 415
#     4  11  24  47  70 100 145 180 232 291 352 417
#     4  12  25  45  71  99 146 185 231 291 346 417
#
# _framework density 23.100054
#
# number of rings (size 3 to 8) (size 9 to 14) (size 15 to 20)
#    0.000    0.500    6.250    1.500    1.750    3.500 
#    0.000    1.250    0.000    0.000    0.000    0.000 
#    0.000    0.000    0.000    0.000    0.000    0.000 
#
# Total GULP energy -89563.629935 kJ/mol
# GULP energy per Si atom -5597.726871 kJ/mol
# Density = 2.304748 g / cm^3
# Si number density = 23.100054 Si / 1000 Ang^3
#
#
#
# Elastic Constant Matrix: (Units=GPa)
#
#
# Indices 1 2 3 4 5 6 
#
# 1 72.4621 22.9906 3.2444 8.2367 18.6670 6.6865
# 2 22.9906 113.0088 39.3798 -2.9604 23.3422 -0.5761
# 3 3.2444 39.3798 100.5874 -26.3589 32.5228 -11.7569
# 4 8.2367 -2.9604 -26.3589 44.9253 2.7187 0.7627
# 5 18.6670 23.3422 32.5228 2.7187 40.6517 -3.3054
# 6 6.6865 -0.5761 -11.7569 0.7627 -3.3054 38.2349
#
#
#
# Elastic Compliance Matrix: (Units=1/GPa)
#
#
# Indices 1 2 3 4 5 6 
#
# 1 0.017154 -0.002670 0.002600 -0.001226 -0.008583 -0.002958
# 2 -0.002670 0.011162 -0.003983 -0.000979 -0.001991 -0.000742
# 3 0.002600 -0.003983 0.019943 0.011820 -0.015323 0.004057
# 4 -0.001226 -0.000979 0.011820 0.029928 -0.010141 0.002361
# 5 -0.008583 -0.001991 -0.015323 -0.010141 0.042673 0.000651
# 6 -0.002958 -0.000742 0.004057 0.002361 0.000651 0.027917
#
#
# Mechanical properties :
#
#
# Convention : Reuss Voigt Hill
#
# Bulk Modulus (GPa) = 24.90500 46.36533 35.63516
# Shear Modulus (GPa) = 29.36517 39.45861 34.41189
#
# Velocity S-wave (km/s) = 3.56928 4.13747 3.86384
# Velocity P-wave (km/s) = 5.27173 6.55286 5.94690
#
# Compressibility (1/GPa) = 0.04015259
#
# Stress axis : x y z
#
# Youngs Moduli (GPa) = 58.29393 89.58956 50.14244
#
# Poissons Ratio (x) = 0.23924 -0.13038
# Poissons Ratio (y) = 0.15567 0.19973
# Poissons Ratio (z) = -0.15157 0.35686
#
# Static dielectric constant tensor:
#      x y z
#    x 1.846780 0.006840 -0.004620 
#    y 0.006840 1.898100 0.007500 
#    z -0.004620 0.007500 1.882950 
# 
# From -- ./inp_files/503901.got.cif
#   From: 2010.05.17/outbox.cif.g08.bks.cpg/sg2_252_cif.got.tgz:503901.got - 2010.06.03 11:33:40.
