data_PCOD9060313
_publ_section_title
;
Structure prediction by ZEFSAII (Michael W. Deem and Ramdas Pophale) SiO2 
 PCOD9060313
Probable space group: P -1
;
_chemical_formula_sum "Si O2"
_cell_formula_units_Z 16
_cell_length_a 23.549773
_cell_length_b 12.662812
_cell_length_c 6.399230
_cell_angle_alpha 50.662526
_cell_angle_beta 48.883617
_cell_angle_gamma 29.954234
_cell_volume 707.324966
_symmetry_space_group_name_H-M "P -1"
_symmetry_group_IT_number 2
_symmetry_cell_setting 'triclinic'
loop_
_space_group_symop_operation_xyz
x,y,z
-x,-y,-z
loop_
_atom_site_type_symbol
_atom_site_label
_atom_site_fract_x
_atom_site_fract_y
_atom_site_fract_z
Si Si1 0.062389 0.834495 0.366761
Si Si2 0.139424 0.959240 0.696820
Si Si3 0.420374 0.669518 0.795601
Si Si4 0.372067 0.524348 0.752526
Si Si5 0.199196 0.443777 0.795360
Si Si6 0.752648 0.846318 0.278640
Si Si7 0.952718 0.688175 0.242437
Si Si8 0.638435 0.768920 0.936226
O O1 0.169042 0.595880 0.499106
O O2 0.104688 0.883917 0.030841
O O3 0.000000 0.000000 0.500000
O O4 0.959793 0.890756 0.429370
O O5 0.269527 0.734261 0.591398
O O6 0.135989 0.098807 0.669778
O O7 0.364675 0.620433 0.864404
O O8 0.503492 0.625795 0.475622
O O9 0.333180 0.904339 0.807370
O O10 0.500000 0.500000 0.000000
O O11 0.356166 0.385904 0.991941
O O12 0.238691 0.246183 0.843359
O O13 0.296169 0.344689 0.857286
O O14 0.068999 0.611334 0.002349
O O15 0.881464 0.724055 0.178623
O O16 0.707070 0.795052 0.618289
O O17 0.000000 0.500000 0.500000
O O18 0.500000 0.000000 0.000000
#
# Coordination Sequence:
#
# PCOD9060313 Si02
#       8
#     2   2   2   2   2   2   2   2
#     4  11  23  43  69 107 141 184 237 287 364 428
#     4  11  24  42  71 100 147 180 229 300 356 423
#     4  11  27  46  73 103 139 185 245 293 353 428
#     4  11  25  47  72 101 140 189 234 295 358 422
#     4  12  27  44  76 106 145 191 242 294 358 436
#     4  12  26  49  71 107 143 190 242 297 362 423
#     4  12  24  45  70 103 143 193 235 295 360 422
#     4  12  27  49  75 104 147 191 241 297 359 422
#
# _framework density 22.620436000000002
#
# number of rings (size 3 to 8) (size 9 to 14) (size 15 to 20)
#    0.000    0.500    5.000    2.625    3.500    5.500 
#    0.000    0.000    0.000    0.000    0.000    0.000 
#    0.000    0.000    0.000    0.000    0.000    0.000 
#
# Total GULP energy -89540.414541 kJ/mol
# GULP energy per Si atom -5596.275909 kJ/mol
# Density = 2.256895 g / cm^3
# Si number density = 22.620436 Si / 1000 Ang^3
#
#
#
# Elastic Constant Matrix: (Units=GPa)
#
#
# Indices 1 2 3 4 5 6 
#
# 1 125.4658 49.1834 20.5188 -17.8195 7.1081 3.8521
# 2 49.1834 158.3895 22.5998 -16.9044 0.9271 10.7422
# 3 20.5188 22.5998 46.0037 -23.2391 4.7598 -7.0689
# 4 -17.8195 -16.9044 -23.2391 40.2080 0.0700 -1.9501
# 5 7.1081 0.9271 4.7598 0.0700 24.4491 -1.6586
# 6 3.8521 10.7422 -7.0689 -1.9501 -1.6586 47.7902
#
#
#
# Elastic Compliance Matrix: (Units=1/GPa)
#
#
# Indices 1 2 3 4 5 6 
#
# 1 0.009700 -0.002470 -0.001840 0.002177 -0.002408 -0.000494
# 2 -0.002470 0.007651 -0.002841 0.000387 0.000851 -0.001896
# 3 -0.001840 -0.002841 0.034882 0.018476 -0.005760 0.006501
# 4 0.002177 0.000387 0.018476 0.036870 -0.004090 0.003833
# 5 -0.002408 0.000851 -0.005760 -0.004090 0.042734 0.000467
# 6 -0.000494 -0.001896 0.006501 0.003833 0.000467 0.022525
#
#
# Mechanical properties :
#
#
# Convention : Reuss Voigt Hill
#
# Bulk Modulus (GPa) = 26.36335 57.16257 41.76296
# Shear Modulus (GPa) = 27.57758 38.32660 32.95209
#
# Velocity S-wave (km/s) = 3.49541 4.12070 3.82087
# Velocity P-wave (km/s) = 5.28872 6.92570 6.16181
#
# Compressibility (1/GPa) = 0.03793144
#
# Stress axis : x y z
#
# Youngs Moduli (GPa) = 103.09119 130.70845 28.66803
#
# Poissons Ratio (x) = 0.32280 0.05275
# Poissons Ratio (y) = 0.25459 0.08145
# Poissons Ratio (z) = 0.18970 0.37135
#
# Static dielectric constant tensor:
#      x y z
#    x 1.892270 -0.023240 -0.084040 
#    y -0.023240 1.828560 0.030430 
#    z -0.084040 0.030430 1.954330 
# 
# From -- ./inp_files/123566.got.cif
#   From: 2010.05.17/outbox.cif.g08.bks.cpg/sg2_62_cif.got.tgz:123566.got - 2010.06.03 11:33:40.
