data_PCOD9060763
_publ_section_title
;
Structure prediction by ZEFSAII (Michael W. Deem and Ramdas Pophale) SiO2 
 PCOD9060763
Probable space group: P -1
;
_chemical_formula_sum "Si O2"
_cell_formula_units_Z 16
_cell_length_a 8.525386
_cell_length_b 18.011305
_cell_length_c 17.022567
_cell_angle_alpha 156.984576
_cell_angle_beta 103.490182
_cell_angle_gamma 61.876841
_cell_volume 733.152958
_symmetry_space_group_name_H-M "P -1"
_symmetry_group_IT_number 2
_symmetry_cell_setting 'triclinic'
loop_
_space_group_symop_operation_xyz
x,y,z
-x,-y,-z
loop_
_atom_site_type_symbol
_atom_site_label
_atom_site_fract_x
_atom_site_fract_y
_atom_site_fract_z
Si Si1 0.712717 0.203944 0.730028
Si Si2 0.967579 0.006739 0.093663
Si Si3 0.266916 0.035331 0.342872
Si Si4 0.432703 0.917743 0.652258
Si Si5 0.830974 0.436667 0.604377
Si Si6 0.562102 0.401109 0.187067
Si Si7 0.084271 0.235608 0.796764
Si Si8 0.633084 0.964217 0.058217
O O1 0.897019 0.223865 0.774829
O O2 0.702236 0.068919 0.669785
O O3 0.747838 0.026853 0.490720
O O4 0.500000 0.500000 0.000000
O O5 0.753447 0.061372 0.145268
O O6 0.924076 0.247103 0.357936
O O7 0.193525 0.742698 0.896151
O O8 0.000000 0.000000 0.000000
O O9 0.371427 0.150767 0.442580
O O10 0.007429 0.249685 0.508770
O O11 0.392320 0.789462 0.060120
O O12 0.438057 0.686551 0.422365
O O13 0.210996 0.173465 0.833799
O O14 0.465803 0.937603 0.769033
O O15 0.589580 0.568301 0.732851
O O16 0.821299 0.660953 0.798620
O O17 0.000000 0.500000 0.000000
O O18 0.500000 0.000000 0.000000
#
# Coordination Sequence:
#
# PCOD9060763 Si02
#       8
#     2   2   2   2   2   2   2   2
#     4  11  25  47  72 106 143 182 235 292 351 423
#     4  11  26  43  70  98 132 183 234 287 351 409
#     4  11  25  42  72 103 138 183 230 281 345 416
#     4  12  25  45  71 102 140 185 231 284 347 413
#     4  11  24  45  69  96 139 179 228 287 342 410
#     4  11  23  44  67 100 135 182 231 281 345 411
#     4  11  27  46  73 105 145 185 233 292 354 421
#     4  12  27  44  70 101 139 184 231 287 346 404
#
# _framework density 21.823549
#
# number of rings (size 3 to 8) (size 9 to 14) (size 15 to 20)
#    0.000    0.750    2.500    3.750    7.000    6.500 
#    0.000    0.000    0.000    0.000    0.000    0.000 
#    0.000    0.000    0.000    0.000    0.000    0.000 
#
# Total GULP energy -89275.032721 kJ/mol
# GULP energy per Si atom -5579.689545 kJ/mol
# Density = 2.177388 g / cm^3
# Si number density = 21.823549 Si / 1000 Ang^3
#
#
#
# Elastic Constant Matrix: (Units=GPa)
#
#
# Indices 1 2 3 4 5 6 
#
# 1 42.6900 -14.3177 -5.5032 -33.3569 2.2433 11.4449
# 2 -14.3177 66.0366 17.8339 -43.7510 -2.3933 14.0356
# 3 -5.5032 17.8339 86.9183 8.6407 -4.7863 -1.1102
# 4 -33.3569 -43.7510 8.6407 -7.3674 16.0667 4.8426
# 5 2.2433 -2.3933 -4.7863 16.0667 29.8841 7.7635
# 6 11.4449 14.0356 -1.1102 4.8426 7.7635 31.1903
#
#
#
# Elastic Compliance Matrix: (Units=1/GPa)
#
#
# Indices 1 2 3 4 5 6 
#
# 1 0.013048 -0.005295 0.003394 -0.011830 0.006005 -0.001942
# 2 -0.005295 0.007992 -0.000596 -0.010262 0.006929 -0.001806
# 3 0.003394 -0.000596 0.011626 0.002353 0.000573 -0.001071
# 4 -0.011830 -0.010262 0.002353 -0.007650 0.002030 0.009725
# 5 0.006005 0.006929 0.000573 0.002030 0.036379 -0.014671
# 6 -0.001942 -0.001806 -0.001071 0.009725 -0.014671 0.035690
#
#
# Mechanical properties :
#
#
# Convention : Reuss Voigt Hill
#
# Bulk Modulus (GPa) = 36.13788 21.29678 28.71733
# Shear Modulus (GPa) = 44.92260 23.91688 34.41974
#
# Velocity S-wave (km/s) = 4.54193 3.31406 3.97569
# Velocity P-wave (km/s) = 6.64083 4.94204 5.85339
#
# Compressibility (1/GPa) = 0.02767180
#
# Stress axis : x y z
#
# Youngs Moduli (GPa) = 76.64200 125.12564 86.01209
#
# Poissons Ratio (x) = 0.66256 -0.29197
# Poissons Ratio (y) = 0.40583 0.05130
# Poissons Ratio (z) = -0.26016 0.07462
#
# Static dielectric constant tensor:
#      x y z
#    x 1.806730 -0.022440 -0.050760 
#    y -0.022440 1.819660 -0.040490 
#    z -0.050760 -0.040490 1.795590 
# 
# From -- ./inp_files/324080.got.cif
#   From: 2010.05.17/outbox.cif.g08.bks.cpg/sg2_163_cif.got.tgz:324080.got - 2010.06.03 11:33:40.
