data_PCOD9060080
_publ_section_title
;
Structure prediction by ZEFSAII (Michael W. Deem and Ramdas Pophale) SiO2 
 PCOD9060080
Probable space group: P -1
;
_chemical_formula_sum "Si O2"
_cell_formula_units_Z 16
_cell_length_a 14.069762
_cell_length_b 12.522397
_cell_length_c 8.140337
_cell_angle_alpha 110.986071
_cell_angle_beta 112.672262
_cell_angle_gamma 31.081485
_cell_volume 682.027344
_symmetry_space_group_name_H-M "P -1"
_symmetry_group_IT_number 2
_symmetry_cell_setting 'triclinic'
loop_
_space_group_symop_operation_xyz
x,y,z
-x,-y,-z
loop_
_atom_site_type_symbol
_atom_site_label
_atom_site_fract_x
_atom_site_fract_y
_atom_site_fract_z
Si Si1 0.065597 0.429410 0.811653
Si Si2 0.870566 0.226914 0.481965
Si Si3 0.814793 0.926467 0.275830
Si Si4 0.306379 0.431237 0.966995
Si Si5 0.314961 0.962446 0.114972
Si Si6 0.984829 0.140025 0.136517
Si Si7 0.341642 0.187988 0.367916
Si Si8 0.447815 0.335876 0.378457
O O1 0.191927 0.421624 0.856295
O O2 0.887079 0.589097 0.657958
O O3 0.195438 0.197574 0.757239
O O4 0.000000 0.500000 0.000000
O O5 0.656493 0.454109 0.510207
O O6 0.902099 0.209980 0.301066
O O7 0.000000 0.000000 0.500000
O O8 0.973571 0.237849 0.641897
O O9 0.672103 0.132988 0.402263
O O10 0.772149 0.988138 0.091741
O O11 0.479557 0.279714 0.874956
O O12 0.162680 0.663382 0.970286
O O13 0.384552 0.366193 0.166633
O O14 0.173685 0.041227 0.196893
O O15 0.342737 0.073574 0.190057
O O16 0.000000 0.000000 0.000000
O O17 0.400826 0.261600 0.400887
O O18 0.500000 0.000000 0.500000
#
# Coordination Sequence:
#
# PCOD9060080 Si02
#       8
#     2   2   2   2   2   2   2   2
#     4  12  19  41  73 104 149 200 240 288 361 442
#     4  12  27  47  73 100 139 188 247 310 366 435
#     4  11  23  42  76 103 145 191 243 295 363 438
#     4  11  23  42  76 103 145 191 243 295 363 438
#     4  11  24  45  69 108 146 191 239 298 366 435
#     4  12  27  47  73 100 139 188 247 310 366 435
#     4  12  25  39  71 109 160 186 240 296 357 439
#     4  11  24  45  69 108 146 191 239 298 366 435
#
# _framework density 23.45947
#
# number of rings (size 3 to 8) (size 9 to 14) (size 15 to 20)
#    0.000    0.500    5.000    3.000    3.500    3.000 
#    0.000    2.500    0.000    0.000    0.000    0.000 
#    0.000    0.000    0.000    0.000    0.000    0.000 
#
# Total GULP energy -89368.193081 kJ/mol
# GULP energy per Si atom -5585.512068 kJ/mol
# Density = 2.340608 g / cm^3
# Si number density = 23.459470 Si / 1000 Ang^3
#
#
#
# Elastic Constant Matrix: (Units=GPa)
#
#
# Indices 1 2 3 4 5 6 
#
# 1 36.7989 46.9393 5.0975 -4.1024 -3.4391 3.6665
# 2 46.9393 166.4637 13.3389 11.4967 -18.3783 -1.7314
# 3 5.0975 13.3389 57.5247 -7.5072 -9.9948 -10.1567
# 4 -4.1024 11.4967 -7.5072 48.0499 0.6379 2.8252
# 5 -3.4391 -18.3783 -9.9948 0.6379 21.5259 4.1089
# 6 3.6665 -1.7314 -10.1567 2.8252 4.1089 46.1551
#
#
#
# Elastic Compliance Matrix: (Units=1/GPa)
#
#
# Indices 1 2 3 4 5 6 
#
# 1 0.045951 -0.013896 -0.001486 0.007344 -0.004564 -0.004542
# 2 -0.013896 0.011014 -0.000469 -0.004048 0.006885 0.001049
# 3 -0.001486 -0.000469 0.019997 0.002792 0.007871 0.003629
# 4 0.007344 -0.004048 0.002792 0.022944 -0.001399 -0.001401
# 5 -0.004564 0.006885 0.007871 -0.001399 0.055784 -0.002527
# 6 -0.004542 0.001049 0.003629 -0.001401 -0.002527 0.023176
#
#
# Mechanical properties :
#
#
# Convention : Reuss Voigt Hill
#
# Bulk Modulus (GPa) = 22.09530 43.50429 32.79979
# Shear Modulus (GPa) = 22.15763 36.17360 29.16561
#
# Velocity S-wave (km/s) = 3.07662 3.93104 3.52978
# Velocity P-wave (km/s) = 4.69678 6.26010 5.53392
#
# Compressibility (1/GPa) = 0.04525849
#
# Stress axis : x y z
#
# Youngs Moduli (GPa) = 21.76228 90.79284 50.00718
#
# Poissons Ratio (x) = 1.26170 0.07431
# Poissons Ratio (y) = 0.30242 0.02347
# Poissons Ratio (z) = 0.03234 0.04262
#
# Static dielectric constant tensor:
#      x y z
#    x 1.843870 -0.016300 0.003270 
#    y -0.016300 1.991250 0.046350 
#    z 0.003270 0.046350 1.886790 
# 
# From -- ./inp_files/308102.got.cif
#   From: 2010.05.17/outbox.cif.g08.bks.cpg/sg2_155_cif.got.tgz:308102.got - 2010.06.03 11:33:40.
