data_PCOD9060589
_publ_section_title
;
Structure prediction by ZEFSAII (Michael W. Deem and Ramdas Pophale) SiO2 
 PCOD9060589
Probable space group: P -1
;
_chemical_formula_sum "Si O2"
_cell_formula_units_Z 14
_cell_length_a 14.339219
_cell_length_b 17.040477
_cell_length_c 9.474821
_cell_angle_alpha 38.092905
_cell_angle_beta 51.902383
_cell_angle_gamma 25.583910
_cell_volume 578.120499
_symmetry_space_group_name_H-M "P -1"
_symmetry_group_IT_number 2
_symmetry_cell_setting 'triclinic'
loop_
_space_group_symop_operation_xyz
x,y,z
-x,-y,-z
loop_
_atom_site_type_symbol
_atom_site_label
_atom_site_fract_x
_atom_site_fract_y
_atom_site_fract_z
Si Si1 0.254281 0.222480 0.991323
Si Si2 0.159820 0.582306 0.527985
Si Si3 0.313369 0.355947 0.985672
Si Si4 0.594589 0.167977 0.516743
Si Si5 0.897144 0.122204 0.269477
Si Si6 0.223429 0.486641 0.193533
Si Si7 0.158332 0.052120 0.928117
O O1 0.121162 0.465117 0.705053
O O2 0.423182 0.842251 0.973324
O O3 0.500000 0.000000 0.000000
O O4 0.282153 0.251345 0.082792
O O5 0.963323 0.836554 0.268269
O O6 0.407623 0.383426 0.504789
O O7 0.188544 0.565600 0.693187
O O8 0.223894 0.424162 0.129993
O O9 0.733360 0.156502 0.339344
O O10 0.431500 0.255014 0.427490
O O11 0.773551 0.902812 0.791458
O O12 0.746487 0.389789 0.037938
O O13 0.093309 0.983205 0.171015
O O14 0.000000 0.000000 0.500000
O O15 0.982536 0.709967 0.187384
#
# Coordination Sequence:
#
# PCOD9060589 Si02
#       7
#     2   2   2   2   2   2   2
#     4   8  18  33  66  86 117 170 192 251 315 354
#     4   8  18  35  61  88 120 160 199 246 308 358
#     4  10  19  41  62  94 122 155 212 252 305 362
#     4  10  17  39  61  85 125 165 200 247 313 366
#     4  10  21  37  63  88 120 167 205 245 312 367
#     4   9  22  36  63  94 116 165 203 256 308 352
#     4   9  20  39  63  90 121 161 203 249 307 368
#
# _framework density 24.216404000000001
#
# number of rings (size 3 to 8) (size 9 to 14) (size 15 to 20)
#    1.714    1.143    0.000    1.286    0.000    0.571 
#    2.571   11.429    0.000    4.286    0.000    0.000 
#    0.000    0.000    0.000    0.000    0.000    0.000 
#
# Total GULP energy -78082.133804 kJ/mol
# GULP energy per Si atom -5577.295272 kJ/mol
# Density = 2.416129 g / cm^3
# Si number density = 24.216404 Si / 1000 Ang^3
#
#
#
# Elastic Constant Matrix: (Units=GPa)
#
#
# Indices 1 2 3 4 5 6 
#
# 1 30.6431 20.8421 4.0855 -8.8726 -7.3259 -22.4298
# 2 20.8421 91.5108 12.9672 19.4577 23.5127 -13.3808
# 3 4.0855 12.9672 109.9979 -0.7024 25.3448 -15.9637
# 4 -8.8726 19.4577 -0.7024 21.9489 10.0346 10.5561
# 5 -7.3259 23.5127 25.3448 10.0346 43.6859 6.5686
# 6 -22.4298 -13.3808 -15.9637 10.5561 6.5686 39.2189
#
#
#
# Elastic Compliance Matrix: (Units=1/GPa)
#
#
# Indices 1 2 3 4 5 6 
#
# 1 0.087678 -0.029130 0.000437 0.040836 0.016751 0.026587
# 2 -0.029130 0.028883 0.001556 -0.033204 -0.014487 0.005192
# 3 0.000437 0.001556 0.011935 -0.000295 -0.008700 0.007176
# 4 0.040836 -0.033204 -0.000295 0.096362 0.004991 -0.014867
# 5 0.016751 -0.014487 -0.008700 0.004991 0.038402 -0.006680
# 6 0.026587 0.005192 0.007176 -0.014867 -0.006680 0.050515
#
#
# Mechanical properties :
#
#
# Convention : Reuss Voigt Hill
#
# Bulk Modulus (GPa) = 13.47285 34.21571 23.84428
# Shear Modulus (GPa) = 12.72941 33.92120 23.32531
#
# Velocity S-wave (km/s) = 2.29520 3.74672 3.10692
# Velocity P-wave (km/s) = 3.54958 5.73385 4.76847
#
# Compressibility (1/GPa) = 0.07422335
#
# Stress axis : x y z
#
# Youngs Moduli (GPa) = 11.40539 34.62202 83.78375
#
# Poissons Ratio (x) = 1.00855 -0.03663
# Poissons Ratio (y) = 0.33224 -0.13041
# Poissons Ratio (z) = -0.00499 -0.05389
#
# Static dielectric constant tensor:
#      x y z
#    x 2.063430 -0.038650 0.062900 
#    y -0.038650 1.967290 -0.021670 
#    z 0.062900 -0.021670 1.987110 
# 
# From -- ./inp_files/312724.got.cif
#   From: 2010.05.17/outbox.cif.g08.bks.cpg/sg2_157_cif.got.tgz:312724.got - 2010.06.03 11:33:40.
