data_PCOD9060744
_publ_section_title
;
Structure prediction by ZEFSAII (Michael W. Deem and Ramdas Pophale) SiO2 
 PCOD9060744
Probable space group: P -1
;
_chemical_formula_sum "Si O2"
_cell_formula_units_Z 16
_cell_length_a 9.719087
_cell_length_b 9.374998
_cell_length_c 24.127334
_cell_angle_alpha 29.885085
_cell_angle_beta 46.016671
_cell_angle_gamma 42.572140
_cell_volume 730.763992
_symmetry_space_group_name_H-M "P -1"
_symmetry_group_IT_number 2
_symmetry_cell_setting 'triclinic'
loop_
_space_group_symop_operation_xyz
x,y,z
-x,-y,-z
loop_
_atom_site_type_symbol
_atom_site_label
_atom_site_fract_x
_atom_site_fract_y
_atom_site_fract_z
Si Si1 0.671639 0.826280 0.557137
Si Si2 0.581107 0.130409 0.602207
Si Si3 0.060606 0.310511 0.814460
Si Si4 0.808301 0.043138 0.212078
Si Si5 0.149153 0.890176 0.254853
Si Si6 0.035513 0.034833 0.364910
Si Si7 0.620009 0.766456 0.997833
Si Si8 0.314325 0.721849 0.011831
O O1 0.701896 0.467579 0.672342
O O2 0.500000 0.000000 0.500000
O O3 0.621995 0.988227 0.576756
O O4 0.895369 0.832350 0.477554
O O5 0.500000 0.500000 0.500000
O O6 0.401753 0.021810 0.711487
O O7 0.783065 0.028468 0.619223
O O8 0.115144 0.611970 0.698594
O O9 0.852261 0.407320 0.876110
O O10 0.048412 0.170731 0.804716
O O11 0.213007 0.025750 0.901787
O O12 0.750762 0.409320 0.096890
O O13 0.929546 0.940713 0.270318
O O14 0.120681 0.983638 0.295695
O O15 0.241236 0.101551 0.122714
O O16 0.422523 0.780299 0.014773
O O17 0.500000 0.000000 0.000000
O O18 0.500000 0.500000 0.000000
#
# Coordination Sequence:
#
# PCOD9060744 Si02
#       8
#     2   2   2   2   2   2   2   2
#     4  12  26  48  71 102 142 185 237 297 360 425
#     4  12  25  46  76 103 140 185 238 299 359 423
#     4  11  25  41  71 100 142 180 237 294 353 415
#     4  12  25  46  69 104 145 187 235 294 359 425
#     4  12  27  44  69 101 144 185 236 292 359 427
#     4  12  26  44  73 105 136 185 243 294 359 428
#     4  12  26  42  70  98 146 190 240 283 361 423
#     4  11  23  44  66 101 140 187 234 293 348 421
#
# _framework density 21.894893
#
# number of rings (size 3 to 8) (size 9 to 14) (size 15 to 20)
#    0.000    0.250    1.250    7.875    7.000    0.000 
#    0.000    0.000    0.000    0.000    0.000    0.000 
#    0.000    0.000    0.000    0.000    0.000    0.000 
#
# Total GULP energy -89488.149987 kJ/mol
# GULP energy per Si atom -5593.009374 kJ/mol
# Density = 2.184506 g / cm^3
# Si number density = 21.894893 Si / 1000 Ang^3
#
#
#
# Elastic Constant Matrix: (Units=GPa)
#
#
# Indices 1 2 3 4 5 6 
#
# 1 146.7859 24.3399 27.0626 12.3818 1.5703 24.0896
# 2 24.3399 139.8351 51.0202 -2.5607 6.2373 35.1868
# 3 27.0626 51.0202 121.4701 -14.1866 -5.7555 -0.4660
# 4 12.3818 -2.5607 -14.1866 54.9137 -15.6602 1.5709
# 5 1.5703 6.2373 -5.7555 -15.6602 45.2054 -1.1788
# 6 24.0896 35.1868 -0.4660 1.5709 -1.1788 55.9658
#
#
#
# Elastic Compliance Matrix: (Units=1/GPa)
#
#
# Indices 1 2 3 4 5 6 
#
# 1 0.008046 0.000433 -0.002396 -0.002794 -0.001709 -0.003713
# 2 0.000433 0.010737 -0.004939 -0.001477 -0.002819 -0.006996
# 3 -0.002396 -0.004939 0.011535 0.004259 0.003818 0.004194
# 4 -0.002794 -0.001477 0.004259 0.022277 0.008605 0.001723
# 5 -0.001709 -0.002819 0.003818 0.008605 0.026111 0.002849
# 6 -0.003713 -0.006996 0.004194 0.001723 0.002849 0.023911
#
#
# Mechanical properties :
#
#
# Convention : Reuss Voigt Hill
#
# Bulk Modulus (GPa) = 60.55460 68.10403 64.32932
# Shear Modulus (GPa) = 41.00828 51.59489 46.30158
#
# Velocity S-wave (km/s) = 4.33247 4.85963 4.60360
# Velocity P-wave (km/s) = 7.26251 7.91584 7.59620
#
# Compressibility (1/GPa) = 0.01651402
#
# Stress axis : x y z
#
# Youngs Moduli (GPa) = 124.28653 93.13411 86.69033
#
# Poissons Ratio (x) = -0.04034 0.20771
# Poissons Ratio (y) = -0.05383 0.42819
# Poissons Ratio (z) = 0.29780 0.46002
#
# Static dielectric constant tensor:
#      x y z
#    x 1.785680 -0.016810 -0.031770 
#    y -0.016810 1.779730 -0.020870 
#    z -0.031770 -0.020870 1.879940 
# 
# From -- ./inp_files/606544.got.cif
#   From: 2010.05.17/outbox.cif.g08.bks.cpg/sg2_304_cif.got.tgz:606544.got - 2010.06.03 11:33:40.
