data_PCOD9060259
_publ_section_title
;
Structure prediction by ZEFSAII (Michael W. Deem and Ramdas Pophale) SiO2 
 PCOD9060259
Probable space group: P -1
;
_chemical_formula_sum "Si O2"
_cell_formula_units_Z 13
_cell_length_a 18.471181
_cell_length_b 22.044763
_cell_length_c 8.662444
_cell_angle_alpha 36.648852
_cell_angle_beta 137.311906
_cell_angle_gamma 162.907062
_cell_volume 608.584793
_symmetry_space_group_name_H-M "P -1"
_symmetry_group_IT_number 2
_symmetry_cell_setting 'triclinic'
loop_
_space_group_symop_operation_xyz
x,y,z
-x,-y,-z
loop_
_atom_site_type_symbol
_atom_site_label
_atom_site_fract_x
_atom_site_fract_y
_atom_site_fract_z
Si Si1 0.500000 0.000000 0.000000
Si Si2 0.655133 0.871694 0.786327
Si Si3 0.136569 0.923969 0.961594
Si Si4 0.950391 0.289977 0.233160
Si Si5 0.424163 0.710542 0.331980
Si Si6 0.905881 0.533423 0.253548
Si Si7 0.600238 0.499199 0.048922
O O1 0.506196 0.126171 0.803925
O O2 0.290196 0.845092 0.853731
O O3 0.389694 0.703941 0.707195
O O4 0.587715 0.701148 0.969384
O O5 0.754036 0.963439 0.927624
O O6 0.858805 0.099492 0.529364
O O7 0.058994 0.739442 0.185956
O O8 0.872541 0.755244 0.880532
O O9 0.345232 0.125366 0.749768
O O10 0.181349 0.516439 0.241472
O O11 0.030074 0.376823 0.003207
O O12 0.370278 0.574328 0.645434
O O13 0.000000 0.500000 0.500000
O O14 0.500000 0.500000 0.000000
#
# Coordination Sequence:
#
# PCOD9060259 Si02
#       7
#     1   2   2   2   2   2   2
#     4  12  24  42  66 100 142 182 220 266 330 398
#     4  11  23  43  68  96 132 175 223 277 334 400
#     4  11  24  43  68  97 131 173 225 281 334 398
#     4  12  23  42  66  97 139 180 218 269 330 395
#     4  12  25  45  68 101 139 178 224 275 337 400
#     4  11  24  39  63  97 136 178 223 268 329 401
#     4  11  26  48  72  97 130 176 228 284 343 401
#
# _framework density 21.361034
#
# number of rings (size 3 to 8) (size 9 to 14) (size 15 to 20)
#    0.000    0.615    6.154    1.385    2.154    3.077 
#    0.000    0.769    0.000    0.000    0.000    0.000 
#    0.000    0.000    0.000    0.000    0.000    0.000 
#
# Total GULP energy -72395.698062 kJ/mol
# GULP energy per Si atom -5568.899851 kJ/mol
# Density = 2.131242 g / cm^3
# Si number density = 21.361034 Si / 1000 Ang^3
#
#
#
# Elastic Constant Matrix: (Units=GPa)
#
#
# Indices 1 2 3 4 5 6 
#
# 1 509.6838 214.1362 81.2558 -49.1156 -98.6559 66.0998
# 2 214.1362 192.3853 39.0583 -39.3230 -48.1916 7.7907
# 3 81.2558 39.0583 59.5967 -13.8929 -39.8181 6.4655
# 4 -49.1156 -39.3230 -13.8929 29.6357 13.5388 -19.0005
# 5 -98.6559 -48.1916 -39.8181 13.5388 59.2226 -22.2300
# 6 66.0998 7.7907 6.4655 -19.0005 -22.2300 63.2699
#
#
#
# Elastic Compliance Matrix: (Units=1/GPa)
#
#
# Indices 1 2 3 4 5 6 
#
# 1 0.005395 -0.005711 -0.003324 -0.004174 0.000995 -0.005497
# 2 -0.005711 0.015212 0.004845 0.017133 0.006321 0.010964
# 3 -0.003324 0.004845 0.036227 0.014659 0.023906 0.011976
# 4 -0.004174 0.017133 0.014659 0.067407 0.010730 0.024766
# 5 0.000995 0.006321 0.023906 0.010730 0.042526 0.013903
# 6 -0.005497 0.010964 0.011976 0.024766 0.013903 0.031296
#
#
# Mechanical properties :
#
#
# Convention : Reuss Voigt Hill
#
# Bulk Modulus (GPa) = 20.63861 158.95182 89.79521
# Shear Modulus (GPa) = 22.46237 58.90668 40.68453
#
# Velocity S-wave (km/s) = 3.24629 5.25705 4.36892
# Velocity P-wave (km/s) = 4.87175 10.55568 8.22059
#
# Compressibility (1/GPa) = 0.04845288
#
# Stress axis : x y z
#
# Youngs Moduli (GPa) = 185.37108 65.73591 27.60407
#
# Poissons Ratio (x) = 0.37541 0.09176
# Poissons Ratio (y) = 1.05864 -0.13373
# Poissons Ratio (z) = 0.61617 -0.31847
#
# Static dielectric constant tensor:
#      x y z
#    x 1.800690 0.039770 -0.036640 
#    y 0.039770 1.822740 -0.055460 
#    z -0.036640 -0.055460 1.760770 
# 
# From -- ./inp_files/337492.got.cif
#   From: 2010.05.17/outbox.cif.g08.bks.cpg/sg2_169_cif.got.tgz:337492.got - 2010.06.03 11:33:40.
