data_PCOD9060874
_publ_section_title
;
Structure prediction by ZEFSAII (Michael W. Deem and Ramdas Pophale) SiO2 
 PCOD9060874
Probable space group: P -1
;
_chemical_formula_sum "Si O2"
_cell_formula_units_Z 15
_cell_length_a 16.082854
_cell_length_b 15.403884
_cell_length_c 7.330069
_cell_angle_alpha 88.680617
_cell_angle_beta 73.703935
_cell_angle_gamma 26.125273
_cell_volume 645.182509
_symmetry_space_group_name_H-M "P -1"
_symmetry_group_IT_number 2
_symmetry_cell_setting 'triclinic'
loop_
_space_group_symop_operation_xyz
x,y,z
-x,-y,-z
loop_
_atom_site_type_symbol
_atom_site_label
_atom_site_fract_x
_atom_site_fract_y
_atom_site_fract_z
Si Si1 0.908969 0.307422 0.781124
Si Si2 0.795569 0.100710 0.961300
Si Si3 0.692013 0.381398 0.187187
Si Si4 0.470267 0.116486 0.900402
Si Si5 0.192873 0.890150 0.448571
Si Si6 0.481359 0.238939 0.213966
Si Si7 0.700592 0.918291 0.377400
Si Si8 0.000000 0.500000 0.000000
O O1 0.759126 0.487537 0.698401
O O2 0.083316 0.216701 0.751839
O O3 0.745734 0.416359 0.029628
O O4 0.063091 0.083116 0.632014
O O5 0.730400 0.145003 0.791620
O O6 0.703120 0.281195 0.070507
O O7 0.669638 0.139455 0.139717
O O8 0.076292 0.838947 0.820733
O O9 0.428874 0.636589 0.410420
O O10 0.629314 0.972174 0.628950
O O11 0.531014 0.136557 0.005121
O O12 0.200565 0.368636 0.993216
O O13 0.500000 0.000000 0.000000
O O14 0.000000 0.000000 0.500000
O O15 0.495331 0.157936 0.376246
O O16 0.787103 0.751778 0.228671
#
# Coordination Sequence:
#
# PCOD9060874 Si02
#       8
#     2   2   2   2   2   2   2   1
#     4  12  25  46  70 107 148 196 250 311 366 439
#     4  11  23  44  69 102 146 198 247 311 368 429
#     4  11  24  44  69  99 153 194 253 305 360 443
#     4  12  28  51  78 112 149 190 245 307 388 469
#     4  12  24  41  68 100 141 201 255 303 368 433
#     4  12  25  48  74 108 154 195 249 316 374 442
#     4  12  28  49  77 117 146 193 252 310 384 456
#     4  12  26  52  82 106 152 192 240 312 382 460
#
# _framework density 23.249234999999999
#
# number of rings (size 3 to 8) (size 9 to 14) (size 15 to 20)
#    0.000    0.267    6.667    2.400    0.000    3.200 
#    2.400    0.000    0.000    0.000    0.000    0.000 
#    0.000    0.000    0.000    0.000    0.000    0.000 
#
# Total GULP energy -83645.717678 kJ/mol
# GULP energy per Si atom -5576.381179 kJ/mol
# Density = 2.319632 g / cm^3
# Si number density = 23.249235 Si / 1000 Ang^3
#
#
#
# Elastic Constant Matrix: (Units=GPa)
#
#
# Indices 1 2 3 4 5 6 
#
# 1 131.6816 26.6766 22.3247 4.9698 5.0407 0.7354
# 2 26.6766 124.8267 55.3177 14.5819 -5.4880 4.2532
# 3 22.3247 55.3177 57.7193 3.9133 5.7896 12.6493
# 4 4.9698 14.5819 3.9133 50.1549 2.8059 -4.2839
# 5 5.0407 -5.4880 5.7896 2.8059 29.2814 -1.3257
# 6 0.7354 4.2532 12.6493 -4.2839 -1.3257 34.7952
#
#
#
# Elastic Compliance Matrix: (Units=1/GPa)
#
#
# Indices 1 2 3 4 5 6 
#
# 1 0.008210 -0.000615 -0.002643 -0.000308 -0.000941 0.000789
# 2 -0.000615 0.015947 -0.016348 -0.003353 0.006823 0.003854
# 3 -0.002643 -0.016348 0.037565 0.001676 -0.010731 -0.011805
# 4 -0.000308 -0.003353 0.001676 0.021168 -0.002831 0.002305
# 5 -0.000941 0.006823 -0.010731 -0.002831 0.038175 0.004193
# 6 0.000789 0.003854 -0.011805 0.002305 0.004193 0.032987
#
#
# Mechanical properties :
#
#
# Convention : Reuss Voigt Hill
#
# Bulk Modulus (GPa) = 44.42506 58.09620 51.26063
# Shear Modulus (GPa) = 24.90438 36.84019 30.87228
#
# Velocity S-wave (km/s) = 3.27646 3.98499 3.64797
# Velocity P-wave (km/s) = 5.78474 6.79825 6.31187
#
# Compressibility (1/GPa) = 0.02250982
#
# Stress axis : x y z
#
# Youngs Moduli (GPa) = 121.80074 62.70611 26.62070
#
# Poissons Ratio (x) = 0.03859 0.07037
# Poissons Ratio (y) = 0.07495 0.43518
# Poissons Ratio (z) = 0.32196 1.02509
#
# Static dielectric constant tensor:
#      x y z
#    x 1.837410 0.026850 -0.048090 
#    y 0.026850 1.905090 -0.018140 
#    z -0.048090 -0.018140 1.875730 
# 
# From -- ./inp_files/315429.got.cif
#   From: 2010.05.17/outbox.cif.g08.bks.cpg/sg2_158_cif.got.tgz:315429.got - 2010.06.03 11:33:40.
