data_PCOD9060920
_publ_section_title
;
Structure prediction by ZEFSAII (Michael W. Deem and Ramdas Pophale) SiO2 
 PCOD9060920
Probable space group: P -1
;
_chemical_formula_sum "Si O2"
_cell_formula_units_Z 12
_cell_length_a 13.368109
_cell_length_b 10.566379
_cell_length_c 15.151943
_cell_angle_alpha 25.790586
_cell_angle_beta 144.411837
_cell_angle_gamma 147.150315
_cell_volume 490.259692
_symmetry_space_group_name_H-M "P -1"
_symmetry_group_IT_number 2
_symmetry_cell_setting 'triclinic'
loop_
_space_group_symop_operation_xyz
x,y,z
-x,-y,-z
loop_
_atom_site_type_symbol
_atom_site_label
_atom_site_fract_x
_atom_site_fract_y
_atom_site_fract_z
Si Si1 0.736276 0.611868 0.725367
Si Si2 0.863979 0.254120 0.759219
Si Si3 0.091570 0.799179 0.977454
Si Si4 0.291466 0.728501 0.731668
Si Si5 0.636343 0.631403 0.311559
Si Si6 0.556557 0.669520 0.808528
O O1 0.851046 0.494649 0.813293
O O2 0.525819 0.336828 0.766072
O O3 0.706945 0.923201 0.480063
O O4 0.874386 0.697161 0.856727
O O5 0.871380 0.111661 0.949921
O O6 0.756219 0.484262 0.544093
O O7 0.074229 0.472838 0.740242
O O8 0.745515 0.975019 0.781173
O O9 0.221788 0.072726 0.830590
O O10 0.393054 0.682159 0.746023
O O11 0.405111 0.640723 0.945013
O O12 0.511831 0.361891 0.320050
#
# Coordination Sequence:
#
# PCOD9060920 Si02
#       6
#     2   2   2   2   2   2
#     4  11  25  47  70 100 135 180 223 280 335 395
#     4  12  25  45  71 102 134 181 223 276 338 398
#     4  11  26  48  69  99 138 175 229 277 332 400
#     4  11  23  44  70 101 132 181 224 270 342 394
#     4  12  25  46  71 100 137 179 224 276 339 397
#     4  11  25  45  66 102 140 174 224 277 333 402
#
# _framework density 24.476825000000002
#
# number of rings (size 3 to 8) (size 9 to 14) (size 15 to 20)
#    0.000    0.667    3.333    4.500    0.000    3.333 
#    3.000    0.000    0.000    0.000    0.000    0.000 
#    0.000    0.000    0.000    0.000    0.000    0.000 
#
# Total GULP energy -67255.508580 kJ/mol
# GULP energy per Si atom -5604.625715 kJ/mol
# Density = 2.442111 g / cm^3
# Si number density = 24.476825 Si / 1000 Ang^3
#
#
#
# Elastic Constant Matrix: (Units=GPa)
#
#
# Indices 1 2 3 4 5 6 
#
# 1 44.2463 35.3257 29.2708 9.1654 -0.3762 27.3253
# 2 35.3257 76.4581 24.2713 10.7095 8.6691 25.8419
# 3 29.2708 24.2713 175.5109 6.3765 10.7366 15.1534
# 4 9.1654 10.7095 6.3765 41.1688 4.8637 1.3576
# 5 -0.3762 8.6691 10.7366 4.8637 30.4925 10.8404
# 6 27.3253 25.8419 15.1534 1.3576 10.8404 55.6052
#
#
#
# Elastic Compliance Matrix: (Units=1/GPa)
#
#
# Indices 1 2 3 4 5 6 
#
# 1 0.054165 -0.017169 -0.005616 -0.007942 0.015909 -0.020016
# 2 -0.017169 0.021999 0.000296 -0.001198 -0.006152 -0.000639
# 3 -0.005616 0.000296 0.006643 0.000460 -0.003063 0.001397
# 4 -0.007942 -0.001198 0.000460 0.026839 -0.005918 0.004833
# 5 0.015909 -0.006152 -0.003063 -0.005918 0.041021 -0.011977
# 6 -0.020016 -0.000639 0.001397 0.004833 -0.011977 0.029953
#
#
# Mechanical properties :
#
#
# Convention : Reuss Voigt Hill
#
# Bulk Modulus (GPa) = 26.43427 52.66121 39.54774
# Shear Modulus (GPa) = 20.99016 39.27646 30.13331
#
# Velocity S-wave (km/s) = 2.93158 4.01014 3.51250
# Velocity P-wave (km/s) = 4.72038 6.55767 5.71336
#
# Compressibility (1/GPa) = 0.03782969
#
# Stress axis : x y z
#
# Youngs Moduli (GPa) = 18.46210 45.45664 150.52928
#
# Poissons Ratio (x) = 0.78046 0.84531
# Poissons Ratio (y) = 0.31698 -0.04459
# Poissons Ratio (z) = 0.10368 -0.01347
#
# Static dielectric constant tensor:
#      x y z
#    x 1.944950 0.002400 -0.008390 
#    y 0.002400 1.926070 -0.040260 
#    z -0.008390 -0.040260 1.966370 
# 
# From -- ./inp_files/270329.got.cif
#   From: 2010.05.17/outbox.cif.g08.bks.cpg/sg2_136_cif.got.tgz:270329.got - 2010.06.03 11:33:40.
