data_PCOD9060538
_publ_section_title
;
Structure prediction by ZEFSAII (Michael W. Deem and Ramdas Pophale) SiO2 
 PCOD9060538
Probable space group: P -1
;
_chemical_formula_sum "Si O2"
_cell_formula_units_Z 16
_cell_length_a 16.422959
_cell_length_b 13.786494
_cell_length_c 8.048073
_cell_angle_alpha 45.281012
_cell_angle_beta 44.227977
_cell_angle_gamma 35.322929
_cell_volume 702.173879
_symmetry_space_group_name_H-M "P -1"
_symmetry_group_IT_number 2
_symmetry_cell_setting 'triclinic'
loop_
_space_group_symop_operation_xyz
x,y,z
-x,-y,-z
loop_
_atom_site_type_symbol
_atom_site_label
_atom_site_fract_x
_atom_site_fract_y
_atom_site_fract_z
Si Si1 0.298299 0.293327 0.454977
Si Si2 0.447060 0.672604 0.974208
Si Si3 0.281269 0.140030 0.324490
Si Si4 0.967108 0.403445 0.297186
Si Si5 0.491755 0.826958 0.217014
Si Si6 0.964630 0.184365 0.300331
Si Si7 0.699078 0.989227 0.061629
Si Si8 0.647685 0.436416 0.458146
O O1 0.401397 0.348580 0.199770
O O2 0.273042 0.229956 0.397443
O O3 0.152555 0.455788 0.565435
O O4 0.356698 0.125124 0.688871
O O5 0.338196 0.887987 0.873190
O O6 0.500000 0.500000 0.000000
O O7 0.355822 0.662858 0.264264
O O8 0.117393 0.250836 0.356213
O O9 0.375974 0.932193 0.410778
O O10 0.382175 0.154545 0.032509
O O11 0.919352 0.304978 0.383454
O O12 0.000000 0.500000 0.000000
O O13 0.599103 0.623064 0.351720
O O14 0.388606 0.894683 0.117118
O O15 0.806280 0.311704 0.279916
O O16 0.000000 0.000000 0.500000
O O17 0.120701 0.137568 0.069763
O O18 0.500000 0.500000 0.500000
#
# Coordination Sequence:
#
# PCOD9060538 Si02
#       8
#     2   2   2   2   2   2   2   2
#     4  12  26  45  73 105 150 187 242 302 366 428
#     4  12  27  45  70 106 148 190 235 295 369 428
#     4  11  24  42  70 107 149 183 245 298 363 424
#     4  12  24  45  71 105 142 195 243 295 360 434
#     4  11  23  43  72 105 139 191 239 296 353 433
#     4  12  24  45  74 103 142 185 243 299 353 428
#     4  12  24  49  73 107 142 193 244 297 363 436
#     4  12  24  45  73 102 143 186 243 294 358 428
#
# _framework density 22.786377999999999
#
# number of rings (size 3 to 8) (size 9 to 14) (size 15 to 20)
#    0.000    0.250    6.250    2.250    1.750    2.000 
#    2.250    0.000    0.000    2.250    0.000    0.000 
#    0.000    0.000    0.000    0.000    0.000    0.000 
#
# Total GULP energy -89154.808657 kJ/mol
# GULP energy per Si atom -5572.175541 kJ/mol
# Density = 2.273452 g / cm^3
# Si number density = 22.786378 Si / 1000 Ang^3
#
#
#
# Elastic Constant Matrix: (Units=GPa)
#
#
# Indices 1 2 3 4 5 6 
#
# 1 72.6912 30.4236 13.8874 2.8689 -8.2166 7.7137
# 2 30.4236 180.2868 18.5014 12.2824 -6.2627 9.2321
# 3 13.8874 18.5014 66.5371 8.2242 -10.7627 -3.2526
# 4 2.8689 12.2824 8.2242 42.1955 5.5524 -9.5665
# 5 -8.2166 -6.2627 -10.7627 5.5524 27.8014 8.8883
# 6 7.7137 9.2321 -3.2526 -9.5665 8.8883 49.7541
#
#
#
# Elastic Compliance Matrix: (Units=1/GPa)
#
#
# Indices 1 2 3 4 5 6 
#
# 1 0.015957 -0.002046 -0.001949 -0.001521 0.004887 -0.003387
# 2 -0.002046 0.006249 -0.000918 -0.002025 0.001342 -0.001531
# 3 -0.001949 -0.000918 0.017262 -0.003945 0.006807 -0.000374
# 4 -0.001521 -0.002025 -0.003945 0.028287 -0.010536 0.007675
# 5 0.004887 0.001342 0.006807 -0.010536 0.045905 -0.010788
# 6 -0.003387 -0.001531 -0.000374 0.007675 -0.010788 0.024287
#
#
# Mechanical properties :
#
#
# Convention : Reuss Voigt Hill
#
# Bulk Modulus (GPa) = 33.73553 49.45997 41.59775
# Shear Modulus (GPa) = 31.71518 41.06372 36.38945
#
# Velocity S-wave (km/s) = 3.73480 4.24974 4.00056
# Velocity P-wave (km/s) = 5.78235 6.77004 6.29559
#
# Compressibility (1/GPa) = 0.02964234
#
# Stress axis : x y z
#
# Youngs Moduli (GPa) = 62.66705 160.02139 57.93173
#
# Poissons Ratio (x) = 0.32741 0.11289
# Poissons Ratio (y) = 0.12822 0.05319
# Poissons Ratio (z) = 0.12212 0.14693
#
# Static dielectric constant tensor:
#      x y z
#    x 2.015320 0.077340 -0.031580 
#    y 0.077340 1.960270 -0.087000 
#    z -0.031580 -0.087000 1.905260 
# 
# From -- ./inp_files/335628.got.cif
#   From: 2010.05.17/outbox.cif.g08.bks.cpg/sg2_168_cif.got.tgz:335628.got - 2010.06.03 11:33:40.
