data_PCOD9060620
_publ_section_title
;
Structure prediction by ZEFSAII (Michael W. Deem and Ramdas Pophale) SiO2 
 PCOD9060620
Probable space group: P -1
;
_chemical_formula_sum "Si O2"
_cell_formula_units_Z 16
_cell_length_a 12.249007
_cell_length_b 9.782249
_cell_length_c 10.216852
_cell_angle_alpha 138.403026
_cell_angle_beta 125.333697
_cell_angle_gamma 73.673838
_cell_volume 636.598648
_symmetry_space_group_name_H-M "P -1"
_symmetry_group_IT_number 2
_symmetry_cell_setting 'triclinic'
loop_
_space_group_symop_operation_xyz
x,y,z
-x,-y,-z
loop_
_atom_site_type_symbol
_atom_site_label
_atom_site_fract_x
_atom_site_fract_y
_atom_site_fract_z
Si Si1 0.365840 0.616084 0.132540
Si Si2 0.174717 0.209933 0.789028
Si Si3 0.454987 0.948924 0.080478
Si Si4 0.164916 0.907048 0.798017
Si Si5 0.348354 0.455253 0.721155
Si Si6 0.732314 0.142152 0.565843
Si Si7 0.949720 0.751827 0.754965
Si Si8 0.923746 0.405744 0.696559
O O1 0.533071 0.670161 0.279450
O O2 0.300803 0.802444 0.269500
O O3 0.309821 0.411170 0.041887
O O4 0.308673 0.512797 0.880476
O O5 0.210358 0.333288 0.461585
O O6 0.136433 0.090891 0.817257
O O7 0.206313 0.046895 0.583801
O O8 0.579151 0.081468 0.351974
O O9 0.500000 0.000000 0.000000
O O10 0.308242 0.999593 0.040294
O O11 0.423301 0.694338 0.894303
O O12 0.188974 0.743878 0.587500
O O13 0.048333 0.754597 0.699576
O O14 0.842972 0.358983 0.743612
O O15 0.969489 0.628019 0.811916
O O16 0.950134 0.700514 0.281695
O O17 0.000000 0.000000 0.000000
#
# Coordination Sequence:
#
# PCOD9060620 Si02
#       8
#     2   2   2   2   2   2   2   2
#     4  11  26  47  78 110 158 200 262 317 387 462
#     4  11  24  49  74 111 157 203 255 322 386 456
#     4  12  21  45  76 108 151 197 256 318 391 456
#     4  11  23  43  74 104 150 208 244 314 394 446
#     4  11  25  51  72 109 161 204 244 335 390 448
#     4  11  24  45  79 117 145 208 262 312 393 467
#     4  12  28  48  75 117 154 206 262 315 392 469
#     4  11  24  48  78 108 158 201 254 324 387 456
#
# _framework density 25.133575
#
# number of rings (size 3 to 8) (size 9 to 14) (size 15 to 20)
#    0.000    0.750    5.000    2.625    5.250    1.000 
#    4.500    1.875    0.000    0.000    0.000    0.000 
#    0.000    0.000    0.000    0.000    0.000    0.000 
#
# Total GULP energy -89467.900610 kJ/mol
# GULP energy per Si atom -5591.743788 kJ/mol
# Density = 2.507637 g / cm^3
# Si number density = 25.133575 Si / 1000 Ang^3
#
#
#
# Elastic Constant Matrix: (Units=GPa)
#
#
# Indices 1 2 3 4 5 6 
#
# 1 144.7967 41.6777 64.3646 -4.6393 4.6253 -7.2873
# 2 41.6777 132.9366 31.8752 25.5255 4.5504 -2.8876
# 3 64.3646 31.8752 81.5354 5.6135 2.8927 -12.4043
# 4 -4.6393 25.5255 5.6135 27.9540 5.2962 13.9699
# 5 4.6253 4.5504 2.8927 5.2962 57.4293 -5.9395
# 6 -7.2873 -2.8876 -12.4043 13.9699 -5.9395 37.2401
#
#
#
# Elastic Compliance Matrix: (Units=1/GPa)
#
#
# Indices 1 2 3 4 5 6 
#
# 1 0.012433 -0.003552 -0.009867 0.010230 -0.001708 -0.005239
# 2 -0.003552 0.011396 0.000151 -0.014138 0.001274 0.005746
# 3 -0.009867 0.000151 0.022281 -0.011668 0.001788 0.010165
# 4 0.010230 -0.014138 -0.011668 0.069600 -0.008686 -0.030476
# 5 -0.001708 0.001274 0.001788 -0.008686 0.018846 0.006624
# 6 -0.005239 0.005746 0.010165 -0.030476 0.006624 0.042148
#
#
# Mechanical properties :
#
#
# Convention : Reuss Voigt Hill
#
# Bulk Modulus (GPa) = 51.08716 70.56708 60.82712
# Shear Modulus (GPa) = 23.83632 39.28141 31.55887
#
# Velocity S-wave (km/s) = 3.08293 3.95765 3.54735
# Velocity P-wave (km/s) = 5.74830 7.00155 6.40565
#
# Compressibility (1/GPa) = 0.01957439
#
# Stress axis : x y z
#
# Youngs Moduli (GPa) = 80.42871 87.75327 44.88101
#
# Poissons Ratio (x) = 0.31168 0.44285
# Poissons Ratio (y) = 0.28566 -0.00678
# Poissons Ratio (z) = 0.79361 -0.01326
#
# Static dielectric constant tensor:
#      x y z
#    x 2.371790 0.176800 -0.241330 
#    y 0.176800 2.158420 -0.092550 
#    z -0.241330 -0.092550 2.115950 
# 
# From -- ./inp_files/296923.got.cif
#   From: 2010.05.17/outbox.cif.g08.bks.cpg/sg2_149_cif.got.tgz:296923.got - 2010.06.03 11:33:40.
