data_PCOD9060947
_publ_section_title
;
Structure prediction by ZEFSAII (Michael W. Deem and Ramdas Pophale) SiO2 
 PCOD9060947
Probable space group: P -1
;
_chemical_formula_sum "Si O2"
_cell_formula_units_Z 12
_cell_length_a 13.808238
_cell_length_b 9.679141
_cell_length_c 9.462268
_cell_angle_alpha 78.471377
_cell_angle_beta 45.110463
_cell_angle_gamma 42.388688
_cell_volume 446.807530
_symmetry_space_group_name_H-M "P -1"
_symmetry_group_IT_number 2
_symmetry_cell_setting 'triclinic'
loop_
_space_group_symop_operation_xyz
x,y,z
-x,-y,-z
loop_
_atom_site_type_symbol
_atom_site_label
_atom_site_fract_x
_atom_site_fract_y
_atom_site_fract_z
Si Si1 0.656938 0.301150 0.783307
Si Si2 0.332401 0.253634 0.524518
Si Si3 0.947864 0.359166 0.801789
Si Si4 0.269211 0.586930 0.709606
Si Si5 0.000076 0.015458 0.725926
Si Si6 0.556943 0.806466 0.899477
O O1 0.676585 0.338490 0.930588
O O2 0.720878 0.299838 0.562311
O O3 0.621139 0.165977 0.870665
O O4 0.000000 0.000000 0.500000
O O5 0.295232 0.429611 0.611266
O O6 0.456538 0.169401 0.258699
O O7 0.071927 0.390104 0.731225
O O8 0.500000 0.000000 0.500000
O O9 0.840805 0.502767 0.729510
O O10 0.098684 0.081610 0.660864
O O11 0.757002 0.465175 0.097911
O O12 0.500000 0.500000 0.500000
O O13 0.985500 0.918681 0.890421
O O14 0.500000 0.000000 0.000000
#
# Coordination Sequence:
#
# PCOD9060947 Si02
#       6
#     2   2   2   2   2   2
#     4  11  23  44  70 108 144 188 240 300 358 432
#     4  12  28  47  72 104 147 194 245 298 369 433
#     4  12  26  48  71 108 149 188 245 303 365 438
#     4  12  27  46  75 105 146 194 246 304 364 431
#     4  11  25  42  74 105 145 188 243 296 364 428
#     4  12  26  44  75 102 149 190 245 296 367 432
#
# _framework density 26.857202999999998
#
# number of rings (size 3 to 8) (size 9 to 14) (size 15 to 20)
#    0.000    0.333    1.667    6.500    9.333    0.000 
#    0.000    0.000    0.000    0.000    0.000    0.000 
#    0.000    0.000    0.000    0.000    0.000    0.000 
#
# Total GULP energy -66846.320325 kJ/mol
# GULP energy per Si atom -5570.526694 kJ/mol
# Density = 2.679607 g / cm^3
# Si number density = 26.857203 Si / 1000 Ang^3
#
#
#
# Elastic Constant Matrix: (Units=GPa)
#
#
# Indices 1 2 3 4 5 6 
#
# 1 137.2848 71.0657 53.9902 -1.0423 -11.8265 0.5814
# 2 71.0657 196.7599 36.0606 -19.2903 11.6886 4.6703
# 3 53.9902 36.0606 119.7712 -1.3059 1.7580 1.2888
# 4 -1.0423 -19.2903 -1.3059 45.3188 14.8971 5.0495
# 5 -11.8265 11.6886 1.7580 14.8971 57.0568 -7.0621
# 6 0.5814 4.6703 1.2888 5.0495 -7.0621 75.6378
#
#
#
# Elastic Compliance Matrix: (Units=1/GPa)
#
#
# Indices 1 2 3 4 5 6 
#
# 1 0.011170 -0.003855 -0.003975 -0.002933 0.004092 0.000798
# 2 -0.003855 0.007177 -0.000315 0.004216 -0.003486 -0.001015
# 3 -0.003975 -0.000315 0.010263 0.000509 -0.001243 -0.000275
# 4 -0.002933 0.004216 0.000509 0.027058 -0.008909 -0.002885
# 5 0.004092 -0.003486 -0.001243 -0.008909 0.021804 0.002836
# 6 0.000798 -0.001015 -0.000275 -0.002885 0.002836 0.013739
#
#
# Mechanical properties :
#
#
# Convention : Reuss Voigt Hill
#
# Bulk Modulus (GPa) = 81.17452 86.22766 83.70109
# Shear Modulus (GPa) = 44.79956 55.11596 49.95776
#
# Velocity S-wave (km/s) = 4.08863 4.53502 4.31760
# Velocity P-wave (km/s) = 7.25116 7.71994 7.48922
#
# Compressibility (1/GPa) = 0.01231914
#
# Stress axis : x y z
#
# Youngs Moduli (GPa) = 89.52520 139.33187 97.44050
#
# Poissons Ratio (x) = 0.53718 0.38733
# Poissons Ratio (y) = 0.34516 0.03068
# Poissons Ratio (z) = 0.35587 0.04387
#
# Static dielectric constant tensor:
#      x y z
#    x 2.392760 0.727830 -0.473200 
#    y 0.727830 2.855460 -0.267280 
#    z -0.473200 -0.267280 2.095970 
# 
# From -- ./inp_files/234022.got.cif
#   From: 2010.05.17/outbox.cif.g08.bks.cpg/sg2_118_cif.got.tgz:234022.got - 2010.06.03 11:33:40.
