data_PCOD9060753
_publ_section_title
;
Structure prediction by ZEFSAII (Michael W. Deem and Ramdas Pophale) SiO2 
 PCOD9060753
Probable space group: P -1
;
_chemical_formula_sum "Si O2"
_cell_formula_units_Z 16
_cell_length_a 9.165141
_cell_length_b 18.405090
_cell_length_c 6.683669
_cell_angle_alpha 55.123857
_cell_angle_beta 49.514326
_cell_angle_gamma 67.024366
_cell_volume 703.148840
_symmetry_space_group_name_H-M "P -1"
_symmetry_group_IT_number 2
_symmetry_cell_setting 'triclinic'
loop_
_space_group_symop_operation_xyz
x,y,z
-x,-y,-z
loop_
_atom_site_type_symbol
_atom_site_label
_atom_site_fract_x
_atom_site_fract_y
_atom_site_fract_z
Si Si1 0.816365 0.721560 0.622077
Si Si2 0.884639 0.919492 0.134619
Si Si3 0.449456 0.542750 0.687110
Si Si4 0.591556 0.199971 0.077887
Si Si5 0.841732 0.148277 0.324502
Si Si6 0.190581 0.436840 0.391991
Si Si7 0.389561 0.955265 0.990732
Si Si8 0.147214 0.699608 0.623463
O O1 0.877281 0.824751 0.395874
O O2 0.587737 0.733371 0.829359
O O3 0.862159 0.660894 0.483569
O O4 0.938605 0.676029 0.763330
O O5 0.976992 0.896510 0.874490
O O6 0.678386 0.964436 0.215488
O O7 0.000000 0.000000 0.000000
O O8 0.500000 0.500000 0.500000
O O9 0.654148 0.566843 0.562414
O O10 0.302015 0.624619 0.659673
O O11 0.324943 0.477163 0.035623
O O12 0.686151 0.163504 0.258508
O O13 0.528767 0.122390 0.102697
O O14 0.753254 0.249963 0.730337
O O15 0.777459 0.089659 0.661280
O O16 0.879911 0.240433 0.251392
O O17 0.000000 0.500000 0.500000
O O18 0.500000 0.000000 0.000000
#
# Coordination Sequence:
#
# PCOD9060753 Si02
#       8
#     2   2   2   2   2   2   2   2
#     4  12  26  44  73 103 140 186 232 291 347 418
#     4  12  24  44  68  97 139 188 234 286 354 405
#     4  11  25  48  76 105 147 185 231 294 358 426
#     4  11  24  46  64  98 141 177 236 287 349 408
#     4  11  23  44  66  91 141 181 229 289 349 408
#     4  11  27  48  75 110 146 185 234 293 358 424
#     4  11  25  39  64  96 127 183 235 291 344 413
#     4  11  25  44  69 103 136 183 231 283 346 418
#
# _framework density 22.754785999999999
#
# number of rings (size 3 to 8) (size 9 to 14) (size 15 to 20)
#    0.000    0.750    2.500    4.125    5.250    7.000 
#    0.000    0.000    0.000    0.000    0.000    0.000 
#    0.000    0.000    0.000    0.000    0.000    0.000 
#
# Total GULP energy -89375.094387 kJ/mol
# GULP energy per Si atom -5585.943399 kJ/mol
# Density = 2.270299 g / cm^3
# Si number density = 22.754786 Si / 1000 Ang^3
#
#
#
# Elastic Constant Matrix: (Units=GPa)
#
#
# Indices 1 2 3 4 5 6 
#
# 1 119.6308 43.2110 -1.1035 -6.5138 16.6290 -2.0978
# 2 43.2110 145.0574 8.3780 19.3613 8.0517 -5.9371
# 3 -1.1035 8.3780 74.0800 11.0420 3.3281 -1.8391
# 4 -6.5138 19.3613 11.0420 36.7789 -1.8670 2.6031
# 5 16.6290 8.0517 3.3281 -1.8670 27.8884 5.3772
# 6 -2.0978 -5.9371 -1.8391 2.6031 5.3772 45.7263
#
#
#
# Elastic Compliance Matrix: (Units=1/GPa)
#
#
# Indices 1 2 3 4 5 6 
#
# 1 0.010437 -0.003239 0.000297 0.003164 -0.005208 0.000503
# 2 -0.003239 0.008694 -0.000159 -0.005263 -0.001185 0.001413
# 3 0.000297 -0.000159 0.014302 -0.004354 -0.002340 0.001091
# 4 0.003164 -0.005263 -0.004354 0.032177 0.002862 -0.002882
# 5 -0.005208 -0.001185 -0.002340 0.002862 0.040827 -0.005451
# 6 0.000503 0.001413 0.001091 -0.002882 -0.005451 0.022925
#
#
# Mechanical properties :
#
#
# Convention : Reuss Voigt Hill
#
# Bulk Modulus (GPa) = 36.72279 48.85992 42.79136
# Shear Modulus (GPa) = 34.56858 41.29757 37.93308
#
# Velocity S-wave (km/s) = 3.90189 4.26478 4.08737
# Velocity P-wave (km/s) = 6.03931 6.76536 6.41262
#
# Compressibility (1/GPa) = 0.02723104
#
# Stress axis : x y z
#
# Youngs Moduli (GPa) = 95.81517 115.02454 69.91804
#
# Poissons Ratio (x) = 0.37254 -0.02073
# Poissons Ratio (y) = 0.31033 0.01110
# Poissons Ratio (z) = -0.02841 0.01826
#
# Static dielectric constant tensor:
#      x y z
#    x 1.877470 0.021340 -0.051900 
#    y 0.021340 1.779280 -0.093570 
#    z -0.051900 -0.093570 1.901190 
# 
# From -- ./inp_files/46525.got.cif
#   From: 2010.05.17/outbox.cif.g08.bks.cpg/sg2_24_cif.got.tgz:46525.got - 2010.06.03 11:33:40.
