data_PCOD9060278
_publ_section_title
;
Structure prediction by ZEFSAII (Michael W. Deem and Ramdas Pophale) SiO2 
 PCOD9060278
Probable space group: P -1
;
_chemical_formula_sum "Si O2"
_cell_formula_units_Z 15
_cell_length_a 9.829828
_cell_length_b 12.185992
_cell_length_c 22.851044
_cell_angle_alpha 28.209965
_cell_angle_beta 34.812508
_cell_angle_gamma 36.419507
_cell_volume 704.459554
_symmetry_space_group_name_H-M "P -1"
_symmetry_group_IT_number 2
_symmetry_cell_setting 'triclinic'
loop_
_space_group_symop_operation_xyz
x,y,z
-x,-y,-z
loop_
_atom_site_type_symbol
_atom_site_label
_atom_site_fract_x
_atom_site_fract_y
_atom_site_fract_z
Si Si1 0.877299 0.794645 0.826570
Si Si2 0.970634 0.727686 0.480076
Si Si3 0.639787 0.594616 0.165467
Si Si4 0.239631 0.459453 0.129218
Si Si5 0.356034 0.893044 0.032848
Si Si6 0.803013 0.886922 0.590665
Si Si7 0.000000 0.000000 0.000000
Si Si8 0.599713 0.687483 0.533275
O O1 0.841472 0.672622 0.835107
O O2 0.629134 0.838018 0.931976
O O3 0.131456 0.608903 0.849245
O O4 0.921143 0.051206 0.677946
O O5 0.923677 0.736725 0.561279
O O6 0.724198 0.769602 0.507617
O O7 0.171961 0.479412 0.506236
O O8 0.564053 0.474955 0.306167
O O9 0.708267 0.840036 0.040871
O O10 0.399693 0.690169 0.163188
O O11 0.276086 0.280525 0.255582
O O12 0.500000 0.500000 0.000000
O O13 0.047689 0.721001 0.088202
O O14 0.162506 0.885846 0.054834
O O15 0.572846 0.100011 0.545178
O O16 0.000000 0.000000 0.500000
#
# Coordination Sequence:
#
# PCOD9060278 Si02
#       8
#     2   2   2   2   2   2   1   2
#     4  12  22  45  69 100 140 185 231 290 346 424
#     4  11  25  44  70 102 140 181 235 291 350 417
#     4  11  23  43  69 100 138 182 231 289 352 411
#     4  12  27  46  69 107 143 183 237 288 357 419
#     4  11  25  42  68 103 137 183 231 286 354 416
#     4  12  26  47  75 102 141 192 235 289 360 425
#     4  12  26  46  70  98 146 180 228 300 340 420
#     4  11  25  46  70 104 141 181 239 296 344 422
#
# _framework density 21.292916999999999
#
# number of rings (size 3 to 8) (size 9 to 14) (size 15 to 20)
#    0.000    0.533    6.667    0.800    1.867    1.600 
#    4.800    0.000    0.000    0.000    0.000    0.000 
#    0.000    0.000    0.000    0.000    0.000    0.000 
#
# Total GULP energy -83664.137136 kJ/mol
# GULP energy per Si atom -5577.609142 kJ/mol
# Density = 2.124445 g / cm^3
# Si number density = 21.292917 Si / 1000 Ang^3
#
#
#
# Elastic Constant Matrix: (Units=GPa)
#
#
# Indices 1 2 3 4 5 6 
#
# 1 123.2014 9.9675 24.1677 -1.0587 10.1503 4.2920
# 2 9.9675 63.7905 26.6415 4.5976 16.9104 10.4944
# 3 24.1677 26.6415 112.4666 -6.3610 26.7879 -4.8637
# 4 -1.0587 4.5976 -6.3610 16.5081 -2.9868 2.8589
# 5 10.1503 16.9104 26.7879 -2.9868 33.2388 -10.8838
# 6 4.2920 10.4944 -4.8637 2.8589 -10.8838 36.7319
#
#
#
# Elastic Compliance Matrix: (Units=1/GPa)
#
#
# Indices 1 2 3 4 5 6 
#
# 1 0.008634 0.000152 -0.001465 -0.000119 -0.002158 -0.001877
# 2 0.000152 0.022722 -0.003198 -0.008157 -0.013095 -0.010178
# 3 -0.001465 -0.003198 0.011885 0.004056 -0.007057 0.000252
# 4 -0.000119 -0.008157 0.004056 0.065663 0.006742 -0.000231
# 5 -0.002158 -0.013095 -0.007057 0.006742 0.049314 0.017146
# 6 -0.001877 -0.010178 0.000252 -0.000231 0.017146 0.035483
#
#
# Mechanical properties :
#
#
# Convention : Reuss Voigt Hill
#
# Bulk Modulus (GPa) = 29.22285 46.77910 38.00098
# Shear Modulus (GPa) = 23.35036 33.20789 28.27912
#
# Velocity S-wave (km/s) = 3.31513 3.95343 3.64826
# Velocity P-wave (km/s) = 5.32986 6.54649 5.96925
#
# Compressibility (1/GPa) = 0.03421980
#
# Stress axis : x y z
#
# Youngs Moduli (GPa) = 115.82016 44.01089 84.13917
#
# Poissons Ratio (x) = -0.00670 0.12328
# Poissons Ratio (y) = -0.01764 0.26904
# Poissons Ratio (z) = 0.16970 0.14073
#
# Static dielectric constant tensor:
#      x y z
#    x 1.778810 -0.008360 -0.014210 
#    y -0.008360 1.774780 0.018550 
#    z -0.014210 0.018550 1.756490 
# 
# From -- ./inp_files/263826.got.cif
#   From: 2010.05.17/outbox.cif.g08.bks.cpg/sg2_132_cif.got.tgz:263826.got - 2010.06.03 11:33:40.
