data_PCOD9060377
_publ_section_title
;
Structure prediction by ZEFSAII (Michael W. Deem and Ramdas Pophale) SiO2 
 PCOD9060377
Probable space group: P -1
;
_chemical_formula_sum "Si O2"
_cell_formula_units_Z 16
_cell_length_a 9.292325
_cell_length_b 15.551539
_cell_length_c 8.444525
_cell_angle_alpha 130.647205
_cell_angle_beta 101.177584
_cell_angle_gamma 110.914247
_cell_volume 690.877322
_symmetry_space_group_name_H-M "P -1"
_symmetry_group_IT_number 2
_symmetry_cell_setting 'triclinic'
loop_
_space_group_symop_operation_xyz
x,y,z
-x,-y,-z
loop_
_atom_site_type_symbol
_atom_site_label
_atom_site_fract_x
_atom_site_fract_y
_atom_site_fract_z
Si Si1 0.548435 0.898066 0.334468
Si Si2 0.122568 0.399060 0.268371
Si Si3 0.085446 0.943798 0.187355
Si Si4 0.259784 0.151473 0.164137
Si Si5 0.504538 0.462451 0.688529
Si Si6 0.002148 0.426054 0.604923
Si Si7 0.570254 0.149426 0.112217
Si Si8 0.637768 0.417716 0.983470
O O1 0.500000 0.000000 0.500000
O O2 0.759628 0.967903 0.532306
O O3 0.504596 0.880018 0.117672
O O4 0.403295 0.734080 0.181363
O O5 0.327365 0.463343 0.316619
O O6 0.034375 0.460763 0.226883
O O7 0.128107 0.464477 0.519181
O O8 0.980715 0.220340 0.026017
O O9 0.181456 0.035531 0.152968
O O10 0.887045 0.917458 0.098547
O O11 0.302916 0.303203 0.402856
O O12 0.466989 0.204625 0.235145
O O13 0.475562 0.571393 0.888957
O O14 0.563787 0.418754 0.800660
O O15 0.796985 0.270346 0.334679
O O16 0.136178 0.440437 0.784599
O O17 0.500000 0.000000 0.000000
#
# Coordination Sequence:
#
# PCOD9060377 Si02
#       8
#     2   2   2   2   2   2   2   2
#     4  12  25  46  72 103 149 188 236 301 357 431
#     4  11  23  43  70 104 136 188 240 299 355 429
#     4  11  25  44  72 101 146 190 236 289 374 419
#     4  11  24  48  70 101 145 191 237 302 356 435
#     4  11  25  46  72 104 149 187 244 305 358 426
#     4  11  23  44  69 103 142 184 246 293 365 429
#     4  12  27  45  73 105 141 191 245 297 363 434
#     4  11  26  45  73 105 145 192 243 298 364 430
#
# _framework density 23.158957999999998
#
# number of rings (size 3 to 8) (size 9 to 14) (size 15 to 20)
#    0.000    0.750    2.500    5.250    1.750    4.000 
#    0.000    0.000    0.000    0.000    0.000    0.000 
#    0.000    0.000    0.000    0.000    0.000    0.000 
#
# Total GULP energy -89406.701214 kJ/mol
# GULP energy per Si atom -5587.918826 kJ/mol
# Density = 2.310625 g / cm^3
# Si number density = 23.158958 Si / 1000 Ang^3
#
#
#
# Elastic Constant Matrix: (Units=GPa)
#
#
# Indices 1 2 3 4 5 6 
#
# 1 98.0403 32.3475 47.2119 -2.3055 17.1784 2.8522
# 2 32.3475 97.6002 52.2491 18.7451 13.5061 -13.2831
# 3 47.2119 52.2491 122.3155 5.0033 32.1963 -7.3082
# 4 -2.3055 18.7451 5.0033 34.5930 -21.4137 6.1689
# 5 17.1784 13.5061 32.1963 -21.4137 52.4681 -4.5341
# 6 2.8522 -13.2831 -7.3082 6.1689 -4.5341 30.6411
#
#
#
# Elastic Compliance Matrix: (Units=1/GPa)
#
#
# Indices 1 2 3 4 5 6 
#
# 1 0.013714 -0.004013 -0.004307 0.005119 0.000848 -0.004949
# 2 -0.004013 0.018843 -0.003323 -0.016279 -0.007282 0.009950
# 3 -0.004307 -0.003323 0.013919 -0.006244 -0.008629 0.002260
# 4 0.005119 -0.016279 -0.006244 0.060208 0.029468 -0.016784
# 5 0.000848 -0.007282 -0.008629 0.029468 0.037487 -0.005679
# 6 -0.004949 0.009950 0.002260 -0.016784 -0.005679 0.040488
#
#
# Mechanical properties :
#
#
# Convention : Reuss Voigt Hill
#
# Bulk Modulus (GPa) = 43.12284 64.61923 53.87104
# Shear Modulus (GPa) = 23.18288 35.95029 29.56658
#
# Velocity S-wave (km/s) = 3.16734 3.94423 3.57694
# Velocity P-wave (km/s) = 5.66011 6.97895 6.35384
#
# Compressibility (1/GPa) = 0.02318957
#
# Stress axis : x y z
#
# Youngs Moduli (GPa) = 72.91790 53.06895 71.84214
#
# Poissons Ratio (x) = 0.21298 0.30944
# Poissons Ratio (y) = 0.29265 0.23874
# Poissons Ratio (z) = 0.31407 0.17635
#
# Static dielectric constant tensor:
#      x y z
#    x 1.972100 0.002510 0.019860 
#    y 0.002510 1.866140 -0.000740 
#    z 0.019860 -0.000740 1.906710 
# 
# From -- ./inp_files/209068.got.cif
#   From: 2010.05.17/outbox.cif.g08.bks.cpg/sg2_105_cif.got.tgz:209068.got - 2010.06.03 11:33:40.
