data_PCOD9060591
_publ_section_title
;
Structure prediction by ZEFSAII (Michael W. Deem and Ramdas Pophale) SiO2 
 PCOD9060591
Probable space group: P -1
;
_chemical_formula_sum "Si O2"
_cell_formula_units_Z 14
_cell_length_a 14.568325
_cell_length_b 24.127060
_cell_length_c 5.815422
_cell_angle_alpha 60.484940
_cell_angle_beta 117.707607
_cell_angle_gamma 160.683148
_cell_volume 588.413175
_symmetry_space_group_name_H-M "P -1"
_symmetry_group_IT_number 2
_symmetry_cell_setting 'triclinic'
loop_
_space_group_symop_operation_xyz
x,y,z
-x,-y,-z
loop_
_atom_site_type_symbol
_atom_site_label
_atom_site_fract_x
_atom_site_fract_y
_atom_site_fract_z
Si Si1 0.932591 0.563899 0.223220
Si Si2 0.003054 0.075972 0.300834
Si Si3 0.804371 0.363637 0.247479
Si Si4 0.180070 0.980795 0.304229
Si Si5 0.944784 0.219692 0.573431
Si Si6 0.588523 0.477206 0.187010
Si Si7 0.552922 0.081300 0.094933
O O1 0.763662 0.407134 0.251033
O O2 0.779056 0.544611 0.091344
O O3 0.011560 0.585688 0.523131
O O4 0.240739 0.745954 0.100479
O O5 0.309092 0.278418 0.281641
O O6 0.000000 0.000000 0.500000
O O7 0.834341 0.004564 0.476176
O O8 0.928973 0.046079 0.002987
O O9 0.508683 0.164394 0.261438
O O10 0.000000 0.500000 0.000000
O O11 0.017341 0.820881 0.452569
O O12 0.743451 0.155152 0.354052
O O13 0.219812 0.408603 0.598180
O O14 0.757080 0.082792 0.841694
O O15 0.500000 0.500000 0.000000
O O16 0.500000 0.000000 0.000000
#
# Coordination Sequence:
#
# PCOD9060591 Si02
#       7
#     2   2   2   2   2   2   2
#     4  11  26  45  76 110 152 198 252 327 393 471
#     4  12  30  53  77 109 155 215 264 318 381 468
#     4  11  27  47  77 113 148 197 257 328 399 467
#     4  12  28  49  81 108 154 200 263 323 389 463
#     4  11  26  43  73 114 147 198 250 326 392 470
#     4  12  27  50  74 112 155 206 265 315 383 466
#     4  11  23  43  73 107 150 187 248 319 403 454
#
# _framework density 23.792805000000001
#
# number of rings (size 3 to 8) (size 9 to 14) (size 15 to 20)
#    0.000    0.571    2.857    3.000   16.000    1.714 
#    0.000    0.000    0.000    0.000    0.000    0.000 
#    0.000    0.000    0.000    0.000    0.000    0.000 
#
# Total GULP energy -78114.691331 kJ/mol
# GULP energy per Si atom -5579.620809 kJ/mol
# Density = 2.373865 g / cm^3
# Si number density = 23.792805 Si / 1000 Ang^3
#
#
#
# Elastic Constant Matrix: (Units=GPa)
#
#
# Indices 1 2 3 4 5 6 
#
# 1 93.5162 3.7257 2.1478 4.4686 9.4016 -10.9095
# 2 3.7257 130.7144 24.0318 7.1422 2.9239 -10.0864
# 3 2.1478 24.0318 98.7686 2.8640 5.4084 9.5909
# 4 4.4686 7.1422 2.8640 40.0187 -0.7324 -2.2143
# 5 9.4016 2.9239 5.4084 -0.7324 37.7749 -11.9751
# 6 -10.9095 -10.0864 9.5909 -2.2143 -11.9751 41.1024
#
#
#
# Elastic Compliance Matrix: (Units=1/GPa)
#
#
# Indices 1 2 3 4 5 6 
#
# 1 0.011239 0.000038 -0.000347 -0.001139 -0.002003 0.002428
# 2 0.000038 0.008327 -0.002279 -0.001171 0.000495 0.002666
# 3 -0.000347 -0.002279 0.011247 -0.000634 -0.002654 -0.004083
# 4 -0.001139 -0.001171 -0.000634 0.025469 0.001381 0.001333
# 5 -0.002003 0.000495 -0.002654 0.001381 0.030221 0.009088
# 6 0.002428 0.002666 -0.004083 0.001333 0.009088 0.029301
#
#
# Mechanical properties :
#
#
# Convention : Reuss Voigt Hill
#
# Bulk Modulus (GPa) = 39.00613 42.53442 40.77027
# Shear Modulus (GPa) = 38.60284 43.31879 40.96081
#
# Velocity S-wave (km/s) = 4.03235 4.27156 4.15367
# Velocity P-wave (km/s) = 6.17328 6.49955 6.33851
#
# Compressibility (1/GPa) = 0.02563700
#
# Stress axis : x y z
#
# Youngs Moduli (GPa) = 88.97697 120.09413 88.91324
#
# Poissons Ratio (x) = -0.00454 0.03083
# Poissons Ratio (y) = -0.00337 0.20263
# Poissons Ratio (z) = 0.03085 0.27368
#
# Static dielectric constant tensor:
#      x y z
#    x 2.073970 -0.040430 0.070020 
#    y -0.040430 1.921230 -0.253690 
#    z 0.070020 -0.253690 2.790110 
# 
# From -- ./inp_files/101019.got.cif
#   From: 2010.05.17/outbox.cif.g08.bks.cpg/sg2_51_cif.got.tgz:101019.got - 2010.06.03 11:33:40.
