data_PCOD9060704
_publ_section_title
;
Structure prediction by ZEFSAII (Michael W. Deem and Ramdas Pophale) SiO2 
 PCOD9060704
Probable space group: P -1
;
_chemical_formula_sum "Si O2"
_cell_formula_units_Z 16
_cell_length_a 18.985838
_cell_length_b 11.831691
_cell_length_c 9.472270
_cell_angle_alpha 136.583742
_cell_angle_beta 136.179401
_cell_angle_gamma 31.493197
_cell_volume 732.409115
_symmetry_space_group_name_H-M "P -1"
_symmetry_group_IT_number 2
_symmetry_cell_setting 'triclinic'
loop_
_space_group_symop_operation_xyz
x,y,z
-x,-y,-z
loop_
_atom_site_type_symbol
_atom_site_label
_atom_site_fract_x
_atom_site_fract_y
_atom_site_fract_z
Si Si1 0.850482 0.526401 0.715336
Si Si2 0.415866 0.953577 0.253973
Si Si3 0.378356 0.019706 0.783117
Si Si4 0.386602 0.793903 0.340762
Si Si5 0.144413 0.844684 0.658242
Si Si6 0.079034 0.480420 0.866989
Si Si7 0.917614 0.962022 0.940794
Si Si8 0.595264 0.264407 0.201050
O O1 0.795833 0.407670 0.488716
O O2 0.979547 0.435857 0.719161
O O3 0.733172 0.797078 0.773038
O O4 0.894902 0.474950 0.897395
O O5 0.402729 0.820035 0.224278
O O6 0.500000 0.000000 0.500000
O O7 0.469903 0.806020 0.056707
O O8 0.407214 0.936638 0.589421
O O9 0.381668 0.844763 0.714723
O O10 0.226681 0.267143 0.818252
O O11 0.500000 0.000000 0.000000
O O12 0.493966 0.533061 0.302369
O O13 0.226799 0.915804 0.237045
O O14 0.256591 0.842256 0.747830
O O15 0.114521 0.928449 0.851333
O O16 0.000000 0.000000 0.500000
O O17 0.000919 0.700520 0.856698
O O18 0.000000 0.000000 0.000000
#
# Coordination Sequence:
#
# PCOD9060704 Si02
#       8
#     2   2   2   2   2   2   2   2
#     4  11  23  43  78 104 137 185 248 303 344 426
#     4  12  24  45  73 109 139 187 238 299 360 419
#     4  12  29  47  74 103 142 198 241 291 365 433
#     4  12  28  47  68 107 151 183 237 302 364 421
#     4  12  25  44  78 107 137 191 243 291 358 430
#     4  11  24  49  71 101 145 187 247 295 351 432
#     4  12  29  47  71 109 150 188 233 300 373 423
#     4  12  26  49  73 103 147 190 246 293 352 441
#
# _framework density 21.845714000000001
#
# number of rings (size 3 to 8) (size 9 to 14) (size 15 to 20)
#    0.000    0.250    5.000    3.000    8.750    1.500 
#    0.000    0.000    0.000    0.000    0.000    0.000 
#    0.000    0.000    0.000    0.000    0.000    0.000 
#
# Total GULP energy -89585.818195 kJ/mol
# GULP energy per Si atom -5599.113637 kJ/mol
# Density = 2.179599 g / cm^3
# Si number density = 21.845714 Si / 1000 Ang^3
#
#
#
# Elastic Constant Matrix: (Units=GPa)
#
#
# Indices 1 2 3 4 5 6 
#
# 1 85.0827 33.5824 3.2054 -7.5518 -1.3536 12.7972
# 2 33.5824 114.0110 14.2559 5.4918 0.5637 -2.6204
# 3 3.2054 14.2559 92.1402 -2.7925 5.4757 -11.1721
# 4 -7.5518 5.4918 -2.7925 34.2307 -0.8848 5.4650
# 5 -1.3536 0.5637 5.4757 -0.8848 34.9814 -1.3804
# 6 12.7972 -2.6204 -11.1721 5.4650 -1.3804 28.4678
#
#
#
# Elastic Compliance Matrix: (Units=1/GPa)
#
#
# Indices 1 2 3 4 5 6 
#
# 1 0.015568 -0.004972 -0.000702 0.005591 0.000588 -0.008776
# 2 -0.004972 0.010625 -0.001153 -0.003444 -0.000135 0.003415
# 3 -0.000702 -0.001153 0.011729 0.000195 -0.001654 0.004695
# 4 0.005591 -0.003444 0.000195 0.032463 0.000709 -0.008952
# 5 0.000588 -0.000135 -0.001654 0.000709 0.028902 0.000339
# 6 -0.008776 0.003415 0.004695 -0.008952 0.000339 0.042964
#
#
# Mechanical properties :
#
#
# Convention : Reuss Voigt Hill
#
# Bulk Modulus (GPa) = 41.20617 43.70238 42.45427
# Shear Modulus (GPa) = 30.48895 35.54867 33.01881
#
# Velocity S-wave (km/s) = 3.73989 4.03831 3.89196
# Velocity P-wave (km/s) = 6.12800 6.46470 6.29860
#
# Compressibility (1/GPa) = 0.02426821
#
# Stress axis : x y z
#
# Youngs Moduli (GPa) = 64.23567 94.11970 85.25626
#
# Poissons Ratio (x) = 0.46793 0.05984
# Poissons Ratio (y) = 0.31936 0.09831
# Poissons Ratio (z) = 0.04509 0.10854
#
# Static dielectric constant tensor:
#      x y z
#    x 1.762270 -0.008420 0.021980 
#    y -0.008420 1.774070 -0.009320 
#    z 0.021980 -0.009320 1.791690 
# 
# From -- ./inp_files/262960.got.cif
#   From: 2010.05.17/outbox.cif.g08.bks.cpg/sg2_132_cif.got.tgz:262960.got - 2010.06.03 11:33:40.
