data_PCOD9060267
_publ_section_title
;
Structure prediction by ZEFSAII (Michael W. Deem and Ramdas Pophale) SiO2 
 PCOD9060267
Probable space group: P -1
;
_chemical_formula_sum "Si O2"
_cell_formula_units_Z 14
_cell_length_a 13.935138
_cell_length_b 5.459706
_cell_length_c 8.262799
_cell_angle_alpha 60.177239
_cell_angle_beta 79.962515
_cell_angle_gamma 84.104049
_cell_volume 536.952526
_symmetry_space_group_name_H-M "P -1"
_symmetry_group_IT_number 2
_symmetry_cell_setting 'triclinic'
loop_
_space_group_symop_operation_xyz
x,y,z
-x,-y,-z
loop_
_atom_site_type_symbol
_atom_site_label
_atom_site_fract_x
_atom_site_fract_y
_atom_site_fract_z
Si Si1 0.806268 0.411046 0.398929
Si Si2 0.290943 0.344100 0.369783
Si Si3 0.451674 0.315829 0.933555
Si Si4 0.305376 0.932175 0.004030
Si Si5 0.362080 0.828078 0.659511
Si Si6 0.091067 0.171995 0.970421
Si Si7 0.097630 0.107468 0.347448
O O1 0.727739 0.596320 0.455729
O O2 0.747632 0.270885 0.316957
O O3 0.845026 0.190813 0.591725
O O4 0.893380 0.577353 0.241657
O O5 0.324061 0.630439 0.182732
O O6 0.181846 0.272845 0.362776
O O7 0.368034 0.079711 0.442240
O O8 0.435262 0.556506 0.719961
O O9 0.500000 0.500000 0.000000
O O10 0.500000 0.000000 0.000000
O O11 0.341184 0.194091 0.019413
O O12 0.191623 0.991441 0.988861
O O13 0.358631 0.921658 0.817224
O O14 0.078229 0.252552 0.134961
O O15 0.000000 0.000000 0.000000
O O16 0.000000 0.000000 0.500000
#
# Coordination Sequence:
#
# PCOD9060267 Si02
#       7
#     2   2   2   2   2   2   2
#     4  11  23  43  68  98 146 199 248 311 376 443
#     4  11  24  43  72 104 145 201 251 314 382 447
#     4  12  26  49  83 116 153 198 249 318 393 466
#     4  12  25  47  75 110 150 199 257 317 380 456
#     4  11  23  46  77 105 149 192 251 302 394 447
#     4  12  25  41  69 103 147 202 256 308 379 448
#     4  11  26  41  62 102 151 199 261 318 368 446
#
# _framework density 26.073070000000001
#
# number of rings (size 3 to 8) (size 9 to 14) (size 15 to 20)
#    0.000    0.571    5.714    1.714    4.000    1.714 
#    0.000    1.429    0.000    0.000    0.000    0.000 
#    0.000    0.000    0.000    0.000    0.000    0.000 
#
# Total GULP energy -78179.981565 kJ/mol
# GULP energy per Si atom -5584.284397 kJ/mol
# Density = 2.601373 g / cm^3
# Si number density = 26.073070 Si / 1000 Ang^3
#
#
#
# Elastic Constant Matrix: (Units=GPa)
#
#
# Indices 1 2 3 4 5 6 
#
# 1 100.8566 44.3698 14.5039 -8.6470 13.5593 21.7051
# 2 44.3698 121.0223 47.4778 -19.0454 12.1629 21.7209
# 3 14.5039 47.4778 118.1720 -19.1474 5.7162 17.6837
# 4 -8.6470 -19.0454 -19.1474 52.5356 -0.3055 3.1412
# 5 13.5593 12.1629 5.7162 -0.3055 40.3897 -4.2604
# 6 21.7051 21.7209 17.6837 3.1412 -4.2604 62.7062
#
#
#
# Elastic Compliance Matrix: (Units=1/GPa)
#
#
# Indices 1 2 3 4 5 6 
#
# 1 0.012871 -0.003843 0.000896 0.001251 -0.003670 -0.003689
# 2 -0.003843 0.012047 -0.003539 0.002559 -0.002040 -0.002112
# 3 0.000896 -0.003539 0.010628 0.002870 -0.000959 -0.002291
# 4 0.001251 0.002559 0.002870 0.021403 -0.001786 -0.003322
# 5 -0.003670 -0.002040 -0.000959 -0.001786 0.027169 0.004183
# 6 -0.003689 -0.002112 -0.002291 -0.003322 0.004183 0.019052
#
#
# Mechanical properties :
#
#
# Convention : Reuss Voigt Hill
#
# Bulk Modulus (GPa) = 44.29502 61.41711 52.85606
# Shear Modulus (GPa) = 40.43132 46.70624 43.56878
#
# Velocity S-wave (km/s) = 3.94216 4.23704 4.09225
# Velocity P-wave (km/s) = 6.14382 6.89518 6.53031
#
# Compressibility (1/GPa) = 0.02257590
#
# Stress axis : x y z
#
# Youngs Moduli (GPa) = 77.69196 83.00825 94.08901
#
# Poissons Ratio (x) = 0.31898 -0.08435
# Poissons Ratio (y) = 0.29855 0.33299
# Poissons Ratio (z) = -0.06965 0.29377
#
# Static dielectric constant tensor:
#      x y z
#    x 2.164230 -0.023520 0.032300 
#    y -0.023520 2.182990 0.001710 
#    z 0.032300 0.001710 2.034860 
# 
# From -- ./inp_files/287631.got.cif
#   From: 2010.05.17/outbox.cif.g08.bks.cpg/sg2_144_cif.got.tgz:287631.got - 2010.06.03 11:33:40.
