data_PCOD9060342
_publ_section_title
;
Structure prediction by ZEFSAII (Michael W. Deem and Ramdas Pophale) SiO2 
 PCOD9060342
Probable space group: P -1
;
_chemical_formula_sum "Si O2"
_cell_formula_units_Z 16
_cell_length_a 19.116845
_cell_length_b 29.042620
_cell_length_c 15.399543
_cell_angle_alpha 19.645824
_cell_angle_beta 160.077660
_cell_angle_gamma 162.730559
_cell_volume 778.698685
_symmetry_space_group_name_H-M "P -1"
_symmetry_group_IT_number 2
_symmetry_cell_setting 'triclinic'
loop_
_space_group_symop_operation_xyz
x,y,z
-x,-y,-z
loop_
_atom_site_type_symbol
_atom_site_label
_atom_site_fract_x
_atom_site_fract_y
_atom_site_fract_z
Si Si1 0.516323 0.641465 0.136449
Si Si2 0.526502 0.084075 0.474150
Si Si3 0.643125 0.477186 0.427984
Si Si4 0.980894 0.349502 0.078546
Si Si5 0.196861 0.897451 0.845145
Si Si6 0.076585 0.213100 0.932722
Si Si7 0.074268 0.911445 0.388389
Si Si8 0.142103 0.193474 0.237078
O O1 0.576641 0.543933 0.313917
O O2 0.280808 0.506010 0.164492
O O3 0.778856 0.788727 0.229456
O O4 0.425228 0.736510 0.806560
O O5 0.769826 0.115818 0.749315
O O6 0.500000 0.000000 0.500000
O O7 0.265191 0.967200 0.431487
O O8 0.800826 0.631823 0.267862
O O9 0.386005 0.321416 0.356125
O O10 0.810169 0.416081 0.762822
O O11 0.949597 0.271440 0.084991
O O12 0.889246 0.196953 0.309067
O O13 0.106668 0.850956 0.922295
O O14 0.118336 0.019632 0.508886
O O15 0.500000 0.000000 0.000000
O O16 0.177285 0.269244 0.048376
O O17 0.127613 0.080234 0.193933
#
# Coordination Sequence:
#
# PCOD9060342 Si02
#       8
#     2   2   2   2   2   2   2   2
#     4  12  25  47  69 102 143 180 231 287 350 407
#     4  12  25  46  74 102 138 187 231 280 351 411
#     4  12  25  46  70 100 144 182 224 290 353 405
#     4  12  26  45  70 104 141 184 229 286 350 409
#     4  11  23  43  69  98 139 186 225 284 347 410
#     4  12  25  44  72 104 138 180 238 286 336 418
#     4  12  27  44  74 103 138 182 237 286 336 422
#     4  11  25  42  70 102 137 182 232 282 346 410
#
# _framework density 20.5471
#
# number of rings (size 3 to 8) (size 9 to 14) (size 15 to 20)
#    0.000    0.250    7.500    1.875    1.750    1.500 
#    0.000    1.250    0.000    0.000    0.000    0.000 
#    0.000    0.000    0.000    0.000    0.000    0.000 
#
# Total GULP energy -89547.106745 kJ/mol
# GULP energy per Si atom -5596.694172 kJ/mol
# Density = 2.050033 g / cm^3
# Si number density = 20.547100 Si / 1000 Ang^3
#
#
#
# Elastic Constant Matrix: (Units=GPa)
#
#
# Indices 1 2 3 4 5 6 
#
# 1 80.1761 12.8957 51.2988 -1.2282 16.1692 5.0629
# 2 12.8957 65.2654 12.7280 2.7829 15.4828 17.0774
# 3 51.2988 12.7280 120.2225 -18.3174 10.0869 11.6154
# 4 -1.2282 2.7829 -18.3174 34.3095 2.9131 1.3115
# 5 16.1692 15.4828 10.0869 2.9131 35.1170 -2.2314
# 6 5.0629 17.0774 11.6154 1.3115 -2.2314 33.8381
#
#
#
# Elastic Compliance Matrix: (Units=1/GPa)
#
#
# Indices 1 2 3 4 5 6 
#
# 1 0.018767 -0.000643 -0.007902 -0.002998 -0.005841 -0.000040
# 2 -0.000643 0.020556 -0.000157 -0.000566 -0.009362 -0.010819
# 3 -0.007902 -0.000157 0.013193 0.006987 -0.000890 -0.003596
# 4 -0.002998 -0.000566 0.006987 0.033219 -0.003334 -0.003172
# 5 -0.005841 -0.009362 -0.000890 -0.003334 0.036361 0.008431
# 6 -0.000040 -0.010819 -0.003596 -0.003172 0.008431 0.036932
#
#
# Mechanical properties :
#
#
# Convention : Reuss Voigt Hill
#
# Bulk Modulus (GPa) = 28.48155 46.61210 37.54683
# Shear Modulus (GPa) = 26.57624 33.23570 29.90597
#
# Velocity S-wave (km/s) = 3.60033 4.02623 3.81922
# Velocity P-wave (km/s) = 5.58344 6.65948 6.14506
#
# Compressibility (1/GPa) = 0.03511045
#
# Stress axis : x y z
#
# Youngs Moduli (GPa) = 53.28549 48.64774 75.79685
#
# Poissons Ratio (x) = 0.03128 0.59898
# Poissons Ratio (y) = 0.03426 0.01192
# Poissons Ratio (z) = 0.42109 0.00765
#
# Static dielectric constant tensor:
#      x y z
#    x 1.712720 0.010870 -0.013070 
#    y 0.010870 1.738370 0.006090 
#    z -0.013070 0.006090 1.708880 
# 
# From -- ./inp_files/77609.got.cif
#   From: 2010.05.17/outbox.cif.g08.bks.cpg/sg2_39_cif.got.tgz:77609.got - 2010.06.03 11:33:40.
