data_PCOD9060079
_publ_section_title
;
Structure prediction by ZEFSAII (Michael W. Deem and Ramdas Pophale) SiO2 
 PCOD9060079
Probable space group: P -1
;
_chemical_formula_sum "Si O2"
_cell_formula_units_Z 16
_cell_length_a 15.480580
_cell_length_b 14.779604
_cell_length_c 15.534329
_cell_angle_alpha 144.738542
_cell_angle_beta 153.965458
_cell_angle_gamma 27.371448
_cell_volume 714.164781
_symmetry_space_group_name_H-M "P -1"
_symmetry_group_IT_number 2
_symmetry_cell_setting 'triclinic'
loop_
_space_group_symop_operation_xyz
x,y,z
-x,-y,-z
loop_
_atom_site_type_symbol
_atom_site_label
_atom_site_fract_x
_atom_site_fract_y
_atom_site_fract_z
Si Si1 0.756322 0.341782 0.855075
Si Si2 0.464490 0.233977 0.061208
Si Si3 0.478452 0.698678 0.642900
Si Si4 0.725226 0.726137 0.717991
Si Si5 0.974548 0.043261 0.663689
Si Si6 0.057213 0.307715 0.624690
Si Si7 0.750454 0.086911 0.793415
Si Si8 0.643400 0.869672 0.403722
O O1 0.565220 0.575994 0.855225
O O2 0.805012 0.215167 0.715152
O O3 0.697904 0.256042 0.814341
O O4 0.022367 0.296922 0.070446
O O5 0.429282 0.277904 0.165572
O O6 0.253409 0.239726 0.826165
O O7 0.742839 0.034068 0.143133
O O8 0.500000 0.500000 0.500000
O O9 0.624323 0.719246 0.714416
O O10 0.185595 0.866808 0.496411
O O11 0.811478 0.526027 0.592104
O O12 0.530445 0.927765 0.649920
O O13 0.989853 0.852882 0.551039
O O14 0.185681 0.298061 0.643313
O O15 0.529591 0.159926 0.718797
O O16 0.782463 0.915178 0.630679
O O17 0.000000 0.000000 0.000000
#
# Coordination Sequence:
#
# PCOD9060079 Si02
#       8
#     2   2   2   2   2   2   2   2
#     4  11  23  47  71  98 140 185 223 291 343 409
#     4  11  27  44  67 104 140 180 236 280 342 404
#     4  12  24  46  70 102 140 189 233 279 340 407
#     4  11  24  45  72  99 143 181 231 281 347 401
#     4  12  24  44  72  96 141 185 227 283 344 403
#     4  11  25  43  71 103 137 183 224 286 342 406
#     4  11  23  42  76 100 132 183 230 275 351 412
#     4  11  23  46  69 101 138 179 225 285 343 414
#
# _framework density 22.403793
#
# number of rings (size 3 to 8) (size 9 to 14) (size 15 to 20)
#    0.000    0.750    5.000    1.875    1.750    2.500 
#    2.250    6.250    0.000    0.000    0.000    0.000 
#    0.000    0.000    0.000    0.000    0.000    0.000 
#
# Total GULP energy -89557.086479 kJ/mol
# GULP energy per Si atom -5597.317905 kJ/mol
# Density = 2.235280 g / cm^3
# Si number density = 22.403793 Si / 1000 Ang^3
#
#
#
# Elastic Constant Matrix: (Units=GPa)
#
#
# Indices 1 2 3 4 5 6 
#
# 1 118.5272 30.4952 23.0931 -12.1351 -4.5674 5.4280
# 2 30.4952 73.0318 -8.2475 -4.9156 6.8511 -7.5181
# 3 23.0931 -8.2475 84.7047 -8.4735 2.5672 6.3783
# 4 -12.1351 -4.9156 -8.4735 31.9086 1.7693 3.5147
# 5 -4.5674 6.8511 2.5672 1.7693 32.4704 8.6142
# 6 5.4280 -7.5181 6.3783 3.5147 8.6142 26.4303
#
#
#
# Elastic Compliance Matrix: (Units=1/GPa)
#
#
# Indices 1 2 3 4 5 6 
#
# 1 0.011190 -0.005726 -0.003077 0.002867 0.004176 -0.004927
# 2 -0.005726 0.017927 0.003031 0.000927 -0.006914 0.007674
# 3 -0.003077 0.003031 0.013427 0.003138 -0.001895 -0.001546
# 4 0.002867 0.000927 0.003138 0.034033 -0.000445 -0.005463
# 5 0.004176 -0.006914 -0.001895 -0.000445 0.036813 -0.014306
# 6 -0.004927 0.007674 -0.001546 -0.005463 -0.014306 0.046792
#
#
# Mechanical properties :
#
#
# Convention : Reuss Voigt Hill
#
# Bulk Modulus (GPa) = 32.25763 40.77172 36.51468
# Shear Modulus (GPa) = 27.46375 33.55670 30.51022
#
# Velocity S-wave (km/s) = 3.50502 3.87436 3.69431
# Velocity P-wave (km/s) = 5.55065 6.18484 5.87631
#
# Compressibility (1/GPa) = 0.03100041
#
# Stress axis : x y z
#
# Youngs Moduli (GPa) = 89.36861 55.78260 74.47447
#
# Poissons Ratio (x) = 0.31940 0.22915
# Poissons Ratio (y) = 0.51170 -0.22573
# Poissons Ratio (z) = 0.27498 -0.16907
#
# Static dielectric constant tensor:
#      x y z
#    x 1.824800 -0.011580 -0.000350 
#    y -0.011580 1.810350 0.011330 
#    z -0.000350 0.011330 1.869470 
# 
# From -- ./inp_files/533862.got.cif
#   From: 2010.05.17/outbox.cif.g08.bks.cpg/sg2_267_cif.got.tgz:533862.got - 2010.06.03 11:33:40.
