data_PCOD9060433
_publ_section_title
;
Structure prediction by ZEFSAII (Michael W. Deem and Ramdas Pophale) SiO2 
 PCOD9060433
Probable space group: P -1
;
_chemical_formula_sum "Si O2"
_cell_formula_units_Z 16
_cell_length_a 8.376777
_cell_length_b 13.029104
_cell_length_c 8.749616
_cell_angle_alpha 105.750429
_cell_angle_beta 84.407080
_cell_angle_gamma 131.660539
_cell_volume 682.064689
_symmetry_space_group_name_H-M "P -1"
_symmetry_group_IT_number 2
_symmetry_cell_setting 'triclinic'
loop_
_space_group_symop_operation_xyz
x,y,z
-x,-y,-z
loop_
_atom_site_type_symbol
_atom_site_label
_atom_site_fract_x
_atom_site_fract_y
_atom_site_fract_z
Si Si1 0.500223 0.128637 0.203197
Si Si2 0.901741 0.557316 0.446059
Si Si3 0.781840 0.416273 0.083222
Si Si4 0.420182 0.033131 0.666398
Si Si5 0.013423 0.891040 0.032240
Si Si6 0.432587 0.276663 0.825526
Si Si7 0.449981 0.309056 0.484017
Si Si8 0.018910 0.196095 0.325876
O O1 0.653043 0.258980 0.117373
O O2 0.494490 0.208228 0.379394
O O3 0.572901 0.045569 0.223485
O O4 0.253412 0.997601 0.121533
O O5 0.871706 0.525596 0.258834
O O6 0.660169 0.467986 0.488171
O O7 0.032755 0.716050 0.551835
O O8 0.000000 0.500000 0.500000
O O9 0.603177 0.392591 0.982645
O O10 0.000000 0.500000 0.000000
O O11 0.520654 0.191776 0.762733
O O12 0.500000 0.000000 0.500000
O O13 0.171600 0.960644 0.652818
O O14 0.805072 0.799404 0.121805
O O15 0.983676 0.797945 0.854544
O O16 0.000000 0.000000 0.000000
O O17 0.428793 0.312461 0.666921
O O18 0.243382 0.251888 0.385600
#
# Coordination Sequence:
#
# PCOD9060433 Si02
#       8
#     2   2   2   2   2   2   2   2
#     4  11  23  44  71 102 140 188 232 289 363 410
#     4  11  25  47  72  99 139 188 235 292 355 419
#     4  11  24  43  69  99 138 180 229 292 348 414
#     4  12  26  40  69 106 141 178 238 295 348 427
#     4  12  22  46  69 102 141 183 229 295 349 424
#     4  12  25  44  70 104 141 184 237 293 354 416
#     4  11  23  43  70  99 138 190 234 284 348 427
#     4  12  25  45  70  98 139 189 238 282 357 424
#
# _framework density 23.458185
#
# number of rings (size 3 to 8) (size 9 to 14) (size 15 to 20)
#    0.000    0.500    5.000    3.375    3.500    4.000 
#    0.000    5.000    0.000    0.000    0.000    0.000 
#    0.000    0.000    0.000    0.000    0.000    0.000 
#
# Total GULP energy -89343.090314 kJ/mol
# GULP energy per Si atom -5583.943145 kJ/mol
# Density = 2.340479 g / cm^3
# Si number density = 23.458185 Si / 1000 Ang^3
#
#
#
# Elastic Constant Matrix: (Units=GPa)
#
#
# Indices 1 2 3 4 5 6 
#
# 1 76.8987 25.2947 20.7631 2.1583 4.0273 29.7645
# 2 25.2947 68.1268 54.6002 -18.1907 -0.1051 42.2035
# 3 20.7631 54.6002 190.1443 -14.9330 -9.4088 24.2551
# 4 2.1583 -18.1907 -14.9330 48.3505 13.2155 -13.2773
# 5 4.0273 -0.1051 -9.4088 13.2155 34.3098 7.8439
# 6 29.7645 42.2035 24.2551 -13.2773 7.8439 43.6629
#
#
#
# Elastic Compliance Matrix: (Units=1/GPa)
#
#
# Indices 1 2 3 4 5 6 
#
# 1 0.019251 0.003581 -0.001036 -0.006035 0.004037 -0.018569
# 2 0.003581 0.048499 -0.008000 0.000878 0.007711 -0.045993
# 3 -0.001036 -0.008000 0.007182 0.000161 0.001018 0.004315
# 4 -0.006035 0.000878 0.000161 0.029069 -0.013753 0.014485
# 5 0.004037 0.007711 0.001018 -0.013753 0.039305 -0.022014
# 6 -0.018569 -0.045993 0.004315 0.014485 -0.022014 0.085979
#
#
# Mechanical properties :
#
#
# Convention : Reuss Voigt Hill
#
# Bulk Modulus (GPa) = 15.61965 59.60952 37.61458
# Shear Modulus (GPa) = 19.11774 40.89878 30.00826
#
# Velocity S-wave (km/s) = 2.85787 4.18003 3.58050
# Velocity P-wave (km/s) = 4.19080 6.98305 5.75872
#
# Compressibility (1/GPa) = 0.06402194
#
# Stress axis : x y z
#
# Youngs Moduli (GPa) = 51.94417 20.61896 139.23543
#
# Poissons Ratio (x) = -0.07383 0.14422
# Poissons Ratio (y) = -0.18599 1.11389
# Poissons Ratio (z) = 0.05380 0.16495
#
# Static dielectric constant tensor:
#      x y z
#    x 1.987540 -0.032930 -0.015060 
#    y -0.032930 1.956350 0.083610 
#    z -0.015060 0.083610 1.872270 
# 
# From -- ./inp_files/208331.got.cif
#   From: 2010.05.17/outbox.cif.g08.bks.cpg/sg2_105_cif.got.tgz:208331.got - 2010.06.03 11:33:40.
