data_PCOD9060839
_publ_section_title
;
Structure prediction by ZEFSAII (Michael W. Deem and Ramdas Pophale) SiO2 
 PCOD9060839
Probable space group: P -1
;
_chemical_formula_sum "Si O2"
_cell_formula_units_Z 14
_cell_length_a 8.467667
_cell_length_b 12.150458
_cell_length_c 7.905538
_cell_angle_alpha 92.250474
_cell_angle_beta 90.352523
_cell_angle_gamma 38.731616
_cell_volume 508.120985
_symmetry_space_group_name_H-M "P -1"
_symmetry_group_IT_number 2
_symmetry_cell_setting 'triclinic'
loop_
_space_group_symop_operation_xyz
x,y,z
-x,-y,-z
loop_
_atom_site_type_symbol
_atom_site_label
_atom_site_fract_x
_atom_site_fract_y
_atom_site_fract_z
Si Si1 0.001254 0.071587 0.780848
Si Si2 0.493619 0.371535 0.959685
Si Si3 0.792072 0.529800 0.700122
Si Si4 0.324476 0.774488 0.512644
Si Si5 0.776559 0.823178 0.134476
Si Si6 0.987773 0.361579 0.236765
Si Si7 0.655602 0.991890 0.630631
O O1 0.775902 0.174270 0.917869
O O2 0.830204 0.207381 0.627499
O O3 0.185862 0.066528 0.844768
O O4 0.159808 0.887288 0.687611
O O5 0.303277 0.461215 0.805216
O O6 0.500000 0.500000 0.000000
O O7 0.364395 0.386384 0.120280
O O8 0.600304 0.589445 0.562875
O O9 0.886466 0.601680 0.672477
O O10 0.036971 0.326535 0.730785
O O11 0.343057 0.887256 0.437640
O O12 0.503838 0.928439 0.191204
O O13 0.880760 0.723471 0.951896
O O14 0.075844 0.208652 0.334747
O O15 0.500000 0.000000 0.500000
#
# Coordination Sequence:
#
# PCOD9060839 Si02
#       7
#     2   2   2   2   2   2   2
#     4  11  24  47  62  98 140 176 223 266 338 398
#     4  11  23  44  70 101 130 174 225 274 337 388
#     4  11  24  44  69 101 131 170 229 278 332 391
#     4  11  27  45  64  99 139 181 220 270 330 406
#     4  11  23  44  68  98 130 173 223 281 330 388
#     4  11  24  44  70  99 131 171 225 283 328 388
#     4  12  24  45  67  95 133 177 225 265 333 395
#
# _framework density 27.552493999999999
#
# number of rings (size 3 to 8) (size 9 to 14) (size 15 to 20)
#    0.000    0.857    5.714    2.143    4.000    5.143 
#    0.000    0.000    0.000    0.000    0.000    0.000 
#    0.000    0.000    0.000    0.000    0.000    0.000 
#
# Total GULP energy -78567.464822 kJ/mol
# GULP energy per Si atom -5611.961773 kJ/mol
# Density = 2.748978 g / cm^3
# Si number density = 27.552494 Si / 1000 Ang^3
#
#
#
# Elastic Constant Matrix: (Units=GPa)
#
#
# Indices 1 2 3 4 5 6 
#
# 1 108.6713 28.3283 21.1109 4.9723 -5.2531 6.3119
# 2 28.3283 111.5584 8.8045 -24.5451 -8.4298 -22.6900
# 3 21.1109 8.8045 116.1357 7.4711 4.6816 -3.9458
# 4 4.9723 -24.5451 7.4711 58.2327 -13.3244 7.3742
# 5 -5.2531 -8.4298 4.6816 -13.3244 51.3561 -3.4673
# 6 6.3119 -22.6900 -3.9458 7.3742 -3.4673 49.7215
#
#
#
# Elastic Compliance Matrix: (Units=1/GPa)
#
#
# Indices 1 2 3 4 5 6 
#
# 1 0.010705 -0.003576 -0.001652 -0.001852 -0.000014 -0.002848
# 2 -0.003576 0.012610 -0.000640 0.005836 0.003651 0.005547
# 3 -0.001652 -0.000640 0.009160 -0.001751 -0.001509 0.000799
# 4 -0.001852 0.005836 -0.001751 0.021501 0.006508 0.000024
# 5 -0.000014 0.003651 -0.001509 0.006508 0.022039 0.002120
# 6 -0.002848 0.005547 0.000799 0.000024 0.002120 0.023212
#
#
# Mechanical properties :
#
#
# Convention : Reuss Voigt Hill
#
# Bulk Modulus (GPa) = 48.21673 50.31699 49.26686
# Shear Modulus (GPa) = 42.41741 50.40349 46.41045
#
# Velocity S-wave (km/s) = 3.92792 4.28174 4.10864
# Velocity P-wave (km/s) = 6.17328 6.53807 6.35829
#
# Compressibility (1/GPa) = 0.02073969
#
# Stress axis : x y z
#
# Youngs Moduli (GPa) = 93.41858 79.29910 109.17016
#
# Poissons Ratio (x) = 0.28354 0.18033
# Poissons Ratio (y) = 0.33403 0.06989
# Poissons Ratio (z) = 0.15431 0.05077
#
# Static dielectric constant tensor:
#      x y z
#    x 2.099240 -0.053190 -0.034600 
#    y -0.053190 2.097280 0.005340 
#    z -0.034600 0.005340 2.207240 
# 
# From -- ./inp_files/154756.got.cif
#   From: 2010.05.17/outbox.cif.g08.bks.cpg/sg2_78_cif.got.tgz:154756.got - 2010.06.03 11:33:40.
