data_PCOD9060221
_publ_section_title
;
Structure prediction by ZEFSAII (Michael W. Deem and Ramdas Pophale) SiO2 
 PCOD9060221
Probable space group: P -1
;
_chemical_formula_sum "Si O2"
_cell_formula_units_Z 12
_cell_length_a 4.722045
_cell_length_b 18.592429
_cell_length_c 10.250786
_cell_angle_alpha 143.861527
_cell_angle_beta 121.013598
_cell_angle_gamma 69.720377
_cell_volume 450.548111
_symmetry_space_group_name_H-M "P -1"
_symmetry_group_IT_number 2
_symmetry_cell_setting 'triclinic'
loop_
_space_group_symop_operation_xyz
x,y,z
-x,-y,-z
loop_
_atom_site_type_symbol
_atom_site_label
_atom_site_fract_x
_atom_site_fract_y
_atom_site_fract_z
Si Si1 0.720199 0.746300 0.246127
Si Si2 0.732031 0.079187 0.498291
Si Si3 0.987799 0.419564 0.748478
Si Si4 0.779043 0.596253 0.777741
Si Si5 0.698259 0.742557 0.722451
Si Si6 0.242630 0.907007 0.967365
O O1 0.423611 0.826773 0.308036
O O2 0.070945 0.835902 0.442102
O O3 0.759752 0.674082 0.285100
O O4 0.678193 0.664289 0.984590
O O5 0.000000 0.000000 0.500000
O O6 0.429893 0.979050 0.236503
O O7 0.048282 0.512091 0.774602
O O8 0.608795 0.352187 0.542733
O O9 0.000000 0.500000 0.000000
O O10 0.500000 0.500000 0.500000
O O11 0.838048 0.695646 0.822454
O O12 0.534388 0.867132 0.889419
O O13 0.016540 0.778637 0.760406
O O14 0.000000 0.000000 0.000000
#
# Coordination Sequence:
#
# PCOD9060221 Si02
#       6
#     2   2   2   2   2   2
#     4  11  23  44  70 101 139 184 231 288 349 418
#     4  12  26  44  69 103 140 185 237 291 348 416
#     4   9  20  44  71 102 138 182 233 288 350 418
#     4   9  21  43  68 101 138 178 228 286 350 414
#     4  11  23  43  68 101 138 179 226 286 347 411
#     4  12  25  44  69 100 138 184 232 283 344 415
#
# _framework density 26.634222999999999
#
# number of rings (size 3 to 8) (size 9 to 14) (size 15 to 20)
#    0.000    1.333    0.000    5.000    0.000    4.000 
#    0.000   33.333    0.000    0.000    0.000    0.000 
#    0.000    0.000    0.000    0.000    0.000    0.000 
#
# Total GULP energy -67227.539051 kJ/mol
# GULP energy per Si atom -5602.294921 kJ/mol
# Density = 2.657360 g / cm^3
# Si number density = 26.634223 Si / 1000 Ang^3
#
#
#
# Elastic Constant Matrix: (Units=GPa)
#
#
# Indices 1 2 3 4 5 6 
#
# 1 110.8123 44.7305 27.4627 5.2386 2.5010 -3.3291
# 2 44.7305 194.4942 59.5925 -14.7542 3.5936 -1.2453
# 3 27.4627 59.5925 146.2651 -22.5005 2.2180 -17.0485
# 4 5.2386 -14.7542 -22.5005 44.6083 -10.6740 -3.6368
# 5 2.5010 3.5936 2.2180 -10.6740 32.7576 -1.6803
# 6 -3.3291 -1.2453 -17.0485 -3.6368 -1.6803 25.4599
#
#
#
# Elastic Compliance Matrix: (Units=1/GPa)
#
#
# Indices 1 2 3 4 5 6 
#
# 1 0.010448 -0.002126 -0.001593 -0.003119 -0.001491 -0.000349
# 2 -0.002126 0.006375 -0.002168 0.001142 -0.000083 -0.001260
# 3 -0.001593 -0.002168 0.009630 0.005331 0.001804 0.007014
# 4 -0.003119 0.001142 0.005331 0.028782 0.009539 0.007959
# 5 -0.001491 -0.000083 0.001804 0.009539 0.033872 0.004607
# 6 -0.000349 -0.001260 0.007014 0.007959 0.004607 0.045308
#
#
# Mechanical properties :
#
#
# Convention : Reuss Voigt Hill
#
# Bulk Modulus (GPa) = 68.13061 79.46034 73.79547
# Shear Modulus (GPa) = 33.09463 41.88422 37.48943
#
# Velocity S-wave (km/s) = 3.52882 3.96987 3.75582
# Velocity P-wave (km/s) = 6.49916 7.13525 6.82462
#
# Compressibility (1/GPa) = 0.01467769
#
# Stress axis : x y z
#
# Youngs Moduli (GPa) = 95.71274 156.86612 103.84508
#
# Poissons Ratio (x) = 0.33349 0.16546
# Poissons Ratio (y) = 0.20348 0.22515
# Poissons Ratio (z) = 0.15251 0.34010
#
# Static dielectric constant tensor:
#      x y z
#    x 2.048770 0.063840 0.027030 
#    y 0.063840 2.088010 0.071850 
#    z 0.027030 0.071850 2.071560 
# 
# From -- ./inp_files/370212.got.cif
#   From: 2010.05.17/outbox.cif.g08.bks.cpg/sg2_186_cif.got.tgz:370212.got - 2010.06.03 11:33:40.
