data_PCOD9060228
_publ_section_title
;
Structure prediction by ZEFSAII (Michael W. Deem and Ramdas Pophale) SiO2 
 PCOD9060228
Probable space group: P -1
;
_chemical_formula_sum "Si O2"
_cell_formula_units_Z 16
_cell_length_a 15.039073
_cell_length_b 20.993070
_cell_length_c 8.892440
_cell_angle_alpha 62.639062
_cell_angle_beta 71.855251
_cell_angle_gamma 19.304928
_cell_volume 749.352940
_symmetry_space_group_name_H-M "P -1"
_symmetry_group_IT_number 2
_symmetry_cell_setting 'triclinic'
loop_
_space_group_symop_operation_xyz
x,y,z
-x,-y,-z
loop_
_atom_site_type_symbol
_atom_site_label
_atom_site_fract_x
_atom_site_fract_y
_atom_site_fract_z
Si Si1 0.977985 0.346518 0.408571
Si Si2 0.733247 0.910258 0.157858
Si Si3 0.147143 0.971716 0.437615
Si Si4 0.310213 0.431915 0.212203
Si Si5 0.602157 0.163627 0.850476
Si Si6 0.330790 0.764518 0.021850
Si Si7 0.924038 0.634563 0.958774
Si Si8 0.287313 0.612260 0.601704
O O1 0.726707 0.589240 0.315488
O O2 0.845931 0.362306 0.432455
O O3 0.193962 0.174689 0.622362
O O4 0.094242 0.294183 0.245764
O O5 0.014240 0.685826 0.150884
O O6 0.402120 0.126179 0.055864
O O7 0.698724 0.020865 0.035102
O O8 0.484058 0.735362 0.573844
O O9 0.164926 0.981894 0.242085
O O10 0.000000 0.000000 0.500000
O O11 0.960433 0.159165 0.440642
O O12 0.555057 0.297900 0.133277
O O13 0.174609 0.471988 0.125728
O O14 0.563454 0.249101 0.910044
O O15 0.497587 0.570768 0.182299
O O16 0.000000 0.000000 0.000000
O O17 0.000000 0.500000 0.000000
O O18 0.500000 0.500000 0.500000
#
# Coordination Sequence:
#
# PCOD9060228 Si02
#       8
#     2   2   2   2   2   2   2   2
#     4  11  24  48  71 105 145 187 244 300 364 447
#     4  12  26  45  76 104 144 194 242 307 373 417
#     4  12  26  46  71 109 150 191 244 304 365 443
#     4  12  25  45  72 106 147 187 243 306 359 439
#     4  11  23  45  68 103 147 180 245 302 353 442
#     4  11  23  43  68 102 140 190 242 294 365 440
#     4  12  25  50  75 104 144 195 251 306 368 433
#     4  11  24  41  71 101 145 188 239 292 372 435
#
# _framework density 21.351755000000001
#
# number of rings (size 3 to 8) (size 9 to 14) (size 15 to 20)
#    0.000    0.500    5.000    4.500    5.250    0.000 
#    0.000    3.750    0.000    0.000    0.000    0.000 
#    0.000    0.000    0.000    0.000    0.000    0.000 
#
# Total GULP energy -89158.161497 kJ/mol
# GULP energy per Si atom -5572.385094 kJ/mol
# Density = 2.130316 g / cm^3
# Si number density = 21.351755 Si / 1000 Ang^3
#
#
#
# Elastic Constant Matrix: (Units=GPa)
#
#
# Indices 1 2 3 4 5 6 
#
# 1 72.3438 18.3134 30.2739 -14.8584 -7.5477 0.6199
# 2 18.3134 134.8215 12.4416 -9.7977 -1.4531 -3.8677
# 3 30.2739 12.4416 91.8004 -1.8131 -6.6760 0.2568
# 4 -14.8584 -9.7977 -1.8131 51.1820 -4.7571 -3.8518
# 5 -7.5477 -1.4531 -6.6760 -4.7571 28.2465 -2.7754
# 6 0.6199 -3.8677 0.2568 -3.8518 -2.7754 32.0779
#
#
#
# Elastic Compliance Matrix: (Units=1/GPa)
#
#
# Indices 1 2 3 4 5 6 
#
# 1 0.017935 -0.001510 -0.005290 0.005177 0.004387 0.000515
# 2 -0.001510 0.007787 -0.000526 0.001135 0.000174 0.001124
# 3 -0.005290 -0.000526 0.012790 -0.001059 0.001397 -0.000070
# 4 0.005177 0.001135 -0.001059 0.021939 0.005194 0.003129
# 5 0.004387 0.000174 0.001397 0.005194 0.038167 0.003851
# 6 0.000515 0.001124 -0.000070 0.003129 0.003851 0.032009
#
#
# Mechanical properties :
#
#
# Convention : Reuss Voigt Hill
#
# Bulk Modulus (GPa) = 41.90855 46.78038 44.34447
# Shear Modulus (GPa) = 32.63006 38.16372 35.39689
#
# Velocity S-wave (km/s) = 3.91348 4.23233 4.07602
# Velocity P-wave (km/s) = 6.33172 6.77056 6.55481
#
# Compressibility (1/GPa) = 0.02386148
#
# Stress axis : x y z
#
# Youngs Moduli (GPa) = 55.75545 128.41314 78.18647
#
# Poissons Ratio (x) = 0.19388 0.41363
# Poissons Ratio (y) = 0.08418 0.04109
# Poissons Ratio (z) = 0.29496 0.06749
#
# Static dielectric constant tensor:
#      x y z
#    x 1.781280 -0.060420 -0.091640 
#    y -0.060420 1.738500 0.133470 
#    z -0.091640 0.133470 1.326060 
# 
# From -- ./inp_files/319294.got.cif
#   From: 2010.05.17/outbox.cif.g08.bks.cpg/sg2_160_cif.got.tgz:319294.got - 2010.06.03 11:33:40.
