data_PCOD9060821
_publ_section_title
;
Structure prediction by ZEFSAII (Michael W. Deem and Ramdas Pophale) SiO2 
 PCOD9060821
Probable space group: P -1
;
_chemical_formula_sum "Si O2"
_cell_formula_units_Z 12
_cell_length_a 4.908228
_cell_length_b 5.218216
_cell_length_c 17.693912
_cell_angle_alpha 88.981751
_cell_angle_beta 72.160118
_cell_angle_gamma 89.066054
_cell_volume 431.293194
_symmetry_space_group_name_H-M "P -1"
_symmetry_group_IT_number 2
_symmetry_cell_setting 'triclinic'
loop_
_space_group_symop_operation_xyz
x,y,z
-x,-y,-z
loop_
_atom_site_type_symbol
_atom_site_label
_atom_site_fract_x
_atom_site_fract_y
_atom_site_fract_z
Si Si1 0.324805 0.502080 0.593537
Si Si2 0.718569 0.972540 0.758554
Si Si3 0.262453 0.621339 0.761582
Si Si4 0.809703 0.752090 0.994221
Si Si5 0.022562 0.991811 0.408351
Si Si6 0.286905 0.565592 0.135519
O O1 0.500000 0.500000 0.500000
O O2 0.415538 0.511699 0.673407
O O3 0.156727 0.762520 0.598288
O O4 0.121655 0.263777 0.605120
O O5 0.491045 0.748604 0.797394
O O6 0.024713 0.842040 0.755964
O O7 0.700327 0.987923 0.667768
O O8 0.662081 0.251432 0.794528
O O9 0.063074 0.421108 0.822823
O O10 0.728919 0.700026 0.913646
O O11 0.507452 0.725616 0.063198
O O12 0.000000 0.500000 0.000000
O O13 0.000000 0.000000 0.000000
O O14 0.000000 0.000000 0.500000
#
# Coordination Sequence:
#
# PCOD9060821 Si02
#       6
#     2   2   2   2   2   2
#     4  11  23  44  68 107 149 200 256 315 374 443
#     4  11  26  46  73 110 151 201 256 312 377 449
#     4  11  26  46  73 110 151 201 256 312 377 449
#     4  11  28  49  78 112 151 194 249 311 384 458
#     4  11  23  44  68 107 149 200 256 315 374 443
#     4  11  26  46  76 108 154 194 252 312 376 461
#
# _framework density 27.823302999999999
#
# number of rings (size 3 to 8) (size 9 to 14) (size 15 to 20)
#    0.000    1.000    1.667    3.000    9.333    4.000 
#    0.000    0.000    0.000    0.000    0.000    0.000 
#    0.000    0.000    0.000    0.000    0.000    0.000 
#
# Total GULP energy -66888.416381 kJ/mol
# GULP energy per Si atom -5574.034698 kJ/mol
# Density = 2.775998 g / cm^3
# Si number density = 27.823303 Si / 1000 Ang^3
#
#
#
# Elastic Constant Matrix: (Units=GPa)
#
#
# Indices 1 2 3 4 5 6 
#
# 1 230.1416 85.0726 87.4704 -54.8368 35.1224 54.4105
# 2 85.0726 268.5026 42.0764 20.0716 0.9874 45.7134
# 3 87.4704 42.0764 278.2969 13.8556 19.3433 46.0745
# 4 -54.8368 20.0716 13.8556 88.7989 0.3990 -20.6385
# 5 35.1224 0.9874 19.3433 0.3990 59.6112 7.5662
# 6 54.4105 45.7134 46.0745 -20.6385 7.5662 88.2515
#
#
#
# Elastic Compliance Matrix: (Units=1/GPa)
#
#
# Indices 1 2 3 4 5 6 
#
# 1 0.008337 -0.002565 -0.002069 0.005834 -0.004108 -0.001014
# 2 -0.002565 0.005083 0.000458 -0.003324 0.001581 -0.002203
# 3 -0.002069 0.000458 0.004631 -0.002563 -0.000023 -0.001977
# 4 0.005834 -0.003324 -0.002563 0.016885 -0.003131 0.003680
# 5 -0.004108 0.001581 -0.000023 -0.003131 0.019282 -0.000659
# 6 -0.001014 -0.002203 -0.001977 0.003680 -0.000659 0.015047
#
#
# Mechanical properties :
#
#
# Convention : Reuss Voigt Hill
#
# Bulk Modulus (GPa) = 103.11849 134.01996 118.56922
# Shear Modulus (GPa) = 61.84257 84.82046 73.33151
#
# Velocity S-wave (km/s) = 4.71966 5.52735 5.13939
# Velocity P-wave (km/s) = 8.17573 9.43442 8.82754
#
# Compressibility (1/GPa) = 0.00969758
#
# Stress axis : x y z
#
# Youngs Moduli (GPa) = 119.94988 196.72630 215.93991
#
# Poissons Ratio (x) = 0.50470 0.44687
# Poissons Ratio (y) = 0.30773 -0.09895
# Poissons Ratio (z) = 0.24823 -0.09015
#
# Static dielectric constant tensor:
#      x y z
#    x 2.240890 0.056040 0.042380 
#    y 0.056040 2.019510 0.014900 
#    z 0.042380 0.014900 2.266450 
# 
# From -- ./inp_files/6477.got.cif
#   From: 2010.05.17/outbox.cif.g08.bks.cpg/sg2_4_cif.got.tgz:6477.got - 2010.06.03 11:33:40.
