data_PCOD9060508
_publ_section_title
;
Structure prediction by ZEFSAII (Michael W. Deem and Ramdas Pophale) SiO2 
 PCOD9060508
Probable space group: P -1
;
_chemical_formula_sum "Si O2"
_cell_formula_units_Z 14
_cell_length_a 17.197944
_cell_length_b 9.884142
_cell_length_c 14.814622
_cell_angle_alpha 131.500107
_cell_angle_beta 24.446584
_cell_angle_gamma 144.786606
_cell_volume 565.139217
_symmetry_space_group_name_H-M "P -1"
_symmetry_group_IT_number 2
_symmetry_cell_setting 'triclinic'
loop_
_space_group_symop_operation_xyz
x,y,z
-x,-y,-z
loop_
_atom_site_type_symbol
_atom_site_label
_atom_site_fract_x
_atom_site_fract_y
_atom_site_fract_z
Si Si1 0.414175 0.701569 0.137822
Si Si2 0.924418 0.396759 0.389388
Si Si3 0.967432 0.973900 0.631185
Si Si4 0.835353 0.498302 0.334225
Si Si5 0.774126 0.524263 0.146009
Si Si6 0.353852 0.168906 0.591244
Si Si7 0.544058 0.921034 0.826023
O O1 0.262970 0.614450 0.351655
O O2 0.196291 0.543538 0.219589
O O3 0.529988 0.980556 0.125726
O O4 0.669949 0.751879 0.876656
O O5 0.923011 0.508516 0.347643
O O6 0.800325 0.118029 0.381138
O O7 0.075591 0.239404 0.667824
O O8 0.162827 0.946934 0.442264
O O9 0.000000 0.000000 0.500000
O O10 0.528814 0.283142 0.546954
O O11 0.975231 0.435744 0.099993
O O12 0.568741 0.342527 0.361738
O O13 0.823117 0.769803 0.200277
O O14 0.625017 0.367513 0.141653
O O15 0.500000 0.000000 0.000000
#
# Coordination Sequence:
#
# PCOD9060508 Si02
#       7
#     2   2   2   2   2   2   2
#     4  11  24  46  68 102 145 180 233 285 346 417
#     4  11  25  45  68  98 152 191 215 286 353 418
#     4  12  23  40  74 105 129 178 239 293 338 399
#     4  12  24  42  69 104 135 180 236 283 344 412
#     4  11  23  43  72 101 130 183 235 293 338 396
#     4  11  24  46  68  99 143 181 234 282 346 415
#     4  12  21  42  73 102 133 169 234 291 339 400
#
# _framework density 24.772655
#
# number of rings (size 3 to 8) (size 9 to 14) (size 15 to 20)
#    0.000    0.571    5.714    2.571    0.000    0.571 
#    0.000   10.714    0.000    0.000    0.000    0.000 
#    0.000    0.000    0.000    0.000    0.000    0.000 
#
# Total GULP energy -78368.819285 kJ/mol
# GULP energy per Si atom -5597.772806 kJ/mol
# Density = 2.471627 g / cm^3
# Si number density = 24.772655 Si / 1000 Ang^3
#
#
#
# Elastic Constant Matrix: (Units=GPa)
#
#
# Indices 1 2 3 4 5 6 
#
# 1 60.5160 6.9660 26.2606 8.8761 6.9226 11.5038
# 2 6.9660 144.1526 35.5888 12.4056 -18.3361 -4.0246
# 3 26.2606 35.5888 158.0382 14.6284 -24.6144 -1.6708
# 4 8.8761 12.4056 14.6284 39.4566 -4.8045 -10.6724
# 5 6.9226 -18.3361 -24.6144 -4.8045 38.2681 -2.8726
# 6 11.5038 -4.0246 -1.6708 -10.6724 -2.8726 32.0065
#
#
#
# Elastic Compliance Matrix: (Units=1/GPa)
#
#
# Indices 1 2 3 4 5 6 
#
# 1 0.023055 -0.000868 -0.004512 -0.007628 -0.009348 -0.012014
# 2 -0.000868 0.007760 -0.000987 -0.001188 0.003176 0.001125
# 3 -0.004512 -0.000987 0.008262 -0.000409 0.005780 0.002311
# 4 -0.007628 -0.001188 -0.000409 0.031982 0.005594 0.013738
# 5 -0.009348 0.003176 0.005780 0.005594 0.034441 0.009018
# 6 -0.012014 0.001125 0.002311 0.013738 0.009018 0.041214
#
#
# Mechanical properties :
#
#
# Convention : Reuss Voigt Hill
#
# Bulk Modulus (GPa) = 37.96148 55.59305 46.77726
# Shear Modulus (GPa) = 29.72132 41.53902 35.63017
#
# Velocity S-wave (km/s) = 3.46752 4.09933 3.79659
# Velocity P-wave (km/s) = 5.60257 6.70045 6.17595
#
# Compressibility (1/GPa) = 0.02634249
#
# Stress axis : x y z
#
# Youngs Moduli (GPa) = 43.37539 128.86142 121.03488
#
# Poissons Ratio (x) = 0.11186 0.54615
# Poissons Ratio (y) = 0.03765 0.11944
# Poissons Ratio (z) = 0.19572 0.12716
#
# Static dielectric constant tensor:
#      x y z
#    x 2.019710 0.032520 0.015050 
#    y 0.032520 1.970470 -0.021340 
#    z 0.015050 -0.021340 2.022550 
# 
# From -- ./inp_files/282264.got.cif
#   From: 2010.05.17/outbox.cif.g08.bks.cpg/sg2_142_cif.got.tgz:282264.got - 2010.06.03 11:33:40.
