data_PCOD9060216
_publ_section_title
;
Structure prediction by ZEFSAII (Michael W. Deem and Ramdas Pophale) SiO2 
 PCOD9060216
Probable space group: P -1
;
_chemical_formula_sum "Si O2"
_cell_formula_units_Z 16
_cell_length_a 13.557073
_cell_length_b 9.707594
_cell_length_c 13.119562
_cell_angle_alpha 114.285227
_cell_angle_beta 34.343840
_cell_angle_gamma 89.943832
_cell_volume 665.268362
_symmetry_space_group_name_H-M "P -1"
_symmetry_group_IT_number 2
_symmetry_cell_setting 'triclinic'
loop_
_space_group_symop_operation_xyz
x,y,z
-x,-y,-z
loop_
_atom_site_type_symbol
_atom_site_label
_atom_site_fract_x
_atom_site_fract_y
_atom_site_fract_z
Si Si1 0.259916 0.513772 0.086366
Si Si2 0.460987 0.760612 0.847514
Si Si3 0.215015 0.714208 0.631586
Si Si4 0.992127 0.660620 0.967505
Si Si5 0.646913 0.627673 0.268498
Si Si6 0.423405 0.741942 0.092950
Si Si7 0.923191 0.003003 0.354969
Si Si8 0.797158 0.758351 0.448262
O O1 0.981787 0.683279 0.360762
O O2 0.389156 0.595908 0.027644
O O3 0.342700 0.412780 0.873720
O O4 0.357962 0.359167 0.048647
O O5 0.548406 0.848162 0.729053
O O6 0.458518 0.816878 0.983957
O O7 0.201469 0.847946 0.076618
O O8 0.015012 0.775037 0.898288
O O9 0.357355 0.481034 0.404833
O O10 0.391268 0.721820 0.545452
O O11 0.137947 0.850045 0.639634
O O12 0.174697 0.575315 0.877871
O O13 0.096877 0.447448 0.761582
O O14 0.735889 0.748159 0.241522
O O15 0.196295 0.881855 0.401061
O O16 0.812244 0.899350 0.410105
#
# Coordination Sequence:
#
# PCOD9060216 Si02
#       8
#     2   2   2   2   2   2   2   2
#     4  10  19  38  66  90 125 165 209 254 317 366
#     4  11  23  42  62  91 131 164 212 260 305 374
#     4  11  21  40  66  92 123 168 207 256 311 373
#     4   9  21  36  67  95 121 163 210 252 314 376
#     4  10  17  38  65  94 122 161 208 258 309 371
#     4  11  20  38  63  91 122 170 210 255 310 370
#     4  12  24  40  64  93 129 169 208 257 315 370
#     4  10  23  41  60  95 128 166 203 265 312 369
#
# _framework density 24.050446000000001
#
# number of rings (size 3 to 8) (size 9 to 14) (size 15 to 20)
#    0.000    1.500    3.750    2.250    0.000    2.000 
#    2.250    0.625    0.000   22.500    0.000    0.000 
#    0.000    0.000    0.000    0.000    0.000    0.000 
#
# Total GULP energy -89286.889071 kJ/mol
# GULP energy per Si atom -5580.430567 kJ/mol
# Density = 2.399571 g / cm^3
# Si number density = 24.050446 Si / 1000 Ang^3
#
#
#
# Elastic Constant Matrix: (Units=GPa)
#
#
# Indices 1 2 3 4 5 6 
#
# 1 118.0925 32.1066 6.5184 2.6696 -5.0698 -4.4684
# 2 32.1066 118.7591 48.7210 -27.1240 -2.5024 -19.8821
# 3 6.5184 48.7210 59.9021 -25.9085 -0.7425 -3.1076
# 4 2.6696 -27.1240 -25.9085 40.1664 -1.0989 -0.4493
# 5 -5.0698 -2.5024 -0.7425 -1.0989 11.5005 -2.5198
# 6 -4.4684 -19.8821 -3.1076 -0.4493 -2.5198 23.9420
#
#
#
# Elastic Compliance Matrix: (Units=1/GPa)
#
#
# Indices 1 2 3 4 5 6 
#
# 1 0.009539 -0.003509 0.000761 -0.002436 0.003093 -0.000755
# 2 -0.003509 0.017159 -0.010565 0.005281 0.004820 0.012829
# 3 0.000761 -0.010565 0.030303 0.012317 0.000196 -0.004446
# 4 -0.002436 0.005281 0.012317 0.036807 0.005886 0.006840
# 5 0.003093 0.004820 0.000196 0.005886 0.093121 0.014516
# 6 -0.000755 0.012829 -0.004446 0.006840 0.014516 0.053360
#
#
# Mechanical properties :
#
#
# Convention : Reuss Voigt Hill
#
# Bulk Modulus (GPa) = 32.92019 52.38286 42.65152
# Shear Modulus (GPa) = 18.04803 29.08228 23.56516
#
# Velocity S-wave (km/s) = 2.74236 3.48116 3.13361
# Velocity P-wave (km/s) = 4.87289 6.16325 5.55566
#
# Compressibility (1/GPa) = 0.03037650
#
# Stress axis : x y z
#
# Youngs Moduli (GPa) = 104.83067 58.27902 33.00023
#
# Poissons Ratio (x) = 0.20450 -0.02513
# Poissons Ratio (y) = 0.36785 0.34863
# Poissons Ratio (z) = -0.07982 0.61570
#
# Static dielectric constant tensor:
#      x y z
#    x 1.966140 -0.005680 0.011710 
#    y -0.005680 2.051760 0.031110 
#    z 0.011710 0.031110 1.999450 
# 
# From -- ./inp_files/528707.got.cif
#   From: 2010.05.17/outbox.cif.g08.bks.cpg/sg2_265_cif.got.tgz:528707.got - 2010.06.03 11:33:40.
