data_PCOD9060016
_publ_section_title
;
Structure prediction by ZEFSAII (Michael W. Deem and Ramdas Pophale) SiO2 
 PCOD9060016
Probable space group: P -1
;
_chemical_formula_sum "Si O2"
_cell_formula_units_Z 14
_cell_length_a 13.406031
_cell_length_b 8.141543
_cell_length_c 7.346151
_cell_angle_alpha 124.151898
_cell_angle_beta 83.988099
_cell_angle_gamma 110.884248
_cell_volume 615.203989
_symmetry_space_group_name_H-M "P -1"
_symmetry_group_IT_number 2
_symmetry_cell_setting 'triclinic'
loop_
_space_group_symop_operation_xyz
x,y,z
-x,-y,-z
loop_
_atom_site_type_symbol
_atom_site_label
_atom_site_fract_x
_atom_site_fract_y
_atom_site_fract_z
Si Si1 0.105691 0.455620 0.899890
Si Si2 0.728220 0.099092 0.323077
Si Si3 0.508340 0.739623 0.182525
Si Si4 0.697216 0.148396 0.783665
Si Si5 0.213486 0.420577 0.519640
Si Si6 0.877448 0.865558 0.993579
Si Si7 0.408204 0.300402 0.477870
O O1 0.112192 0.372929 0.643966
O O2 0.203921 0.680370 0.030163
O O3 0.123983 0.296959 0.945373
O O4 0.000000 0.500000 0.000000
O O5 0.735874 0.110357 0.550030
O O6 0.743683 0.334590 0.399784
O O7 0.611212 0.922323 0.191119
O O8 0.816982 0.017950 0.170572
O O9 0.397694 0.761683 0.165759
O O10 0.532956 0.766941 0.409067
O O11 0.500000 0.500000 0.000000
O O12 0.647253 0.922242 0.753281
O O13 0.181643 0.273300 0.255912
O O14 0.308243 0.374783 0.582589
O O15 0.000000 0.000000 0.000000
O O16 0.500000 0.500000 0.500000
#
# Coordination Sequence:
#
# PCOD9060016 Si02
#       7
#     2   2   2   2   2   2   2
#     4  12  28  48  77 108 144 195 249 303 364 433
#     4  11  24  46  76 103 148 196 234 304 371 429
#     4  11  23  42  73 106 149 194 238 297 371 437
#     4  11  23  46  74 105 151 196 242 300 370 434
#     4  12  27  48  75 111 147 186 251 301 363 442
#     4  12  29  50  76 108 146 197 246 304 373 427
#     4  11  24  40  70 109 145 186 243 297 357 437
#
# _framework density 22.756681
#
# number of rings (size 3 to 8) (size 9 to 14) (size 15 to 20)
#    0.000    0.571    1.429    7.714    8.000    1.714 
#    0.000    2.857    0.000    0.000    0.000    0.000 
#    0.000    0.000    0.000    0.000    0.000    0.000 
#
# Total GULP energy -78396.554175 kJ/mol
# GULP energy per Si atom -5599.753870 kJ/mol
# Density = 2.270489 g / cm^3
# Si number density = 22.756681 Si / 1000 Ang^3
#
#
#
# Elastic Constant Matrix: (Units=GPa)
#
#
# Indices 1 2 3 4 5 6 
#
# 1 133.2605 25.9950 28.8621 17.1628 -25.6009 4.7453
# 2 25.9950 104.3472 28.0581 16.7258 3.3238 8.2438
# 3 28.8621 28.0581 103.2793 10.2872 -16.6946 1.3466
# 4 17.1628 16.7258 10.2872 49.5204 0.7434 0.1797
# 5 -25.6009 3.3238 -16.6946 0.7434 37.8851 1.5740
# 6 4.7453 8.2438 1.3466 0.1797 1.5740 36.0234
#
#
#
# Elastic Compliance Matrix: (Units=1/GPa)
#
#
# Indices 1 2 3 4 5 6 
#
# 1 0.009667 -0.001868 -0.000883 -0.002628 0.006404 -0.001080
# 2 -0.001868 0.011510 -0.002869 -0.002586 -0.003398 -0.002119
# 3 -0.000883 -0.002869 0.011601 -0.001207 0.004785 0.000136
# 4 -0.002628 -0.002586 -0.001207 0.022263 -0.002559 0.000984
# 5 0.006404 -0.003398 0.004785 -0.002559 0.033250 -0.001685
# 6 -0.001080 -0.002119 0.000136 0.000984 -0.001685 0.028451
#
#
# Mechanical properties :
#
#
# Convention : Reuss Voigt Hill
#
# Bulk Modulus (GPa) = 46.43073 56.30192 51.36633
# Shear Modulus (GPa) = 36.99282 41.88389 39.43835
#
# Velocity S-wave (km/s) = 4.03622 4.29477 4.16750
# Velocity P-wave (km/s) = 6.49376 7.02766 6.76597
#
# Compressibility (1/GPa) = 0.02153746
#
# Stress axis : x y z
#
# Youngs Moduli (GPa) = 103.44554 86.87824 86.20240
#
# Poissons Ratio (x) = 0.16231 0.07611
# Poissons Ratio (y) = 0.19326 0.24732
# Poissons Ratio (z) = 0.09134 0.24926
#
# Static dielectric constant tensor:
#      x y z
#    x 1.816400 0.002470 0.017610 
#    y 0.002470 1.856610 -0.006380 
#    z 0.017610 -0.006380 1.946940 
# 
# From -- ./inp_files/241369.got.cif
#   From: 2010.05.17/outbox.cif.g08.bks.cpg/sg2_121_cif.got.tgz:241369.got - 2010.06.03 11:33:40.
