data_PCOD9060685
_publ_section_title
;
Structure prediction by ZEFSAII (Michael W. Deem and Ramdas Pophale) SiO2 
 PCOD9060685
Probable space group: P -1
;
_chemical_formula_sum "Si O2"
_cell_formula_units_Z 16
_cell_length_a 11.908889
_cell_length_b 8.191759
_cell_length_c 16.261365
_cell_angle_alpha 103.171395
_cell_angle_beta 26.771942
_cell_angle_gamma 95.482071
_cell_volume 674.382616
_symmetry_space_group_name_H-M "P -1"
_symmetry_group_IT_number 2
_symmetry_cell_setting 'triclinic'
loop_
_space_group_symop_operation_xyz
x,y,z
-x,-y,-z
loop_
_atom_site_type_symbol
_atom_site_label
_atom_site_fract_x
_atom_site_fract_y
_atom_site_fract_z
Si Si1 0.501489 0.626837 0.835051
Si Si2 0.650394 0.248372 0.768691
Si Si3 0.372545 0.322071 0.687727
Si Si4 0.146809 0.715931 0.921543
Si Si5 0.700262 0.790639 0.870516
Si Si6 0.443854 0.198917 0.442056
Si Si7 0.064755 0.410572 0.588138
Si Si8 0.194271 0.892362 0.522843
O O1 0.504769 0.441392 0.852864
O O2 0.272363 0.693242 0.928129
O O3 0.524095 0.763185 0.906102
O O4 0.761423 0.597670 0.607656
O O5 0.881130 0.282004 0.677268
O O6 0.757616 0.131015 0.607842
O O7 0.464116 0.166961 0.935393
O O8 0.236010 0.525303 0.799902
O O9 0.450889 0.249582 0.537843
O O10 0.625995 0.280374 0.572893
O O11 0.157970 0.237776 0.860513
O O12 0.285421 0.829838 0.786631
O O13 0.879742 0.597366 0.741966
O O14 0.898890 0.904874 0.735844
O O15 0.251690 0.353095 0.535689
O O16 0.310906 0.041458 0.500596
#
# Coordination Sequence:
#
# PCOD9060685 Si02
#       8
#     2   2   2   2   2   2   2   2
#     4  10  17  39  64  95 127 151 201 263 309 353
#     4  11  21  36  65  92 123 164 202 252 307 360
#     4  11  24  43  68  86 126 159 212 257 299 362
#     4  10  23  42  67  97 115 159 208 267 300 351
#     4  11  22  36  68  93 123 163 203 253 308 368
#     4  11  26  40  65  89 129 166 203 247 310 368
#     4  10  19  39  63  92 122 160 204 260 300 354
#     4  12  24  44  57  94 130 167 200 248 305 374
#
# _framework density 23.725404000000001
#
# number of rings (size 3 to 8) (size 9 to 14) (size 15 to 20)
#    0.000    1.250    3.750    3.750    3.500    3.000 
#    0.000    0.625    0.000    0.000    0.000    0.000 
#    0.000    0.000    0.000    0.000    0.000    0.000 
#
# Total GULP energy -89644.940545 kJ/mol
# GULP energy per Si atom -5602.808784 kJ/mol
# Density = 2.367140 g / cm^3
# Si number density = 23.725404 Si / 1000 Ang^3
#
#
#
# Elastic Constant Matrix: (Units=GPa)
#
#
# Indices 1 2 3 4 5 6 
#
# 1 79.0963 19.0425 67.6597 -6.5543 6.5963 18.1038
# 2 19.0425 65.5331 42.2023 -23.8281 3.5225 -1.0746
# 3 67.6597 42.2023 150.9004 -21.1255 29.3869 15.5709
# 4 -6.5543 -23.8281 -21.1255 9.3420 -23.0568 -24.3337
# 5 6.5963 3.5225 29.3869 -23.0568 17.6753 -8.9015
# 6 18.1038 -1.0746 15.5709 -24.3337 -8.9015 23.4292
#
#
#
# Elastic Compliance Matrix: (Units=1/GPa)
#
#
# Indices 1 2 3 4 5 6 
#
# 1 0.022903 0.000621 -0.011582 0.001127 0.009425 -0.005220
# 2 0.000621 0.015421 -0.002983 -0.005317 -0.008593 -0.006577
# 3 -0.011582 -0.002983 0.014916 0.007591 -0.008119 0.003698
# 4 0.001127 -0.005317 0.007591 -0.003246 -0.025988 -0.019404
# 5 0.009425 -0.008593 -0.008119 -0.025988 0.024272 -0.020051
# 6 -0.005220 -0.006577 0.003698 -0.019404 -0.020051 0.016185
#
#
# Mechanical properties :
#
#
# Convention : Reuss Voigt Hill
#
# Bulk Modulus (GPa) = 39.44567 61.48209 50.46388
# Shear Modulus (GPa) = 39.43542 21.19765 30.31653
#
# Velocity S-wave (km/s) = 4.08138 2.99232 3.57852
# Velocity P-wave (km/s) = 6.23476 6.15702 6.19601
#
# Compressibility (1/GPa) = 0.02535132
#
# Stress axis : x y z
#
# Youngs Moduli (GPa) = 43.66312 64.84655 67.04051
#
# Poissons Ratio (x) = -0.04026 0.77644
# Poissons Ratio (y) = -0.02711 0.20001
# Poissons Ratio (z) = 0.50569 0.19347
#
# Static dielectric constant tensor:
#      x y z
#    x 1.855050 -0.040460 -0.010290 
#    y -0.040460 1.951320 -0.023960 
#    z -0.010290 -0.023960 1.855140 
# 
# From -- ./inp_files/272513.got.cif
#   From: 2010.05.17/outbox.cif.g08.bks.cpg/sg2_137_cif.got.tgz:272513.got - 2010.06.03 11:33:40.
