data_PCOD9060532
_publ_section_title
;
Structure prediction by ZEFSAII (Michael W. Deem and Ramdas Pophale) SiO2 
 PCOD9060532
Probable space group: P -1
;
_chemical_formula_sum "Si O2"
_cell_formula_units_Z 16
_cell_length_a 9.025011
_cell_length_b 8.279841
_cell_length_c 11.377797
_cell_angle_alpha 54.662303
_cell_angle_beta 78.392101
_cell_angle_gamma 68.397215
_cell_volume 644.773323
_symmetry_space_group_name_H-M "P -1"
_symmetry_group_IT_number 2
_symmetry_cell_setting 'triclinic'
loop_
_space_group_symop_operation_xyz
x,y,z
-x,-y,-z
loop_
_atom_site_type_symbol
_atom_site_label
_atom_site_fract_x
_atom_site_fract_y
_atom_site_fract_z
Si Si1 0.090854 0.751029 0.809004
Si Si2 0.501280 0.831868 0.468864
Si Si3 0.218542 0.356508 0.678520
Si Si4 0.390780 0.227373 0.951232
Si Si5 0.378881 0.533196 0.225578
Si Si6 0.172453 0.822689 0.529821
Si Si7 0.955265 0.132434 0.829759
Si Si8 0.197753 0.384371 0.126828
O O1 0.968853 0.651521 0.805801
O O2 0.214095 0.771367 0.683616
O O3 0.996749 0.972870 0.783225
O O4 0.160429 0.603557 0.970402
O O5 0.642270 0.788728 0.367778
O O6 0.543358 0.602466 0.617960
O O7 0.319297 0.888576 0.427771
O O8 0.500000 0.000000 0.500000
O O9 0.286242 0.314142 0.817408
O O10 0.174154 0.605925 0.559513
O O11 0.064159 0.281254 0.733012
O O12 0.497578 0.375559 0.897749
O O13 0.284719 0.223021 0.081595
O O14 0.500000 0.000000 0.000000
O O15 0.307822 0.390658 0.214743
O O16 0.227362 0.729734 0.198077
O O17 0.000000 0.000000 0.500000
O O18 0.000000 0.000000 0.000000
#
# Coordination Sequence:
#
# PCOD9060532 Si02
#       8
#     2   2   2   2   2   2   2   2
#     4  11  23  44  71 107 144 188 252 310 366 440
#     4  12  30  51  73 109 152 203 253 309 372 445
#     4  12  27  51  76 108 157 192 254 310 367 457
#     4  12  26  43  72 107 145 195 240 310 383 439
#     4  12  26  45  73 107 155 194 249 308 374 445
#     4  12  28  49  78 106 144 202 255 308 372 442
#     4  12  25  45  76 112 148 193 246 304 376 450
#     4  11  23  43  72 104 148 190 244 310 373 437
#
# _framework density 24.814920999999998
#
# number of rings (size 3 to 8) (size 9 to 14) (size 15 to 20)
#    0.000    0.250    3.750    4.500    7.000    0.500 
#    0.000    0.000    0.000    0.000    0.000    0.000 
#    0.000    0.000    0.000    0.000    0.000    0.000 
#
# Total GULP energy -89669.293533 kJ/mol
# GULP energy per Si atom -5604.330846 kJ/mol
# Density = 2.475844 g / cm^3
# Si number density = 24.814921 Si / 1000 Ang^3
#
#
#
# Elastic Constant Matrix: (Units=GPa)
#
#
# Indices 1 2 3 4 5 6 
#
# 1 116.1714 27.2912 12.6864 -5.3741 -16.7587 -9.7645
# 2 27.2912 161.2055 14.5013 2.5714 -4.9206 -17.1133
# 3 12.6864 14.5013 66.3190 2.6436 -10.4367 -9.3427
# 4 -5.3741 2.5714 2.6436 46.5888 -6.5655 -0.2291
# 5 -16.7587 -4.9206 -10.4367 -6.5655 39.2561 -1.5291
# 6 -9.7645 -17.1133 -9.3427 -0.2291 -1.5291 46.9455
#
#
#
# Elastic Compliance Matrix: (Units=1/GPa)
#
#
# Indices 1 2 3 4 5 6 
#
# 1 0.009826 -0.001330 -0.000785 0.001849 0.004189 0.001548
# 2 -0.001330 0.006731 -0.000913 -0.000459 0.000034 0.001994
# 3 -0.000785 -0.000913 0.016481 -0.000400 0.003978 0.002911
# 4 0.001849 -0.000459 -0.000400 0.022345 0.004378 0.000389
# 5 0.004189 0.000034 0.003978 0.004378 0.029159 0.002647
# 6 0.001548 0.001994 0.002911 0.000389 0.002647 0.023018
#
#
# Mechanical properties :
#
#
# Convention : Reuss Voigt Hill
#
# Bulk Modulus (GPa) = 37.06283 50.29484 43.67884
# Shear Modulus (GPa) = 40.78005 45.83920 43.30962
#
# Velocity S-wave (km/s) = 4.05825 4.30262 4.18222
# Velocity P-wave (km/s) = 6.07678 6.70786 6.40010
#
# Compressibility (1/GPa) = 0.02698121
#
# Stress axis : x y z
#
# Youngs Moduli (GPa) = 101.76896 148.57510 60.67736
#
# Poissons Ratio (x) = 0.19763 0.04765
# Poissons Ratio (y) = 0.13537 0.05538
# Poissons Ratio (z) = 0.07991 0.13560
#
# Static dielectric constant tensor:
#      x y z
#    x 1.950650 -0.020350 0.025500 
#    y -0.020350 1.970980 -0.036810 
#    z 0.025500 -0.036810 1.968530 
# 
# From -- ./inp_files/381299.got.cif
#   From: 2010.05.17/outbox.cif.g08.bks.cpg/sg2_191_cif.got.tgz:381299.got - 2010.06.03 11:33:40.
