data_PCOD9060355
_publ_section_title
;
Structure prediction by ZEFSAII (Michael W. Deem and Ramdas Pophale) SiO2 
 PCOD9060355
Probable space group: P -1
;
_chemical_formula_sum "Si O2"
_cell_formula_units_Z 16
_cell_length_a 9.477787
_cell_length_b 5.390451
_cell_length_c 14.909941
_cell_angle_alpha 83.867743
_cell_angle_beta 119.821496
_cell_angle_gamma 98.464672
_cell_volume 653.170514
_symmetry_space_group_name_H-M "P -1"
_symmetry_group_IT_number 2
_symmetry_cell_setting 'triclinic'
loop_
_space_group_symop_operation_xyz
x,y,z
-x,-y,-z
loop_
_atom_site_type_symbol
_atom_site_label
_atom_site_fract_x
_atom_site_fract_y
_atom_site_fract_z
Si Si1 0.325457 0.247341 0.194064
Si Si2 0.662401 0.949798 0.503366
Si Si3 0.943604 0.253953 0.105985
Si Si4 0.005125 0.067854 0.316277
Si Si5 0.856857 0.312826 0.418506
Si Si6 0.267048 0.345702 0.778984
Si Si7 0.250038 0.281990 0.977653
Si Si8 0.503471 0.763106 0.291477
O O1 0.128984 0.221538 0.139594
O O2 0.394321 0.500026 0.256384
O O3 0.397293 0.996443 0.258507
O O4 0.367379 0.289366 0.100052
O O5 0.745894 0.190125 0.466861
O O6 0.500000 0.000000 0.500000
O O7 0.800380 0.887177 0.618752
O O8 0.615955 0.756005 0.415480
O O9 0.940662 0.244793 0.213892
O O10 0.877640 0.514534 0.049231
O O11 0.832352 0.006142 0.045584
O O12 0.944153 0.116485 0.394404
O O13 0.918404 0.796190 0.272029
O O14 0.746922 0.429705 0.303824
O O15 0.000000 0.500000 0.500000
O O16 0.320014 0.361646 0.898426
O O17 0.386706 0.187805 0.765249
#
# Coordination Sequence:
#
# PCOD9060355 Si02
#       8
#     2   2   2   2   2   2   2   2
#     4  12  26  46  69 104 151 192 235 310 377 428
#     4  12  26  46  71 110 148 191 244 307 379 439
#     4  11  23  44  74 107 140 183 252 301 367 440
#     4  11  23  43  70 100 138 186 242 298 357 439
#     4  12  22  42  73  98 139 193 243 295 362 435
#     4  11  24  44  70 102 138 187 254 295 355 443
#     4  11  24  44  75 105 138 191 248 306 360 439
#     4  12  27  45  69 101 150 193 239 300 371 441
#
# _framework density 24.495899999999999
#
# number of rings (size 3 to 8) (size 9 to 14) (size 15 to 20)
#    0.000    0.500    3.750    4.875    0.000    3.000 
#    0.000    3.750    0.000    0.000    0.000    0.000 
#    0.000    0.000    0.000    0.000    0.000    0.000 
#
# Total GULP energy -89590.879338 kJ/mol
# GULP energy per Si atom -5599.429959 kJ/mol
# Density = 2.444015 g / cm^3
# Si number density = 24.495900 Si / 1000 Ang^3
#
#
#
# Elastic Constant Matrix: (Units=GPa)
#
#
# Indices 1 2 3 4 5 6 
#
# 1 89.0725 17.2558 -8.3834 5.7234 -9.6144 1.1507
# 2 17.2558 121.4079 36.7176 19.3695 11.8398 -7.1044
# 3 -8.3834 36.7176 88.0273 -3.9114 -12.3249 3.8196
# 4 5.7234 19.3695 -3.9114 28.8814 -3.8936 8.5825
# 5 -9.6144 11.8398 -12.3249 -3.8936 35.5184 -1.8320
# 6 1.1507 -7.1044 3.8196 8.5825 -1.8320 37.6317
#
#
#
# Elastic Compliance Matrix: (Units=1/GPa)
#
#
# Indices 1 2 3 4 5 6 
#
# 1 0.012989 -0.004140 0.004038 0.002142 0.006441 -0.001764
# 2 -0.004140 0.015250 -0.009147 -0.014039 -0.010576 0.006621
# 3 0.004038 -0.009147 0.017865 0.010938 0.011251 -0.005611
# 4 0.002142 -0.014039 0.010938 0.051392 0.013922 -0.014869
# 5 0.006441 -0.010576 0.011251 0.013922 0.038615 -0.004631
# 6 -0.001764 0.006621 -0.005611 -0.014869 -0.004631 0.031612
#
#
# Mechanical properties :
#
#
# Convention : Reuss Voigt Hill
#
# Bulk Modulus (GPa) = 36.22622 43.29863 39.76242
# Shear Modulus (GPa) = 25.58515 37.26746 31.42631
#
# Velocity S-wave (km/s) = 3.23533 3.90471 3.58567
# Velocity P-wave (km/s) = 5.36444 6.16792 5.78016
#
# Compressibility (1/GPa) = 0.02760432
#
# Stress axis : x y z
#
# Youngs Moduli (GPa) = 76.98629 65.57250 55.97570
#
# Poissons Ratio (x) = 0.27149 -0.22601
# Poissons Ratio (y) = 0.31875 0.51203
# Poissons Ratio (z) = -0.31084 0.59981
#
# Static dielectric constant tensor:
#      x y z
#    x 2.000960 -0.017160 0.000490 
#    y -0.017160 1.952050 -0.005760 
#    z 0.000490 -0.005760 1.960130 
# 
# From -- ./inp_files/488469.got.cif
#   From: 2010.05.17/outbox.cif.g08.bks.cpg/sg2_245_cif.got.tgz:488469.got - 2010.06.03 11:33:40.
