data_PCOD9060842
_publ_section_title
;
Structure prediction by ZEFSAII (Michael W. Deem and Ramdas Pophale) SiO2 
 PCOD9060842
Probable space group: P -1
;
_chemical_formula_sum "Si O2"
_cell_formula_units_Z 11
_cell_length_a 9.464019
_cell_length_b 8.848841
_cell_length_c 12.077279
_cell_angle_alpha 42.062909
_cell_angle_beta 37.820605
_cell_angle_gamma 64.360273
_cell_volume 385.300916
_symmetry_space_group_name_H-M "P -1"
_symmetry_group_IT_number 2
_symmetry_cell_setting 'triclinic'
loop_
_space_group_symop_operation_xyz
x,y,z
-x,-y,-z
loop_
_atom_site_type_symbol
_atom_site_label
_atom_site_fract_x
_atom_site_fract_y
_atom_site_fract_z
Si Si1 0.990689 0.075743 0.340792
Si Si2 0.412124 0.367017 0.771977
Si Si3 0.500000 0.000000 0.000000
Si Si4 0.727998 0.865302 0.411758
Si Si5 0.857385 0.317427 0.782523
Si Si6 0.036527 0.596778 0.092141
O O1 0.000474 0.350898 0.181382
O O2 0.245607 0.122245 0.086006
O O3 0.000000 0.000000 0.500000
O O4 0.777092 0.886742 0.501660
O O5 0.626114 0.261094 0.694784
O O6 0.513017 0.625067 0.629954
O O7 0.231540 0.376420 0.779958
O O8 0.602622 0.163435 0.966639
O O9 0.972316 0.841390 0.217973
O O10 0.759178 0.139447 0.213664
O O11 0.000000 0.500000 0.500000
O O12 0.859426 0.432700 0.836843
#
# Coordination Sequence:
#
# PCOD9060842 Si02
#       6
#     2   2   1   2   2   2
#     4  11  25  46  68  99 140 178 226 282 335 405
#     4  11  25  44  72 102 135 183 226 276 343 398
#     4  12  24  42  72 100 138 176 230 274 342 396
#     4  11  23  44  68  98 140 176 228 278 333 404
#     4  12  24  44  68 101 138 179 224 283 334 399
#     4  11  26  44  70 100 137 180 227 280 336 404
#
# _framework density 28.549115
#
# number of rings (size 3 to 8) (size 9 to 14) (size 15 to 20)
#    0.000    0.727    5.455    3.818    0.000    5.818 
#    0.000    0.000    0.000    0.000    0.000    0.000 
#    0.000    0.000    0.000    0.000    0.000    0.000 
#
# Total GULP energy -61392.695556 kJ/mol
# GULP energy per Si atom -5581.154141 kJ/mol
# Density = 2.848414 g / cm^3
# Si number density = 28.549115 Si / 1000 Ang^3
#
#
#
# Elastic Constant Matrix: (Units=GPa)
#
#
# Indices 1 2 3 4 5 6 
#
# 1 242.7193 37.2205 69.4025 -23.1759 -6.4587 47.4847
# 2 37.2205 107.5251 16.2638 -48.2053 -5.7594 4.1218
# 3 69.4025 16.2638 113.1275 -43.6390 -1.8275 21.3224
# 4 -23.1759 -48.2053 -43.6390 55.6892 5.7536 -7.7698
# 5 -6.4587 -5.7594 -1.8275 5.7536 64.1354 -13.9082
# 6 47.4847 4.1218 21.3224 -7.7698 -13.9082 66.4745
#
#
#
# Elastic Compliance Matrix: (Units=1/GPa)
#
#
# Indices 1 2 3 4 5 6 
#
# 1 0.006040 -0.003052 -0.004114 -0.003794 -0.000154 -0.003281
# 2 -0.003052 0.018238 0.006715 0.019950 -0.000002 0.001227
# 3 -0.004114 0.006715 0.017451 0.017722 -0.001175 -0.001249
# 4 -0.003794 0.019950 0.017722 0.047889 -0.002180 0.000930
# 5 -0.000154 -0.000002 -0.001175 -0.002180 0.016539 0.003693
# 6 -0.003281 0.001227 -0.001249 0.000930 0.003693 0.018593
#
#
# Mechanical properties :
#
#
# Convention : Reuss Voigt Hill
#
# Bulk Modulus (GPa) = 24.49428 78.79393 51.64410
# Shear Modulus (GPa) = 35.90366 59.95884 47.93125
#
# Velocity S-wave (km/s) = 3.55013 4.58777 4.10189
# Velocity P-wave (km/s) = 5.04013 7.46477 6.36890
#
# Compressibility (1/GPa) = 0.04082586
#
# Stress axis : x y z
#
# Youngs Moduli (GPa) = 165.56353 54.83184 57.30291
#
# Poissons Ratio (x) = 0.16734 0.23576
# Poissons Ratio (y) = 0.50527 -0.38477
# Poissons Ratio (z) = 0.68117 -0.36818
#
# Static dielectric constant tensor:
#      x y z
#    x 2.239930 -0.170110 0.045570 
#    y -0.170110 2.381030 0.094410 
#    z 0.045570 0.094410 2.404460 
# 
# From -- ./inp_files/151310.got.cif
#   From: 2010.05.17/outbox.cif.g08.bks.cpg/sg2_76_cif.got.tgz:151310.got - 2010.06.03 11:33:40.
