data_PCOD9060889
_publ_section_title
;
Structure prediction by ZEFSAII (Michael W. Deem and Ramdas Pophale) SiO2 
 PCOD9060889
Probable space group: P -1
;
_chemical_formula_sum "Si O2"
_cell_formula_units_Z 14
_cell_length_a 11.320594
_cell_length_b 8.297076
_cell_length_c 9.831343
_cell_angle_alpha 99.866406
_cell_angle_beta 100.032245
_cell_angle_gamma 41.261631
_cell_volume 598.531588
_symmetry_space_group_name_H-M "P -1"
_symmetry_group_IT_number 2
_symmetry_cell_setting 'triclinic'
loop_
_space_group_symop_operation_xyz
x,y,z
-x,-y,-z
loop_
_atom_site_type_symbol
_atom_site_label
_atom_site_fract_x
_atom_site_fract_y
_atom_site_fract_z
Si Si1 0.157560 0.752503 0.220371
Si Si2 0.532062 0.789960 0.412517
Si Si3 0.296984 0.929309 0.136200
Si Si4 0.650071 0.954350 0.096219
Si Si5 0.533490 0.297228 0.347463
Si Si6 0.801653 0.299282 0.288916
Si Si7 0.091484 0.604623 0.928156
O O1 0.254340 0.790647 0.152796
O O2 0.319671 0.525390 0.312786
O O3 0.088245 0.686931 0.090143
O O4 0.991472 0.011346 0.299414
O O5 0.438332 0.864026 0.258034
O O6 0.438319 0.758455 0.495121
O O7 0.738769 0.522257 0.395298
O O8 0.500000 0.000000 0.500000
O O9 0.105937 0.213785 0.147469
O O10 0.341316 0.900139 0.982567
O O11 0.816408 0.664018 0.091552
O O12 0.598986 0.069521 0.249214
O O13 0.500000 0.000000 0.000000
O O14 0.648867 0.324873 0.306477
O O15 0.809368 0.364931 0.146748
#
# Coordination Sequence:
#
# PCOD9060889 Si02
#       7
#     2   2   2   2   2   2   2
#     4  11  24  43  73 106 138 174 232 285 340 405
#     4  12  27  48  69  98 142 182 232 280 343 409
#     4  11  24  44  70  99 140 180 226 287 340 407
#     4  12  23  40  71 101 137 184 226 279 345 400
#     4  12  25  45  72 100 140 185 226 282 341 407
#     4  11  24  45  71  98 139 180 229 279 342 409
#     4  11  23  44  69 109 138 171 234 287 339 407
#
# _framework density 23.390577
#
# number of rings (size 3 to 8) (size 9 to 14) (size 15 to 20)
#    0.000    0.571    2.857    6.857    0.000    1.714 
#    2.571    3.571    0.000    0.000    0.000    0.000 
#    0.000    0.000    0.000    0.000    0.000    0.000 
#
# Total GULP energy -78262.800584 kJ/mol
# GULP energy per Si atom -5590.200042 kJ/mol
# Density = 2.333734 g / cm^3
# Si number density = 23.390577 Si / 1000 Ang^3
#
#
#
# Elastic Constant Matrix: (Units=GPa)
#
#
# Indices 1 2 3 4 5 6 
#
# 1 66.2445 8.7676 7.3880 3.0140 -10.5144 -1.3494
# 2 8.7676 131.9112 16.7624 20.5333 13.3280 0.2067
# 3 7.3880 16.7624 69.6800 10.9671 -16.0368 4.5097
# 4 3.0140 20.5333 10.9671 45.9305 9.4275 1.8048
# 5 -10.5144 13.3280 -16.0368 9.4275 32.0597 2.1143
# 6 -1.3494 0.2067 4.5097 1.8048 2.1143 27.4657
#
#
#
# Elastic Compliance Matrix: (Units=1/GPa)
#
#
# Indices 1 2 3 4 5 6 
#
# 1 0.016421 -0.001542 0.000474 -0.001911 0.006803 0.000342
# 2 -0.001542 0.008894 -0.002845 -0.002195 -0.005038 0.000857
# 3 0.000474 -0.002845 0.019095 -0.005809 0.012842 -0.003697
# 4 -0.001911 -0.002195 -0.005809 0.026399 -0.010379 -0.000059
# 5 0.006803 -0.005038 0.012842 -0.010379 0.045292 -0.004541
# 6 0.000342 0.000857 -0.003697 -0.000059 -0.004541 0.037380
#
#
# Mechanical properties :
#
#
# Convention : Reuss Voigt Hill
#
# Bulk Modulus (GPa) = 27.33505 37.07465 32.20485
# Shear Modulus (GPa) = 28.81821 36.75234 32.78528
#
# Velocity S-wave (km/s) = 3.51386 3.96819 3.74792
# Velocity P-wave (km/s) = 5.30798 6.07290 5.70328
#
# Compressibility (1/GPa) = 0.03658307
#
# Stress axis : x y z
#
# Youngs Moduli (GPa) = 60.89935 112.43164 52.37052
#
# Poissons Ratio (x) = 0.17338 -0.02484
# Poissons Ratio (y) = 0.09391 0.14902
# Poissons Ratio (z) = -0.02889 0.31992
#
# Static dielectric constant tensor:
#      x y z
#    x 1.949340 0.032360 -0.056390 
#    y 0.032360 2.040780 -0.063760 
#    z -0.056390 -0.063760 1.874790 
# 
# From -- ./inp_files/188500.got.cif
#   From: 2010.05.17/outbox.cif.g08.bks.cpg/sg2_95_cif.got.tgz:188500.got - 2010.06.03 11:33:40.
