data_PCOD9060852
_publ_section_title
;
Structure prediction by ZEFSAII (Michael W. Deem and Ramdas Pophale) SiO2 
 PCOD9060852
Probable space group: P -1
;
_chemical_formula_sum "Si O2"
_cell_formula_units_Z 16
_cell_length_a 18.524702
_cell_length_b 9.419811
_cell_length_c 5.476517
_cell_angle_alpha 104.566567
_cell_angle_beta 95.743449
_cell_angle_gamma 51.444119
_cell_volume 721.264234
_symmetry_space_group_name_H-M "P -1"
_symmetry_group_IT_number 2
_symmetry_cell_setting 'triclinic'
loop_
_space_group_symop_operation_xyz
x,y,z
-x,-y,-z
loop_
_atom_site_type_symbol
_atom_site_label
_atom_site_fract_x
_atom_site_fract_y
_atom_site_fract_z
Si Si1 0.470482 0.369983 0.407311
Si Si2 0.339163 0.388488 0.025229
Si Si3 0.828582 0.436177 0.632106
Si Si4 0.790633 0.783425 0.603980
Si Si5 0.404621 0.041445 0.562261
Si Si6 0.821513 0.922104 0.170944
Si Si7 0.998719 0.098016 0.791586
Si Si8 0.722755 0.338608 0.265927
O O1 0.500000 0.500000 0.500000
O O2 0.376583 0.482502 0.587502
O O3 0.556255 0.160136 0.410894
O O4 0.432297 0.348518 0.134018
O O5 0.360504 0.221334 0.796821
O O6 0.281524 0.595587 0.979703
O O7 0.270720 0.412357 0.213837
O O8 0.844230 0.560165 0.528140
O O9 0.905068 0.309201 0.806543
O O10 0.806339 0.320831 0.414486
O O11 0.679647 0.896868 0.613462
O O12 0.813256 0.844185 0.389111
O O13 0.816071 0.831579 0.885890
O O14 0.500000 0.000000 0.500000
O O15 0.915795 0.897312 0.180181
O O16 0.739949 0.146490 0.223601
O O17 0.000000 0.000000 0.500000
O O18 0.000000 0.000000 0.000000
#
# Coordination Sequence:
#
# PCOD9060852 Si02
#       8
#     2   2   2   2   2   2   2   2
#     4  11  25  39  63 102 139 186 244 309 366 426
#     4  11  23  44  72  99 143 194 251 302 371 441
#     4  11  25  46  76 103 143 194 246 297 366 447
#     4  12  28  48  71 111 153 194 240 311 381 424
#     4  12  23  46  69 102 140 199 256 295 360 447
#     4  12  28  47  74 110 152 192 236 317 381 427
#     4  12  26  48  81 115 145 192 254 298 359 460
#     4  11  23  44  69 100 138 192 246 298 364 442
#
# _framework density 22.183273
#
# number of rings (size 3 to 8) (size 9 to 14) (size 15 to 20)
#    0.000    0.500    3.750    4.125    5.250    3.500 
#    0.000    0.000    0.000    0.000    0.000    0.000 
#    0.000    0.000    0.000    0.000    0.000    0.000 
#
# Total GULP energy -89320.486379 kJ/mol
# GULP energy per Si atom -5582.530399 kJ/mol
# Density = 2.213278 g / cm^3
# Si number density = 22.183273 Si / 1000 Ang^3
#
#
#
# Elastic Constant Matrix: (Units=GPa)
#
#
# Indices 1 2 3 4 5 6 
#
# 1 129.5971 51.2446 56.7329 -19.8079 16.0661 4.7844
# 2 51.2446 135.6242 32.0901 -33.5262 2.3281 25.5832
# 3 56.7329 32.0901 104.1348 -17.1576 13.2501 16.1216
# 4 -19.8079 -33.5262 -17.1576 44.9822 8.0185 4.4807
# 5 16.0661 2.3281 13.2501 8.0185 44.9717 -10.1234
# 6 4.7844 25.5832 16.1216 4.4807 -10.1234 44.5807
#
#
#
# Elastic Compliance Matrix: (Units=1/GPa)
#
#
# Indices 1 2 3 4 5 6 
#
# 1 0.011617 -0.003262 -0.005195 0.000900 -0.002179 0.001919
# 2 -0.003262 0.012567 0.001492 0.010104 -0.003816 -0.009284
# 3 -0.005195 0.001492 0.014843 0.006195 -0.005390 -0.007513
# 4 0.000900 0.010104 0.006195 0.036186 -0.012406 -0.014590
# 5 -0.002179 -0.003816 -0.005390 -0.012406 0.029801 0.012387
# 6 0.001919 -0.009284 -0.007513 -0.014590 0.012387 0.034549
#
#
# Mechanical properties :
#
#
# Convention : Reuss Voigt Hill
#
# Bulk Modulus (GPa) = 39.84526 72.16571 56.00548
# Shear Modulus (GPa) = 30.89067 42.19281 36.54174
#
# Velocity S-wave (km/s) = 3.73570 4.36594 4.06305
# Velocity P-wave (km/s) = 6.05046 7.61692 6.87843
#
# Compressibility (1/GPa) = 0.02509709
#
# Stress axis : x y z
#
# Youngs Moduli (GPa) = 86.07759 79.57105 67.37013
#
# Poissons Ratio (x) = 0.25959 0.35001
# Poissons Ratio (y) = 0.28082 -0.10053
# Poissons Ratio (z) = 0.44721 -0.11874
#
# Static dielectric constant tensor:
#      x y z
#    x 2.797930 0.045140 -0.322420 
#    y 0.045140 1.853920 -0.026460 
#    z -0.322420 -0.026460 1.995130 
# 
# From -- ./inp_files/39224.got.cif
#   From: 2010.05.17/outbox.cif.g08.bks.cpg/sg2_20_cif.got.tgz:39224.got - 2010.06.03 11:33:40.
