data_PCOD9060007
_publ_section_title
;
Structure prediction by ZEFSAII (Michael W. Deem and Ramdas Pophale) SiO2 
 PCOD9060007
Probable space group: P -1
;
_chemical_formula_sum "Si O2"
_cell_formula_units_Z 16
_cell_length_a 27.916198
_cell_length_b 6.490444
_cell_length_c 12.402143
_cell_angle_alpha 44.555452
_cell_angle_beta 153.444076
_cell_angle_gamma 126.000603
_cell_volume 695.975784
_symmetry_space_group_name_H-M "P -1"
_symmetry_group_IT_number 2
_symmetry_cell_setting 'triclinic'
loop_
_space_group_symop_operation_xyz
x,y,z
-x,-y,-z
loop_
_atom_site_type_symbol
_atom_site_label
_atom_site_fract_x
_atom_site_fract_y
_atom_site_fract_z
Si Si1 0.120143 0.356136 0.761722
Si Si2 0.433111 0.663223 0.709829
Si Si3 0.066887 0.729849 0.921085
Si Si4 0.919645 0.280170 0.790118
Si Si5 0.265610 0.278103 0.463904
Si Si6 0.662792 0.714285 0.635461
Si Si7 0.250359 0.681033 0.739711
Si Si8 0.486387 0.350935 0.351936
O O1 0.158196 0.558957 0.668524
O O2 0.000000 0.500000 0.500000
O O3 0.217661 0.354338 0.045726
O O4 0.103072 0.015849 0.830279
O O5 0.320076 0.546208 0.519717
O O6 0.496718 0.551377 0.772604
O O7 0.407350 0.013442 0.544403
O O8 0.500000 0.500000 0.000000
O O9 0.077826 0.776345 0.054895
O O10 0.143933 0.435422 0.145118
O O11 0.953253 0.610703 0.719926
O O12 0.800056 0.309935 0.486019
O O13 0.000000 0.000000 0.000000
O O14 0.319895 0.195450 0.487989
O O15 0.271443 0.019718 0.660016
O O16 0.586173 0.458272 0.576287
O O17 0.362537 0.485681 0.075901
O O18 0.500000 0.000000 0.500000
#
# Coordination Sequence:
#
# PCOD9060007 Si02
#       8
#     2   2   2   2   2   2   2   2
#     4  12  28  46  71 106 144 187 233 285 357 422
#     4  11  23  42  73 103 135 182 238 288 347 408
#     4  11  25  45  72 101 137 189 233 277 361 417
#     4  11  24  45  74 101 139 182 237 298 344 410
#     4  11  24  43  74 103 137 181 237 286 346 418
#     4  11  25  49  72  99 147 188 228 294 348 415
#     4  12  26  45  72 108 142 180 241 295 344 417
#     4  11  27  46  69 103 144 188 232 284 357 417
#
# _framework density 22.989305999999999
#
# number of rings (size 3 to 8) (size 9 to 14) (size 15 to 20)
#    0.000    0.750    2.500    3.750    7.000    6.500 
#    0.000    0.000    0.000    0.000    0.000    0.000 
#    0.000    0.000    0.000    0.000    0.000    0.000 
#
# Total GULP energy -89310.887686 kJ/mol
# GULP energy per Si atom -5581.930480 kJ/mol
# Density = 2.293698 g / cm^3
# Si number density = 22.989306 Si / 1000 Ang^3
#
#
#
# Elastic Constant Matrix: (Units=GPa)
#
#
# Indices 1 2 3 4 5 6 
#
# 1 81.1899 15.4598 -3.3044 -2.7097 10.8230 8.4025
# 2 15.4598 121.2553 10.4420 9.8609 1.3472 27.4801
# 3 -3.3044 10.4420 88.9760 8.3267 12.6611 2.2465
# 4 -2.7097 9.8609 8.3267 41.5401 1.9589 -4.3755
# 5 10.8230 1.3472 12.6611 1.9589 36.3257 1.9465
# 6 8.4025 27.4801 2.2465 -4.3755 1.9465 39.1555
#
#
#
# Elastic Compliance Matrix: (Units=1/GPa)
#
#
# Indices 1 2 3 4 5 6 
#
# 1 0.013429 -0.001497 0.001237 0.001023 -0.004348 -0.001571
# 2 -0.001497 0.010435 -0.000930 -0.003208 0.000950 -0.007355
# 3 0.001237 -0.000930 0.012223 -0.001971 -0.004471 -0.000312
# 4 0.001023 -0.003208 -0.001971 0.025888 -0.001168 0.005096
# 5 -0.004348 0.000950 -0.004471 -0.001168 0.030470 -0.001123
# 6 -0.001571 -0.007355 -0.000312 0.005096 -0.001123 0.031681
#
#
# Mechanical properties :
#
#
# Convention : Reuss Voigt Hill
#
# Bulk Modulus (GPa) = 29.66797 37.40176 33.53487
# Shear Modulus (GPa) = 36.29987 41.32584 38.81285
#
# Velocity S-wave (km/s) = 3.97796 4.24442 4.11335
# Velocity P-wave (km/s) = 5.83370 6.35017 6.09741
#
# Compressibility (1/GPa) = 0.03370638
#
# Stress axis : x y z
#
# Youngs Moduli (GPa) = 74.46800 95.83000 81.81591
#
# Poissons Ratio (x) = 0.14350 -0.10121
# Poissons Ratio (y) = 0.11151 0.07605
# Poissons Ratio (z) = -0.09212 0.08908
#
# Static dielectric constant tensor:
#      x y z
#    x 1.957950 0.034740 0.014510 
#    y 0.034740 1.908170 -0.004030 
#    z 0.014510 -0.004030 1.834080 
# 
# From -- ./inp_files/98191.got.cif
#   From: 2010.05.17/outbox.cif.g08.bks.cpg/sg2_50_cif.got.tgz:98191.got - 2010.06.03 11:33:40.
