data_PCOD9060131
_publ_section_title
;
Structure prediction by ZEFSAII (Michael W. Deem and Ramdas Pophale) SiO2 
 PCOD9060131
Probable space group: P -1
;
_chemical_formula_sum "Si O2"
_cell_formula_units_Z 14
_cell_length_a 22.200085
_cell_length_b 21.689860
_cell_length_c 13.036905
_cell_angle_alpha 154.802231
_cell_angle_beta 25.379396
_cell_angle_gamma 167.301068
_cell_volume 572.849127
_symmetry_space_group_name_H-M "P -1"
_symmetry_group_IT_number 2
_symmetry_cell_setting 'triclinic'
loop_
_space_group_symop_operation_xyz
x,y,z
-x,-y,-z
loop_
_atom_site_type_symbol
_atom_site_label
_atom_site_fract_x
_atom_site_fract_y
_atom_site_fract_z
Si Si1 0.446367 0.014615 0.407354
Si Si2 0.731604 0.254429 0.941286
Si Si3 0.162694 0.414370 0.252662
Si Si4 0.909337 0.836388 0.289504
Si Si5 0.237480 0.500535 0.589752
Si Si6 0.190468 0.119740 0.704819
Si Si7 0.490409 0.754778 0.050912
O O1 0.393617 0.893985 0.198129
O O2 0.538826 0.962485 0.256049
O O3 0.156879 0.821589 0.604323
O O4 0.666840 0.341734 0.559193
O O5 0.025006 0.430540 0.765678
O O6 0.780125 0.465848 0.212662
O O7 0.500000 0.000000 0.000000
O O8 0.309088 0.589091 0.183780
O O9 0.187164 0.263554 0.991083
O O10 0.771967 0.806707 0.363162
O O11 0.694832 0.509597 0.140476
O O12 0.000000 0.000000 0.500000
O O13 0.204827 0.043629 0.100940
O O14 0.564202 0.768733 0.468338
O O15 0.098444 0.223733 0.362567
#
# Coordination Sequence:
#
# PCOD9060131 Si02
#       7
#     2   2   2   2   2   2   2
#     4  12  26  42  74  97 138 182 230 277 338 393
#     4  11  27  47  71 103 134 170 235 291 334 404
#     4  11  24  45  66 104 139 178 231 269 329 421
#     4  11  24  38  64 103 143 170 230 269 331 423
#     4  11  24  44  73  92 133 173 225 275 354 385
#     4  11  23  43  70  94 135 185 209 282 347 386
#     4  11  23  43  66 101 140 185 218 275 332 397
#
# _framework density 24.439245
#
# number of rings (size 3 to 8) (size 9 to 14) (size 15 to 20)
#    0.000    0.857    1.429    6.429    8.000    0.000 
#    0.000    4.286    0.000    0.000    0.000    0.000 
#    0.000    0.000    0.000    0.000    0.000    0.000 
#
# Total GULP energy -78371.565614 kJ/mol
# GULP energy per Si atom -5597.968972 kJ/mol
# Density = 2.438362 g / cm^3
# Si number density = 24.439245 Si / 1000 Ang^3
#
#
#
# Elastic Constant Matrix: (Units=GPa)
#
#
# Indices 1 2 3 4 5 6 
#
# 1 35.8453 16.5589 20.0343 -16.0785 8.9248 8.3269
# 2 16.5589 114.6737 40.5027 6.4996 -6.7600 17.2462
# 3 20.0343 40.5027 104.9223 11.2932 5.3662 8.5289
# 4 -16.0785 6.4996 11.2932 59.7945 9.9284 6.7001
# 5 8.9248 -6.7600 5.3662 9.9284 33.0564 0.9108
# 6 8.3269 17.2462 8.5289 6.7001 0.9108 27.0368
#
#
#
# Elastic Compliance Matrix: (Units=1/GPa)
#
#
# Indices 1 2 3 4 5 6 
#
# 1 0.052722 -0.004788 -0.008258 0.021251 -0.019837 -0.015177
# 2 -0.004788 0.011661 -0.003229 -0.002266 0.005008 -0.004552
# 3 -0.008258 -0.003229 0.012666 -0.004594 0.000846 0.001718
# 4 0.021251 -0.002266 -0.004594 0.026857 -0.013250 -0.009859
# 5 -0.019837 0.005008 0.000846 -0.013250 0.040348 0.004573
# 6 -0.015177 -0.004552 0.001718 -0.009859 0.004573 0.046312
#
#
# Mechanical properties :
#
#
# Convention : Reuss Voigt Hill
#
# Bulk Modulus (GPa) = 22.47272 45.51482 33.99377
# Shear Modulus (GPa) = 21.01308 35.86723 28.44015
#
# Velocity S-wave (km/s) = 2.93543 3.83509 3.41502
# Velocity P-wave (km/s) = 4.55020 6.18665 5.43042
#
# Compressibility (1/GPa) = 0.04449840
#
# Stress axis : x y z
#
# Youngs Moduli (GPa) = 18.96753 85.75934 78.95256
#
# Poissons Ratio (x) = 0.41060 0.65197
# Poissons Ratio (y) = 0.09081 0.25495
# Poissons Ratio (z) = 0.15663 0.27694
#
# Static dielectric constant tensor:
#      x y z
#    x 1.980570 -0.005170 0.035350 
#    y -0.005170 1.913910 0.084910 
#    z 0.035350 0.084910 1.945170 
# 
# From -- ./inp_files/533870.got.cif
#   From: 2010.05.17/outbox.cif.g08.bks.cpg/sg2_267_cif.got.tgz:533870.got - 2010.06.03 11:33:40.
