data_PCOD9060187
_publ_section_title
;
Structure prediction by ZEFSAII (Michael W. Deem and Ramdas Pophale) SiO2 
 PCOD9060187
Probable space group: P -1
;
_chemical_formula_sum "Si O2"
_cell_formula_units_Z 12
_cell_length_a 5.040130
_cell_length_b 7.778651
_cell_length_c 17.330454
_cell_angle_alpha 62.148251
_cell_angle_beta 115.678634
_cell_angle_gamma 120.440596
_cell_volume 500.404087
_symmetry_space_group_name_H-M "P -1"
_symmetry_group_IT_number 2
_symmetry_cell_setting 'triclinic'
loop_
_space_group_symop_operation_xyz
x,y,z
-x,-y,-z
loop_
_atom_site_type_symbol
_atom_site_label
_atom_site_fract_x
_atom_site_fract_y
_atom_site_fract_z
Si Si1 0.883746 0.827024 0.087995
Si Si2 0.605781 0.099742 0.734172
Si Si3 0.164017 0.343912 0.647434
Si Si4 0.867460 0.053062 0.550061
Si Si5 0.171140 0.558971 0.091937
Si Si6 0.606136 0.738832 0.713537
O O1 0.515721 0.749098 0.082393
O O2 0.132976 0.913111 0.170367
O O3 0.942469 0.627056 0.103428
O O4 0.000000 0.000000 0.000000
O O5 0.381885 0.206365 0.721383
O O6 0.823554 0.260919 0.663902
O O7 0.466477 0.878495 0.718379
O O8 0.358046 0.568235 0.662060
O O9 0.075866 0.286891 0.558574
O O10 0.500000 0.000000 0.500000
O O11 0.853206 0.900831 0.652158
O O12 0.000000 0.000000 0.500000
O O13 0.243522 0.377480 0.183886
O O14 0.000000 0.500000 0.000000
#
# Coordination Sequence:
#
# PCOD9060187 Si02
#       6
#     2   2   2   2   2   2
#     4  12  24  43  67 101 149 187 240 310 350 421
#     4  11  23  43  67 104 139 183 239 289 354 424
#     4  11  24  45  72 102 141 181 241 290 359 432
#     4  11  26  46  70 108 141 184 240 295 363 433
#     4  12  26  45  70 110 145 192 250 288 360 439
#     4  11  25  46  77 101 146 194 232 301 359 419
#
# _framework density 23.980620999999999
#
# number of rings (size 3 to 8) (size 9 to 14) (size 15 to 20)
#    0.000    0.667    3.333    4.000    0.000   12.000 
#    0.000    0.000    0.000    0.000    0.000    0.000 
#    0.000    0.000    0.000    0.000    0.000    0.000 
#
# Total GULP energy -67125.183298 kJ/mol
# GULP energy per Si atom -5593.765275 kJ/mol
# Density = 2.392604 g / cm^3
# Si number density = 23.980621 Si / 1000 Ang^3
#
#
#
# Elastic Constant Matrix: (Units=GPa)
#
#
# Indices 1 2 3 4 5 6 
#
# 1 104.2898 23.2925 24.8045 13.9534 3.3434 -1.0083
# 2 23.2925 150.5010 33.9443 39.2972 4.0511 -21.4223
# 3 24.8045 33.9443 100.3224 24.2024 -10.2685 10.0346
# 4 13.9534 39.2972 24.2024 64.1529 0.1241 -3.6328
# 5 3.3434 4.0511 -10.2685 0.1241 32.9116 12.5986
# 6 -1.0083 -21.4223 10.0346 -3.6328 12.5986 29.9367
#
#
#
# Elastic Compliance Matrix: (Units=1/GPa)
#
#
# Indices 1 2 3 4 5 6 
#
# 1 0.010552 -0.000449 -0.002700 -0.000887 -0.002592 0.001922
# 2 -0.000449 0.010577 -0.004343 -0.004081 -0.006980 0.011451
# 3 -0.002700 -0.004343 0.015314 -0.003299 0.010659 -0.013218
# 4 -0.000887 -0.004081 -0.003299 0.019577 -0.000851 0.000889
# 5 -0.002592 -0.006980 0.010659 -0.000851 0.045522 -0.027916
# 6 0.001922 0.011451 -0.013218 0.000889 -0.027916 0.057950
#
#
# Mechanical properties :
#
#
# Convention : Reuss Voigt Hill
#
# Bulk Modulus (GPa) = 46.60320 57.68841 52.14581
# Shear Modulus (GPa) = 27.52869 43.60502 35.56685
#
# Velocity S-wave (km/s) = 3.39182 4.26883 3.85535
# Velocity P-wave (km/s) = 5.90044 6.95742 6.45062
#
# Compressibility (1/GPa) = 0.02145775
#
# Stress axis : x y z
#
# Youngs Moduli (GPa) = 94.77225 94.54542 65.29959
#
# Poissons Ratio (x) = 0.04244 0.17634
# Poissons Ratio (y) = 0.04254 0.28360
# Poissons Ratio (z) = 0.25593 0.41062
#
# Static dielectric constant tensor:
#      x y z
#    x 1.911070 -0.059200 0.057430 
#    y -0.059200 2.005900 -0.013510 
#    z 0.057430 -0.013510 1.959750 
# 
# From -- ./inp_files/313537.got.cif
#   From: 2010.05.17/outbox.cif.g08.bks.cpg/sg2_157_cif.got.tgz:313537.got - 2010.06.03 11:33:40.
