data_PCOD9060561
_publ_section_title
;
Structure prediction by ZEFSAII (Michael W. Deem and Ramdas Pophale) SiO2 
 PCOD9060561
Probable space group: P -1
;
_chemical_formula_sum "Si O2"
_cell_formula_units_Z 12
_cell_length_a 9.202914
_cell_length_b 16.321920
_cell_length_c 14.160388
_cell_angle_alpha 153.678024
_cell_angle_beta 41.274106
_cell_angle_gamma 147.186899
_cell_volume 511.081580
_symmetry_space_group_name_H-M "P -1"
_symmetry_group_IT_number 2
_symmetry_cell_setting 'triclinic'
loop_
_space_group_symop_operation_xyz
x,y,z
-x,-y,-z
loop_
_atom_site_type_symbol
_atom_site_label
_atom_site_fract_x
_atom_site_fract_y
_atom_site_fract_z
Si Si1 0.774495 0.836142 0.864015
Si Si2 0.744147 0.187232 0.676947
Si Si3 0.008824 0.372423 0.114494
Si Si4 0.223234 0.116429 0.794348
Si Si5 0.696278 0.098545 0.811517
Si Si6 0.263875 0.605911 0.545518
O O1 0.687088 0.585520 0.662582
O O2 0.522537 0.848106 0.005517
O O3 0.931190 0.931303 0.787285
O O4 0.000000 0.000000 0.000000
O O5 0.893351 0.397299 0.749418
O O6 0.447091 0.134984 0.772765
O O7 0.848616 0.219034 0.764858
O O8 0.730757 0.979142 0.421562
O O9 0.811898 0.336828 0.258050
O O10 0.233279 0.342991 0.017739
O O11 0.879513 0.183868 0.901800
O O12 0.518578 0.830475 0.609620
O O13 0.000000 0.500000 0.500000
#
# Coordination Sequence:
#
# PCOD9060561 Si02
#       6
#     2   2   2   2   2   2
#     4  12  22  44  71 101 133 180 229 282 334 405
#     4  11  25  45  69 100 139 185 227 275 340 410
#     4  12  26  45  70 104 141 178 225 286 346 399
#     4  11  23  43  72  98 137 180 235 275 332 412
#     4  12  27  44  71 106 139 175 230 285 343 401
#     4  12  24  42  72 101 135 178 230 277 336 405
#
# _framework density 23.479617000000001
#
# number of rings (size 3 to 8) (size 9 to 14) (size 15 to 20)
#    0.000    0.333    6.667    1.500    2.333    4.000 
#    0.000    0.000    0.000    0.000    0.000    0.000 
#    0.000    0.000    0.000    0.000    0.000    0.000 
#
# Total GULP energy -67185.030037 kJ/mol
# GULP energy per Si atom -5598.752503 kJ/mol
# Density = 2.342618 g / cm^3
# Si number density = 23.479617 Si / 1000 Ang^3
#
#
#
# Elastic Constant Matrix: (Units=GPa)
#
#
# Indices 1 2 3 4 5 6 
#
# 1 42.3489 -1.5274 22.8076 -9.1737 -4.2393 -19.4534
# 2 -1.5274 68.2651 8.8309 1.6857 -10.3041 -28.7994
# 3 22.8076 8.8309 74.4715 13.4359 -10.7450 -19.2622
# 4 -9.1737 1.6857 13.4359 39.4766 -10.4840 -0.6908
# 5 -4.2393 -10.3041 -10.7450 -10.4840 45.8526 -0.0877
# 6 -19.4534 -28.7994 -19.2622 -0.6908 -0.0877 31.6981
#
#
#
# Elastic Compliance Matrix: (Units=1/GPa)
#
#
# Indices 1 2 3 4 5 6 
#
# 1 0.065205 0.031339 -0.008915 0.022262 0.016194 0.063603
# 2 0.031339 0.041598 0.000696 0.010225 0.014857 0.057714
# 3 -0.008915 0.000696 0.019629 -0.008106 0.002092 0.006919
# 4 0.022262 0.010225 -0.008106 0.036005 0.010725 0.018841
# 5 0.016194 0.014857 0.002092 0.010725 0.029635 0.025024
# 6 0.063603 0.057714 0.006919 0.018841 0.025024 0.127702
#
#
# Mechanical properties :
#
#
# Convention : Reuss Voigt Hill
#
# Bulk Modulus (GPa) = 5.79127 27.25643 16.52385
# Shear Modulus (GPa) = 15.10156 33.73708 24.41932
#
# Velocity S-wave (km/s) = 2.53885 3.79471 3.22844
# Velocity P-wave (km/s) = 3.32659 5.55280 4.57710
#
# Compressibility (1/GPa) = 0.17267362
#
# Stress axis : x y z
#
# Youngs Moduli (GPa) = 15.33626 24.03945 50.94384
#
# Poissons Ratio (x) = -0.75338 0.45416
# Poissons Ratio (y) = -0.48063 -0.03546
# Poissons Ratio (z) = 0.13672 -0.01673
#
# Static dielectric constant tensor:
#      x y z
#    x 1.888530 -0.024750 0.034120 
#    y -0.024750 1.887380 0.016660 
#    z 0.034120 0.016660 1.862290 
# 
# From -- ./inp_files/148726.got.cif
#   From: 2010.05.17/outbox.cif.g08.bks.cpg/sg2_75_cif.got.tgz:148726.got - 2010.06.03 11:33:40.
