data_PCOD9060725
_publ_section_title
;
Structure prediction by ZEFSAII (Michael W. Deem and Ramdas Pophale) SiO2 
 PCOD9060725
Probable space group: P -1
;
_chemical_formula_sum "Si O2"
_cell_formula_units_Z 12
_cell_length_a 5.031953
_cell_length_b 7.022611
_cell_length_c 15.161381
_cell_angle_alpha 65.387446
_cell_angle_beta 88.816639
_cell_angle_gamma 75.275043
_cell_volume 468.873025
_symmetry_space_group_name_H-M "P -1"
_symmetry_group_IT_number 2
_symmetry_cell_setting 'triclinic'
loop_
_space_group_symop_operation_xyz
x,y,z
-x,-y,-z
loop_
_atom_site_type_symbol
_atom_site_label
_atom_site_fract_x
_atom_site_fract_y
_atom_site_fract_z
Si Si1 0.917002 0.529437 0.740066
Si Si2 0.963182 0.838560 0.338617
Si Si3 0.611422 0.018562 0.592877
Si Si4 0.284230 0.624864 0.047639
Si Si5 0.943316 0.940410 0.864515
Si Si6 0.372870 0.191328 0.864785
O O1 0.907874 0.364098 0.689550
O O2 0.771763 0.771360 0.665244
O O3 0.784454 0.499960 0.842682
O O4 0.244437 0.433293 0.779475
O O5 0.165423 0.846695 0.416399
O O6 0.941657 0.052060 0.235488
O O7 0.657105 0.864331 0.370073
O O8 0.500000 0.000000 0.500000
O O9 0.452034 0.786986 0.055329
O O10 0.500000 0.500000 0.000000
O O11 0.108653 0.095045 0.883788
O O12 0.617692 0.036814 0.836903
O O13 0.022067 0.734469 0.966740
#
# Coordination Sequence:
#
# PCOD9060725 Si02
#       6
#     2   2   2   2   2   2
#     4  11  28  48  75 107 154 189 253 298 358 443
#     4  11  25  48  77 109 143 197 234 301 376 430
#     4  12  29  51  78 110 142 184 248 315 377 441
#     4  12  26  42  66 109 149 195 239 293 348 422
#     4  11  24  43  71  98 147 190 243 276 347 436
#     4  11  23  44  64  98 139 197 235 287 339 417
#
# _framework density 25.593284000000001
#
# number of rings (size 3 to 8) (size 9 to 14) (size 15 to 20)
#    0.000    0.667    3.333    4.500    7.000    2.000 
#    3.000    0.000    0.000    0.000    0.000    0.000 
#    0.000    0.000    0.000    0.000    0.000    0.000 
#
# Total GULP energy -67019.629890 kJ/mol
# GULP energy per Si atom -5584.969158 kJ/mol
# Density = 2.553503 g / cm^3
# Si number density = 25.593284 Si / 1000 Ang^3
#
#
#
# Elastic Constant Matrix: (Units=GPa)
#
#
# Indices 1 2 3 4 5 6 
#
# 1 125.0697 31.7700 7.2140 -4.7409 26.2736 -30.1474
# 2 31.7700 90.9029 18.7872 9.5524 6.7618 -17.7095
# 3 7.2140 18.7872 69.6322 15.3102 31.7746 -5.8848
# 4 -4.7409 9.5524 15.3102 38.9044 3.5009 8.8444
# 5 26.2736 6.7618 31.7746 3.5009 40.9941 6.8393
# 6 -30.1474 -17.7095 -5.8848 8.8444 6.8393 43.3086
#
#
#
# Elastic Compliance Matrix: (Units=1/GPa)
#
#
# Indices 1 2 3 4 5 6 
#
# 1 0.015713 -0.002915 0.009948 -0.002885 -0.019518 0.014769
# 2 -0.002915 0.013579 -0.003104 -0.003426 0.001738 0.003527
# 3 0.009948 -0.003104 0.034102 -0.012512 -0.034273 0.018257
# 4 -0.002885 -0.003426 -0.012512 0.033195 0.011566 -0.013715
# 5 -0.019518 0.001738 -0.034273 0.011566 0.067286 -0.030521
# 6 0.014769 0.003527 0.018257 -0.013715 -0.030521 0.044915
#
#
# Mechanical properties :
#
#
# Convention : Reuss Voigt Hill
#
# Bulk Modulus (GPa) = 14.03476 44.57190 29.30333
# Shear Modulus (GPa) = 22.25370 39.83034 31.04202
#
# Velocity S-wave (km/s) = 2.95195 3.94925 3.48645
# Velocity P-wave (km/s) = 4.13695 6.18456 5.26133
#
# Compressibility (1/GPa) = 0.07125166
#
# Stress axis : x y z
#
# Youngs Moduli (GPa) = 63.64105 73.64413 29.32405
#
# Poissons Ratio (x) = 0.21469 -0.29171
# Poissons Ratio (y) = 0.18553 0.09101
# Poissons Ratio (z) = -0.63309 0.22856
#
# Static dielectric constant tensor:
#      x y z
#    x 2.036950 0.081330 -0.057960 
#    y 0.081330 2.189560 -0.021030 
#    z -0.057960 -0.021030 2.043550 
# 
# From -- ./inp_files/478991.got.cif
#   From: 2010.05.17/outbox.cif.g08.bks.cpg/sg2_240_cif.got.tgz:478991.got - 2010.06.03 11:33:40.
