data_PCOD9060461
_publ_section_title
;
Structure prediction by ZEFSAII (Michael W. Deem and Ramdas Pophale) SiO2 
 PCOD9060461
Probable space group: P -1
;
_chemical_formula_sum "Si O2"
_cell_formula_units_Z 16
_cell_length_a 15.088100
_cell_length_b 17.946976
_cell_length_c 5.335413
_cell_angle_alpha 110.968580
_cell_angle_beta 116.708154
_cell_angle_gamma 29.518885
_cell_volume 634.079701
_symmetry_space_group_name_H-M "P -1"
_symmetry_group_IT_number 2
_symmetry_cell_setting 'triclinic'
loop_
_space_group_symop_operation_xyz
x,y,z
-x,-y,-z
loop_
_atom_site_type_symbol
_atom_site_label
_atom_site_fract_x
_atom_site_fract_y
_atom_site_fract_z
Si Si1 0.708089 0.422607 0.169081
Si Si2 0.185149 0.325912 0.438602
Si Si3 0.495645 0.207117 0.966271
Si Si4 0.501037 0.617482 0.635837
Si Si5 0.866086 0.159860 0.297921
Si Si6 0.169715 0.990149 0.146583
Si Si7 0.466767 0.935851 0.769190
Si Si8 0.901726 0.791977 0.711802
O O1 0.575824 0.541733 0.370376
O O2 0.760364 0.295310 0.144371
O O3 0.898898 0.345547 0.344154
O O4 0.617813 0.497704 0.871227
O O5 0.326370 0.263286 0.754445
O O6 0.331684 0.234051 0.282188
O O7 0.121162 0.277424 0.271316
O O8 0.000000 0.500000 0.500000
O O9 0.607686 0.153435 0.790162
O O10 0.462735 0.313377 0.186993
O O11 0.610849 0.071697 0.134065
O O12 0.280147 0.745228 0.543402
O O13 0.875704 0.061192 0.109718
O O14 0.079543 0.043944 0.373883
O O15 0.082135 0.128470 0.066958
O O16 0.296861 0.064974 0.513288
O O17 0.500000 0.000000 0.000000
#
# Coordination Sequence:
#
# PCOD9060461 Si02
#       8
#     2   2   2   2   2   2   2   2
#     4  11  25  45  71 106 147 191 242 297 370 437
#     4  12  26  44  68 100 146 189 238 307 366 442
#     4  11  24  41  70  99 138 186 244 297 360 432
#     4  11  25  44  71 106 150 192 237 302 371 439
#     4   9  20  40  71 102 139 188 240 299 363 434
#     4   9  19  41  68 100 137 182 241 298 356 434
#     4  12  25  44  71 101 138 194 251 305 362 435
#     4  11  23  43  71 103 142 193 243 299 360 439
#
# _framework density 25.233418
#
# number of rings (size 3 to 8) (size 9 to 14) (size 15 to 20)
#    0.000    1.250    2.500    2.625    3.500    4.500 
#    0.000    2.500    0.000   11.250    0.000    0.000 
#    0.000    0.000    0.000    0.000    0.000    0.000 
#
# Total GULP energy -89169.406453 kJ/mol
# GULP energy per Si atom -5573.087903 kJ/mol
# Density = 2.517599 g / cm^3
# Si number density = 25.233418 Si / 1000 Ang^3
#
#
#
# Elastic Constant Matrix: (Units=GPa)
#
#
# Indices 1 2 3 4 5 6 
#
# 1 172.1695 51.3347 34.6376 19.2800 11.5472 -15.3551
# 2 51.3347 87.6528 32.0391 23.9838 -4.6479 -24.8527
# 3 34.6376 32.0391 73.8361 22.3094 -0.4117 -13.8437
# 4 19.2800 23.9838 22.3094 26.6076 -0.8302 -4.7067
# 5 11.5472 -4.6479 -0.4117 -0.8302 41.7018 16.8599
# 6 -15.3551 -24.8527 -13.8437 -4.7067 16.8599 65.9267
#
#
#
# Elastic Compliance Matrix: (Units=1/GPa)
#
#
# Indices 1 2 3 4 5 6 
#
# 1 0.007537 -0.003517 -0.001616 -0.000892 -0.002815 0.000746
# 2 -0.003517 0.018870 -0.002049 -0.011867 0.000884 0.004791
# 3 -0.001616 -0.002049 0.019525 -0.012984 -0.000742 0.002214
# 4 -0.000892 -0.011867 -0.012984 0.059231 0.001406 -0.003539
# 5 -0.002815 0.000884 -0.000742 0.001406 0.027918 -0.007517
# 6 0.000746 0.004791 0.002214 -0.003539 -0.007517 0.019283
#
#
# Mechanical properties :
#
#
# Convention : Reuss Voigt Hill
#
# Bulk Modulus (GPa) = 31.67820 63.29793 47.48806
# Shear Modulus (GPa) = 28.20862 41.22369 34.71616
#
# Velocity S-wave (km/s) = 3.34714 4.04628 3.71320
# Velocity P-wave (km/s) = 5.24587 6.85341 6.10280
#
# Compressibility (1/GPa) = 0.03156745
#
# Stress axis : x y z
#
# Youngs Moduli (GPa) = 132.67457 52.99435 51.21677
#
# Poissons Ratio (x) = 0.18639 0.08276
# Poissons Ratio (y) = 0.46663 0.10496
# Poissons Ratio (z) = 0.21438 0.10860
#
# Static dielectric constant tensor:
#      x y z
#    x 2.051120 -0.023880 -0.001100 
#    y -0.023880 2.068260 -0.016230 
#    z -0.001100 -0.016230 2.072030 
# 
# From -- ./inp_files/37428.got.cif
#   From: 2010.05.17/outbox.cif.g08.bks.cpg/sg2_19_cif.got.tgz:37428.got - 2010.06.03 11:33:40.
