data_PCOD9060203
_publ_section_title
;
Structure prediction by ZEFSAII (Michael W. Deem and Ramdas Pophale) SiO2 
 PCOD9060203
Probable space group: P -1
;
_chemical_formula_sum "Si O2"
_cell_formula_units_Z 14
_cell_length_a 9.550572
_cell_length_b 9.091381
_cell_length_c 18.305723
_cell_angle_alpha 49.913980
_cell_angle_beta 55.435652
_cell_angle_gamma 31.209037
_cell_volume 629.560293
_symmetry_space_group_name_H-M "P -1"
_symmetry_group_IT_number 2
_symmetry_cell_setting 'triclinic'
loop_
_space_group_symop_operation_xyz
x,y,z
-x,-y,-z
loop_
_atom_site_type_symbol
_atom_site_label
_atom_site_fract_x
_atom_site_fract_y
_atom_site_fract_z
Si Si1 0.280482 0.310785 0.012987
Si Si2 0.162051 0.853151 0.920387
Si Si3 0.003374 0.240911 0.707824
Si Si4 0.515995 0.073103 0.171973
Si Si5 0.737051 0.277716 0.442620
Si Si6 0.478241 0.798500 0.597398
Si Si7 0.998129 0.438564 0.282572
O O1 0.351121 0.176477 0.115552
O O2 0.256394 0.563012 0.953995
O O3 0.000000 0.500000 0.000000
O O4 0.500000 0.000000 0.000000
O O5 0.429038 0.751413 0.884629
O O6 0.990445 0.108321 0.823903
O O7 0.000000 0.000000 0.000000
O O8 0.757738 0.464512 0.651977
O O9 0.030911 0.430190 0.673284
O O10 0.273549 0.960900 0.673423
O O11 0.318231 0.154193 0.264629
O O12 0.822686 0.727622 0.188115
O O13 0.500000 0.500000 0.500000
O O14 0.644690 0.210560 0.430504
O O15 0.831461 0.391587 0.341374
O O16 0.000000 0.000000 0.500000
O O17 0.500000 0.000000 0.500000
#
# Coordination Sequence:
#
# PCOD9060203 Si02
#       7
#     2   2   2   2   2   2   2
#     4  12  26  42  65 100 140 181 231 302 364 414
#     4  11  25  48  76 105 144 197 251 296 358 445
#     4  11  24  43  70 103 136 184 236 293 354 422
#     4  11  24  44  67  94 132 184 231 282 349 425
#     4  12  25  44  69  98 134 181 225 283 358 430
#     4  12  25  44  69 104 143 182 231 295 358 424
#     4  11  23  43  67  96 131 173 230 285 340 424
#
# _framework density 22.237743999999999
#
# number of rings (size 3 to 8) (size 9 to 14) (size 15 to 20)
#    0.000    0.571    0.000    9.429    0.000    8.000 
#    0.000    0.000    0.000    0.000    0.000    0.000 
#    0.000    0.000    0.000    0.000    0.000    0.000 
#
# Total GULP energy -78176.500691 kJ/mol
# GULP energy per Si atom -5584.035764 kJ/mol
# Density = 2.218713 g / cm^3
# Si number density = 22.237744 Si / 1000 Ang^3
#
#
#
# Elastic Constant Matrix: (Units=GPa)
#
#
# Indices 1 2 3 4 5 6 
#
# 1 170.2360 34.2856 38.4818 4.1789 3.9519 8.7523
# 2 34.2856 113.1530 23.1086 10.4613 -6.6880 -8.0300
# 3 38.4818 23.1086 88.5440 4.0926 -3.4417 9.1563
# 4 4.1789 10.4613 4.0926 40.3952 -8.9100 5.6396
# 5 3.9519 -6.6880 -3.4417 -8.9100 41.2354 -9.3267
# 6 8.7523 -8.0300 9.1563 5.6396 -9.3267 49.4019
#
#
#
# Elastic Compliance Matrix: (Units=1/GPa)
#
#
# Indices 1 2 3 4 5 6 
#
# 1 0.006887 -0.001753 -0.002450 -0.000153 -0.001479 -0.001313
# 2 -0.001753 0.010323 -0.002063 -0.002291 0.001849 0.002981
# 3 -0.002450 -0.002063 0.013152 -0.000130 0.000464 -0.002236
# 4 -0.000153 -0.002291 -0.000130 0.026795 0.004865 -0.002461
# 5 -0.001479 0.001849 0.000464 0.004865 0.026914 0.005002
# 6 -0.001313 0.002981 -0.002236 -0.002461 0.005002 0.022599
#
#
# Mechanical properties :
#
#
# Convention : Reuss Voigt Hill
#
# Bulk Modulus (GPa) = 56.08458 62.63167 59.35812
# Shear Modulus (GPa) = 39.95383 44.61030 42.28206
#
# Velocity S-wave (km/s) = 4.24331 4.48377 4.36519
# Velocity P-wave (km/s) = 7.02017 7.41831 7.22198
#
# Compressibility (1/GPa) = 0.01783021
#
# Stress axis : x y z
#
# Youngs Moduli (GPa) = 145.20902 96.87421 76.03175
#
# Poissons Ratio (x) = 0.16979 0.18630
# Poissons Ratio (y) = 0.25450 0.15684
# Poissons Ratio (z) = 0.35580 0.19984
#
# Static dielectric constant tensor:
#      x y z
#    x 1.842590 0.146690 -0.034610 
#    y 0.146690 2.024340 0.014090 
#    z -0.034610 0.014090 1.718500 
# 
# From -- ./inp_files/556974.got.cif
#   From: 2010.05.17/outbox.cif.g08.bks.cpg/sg2_279_cif.got.tgz:556974.got - 2010.06.03 11:33:40.
