data_PCOD9060411
_publ_section_title
;
Structure prediction by ZEFSAII (Michael W. Deem and Ramdas Pophale) SiO2 
 PCOD9060411
Probable space group: P -1
;
_chemical_formula_sum "Si O2"
_cell_formula_units_Z 16
_cell_length_a 25.382732
_cell_length_b 10.219387
_cell_length_c 22.605410
_cell_angle_alpha 153.767151
_cell_angle_beta 18.033472
_cell_angle_gamma 143.586122
_cell_volume 750.975526
_symmetry_space_group_name_H-M "P -1"
_symmetry_group_IT_number 2
_symmetry_cell_setting 'triclinic'
loop_
_space_group_symop_operation_xyz
x,y,z
-x,-y,-z
loop_
_atom_site_type_symbol
_atom_site_label
_atom_site_fract_x
_atom_site_fract_y
_atom_site_fract_z
Si Si1 0.369233 0.415693 0.058627
Si Si2 0.155061 0.453844 0.411040
Si Si3 0.115947 0.924969 0.786728
Si Si4 0.496703 0.057474 0.596043
Si Si5 0.296663 0.179986 0.265135
Si Si6 0.997165 0.157524 0.883131
Si Si7 0.788024 0.335381 0.790631
Si Si8 0.385612 0.830108 0.730692
O O1 0.211383 0.370397 0.249716
O O2 0.295523 0.670218 0.187899
O O3 0.500000 0.500000 0.000000
O O4 0.441328 0.095644 0.812952
O O5 0.295717 0.211936 0.207948
O O6 0.963346 0.432457 0.629079
O O7 0.153010 0.815252 0.564685
O O8 0.297930 0.005451 0.629573
O O9 0.196513 0.545973 0.537851
O O10 0.994793 0.122491 0.942369
O O11 0.000000 0.000000 0.000000
O O12 0.500000 0.000000 0.500000
O O13 0.426707 0.829607 0.617173
O O14 0.358206 0.399236 0.904727
O O15 0.179211 0.986130 0.339743
O O16 0.500000 0.000000 0.000000
O O17 0.824859 0.118708 0.019119
O O18 0.000000 0.500000 0.000000
O O19 0.500000 0.500000 0.500000
#
# Coordination Sequence:
#
# PCOD9060411 Si02
#       8
#     2   2   2   2   2   2   2   2
#     4  11  25  43  71 100 138 181 232 286 352 412
#     4  11  24  44  70  98 141 178 233 286 347 415
#     4  11  25  44  69 101 136 183 234 289 345 416
#     4  11  23  43  70  95 142 180 229 285 353 406
#     4  11  23  43  70  98 138 179 231 285 349 415
#     4  11  24  43  72  97 138 183 229 284 353 408
#     4  11  23  45  68  99 139 185 226 291 346 416
#     4  11  25  46  68 101 139 182 233 289 347 416
#
# _framework density 21.305622
#
# number of rings (size 3 to 8) (size 9 to 14) (size 15 to 20)
#    0.000    1.000    3.750    3.000    8.750    2.000 
#    6.750    0.000    0.000    0.000    0.000    0.000 
#    0.000    0.000    0.000    0.000    0.000    0.000 
#
# Total GULP energy -89250.738073 kJ/mol
# GULP energy per Si atom -5578.171130 kJ/mol
# Density = 2.125713 g / cm^3
# Si number density = 21.305622 Si / 1000 Ang^3
#
#
#
# Elastic Constant Matrix: (Units=GPa)
#
#
# Indices 1 2 3 4 5 6 
#
# 1 144.1801 43.3283 42.4171 7.9778 -1.7069 -15.9730
# 2 43.3283 121.9566 37.1628 15.6886 -10.5437 -15.0283
# 3 42.4171 37.1628 68.2329 -5.8719 -7.4810 -10.3985
# 4 7.9778 15.6886 -5.8719 39.8540 -12.0988 -14.9755
# 5 -1.7069 -10.5437 -7.4810 -12.0988 39.9551 -12.0304
# 6 -15.9730 -15.0283 -10.3985 -14.9755 -12.0304 43.5214
#
#
#
# Elastic Compliance Matrix: (Units=1/GPa)
#
#
# Indices 1 2 3 4 5 6 
#
# 1 0.009032 -0.001427 -0.005158 -0.002349 -0.001563 0.000350
# 2 -0.001427 0.011036 -0.005296 -0.004322 0.000777 0.000749
# 3 -0.005158 -0.005296 0.024369 0.013168 0.009739 0.009324
# 4 -0.002349 -0.004322 0.013168 0.043692 0.020965 0.021621
# 5 -0.001563 0.000777 0.009739 0.020965 0.039398 0.020127
# 6 0.000350 0.000749 0.009324 0.021621 0.020127 0.038595
#
#
# Mechanical properties :
#
#
# Convention : Reuss Voigt Hill
#
# Bulk Modulus (GPa) = 48.36857 64.46510 56.41683
# Shear Modulus (GPa) = 25.40956 38.76352 32.08654
#
# Velocity S-wave (km/s) = 3.45718 4.27007 3.88495
# Velocity P-wave (km/s) = 6.21994 7.39151 6.83089
#
# Compressibility (1/GPa) = 0.02067458
#
# Stress axis : x y z
#
# Youngs Moduli (GPa) = 110.71414 90.61345 41.03644
#
# Poissons Ratio (x) = 0.12931 0.21166
# Poissons Ratio (y) = 0.15799 0.21733
# Poissons Ratio (z) = 0.57106 0.47990
#
# Static dielectric constant tensor:
#      x y z
#    x 1.799230 0.043560 -0.023480 
#    y 0.043560 1.779930 -0.030050 
#    z -0.023480 -0.030050 1.805600 
# 
# From -- ./inp_files/601960.got.cif
#   From: 2010.05.17/outbox.cif.g08.bks.cpg/sg2_301_cif.got.tgz:601960.got - 2010.06.03 11:33:40.
