data_PCOD9060049
_publ_section_title
;
Structure prediction by ZEFSAII (Michael W. Deem and Ramdas Pophale) SiO2 
 PCOD9060049
Probable space group: P -1
;
_chemical_formula_sum "Si O2"
_cell_formula_units_Z 12
_cell_length_a 16.364423
_cell_length_b 11.589301
_cell_length_c 14.016589
_cell_angle_alpha 33.572743
_cell_angle_beta 150.684132
_cell_angle_gamma 155.459596
_cell_volume 530.013641
_symmetry_space_group_name_H-M "P -1"
_symmetry_group_IT_number 2
_symmetry_cell_setting 'triclinic'
loop_
_space_group_symop_operation_xyz
x,y,z
-x,-y,-z
loop_
_atom_site_type_symbol
_atom_site_label
_atom_site_fract_x
_atom_site_fract_y
_atom_site_fract_z
Si Si1 0.216331 0.276318 0.477473
Si Si2 0.198335 0.239339 0.106509
Si Si3 0.452447 0.103030 0.577959
Si Si4 0.495739 0.301263 0.060572
Si Si5 0.547432 0.194606 0.829708
Si Si6 0.984839 0.730743 0.909414
O O1 0.300428 0.571572 0.400697
O O2 0.440376 0.321382 0.673084
O O3 0.138054 0.227292 0.322372
O O4 0.000000 0.000000 0.500000
O O5 0.298902 0.121586 0.344126
O O6 0.374096 0.514406 0.029148
O O7 0.086828 0.282674 0.045878
O O8 0.000000 0.000000 0.000000
O O9 0.426612 0.071603 0.688971
O O10 0.416064 0.830360 0.703415
O O11 0.500000 0.500000 0.000000
O O12 0.246562 0.008531 0.979371
O O13 0.819237 0.393673 0.953014
O O14 0.500000 0.000000 0.000000
#
# Coordination Sequence:
#
# PCOD9060049 Si02
#       6
#     2   2   2   2   2   2
#     4  11  23  42  75 110 145 181 236 305 369 436
#     4  12  24  49  72 100 146 194 244 302 352 432
#     4  11  25  46  71 105 146 189 241 298 372 428
#     4  12  28  47  70 105 145 197 252 296 351 431
#     4  11  23  42  74 108 145 184 233 304 373 433
#     4  11  23  46  68 102 148 180 240 298 357 435
#
# _framework density 22.640927000000001
#
# number of rings (size 3 to 8) (size 9 to 14) (size 15 to 20)
#    0.000    0.667    5.000    3.000    4.667    2.667 
#    0.000    0.000    0.000    0.000    0.000    0.000 
#    0.000    0.000    0.000    0.000    0.000    0.000 
#
# Total GULP energy -66884.755946 kJ/mol
# GULP energy per Si atom -5573.729662 kJ/mol
# Density = 2.258940 g / cm^3
# Si number density = 22.640927 Si / 1000 Ang^3
#
#
#
# Elastic Constant Matrix: (Units=GPa)
#
#
# Indices 1 2 3 4 5 6 
#
# 1 83.7347 58.4178 17.1458 -15.4618 -25.1017 16.5348
# 2 58.4178 139.2383 59.2828 -6.2347 -15.5152 18.9461
# 3 17.1458 59.2828 125.5356 -12.5781 -25.0520 7.3717
# 4 -15.4618 -6.2347 -12.5781 49.7458 -5.8323 -4.1505
# 5 -25.1017 -15.5152 -25.0520 -5.8323 39.3548 -10.0326
# 6 16.5348 18.9461 7.3717 -4.1505 -10.0326 61.1080
#
#
#
# Elastic Compliance Matrix: (Units=1/GPa)
#
#
# Indices 1 2 3 4 5 6 
#
# 1 0.025307 -0.010749 0.006068 0.009988 0.017051 -0.000769
# 2 -0.010749 0.013892 -0.006766 -0.004278 -0.006829 -0.001994
# 3 0.006068 -0.006766 0.012939 0.005628 0.010530 0.001006
# 4 0.009988 -0.004278 0.005628 0.025707 0.012522 0.001747
# 5 0.017051 -0.006829 0.010530 0.012522 0.043217 0.004179
# 6 -0.000769 -0.001994 0.001006 0.001747 0.004179 0.017874
#
#
# Mechanical properties :
#
#
# Convention : Reuss Voigt Hill
#
# Bulk Modulus (GPa) = 34.19729 68.68903 51.44316
# Shear Modulus (GPa) = 29.14140 44.28587 36.71364
#
# Velocity S-wave (km/s) = 3.59153 4.42748 4.03123
# Velocity P-wave (km/s) = 5.68645 7.51938 6.66621
#
# Compressibility (1/GPa) = 0.02924208
#
# Stress axis : x y z
#
# Youngs Moduli (GPa) = 39.51514 71.98637 77.28853
#
# Poissons Ratio (x) = 0.77381 -0.46902
# Poissons Ratio (y) = 0.42476 0.52296
# Poissons Ratio (z) = -0.23979 0.48708
#
# Static dielectric constant tensor:
#      x y z
#    x 1.961540 0.006140 0.047510 
#    y 0.006140 1.954280 -0.063900 
#    z 0.047510 -0.063900 1.988920 
# 
# From -- ./inp_files/170973.got.cif
#   From: 2010.05.17/outbox.cif.g08.bks.cpg/sg2_86_cif.got.tgz:170973.got - 2010.06.03 11:33:40.
