data_PCOD9060566
_publ_section_title
;
Structure prediction by ZEFSAII (Michael W. Deem and Ramdas Pophale) SiO2 
 PCOD9060566
Probable space group: P -1
;
_chemical_formula_sum "Si O2"
_cell_formula_units_Z 13
_cell_length_a 7.315187
_cell_length_b 14.847248
_cell_length_c 8.184642
_cell_angle_alpha 73.977677
_cell_angle_beta 144.465786
_cell_angle_gamma 111.694551
_cell_volume 479.539038
_symmetry_space_group_name_H-M "P -1"
_symmetry_group_IT_number 2
_symmetry_cell_setting 'triclinic'
loop_
_space_group_symop_operation_xyz
x,y,z
-x,-y,-z
loop_
_atom_site_type_symbol
_atom_site_label
_atom_site_fract_x
_atom_site_fract_y
_atom_site_fract_z
Si Si1 0.233128 0.972450 0.051516
Si Si2 0.088689 0.201547 0.305718
Si Si3 0.510036 0.415079 0.181143
Si Si4 0.500000 0.500000 0.500000
Si Si5 0.968189 0.705944 0.331344
Si Si6 0.624845 0.319271 0.824379
Si Si7 0.906344 0.089027 0.561927
O O1 0.054056 0.866623 0.913316
O O2 0.215267 0.051182 0.857950
O O3 0.594147 0.997529 0.372315
O O4 0.000000 0.000000 0.000000
O O5 0.959461 0.134418 0.399997
O O6 0.464141 0.247445 0.595149
O O7 0.927429 0.291777 0.139545
O O8 0.525500 0.457598 0.351281
O O9 0.804936 0.362094 0.409337
O O10 0.500000 0.500000 0.000000
O O11 0.189888 0.331353 0.938963
O O12 0.694555 0.425155 0.752331
O O13 0.137195 0.821310 0.404337
O O14 0.661542 0.693763 0.240473
#
# Coordination Sequence:
#
# PCOD9060566 Si02
#       7
#     2   2   2   1   2   2   2
#     4  12  25  42  68 104 144 180 232 296 352 422
#     4  11  24  45  70  98 143 181 240 289 347 428
#     4  12  26  46  72 102 146 185 241 293 358 425
#     4  12  30  44  76 106 144 188 244 294 374 408
#     4  11  24  47  72 102 141 188 236 296 353 431
#     4  11  25  45  69 103 136 187 236 300 355 422
#     4  11  23  43  73 100 134 190 236 276 361 425
#
# _framework density 27.109366999999999
#
# number of rings (size 3 to 8) (size 9 to 14) (size 15 to 20)
#    0.000    0.615    1.538    7.385    0.000    6.154 
#    0.000    0.000    0.000    0.000    0.000    0.000 
#    0.000    0.000    0.000    0.000    0.000    0.000 
#
# Total GULP energy -72681.911499 kJ/mol
# GULP energy per Si atom -5590.916269 kJ/mol
# Density = 2.704766 g / cm^3
# Si number density = 27.109367 Si / 1000 Ang^3
#
#
#
# Elastic Constant Matrix: (Units=GPa)
#
#
# Indices 1 2 3 4 5 6 
#
# 1 78.0164 33.8800 43.6370 6.2483 -19.4515 -22.0594
# 2 33.8800 85.1217 25.7627 -1.8549 -17.8981 -20.2262
# 3 43.6370 25.7627 151.6790 -14.7707 5.3139 -8.8836
# 4 6.2483 -1.8549 -14.7707 70.9999 -4.2023 -3.9786
# 5 -19.4515 -17.8981 5.3139 -4.2023 44.1192 6.7394
# 6 -22.0594 -20.2262 -8.8836 -3.9786 6.7394 50.0976
#
#
#
# Elastic Compliance Matrix: (Units=1/GPa)
#
#
# Indices 1 2 3 4 5 6 
#
# 1 0.021288 -0.003942 -0.005618 -0.002395 0.007379 0.005603
# 2 -0.003942 0.015537 -0.001339 0.000938 0.004235 0.003805
# 3 -0.005618 -0.001339 0.008716 0.002005 -0.003756 -0.000804
# 4 -0.002395 0.000938 0.002005 0.014804 0.000370 0.000806
# 5 0.007379 0.004235 -0.003756 0.000370 0.028041 0.000550
# 6 0.005603 0.003805 -0.000804 0.000806 0.000550 0.023812
#
#
# Mechanical properties :
#
#
# Convention : Reuss Voigt Hill
#
# Bulk Modulus (GPa) = 42.11803 57.93073 50.02438
# Shear Modulus (GPa) = 35.23335 47.14584 41.18960
#
# Velocity S-wave (km/s) = 3.60901 4.17477 3.90216
# Velocity P-wave (km/s) = 5.73905 6.68236 6.22859
#
# Compressibility (1/GPa) = 0.02374280
#
# Stress axis : x y z
#
# Youngs Moduli (GPa) = 46.97458 64.36282 114.72504
#
# Poissons Ratio (x) = 0.25370 0.64458
# Poissons Ratio (y) = 0.18516 0.15363
# Poissons Ratio (z) = 0.26393 0.08619
#
# Static dielectric constant tensor:
#      x y z
#    x 2.186150 0.034610 -0.071450 
#    y 0.034610 2.172740 0.042520 
#    z -0.071450 0.042520 2.055300 
# 
# From -- ./inp_files/200510.got.cif
#   From: 2010.05.17/outbox.cif.g08.bks.cpg/sg2_101_cif.got.tgz:200510.got - 2010.06.03 11:33:40.
