data_PCOD9060413
_publ_section_title
;
Structure prediction by ZEFSAII (Michael W. Deem and Ramdas Pophale) SiO2 
 PCOD9060413
Probable space group: P -1
;
_chemical_formula_sum "Si O2"
_cell_formula_units_Z 16
_cell_length_a 15.895132
_cell_length_b 9.567427
_cell_length_c 23.231109
_cell_angle_alpha 32.446286
_cell_angle_beta 18.737578
_cell_angle_gamma 37.465904
_cell_volume 608.569608
_symmetry_space_group_name_H-M "P -1"
_symmetry_group_IT_number 2
_symmetry_cell_setting 'triclinic'
loop_
_space_group_symop_operation_xyz
x,y,z
-x,-y,-z
loop_
_atom_site_type_symbol
_atom_site_label
_atom_site_fract_x
_atom_site_fract_y
_atom_site_fract_z
Si Si1 0.158146 0.642855 0.777262
Si Si2 0.419243 0.681427 0.435577
Si Si3 0.048683 0.920867 0.302104
Si Si4 0.715402 0.289738 0.888107
Si Si5 0.350655 0.705295 0.743549
Si Si6 0.285333 0.878015 0.849659
Si Si7 0.834582 0.509885 0.846774
Si Si8 0.160729 0.573956 0.442580
O O1 0.101824 0.816033 0.697733
O O2 0.369693 0.422517 0.710144
O O3 0.268586 0.826238 0.693783
O O4 0.887901 0.497770 0.017797
O O5 0.500000 0.500000 0.500000
O O6 0.125141 0.632890 0.620685
O O7 0.496650 0.031629 0.698316
O O8 0.854238 0.667192 0.510006
O O9 0.212341 0.908978 0.140483
O O10 0.197460 0.842989 0.290603
O O11 0.822146 0.273104 0.889869
O O12 0.888092 0.543650 0.664389
O O13 0.404581 0.318467 0.079405
O O14 0.351980 0.885749 0.736402
O O15 0.604073 0.528851 0.636409
O O16 0.251176 0.593675 0.998696
O O17 0.000000 0.000000 0.000000
#
# Coordination Sequence:
#
# PCOD9060413 Si02
#       8
#     2   2   2   2   2   2   2   2
#     4  11  25  41  66 110 137 175 238 291 347 420
#     4  12  26  43  66 105 141 185 233 286 352 423
#     4   9  21  38  67  96 134 174 229 281 348 414
#     4   9  21  42  67  99 134 183 227 295 342 415
#     4  11  24  43  69  99 143 181 230 295 349 416
#     4  12  25  44  68  96 143 187 224 287 352 419
#     4  11  23  43  70  96 140 182 238 283 353 419
#     4   9  20  41  66  97 134 179 229 279 353 417
#
# _framework density 26.291157999999999
#
# number of rings (size 3 to 8) (size 9 to 14) (size 15 to 20)
#    0.750    0.750    2.500    1.500    3.500    1.000 
#    0.000    3.750    0.000    0.750    0.000    0.000 
#    0.000    0.000    0.000    0.000    0.000    0.000 
#
# Total GULP energy -89398.817949 kJ/mol
# GULP energy per Si atom -5587.426122 kJ/mol
# Density = 2.623132 g / cm^3
# Si number density = 26.291158 Si / 1000 Ang^3
#
#
#
# Elastic Constant Matrix: (Units=GPa)
#
#
# Indices 1 2 3 4 5 6 
#
# 1 124.9994 40.3017 34.2313 0.6994 -17.1061 -5.8478
# 2 40.3017 68.7223 33.3159 10.7168 -13.2355 -3.9306
# 3 34.2313 33.3159 127.5640 15.9184 -33.3000 -1.7001
# 4 0.6994 10.7168 15.9184 35.5198 -3.5329 -2.0092
# 5 -17.1061 -13.2355 -33.3000 -3.5329 59.4414 2.1308
# 6 -5.8478 -3.9306 -1.7001 -2.0092 2.1308 36.4172
#
#
#
# Elastic Compliance Matrix: (Units=1/GPa)
#
#
# Indices 1 2 3 4 5 6 
#
# 1 0.010316 -0.005486 -0.001308 0.002208 0.001108 0.001060
# 2 -0.005486 0.020139 -0.002969 -0.004496 0.000945 0.000851
# 3 -0.001308 -0.002969 0.010616 -0.003394 0.004726 -0.000499
# 4 0.002208 -0.004496 -0.003394 0.031022 -0.000475 0.001450
# 5 0.001108 0.000945 0.004726 -0.000475 0.019997 -0.000696
# 6 0.001060 0.000851 -0.000499 0.001450 -0.000696 0.027819
#
#
# Mechanical properties :
#
#
# Convention : Reuss Voigt Hill
#
# Bulk Modulus (GPa) = 46.41113 59.66484 53.03798
# Shear Modulus (GPa) = 34.10262 40.50481 37.30372
#
# Velocity S-wave (km/s) = 3.60545 3.92934 3.77087
# Velocity P-wave (km/s) = 5.91806 6.58251 6.25911
#
# Compressibility (1/GPa) = 0.02154656
#
# Stress axis : x y z
#
# Youngs Moduli (GPa) = 96.93894 49.65377 94.19662
#
# Poissons Ratio (x) = 0.27240 0.12318
# Poissons Ratio (y) = 0.53181 0.27964
# Poissons Ratio (z) = 0.12676 0.14741
#
# Static dielectric constant tensor:
#      x y z
#    x 2.139290 0.044110 0.054350 
#    y 0.044110 2.118770 0.030350 
#    z 0.054350 0.030350 2.093620 
# 
# From -- ./inp_files/597822.got.cif
#   From: 2010.05.17/outbox.cif.g08.bks.cpg/sg2_299_cif.got.tgz:597822.got - 2010.06.03 11:33:40.
