data_PCOD9060832
_publ_section_title
;
Structure prediction by ZEFSAII (Michael W. Deem and Ramdas Pophale) SiO2 
 PCOD9060832
Probable space group: P -1
;
_chemical_formula_sum "Si O2"
_cell_formula_units_Z 16
_cell_length_a 13.838908
_cell_length_b 8.364040
_cell_length_c 8.832481
_cell_angle_alpha 81.055669
_cell_angle_beta 103.763148
_cell_angle_gamma 55.037860
_cell_volume 757.138849
_symmetry_space_group_name_H-M "P -1"
_symmetry_group_IT_number 2
_symmetry_cell_setting 'triclinic'
loop_
_space_group_symop_operation_xyz
x,y,z
-x,-y,-z
loop_
_atom_site_type_symbol
_atom_site_label
_atom_site_fract_x
_atom_site_fract_y
_atom_site_fract_z
Si Si1 0.731867 0.379651 0.232873
Si Si2 0.853522 0.714786 0.422735
Si Si3 0.644303 0.309675 0.526017
Si Si4 0.398533 0.001457 0.558822
Si Si5 0.888918 0.024973 0.858230
Si Si6 0.243397 0.962066 0.910491
Si Si7 0.999673 0.168518 0.385778
Si Si8 0.495492 0.182495 0.043389
O O1 0.672529 0.366438 0.366290
O O2 0.777670 0.182010 0.172270
O O3 0.851855 0.372007 0.321688
O O4 0.635080 0.588802 0.070829
O O5 0.000000 0.500000 0.500000
O O6 0.886491 0.846826 0.501567
O O7 0.731852 0.771082 0.463840
O O8 0.803982 0.829957 0.226687
O O9 0.500000 0.500000 0.500000
O O10 0.641921 0.117572 0.530219
O O11 0.762622 0.234710 0.695548
O O12 0.467346 0.870371 0.758685
O O13 0.500000 0.000000 0.500000
O O14 0.824735 0.975258 0.964161
O O15 0.968660 0.871791 0.771797
O O16 0.000000 0.000000 0.000000
O O17 0.395881 0.823016 0.997871
O O18 0.000000 0.000000 0.500000
O O19 0.500000 0.000000 0.000000
#
# Coordination Sequence:
#
# PCOD9060832 Si02
#       8
#     2   2   2   2   2   2   2   2
#     4  12  23  45  72  97 138 179 235 291 348 424
#     4  11  24  46  70  96 136 189 232 280 359 421
#     4  12  26  43  75 105 135 191 239 290 357 420
#     4  11  26  49  67 101 148 184 235 296 351 432
#     4  12  23  41  68 106 139 170 236 298 348 412
#     4  11  23  44  68  95 136 178 229 295 340 414
#     4  12  21  43  69  97 135 174 225 287 347 419
#     4  11  27  44  68 100 136 183 230 286 358 413
#
# _framework density 21.132189
#
# number of rings (size 3 to 8) (size 9 to 14) (size 15 to 20)
#    0.000    0.500    7.500    1.125    8.750    0.000 
#    2.250    0.625    0.000    0.000    0.000    0.000 
#    0.000    0.000    0.000    0.000    0.000    0.000 
#
# Total GULP energy -89214.361368 kJ/mol
# GULP energy per Si atom -5575.897585 kJ/mol
# Density = 2.108409 g / cm^3
# Si number density = 21.132189 Si / 1000 Ang^3
#
#
#
# Elastic Constant Matrix: (Units=GPa)
#
#
# Indices 1 2 3 4 5 6 
#
# 1 120.5308 16.7552 33.8084 0.1124 -13.8270 -39.9879
# 2 16.7552 74.5203 19.8951 -16.8547 -11.9124 -30.4384
# 3 33.8084 19.8951 88.9763 -0.3110 -0.1658 -16.3755
# 4 0.1124 -16.8547 -0.3110 38.3502 -17.7733 7.2599
# 5 -13.8270 -11.9124 -0.1658 -17.7733 46.9165 7.6957
# 6 -39.9879 -30.4384 -16.3755 7.2599 7.6957 44.2051
#
#
#
# Elastic Compliance Matrix: (Units=1/GPa)
#
#
# Indices 1 2 3 4 5 6 
#
# 1 0.013334 0.003751 -0.003558 0.000563 0.002998 0.012712
# 2 0.003751 0.023845 -0.003980 0.011922 0.009239 0.014772
# 3 -0.003558 -0.003980 0.013485 -0.003143 -0.003221 0.000113
# 4 0.000563 0.011922 -0.003143 0.040510 0.018921 -0.002392
# 5 0.002998 0.009239 -0.003221 0.018921 0.031826 -0.000767
# 6 0.012712 0.014772 0.000113 -0.002392 -0.000767 0.044861
#
#
# Mechanical properties :
#
#
# Convention : Reuss Voigt Hill
#
# Bulk Modulus (GPa) = 23.20684 47.21608 35.21146
# Shear Modulus (GPa) = 26.34374 40.13227 33.23800
#
# Velocity S-wave (km/s) = 3.53458 4.36260 3.97023
# Velocity P-wave (km/s) = 5.25958 6.91145 6.14131
#
# Compressibility (1/GPa) = 0.04309075
#
# Stress axis : x y z
#
# Youngs Moduli (GPa) = 74.99547 41.93686 74.15847
#
# Poissons Ratio (x) = -0.15731 0.26387
# Poissons Ratio (y) = -0.28131 0.29512
# Poissons Ratio (z) = 0.26684 0.16689
#
# Static dielectric constant tensor:
#      x y z
#    x 1.807690 0.017530 0.068850 
#    y 0.017530 1.884960 0.009670 
#    z 0.068850 0.009670 1.730280 
# 
# From -- ./inp_files/298271.got.cif
#   From: 2010.05.17/outbox.cif.g08.bks.cpg/sg2_150_cif.got.tgz:298271.got - 2010.06.03 11:33:40.
