data_PCOD9060146
_publ_section_title
;
Structure prediction by ZEFSAII (Michael W. Deem and Ramdas Pophale) SiO2 
 PCOD9060146
Probable space group: P -1
;
_chemical_formula_sum "Si O2"
_cell_formula_units_Z 16
_cell_length_a 7.837398
_cell_length_b 5.451935
_cell_length_c 22.932838
_cell_angle_alpha 65.573401
_cell_angle_beta 64.526428
_cell_angle_gamma 108.514748
_cell_volume 642.726307
_symmetry_space_group_name_H-M "P -1"
_symmetry_group_IT_number 2
_symmetry_cell_setting 'triclinic'
loop_
_space_group_symop_operation_xyz
x,y,z
-x,-y,-z
loop_
_atom_site_type_symbol
_atom_site_label
_atom_site_fract_x
_atom_site_fract_y
_atom_site_fract_z
Si Si1 0.207884 0.686003 0.715177
Si Si2 0.393252 0.250824 0.899146
Si Si3 0.024925 0.240948 0.554212
Si Si4 0.434611 0.586982 0.382942
Si Si5 0.722907 0.355733 0.407551
Si Si6 0.114673 0.225926 0.037233
Si Si7 0.814619 0.361348 0.896063
Si Si8 0.545607 0.534876 0.725328
O O1 0.109143 0.624187 0.669229
O O2 0.308126 0.503265 0.750406
O O3 0.016952 0.632746 0.794042
O O4 0.446671 0.067820 0.634509
O O5 0.562768 0.203465 0.917070
O O6 0.541744 0.459503 0.800225
O O7 0.312027 0.423483 0.937504
O O8 0.142499 0.936944 0.938169
O O9 0.208444 0.264261 0.480158
O O10 0.146027 0.404140 0.581353
O O11 0.000000 0.500000 0.500000
O O12 0.776451 0.897537 0.636901
O O13 0.618573 0.505773 0.369710
O O14 0.433209 0.676477 0.307010
O O15 0.500000 0.000000 0.500000
O O16 0.157226 0.438918 0.068095
O O17 0.141809 0.923932 0.074443
#
# Coordination Sequence:
#
# PCOD9060146 Si02
#       8
#     2   2   2   2   2   2   2   2
#     4  11  24  44  68  97 142 182 236 307 362 437
#     4  11  26  48  80 111 148 204 246 314 389 452
#     4  12  23  41  64  96 132 183 237 293 354 434
#     4  11  23  43  66  89 139 186 230 300 361 426
#     4  11  24  42  64  92 134 186 240 291 365 427
#     4  11  27  53  77 115 156 195 252 317 378 466
#     4  12  27  49  80 113 156 197 253 312 383 459
#     4  11  24  45  64 105 137 182 242 303 365 435
#
# _framework density 24.893954000000001
#
# number of rings (size 3 to 8) (size 9 to 14) (size 15 to 20)
#    0.000    0.750    3.750    3.000    3.500    4.000 
#    6.750    0.000    0.000    0.000    0.000    0.000 
#    0.000    0.000    0.000    0.000    0.000    0.000 
#
# Total GULP energy -89313.422362 kJ/mol
# GULP energy per Si atom -5582.088898 kJ/mol
# Density = 2.483729 g / cm^3
# Si number density = 24.893954 Si / 1000 Ang^3
#
#
#
# Elastic Constant Matrix: (Units=GPa)
#
#
# Indices 1 2 3 4 5 6 
#
# 1 133.3959 44.3383 40.6867 12.4851 2.0511 19.0334
# 2 44.3383 107.0870 51.1720 36.3054 4.6024 14.4533
# 3 40.6867 51.1720 177.4262 50.2337 3.1465 17.1763
# 4 12.4851 36.3054 50.2337 46.3907 9.8651 11.0076
# 5 2.0511 4.6024 3.1465 9.8651 42.9969 -4.0366
# 6 19.0334 14.4533 17.1763 11.0076 -4.0366 25.1806
#
#
#
# Elastic Compliance Matrix: (Units=1/GPa)
#
#
# Indices 1 2 3 4 5 6 
#
# 1 0.009732 -0.003640 -0.001626 0.003704 -0.001368 -0.005996
# 2 -0.003640 0.014479 -0.000507 -0.009790 0.000832 -0.000801
# 3 -0.001626 -0.000507 0.008640 -0.008764 0.001482 -0.000305
# 4 0.003704 -0.009790 -0.008764 0.042333 -0.009251 -0.011191
# 5 -0.001368 0.000832 0.001482 -0.009251 0.025976 0.007754
# 6 -0.005996 -0.000801 -0.000305 -0.011191 0.007754 0.051048
#
#
# Mechanical properties :
#
#
# Convention : Reuss Voigt Hill
#
# Bulk Modulus (GPa) = 46.93644 76.70035 61.81839
# Shear Modulus (GPa) = 29.26450 41.69444 35.47947
#
# Velocity S-wave (km/s) = 3.43237 4.09697 3.77931
# Velocity P-wave (km/s) = 5.88249 7.29781 6.62803
#
# Compressibility (1/GPa) = 0.02130541
#
# Stress axis : x y z
#
# Youngs Moduli (GPa) = 102.75088 69.06655 115.74555
#
# Poissons Ratio (x) = 0.25142 0.18817
# Poissons Ratio (y) = 0.37404 0.05864
# Poissons Ratio (z) = 0.16705 0.03499
#
# Static dielectric constant tensor:
#      x y z
#    x 2.137700 -0.046810 -0.082690 
#    y -0.046810 2.037290 -0.036790 
#    z -0.082690 -0.036790 1.928700 
# 
# From -- ./inp_files/605611.got.cif
#   From: 2010.05.17/outbox.cif.g08.bks.cpg/sg2_303_cif.got.tgz:605611.got - 2010.06.03 11:33:40.
