data_PCOD9060540
_publ_section_title
;
Structure prediction by ZEFSAII (Michael W. Deem and Ramdas Pophale) SiO2 
 PCOD9060540
Probable space group: P -1
;
_chemical_formula_sum "Si O2"
_cell_formula_units_Z 16
_cell_length_a 24.219153
_cell_length_b 9.149657
_cell_length_c 5.667003
_cell_angle_alpha 121.985049
_cell_angle_beta 69.619538
_cell_angle_gamma 136.633246
_cell_volume 729.934891
_symmetry_space_group_name_H-M "P -1"
_symmetry_group_IT_number 2
_symmetry_cell_setting 'triclinic'
loop_
_space_group_symop_operation_xyz
x,y,z
-x,-y,-z
loop_
_atom_site_type_symbol
_atom_site_label
_atom_site_fract_x
_atom_site_fract_y
_atom_site_fract_z
Si Si1 0.068358 0.778930 0.179580
Si Si2 0.478006 0.642227 0.856011
Si Si3 0.395945 0.800959 0.328209
Si Si4 0.066930 0.987540 0.861726
Si Si5 0.754067 0.631965 0.038899
Si Si6 0.389358 0.146244 0.810283
Si Si7 0.755345 0.954624 0.986798
Si Si8 0.628500 0.483462 0.474459
O O1 0.057633 0.857161 0.517266
O O2 0.158145 0.873720 0.119354
O O3 0.065095 0.885456 0.032365
O O4 0.000000 0.500000 0.000000
O O5 0.443816 0.768053 0.057808
O O6 0.567257 0.812462 0.971417
O O7 0.427213 0.400553 0.876755
O O8 0.440902 0.542133 0.567748
O O9 0.413651 0.744476 0.501066
O O10 0.410882 0.031549 0.507688
O O11 0.299677 0.579164 0.247779
O O12 0.156482 0.248179 0.937219
O O13 0.000000 0.000000 0.000000
O O14 0.694338 0.517992 0.248083
O O15 0.761997 0.843533 0.109687
O O16 0.292582 0.968394 0.813246
O O17 0.687756 0.729424 0.734234
#
# Coordination Sequence:
#
# PCOD9060540 Si02
#       8
#     2   2   2   2   2   2   2   2
#     4  11  24  43  68  99 139 173 217 282 334 395
#     4  10  22  39  58  82 127 163 205 266 324 374
#     4  10  21  38  59  87 121 160 212 270 312 381
#     4  11  23  42  69  98 131 180 220 269 341 405
#     4   9  19  39  61  83 120 168 203 258 326 380
#     4  11  21  39  58  90 119 165 214 259 321 392
#     4  10  20  39  62  84 121 167 207 256 327 387
#     4  10  17  39  60  79 120 162 202 253 323 367
#
# _framework density 21.919761999999999
#
# number of rings (size 3 to 8) (size 9 to 14) (size 15 to 20)
#    0.000    1.750    5.000    1.125    0.000    2.000 
#    6.750    0.000    0.000    0.000    0.000    0.000 
#    0.000    0.000    0.000    0.000    0.000    0.000 
#
# Total GULP energy -89154.862630 kJ/mol
# GULP energy per Si atom -5572.178914 kJ/mol
# Density = 2.186987 g / cm^3
# Si number density = 21.919762 Si / 1000 Ang^3
#
#
#
# Elastic Constant Matrix: (Units=GPa)
#
#
# Indices 1 2 3 4 5 6 
#
# 1 146.5359 36.3511 42.0577 7.9217 -1.7188 35.1600
# 2 36.3511 68.9236 21.8162 0.9723 0.5356 20.8746
# 3 42.0577 21.8162 91.5077 4.0932 -6.5904 0.8419
# 4 7.9217 0.9723 4.0932 33.6993 -2.9060 1.5392
# 5 -1.7188 0.5356 -6.5904 -2.9060 38.8531 -4.5279
# 6 35.1600 20.8746 0.8419 1.5392 -4.5279 29.0325
#
#
#
# Elastic Compliance Matrix: (Units=1/GPa)
#
#
# Indices 1 2 3 4 5 6 
#
# 1 0.011947 -0.000179 -0.005398 -0.001677 -0.002192 -0.014436
# 2 -0.000179 0.020733 -0.004949 0.000486 -0.002847 -0.015016
# 3 -0.005398 -0.004949 0.014770 -0.000549 0.003487 0.010240
# 4 -0.001677 0.000486 -0.000549 0.030286 0.002141 0.000426
# 5 -0.002192 -0.002847 0.003487 0.002141 0.027454 0.008769
# 6 -0.014436 -0.015016 0.010240 0.000426 0.008769 0.063771
#
#
# Mechanical properties :
#
#
# Convention : Reuss Voigt Hill
#
# Bulk Modulus (GPa) = 37.88290 56.37966 47.13128
# Shear Modulus (GPa) = 25.14911 34.09979 29.62445
#
# Velocity S-wave (km/s) = 3.39089 3.94847 3.68026
# Velocity P-wave (km/s) = 5.71410 6.82378 6.29345
#
# Compressibility (1/GPa) = 0.02639714
#
# Stress axis : x y z
#
# Youngs Moduli (GPa) = 83.70473 48.23190 67.70272
#
# Poissons Ratio (x) = 0.00866 0.36547
# Poissons Ratio (y) = 0.01502 0.33507
# Poissons Ratio (z) = 0.45185 0.23870
#
# Static dielectric constant tensor:
#      x y z
#    x 1.844330 -0.016370 -0.018490 
#    y -0.016370 1.792010 -0.026230 
#    z -0.018490 -0.026230 2.013250 
# 
# From -- ./inp_files/122997.got.cif
#   From: 2010.05.17/outbox.cif.g08.bks.cpg/sg2_62_cif.got.tgz:122997.got - 2010.06.03 11:33:40.
