data_PCOD9060690
_publ_section_title
;
Structure prediction by ZEFSAII (Michael W. Deem and Ramdas Pophale) SiO2 
 PCOD9060690
Probable space group: P -1
;
_chemical_formula_sum "Si O2"
_cell_formula_units_Z 16
_cell_length_a 16.820157
_cell_length_b 11.124949
_cell_length_c 19.070946
_cell_angle_alpha 23.140068
_cell_angle_beta 30.636973
_cell_angle_gamma 33.494484
_cell_volume 698.184984
_symmetry_space_group_name_H-M "P -1"
_symmetry_group_IT_number 2
_symmetry_cell_setting 'triclinic'
loop_
_space_group_symop_operation_xyz
x,y,z
-x,-y,-z
loop_
_atom_site_type_symbol
_atom_site_label
_atom_site_fract_x
_atom_site_fract_y
_atom_site_fract_z
Si Si1 0.000108 0.680017 0.241250
Si Si2 0.384136 0.170687 0.057729
Si Si3 0.538925 0.744838 0.285114
Si Si4 0.510208 0.784016 0.676591
Si Si5 0.054569 0.619601 0.070373
Si Si6 0.856855 0.408530 0.615706
Si Si7 0.359051 0.790490 0.931771
Si Si8 0.855279 0.707042 0.039220
O O1 0.998715 0.605309 0.200424
O O2 0.914475 0.443002 0.474273
O O3 0.186733 0.691702 0.111037
O O4 0.905594 0.031070 0.146438
O O5 0.200645 0.334285 0.094196
O O6 0.403408 0.931031 0.237432
O O7 0.453643 0.467047 0.870168
O O8 0.500000 0.000000 0.000000
O O9 0.500000 0.500000 0.500000
O O10 0.693901 0.593484 0.203379
O O11 0.616211 0.979740 0.147928
O O12 0.695928 0.658620 0.621162
O O13 0.405779 0.916863 0.752921
O O14 0.500000 0.000000 0.500000
O O15 0.913470 0.642558 0.109901
O O16 0.000000 0.500000 0.500000
O O17 0.840875 0.063213 0.833617
O O18 0.500000 0.500000 0.000000
O O19 0.000000 0.500000 0.000000
#
# Coordination Sequence:
#
# PCOD9060690 Si02
#       8
#     2   2   2   2   2   2   2   2
#     4  11  23  43  76 105 141 181 236 302 353 415
#     4  12  26  49  69 103 148 188 234 296 355 430
#     4  12  27  49  71 101 139 191 238 287 353 421
#     4  12  27  43  73 107 140 185 239 292 363 417
#     4  11  23  44  74 104 141 184 234 289 362 414
#     4  12  24  44  70 106 138 179 236 289 351 419
#     4  12  22  47  73 102 142 182 239 297 345 424
#     4  12  26  47  70 102 144 186 231 288 350 431
#
# _framework density 22.916564000000001
#
# number of rings (size 3 to 8) (size 9 to 14) (size 15 to 20)
#    0.000    0.250    6.250    2.250    3.500    3.000 
#    0.000    1.250    0.000    0.000    0.000    0.000 
#    0.000    0.000    0.000    0.000    0.000    0.000 
#
# Total GULP energy -89444.191267 kJ/mol
# GULP energy per Si atom -5590.261954 kJ/mol
# Density = 2.286440 g / cm^3
# Si number density = 22.916564 Si / 1000 Ang^3
#
#
#
# Elastic Constant Matrix: (Units=GPa)
#
#
# Indices 1 2 3 4 5 6 
#
# 1 72.7100 19.5561 8.8479 -6.3892 27.6913 -15.2155
# 2 19.5561 122.2491 24.0268 -1.8206 16.7881 -33.7407
# 3 8.8479 24.0268 120.1821 12.9903 41.8032 -17.1567
# 4 -6.3892 -1.8206 12.9903 28.0998 -2.6861 4.7144
# 5 27.6913 16.7881 41.8032 -2.6861 35.4876 0.0921
# 6 -15.2155 -33.7407 -17.1567 4.7144 0.0921 47.3002
#
#
#
# Elastic Compliance Matrix: (Units=1/GPa)
#
#
# Indices 1 2 3 4 5 6 
#
# 1 0.032713 0.003469 0.017658 -0.008567 -0.048670 0.020352
# 2 0.003469 0.011728 0.004000 -0.003464 -0.013259 0.011304
# 3 0.017658 0.004000 0.028804 -0.017407 -0.050973 0.020815
# 4 -0.008567 -0.003464 -0.017407 0.047302 0.032451 -0.016319
# 5 -0.048670 -0.013259 -0.050973 0.032451 0.135052 -0.047100
# 6 0.020352 0.011304 0.020815 -0.016319 -0.047100 0.045020
#
#
# Mechanical properties :
#
#
# Convention : Reuss Voigt Hill
#
# Bulk Modulus (GPa) = 8.09714 46.66697 27.38205
# Shear Modulus (GPa) = 17.15089 39.69154 28.42122
#
# Velocity S-wave (km/s) = 2.73867 4.16625 3.52547
# Velocity P-wave (km/s) = 3.67986 6.59936 5.34289
#
# Compressibility (1/GPa) = 0.12350043
#
# Stress axis : x y z
#
# Youngs Moduli (GPa) = 30.56879 85.26676 34.71730
#
# Poissons Ratio (x) = -0.29583 -0.61305
# Poissons Ratio (y) = -0.10606 -0.13886
# Poissons Ratio (z) = -0.53979 -0.34105
#
# Static dielectric constant tensor:
#      x y z
#    x 1.924430 0.024490 0.058260 
#    y 0.024490 1.988830 0.080660 
#    z 0.058260 0.080660 1.870920 
# 
# From -- ./inp_files/599991.got.cif
#   From: 2010.05.17/outbox.cif.g08.bks.cpg/sg2_300_cif.got.tgz:599991.got - 2010.06.03 11:33:40.
