data_PCOD9060489
_publ_section_title
;
Structure prediction by ZEFSAII (Michael W. Deem and Ramdas Pophale) SiO2 
 PCOD9060489
Probable space group: P -1
;
_chemical_formula_sum "Si O2"
_cell_formula_units_Z 14
_cell_length_a 17.876148
_cell_length_b 12.099331
_cell_length_c 18.278878
_cell_angle_alpha 29.167511
_cell_angle_beta 19.227708
_cell_angle_gamma 30.835031
_cell_volume 620.006993
_symmetry_space_group_name_H-M "P -1"
_symmetry_group_IT_number 2
_symmetry_cell_setting 'triclinic'
loop_
_space_group_symop_operation_xyz
x,y,z
-x,-y,-z
loop_
_atom_site_type_symbol
_atom_site_label
_atom_site_fract_x
_atom_site_fract_y
_atom_site_fract_z
Si Si1 0.173000 0.672858 0.384126
Si Si2 0.954400 0.961351 0.300099
Si Si3 0.724660 0.471014 0.253836
Si Si4 0.899573 0.403367 0.876475
Si Si5 0.217853 0.998584 0.883630
Si Si6 0.537854 0.723111 0.132808
Si Si7 0.366272 0.348493 0.262596
O O1 0.302166 0.685932 0.333608
O O2 0.318809 0.483496 0.304376
O O3 0.121869 0.906557 0.248122
O O4 0.947826 0.580171 0.669006
O O5 0.856793 0.726247 0.521518
O O6 0.074979 0.977706 0.101412
O O7 0.778753 0.201411 0.337210
O O8 0.500000 0.500000 0.500000
O O9 0.614951 0.638384 0.191822
O O10 0.000000 0.500000 0.000000
O O11 0.814909 0.192609 0.036050
O O12 0.733545 0.557764 0.998245
O O13 0.133931 0.256520 0.782510
O O14 0.480937 0.906952 0.715382
O O15 0.500000 0.000000 0.000000
O O16 0.500000 0.500000 0.000000
#
# Coordination Sequence:
#
# PCOD9060489 Si02
#       7
#     2   2   2   2   2   2   2
#     4  12  26  43  71 109 148 194 251 316 391 461
#     4  12  26  45  77 109 151 207 253 316 393 469
#     4  12  32  57  81 113 153 210 272 327 389 472
#     4  11  25  43  70 109 151 187 247 324 392 461
#     4  11  23  43  71 108 153 191 248 312 395 466
#     4  12  29  49  75 105 149 203 257 326 388 461
#     4  12  24  40  72 110 155 197 252 315 388 472
#
# _framework density 22.580390000000001
#
# number of rings (size 3 to 8) (size 9 to 14) (size 15 to 20)
#    0.000    0.286    5.714    2.143    8.000    1.143 
#    0.000    0.000    0.000    0.000    0.000    0.000 
#    0.000    0.000    0.000    0.000    0.000    0.000 
#
# Total GULP energy -78056.623192 kJ/mol
# GULP energy per Si atom -5575.473085 kJ/mol
# Density = 2.252900 g / cm^3
# Si number density = 22.580390 Si / 1000 Ang^3
#
#
#
# Elastic Constant Matrix: (Units=GPa)
#
#
# Indices 1 2 3 4 5 6 
#
# 1 128.6402 54.9692 48.6187 -15.0517 15.5513 -18.2966
# 2 54.9692 172.6511 26.9644 -3.6182 7.2998 -8.8808
# 3 48.6187 26.9644 62.3483 -11.6790 12.9679 17.4938
# 4 -15.0517 -3.6182 -11.6790 33.4860 6.8902 2.6451
# 5 15.5513 7.2998 12.9679 6.8902 40.8256 -2.0369
# 6 -18.2966 -8.8808 17.4938 2.6451 -2.0369 40.0310
#
#
#
# Elastic Compliance Matrix: (Units=1/GPa)
#
#
# Indices 1 2 3 4 5 6 
#
# 1 0.016870 -0.002112 -0.015998 0.000735 -0.000384 0.014165
# 2 -0.002112 0.006820 -0.002062 -0.001160 0.000513 0.001551
# 3 -0.015998 -0.002062 0.041076 0.011056 -0.009795 -0.026949
# 4 0.000735 -0.001160 0.011056 0.036620 -0.010149 -0.007689
# 5 -0.000384 0.000513 -0.009795 -0.010149 0.029692 0.006400
# 6 0.014165 0.001551 -0.026949 -0.007689 0.006400 0.044410
#
#
# Mechanical properties :
#
#
# Convention : Reuss Voigt Hill
#
# Bulk Modulus (GPa) = 40.94841 69.41603 55.18222
# Shear Modulus (GPa) = 22.32404 38.40768 30.36586
#
# Velocity S-wave (km/s) = 3.14769 4.12871 3.67111
# Velocity P-wave (km/s) = 5.60218 7.31688 6.51618
#
# Compressibility (1/GPa) = 0.02442097
#
# Stress axis : x y z
#
# Youngs Moduli (GPa) = 59.27737 146.62025 24.34517
#
# Poissons Ratio (x) = 0.30969 0.38949
# Poissons Ratio (y) = 0.12521 0.05020
# Poissons Ratio (z) = 0.94835 0.30231
#
# Static dielectric constant tensor:
#      x y z
#    x 1.883190 -0.086440 -0.188740 
#    y -0.086440 1.761900 -0.015670 
#    z -0.188740 -0.015670 1.834900 
# 
# From -- ./inp_files/69941.got.cif
#   From: 2010.05.17/outbox.cif.g08.bks.cpg/sg2_35_cif.got.tgz:69941.got - 2010.06.03 11:33:40.
