data_PCOD9060307
_publ_section_title
;
Structure prediction by ZEFSAII (Michael W. Deem and Ramdas Pophale) SiO2 
 PCOD9060307
Probable space group: P -1
;
_chemical_formula_sum "Si O2"
_cell_formula_units_Z 16
_cell_length_a 9.146927
_cell_length_b 8.907076
_cell_length_c 15.543074
_cell_angle_alpha 101.306703
_cell_angle_beta 39.287466
_cell_angle_gamma 109.609693
_cell_volume 751.029599
_symmetry_space_group_name_H-M "P -1"
_symmetry_group_IT_number 2
_symmetry_cell_setting 'triclinic'
loop_
_space_group_symop_operation_xyz
x,y,z
-x,-y,-z
loop_
_atom_site_type_symbol
_atom_site_label
_atom_site_fract_x
_atom_site_fract_y
_atom_site_fract_z
Si Si1 0.235884 0.892857 0.136237
Si Si2 0.425135 0.633567 0.104759
Si Si3 0.629722 0.357416 0.221786
Si Si4 0.764903 0.848565 0.094009
Si Si5 0.000850 0.329594 0.916021
Si Si6 0.584369 0.051751 0.328245
Si Si7 0.171976 0.425558 0.357760
Si Si8 0.898497 0.087790 0.359728
O O1 0.256101 0.724642 0.145403
O O2 0.060806 0.829898 0.128656
O O3 0.102946 0.996479 0.262787
O O4 0.500000 0.000000 0.000000
O O5 0.648528 0.785108 0.049048
O O6 0.304889 0.549097 0.237208
O O7 0.500000 0.500000 0.000000
O O8 0.830372 0.511932 0.187342
O O9 0.608835 0.204304 0.273131
O O10 0.375318 0.386795 0.321156
O O11 0.752293 0.339295 0.071825
O O12 0.840467 0.700666 0.080920
O O13 0.594293 0.906226 0.244399
O O14 0.000000 0.000000 0.000000
O O15 0.792935 0.087892 0.310782
O O16 0.331534 0.003173 0.488189
O O17 0.000000 0.500000 0.500000
O O18 0.016567 0.265220 0.362233
#
# Coordination Sequence:
#
# PCOD9060307 Si02
#       8
#     2   2   2   2   2   2   2   2
#     4  12  26  44  71 107 139 183 234 298 354 419
#     4  12  28  45  72 107 147 188 238 293 359 422
#     4  11  25  43  72 102 139 185 233 289 353 422
#     4  12  23  43  72 102 140 184 234 290 353 415
#     4  11  23  43  69 105 139 176 235 294 348 421
#     4  11  26  46  72 104 138 189 236 292 352 423
#     4  12  28  49  70 102 147 190 235 294 360 434
#     4  11  27  48  70 103 143 183 241 293 352 427
#
# _framework density 21.304086999999999
#
# number of rings (size 3 to 8) (size 9 to 14) (size 15 to 20)
#    0.000    0.500    3.750    3.750    8.750    0.500 
#    0.000    1.250    0.000    0.000    0.000    0.000 
#    0.000    0.000    0.000    0.000    0.000    0.000 
#
# Total GULP energy -89449.930930 kJ/mol
# GULP energy per Si atom -5590.620683 kJ/mol
# Density = 2.125560 g / cm^3
# Si number density = 21.304087 Si / 1000 Ang^3
#
#
#
# Elastic Constant Matrix: (Units=GPa)
#
#
# Indices 1 2 3 4 5 6 
#
# 1 82.8136 44.2119 40.0579 7.8926 -9.2290 -6.9785
# 2 44.2119 140.8047 63.2329 11.2457 -5.2413 1.3695
# 3 40.0579 63.2329 123.2891 20.6980 -14.8225 -9.6777
# 4 7.8926 11.2457 20.6980 49.1741 -5.1119 -1.2409
# 5 -9.2290 -5.2413 -14.8225 -5.1119 28.1099 1.7494
# 6 -6.9785 1.3695 -9.6777 -1.2409 1.7494 54.3876
#
#
#
# Elastic Compliance Matrix: (Units=1/GPa)
#
#
# Indices 1 2 3 4 5 6 
#
# 1 0.015822 -0.003607 -0.002786 -0.000200 0.002922 0.001527
# 2 -0.003607 0.010132 -0.004297 -0.000121 -0.001493 -0.001437
# 3 -0.002786 -0.004297 0.012410 -0.003322 0.004115 0.001751
# 4 -0.000200 -0.000121 -0.003322 0.022015 0.002175 -0.000181
# 5 0.002922 -0.001493 0.004115 0.002175 0.038824 -0.000055
# 6 0.001527 -0.001437 0.001751 -0.000181 -0.000055 0.018928
#
#
# Mechanical properties :
#
#
# Convention : Reuss Voigt Hill
#
# Bulk Modulus (GPa) = 58.87797 71.32363 65.10080
# Shear Modulus (GPa) = 34.44184 39.62798 37.03491
#
# Velocity S-wave (km/s) = 4.02516 4.31758 4.17393
# Velocity P-wave (km/s) = 7.02136 7.64244 7.33847
#
# Compressibility (1/GPa) = 0.01698428
#
# Stress axis : x y z
#
# Youngs Moduli (GPa) = 63.20347 98.69482 80.58165
#
# Poissons Ratio (x) = 0.35598 0.22451
# Poissons Ratio (y) = 0.22797 0.34624
# Poissons Ratio (z) = 0.17610 0.42407
#
# Static dielectric constant tensor:
#      x y z
#    x 1.811930 0.011030 -0.009030 
#    y 0.011030 1.790670 0.006150 
#    z -0.009030 0.006150 1.771590 
# 
# From -- ./inp_files/495120.got.cif
#   From: 2010.05.17/outbox.cif.g08.bks.cpg/sg2_248_cif.got.tgz:495120.got - 2010.06.03 11:33:40.
