data_PCOD9060481
_publ_section_title
;
Structure prediction by ZEFSAII (Michael W. Deem and Ramdas Pophale) SiO2 
 PCOD9060481
Probable space group: P -1
;
_chemical_formula_sum "Si O2"
_cell_formula_units_Z 14
_cell_length_a 19.799170
_cell_length_b 6.462033
_cell_length_c 5.468739
_cell_angle_alpha 71.767937
_cell_angle_beta 72.832974
_cell_angle_gamma 55.672215
_cell_volume 542.486904
_symmetry_space_group_name_H-M "P -1"
_symmetry_group_IT_number 2
_symmetry_cell_setting 'triclinic'
loop_
_space_group_symop_operation_xyz
x,y,z
-x,-y,-z
loop_
_atom_site_type_symbol
_atom_site_label
_atom_site_fract_x
_atom_site_fract_y
_atom_site_fract_z
Si Si1 0.232723 0.533731 0.888730
Si Si2 0.326846 0.681466 0.118492
Si Si3 0.891268 0.653989 0.901236
Si Si4 0.683519 0.914951 0.362727
Si Si5 0.815198 0.965796 0.469646
Si Si6 0.989006 0.881428 0.808091
Si Si7 0.449912 0.114622 0.260493
O O1 0.183039 0.396467 0.054950
O O2 0.175934 0.801245 0.714601
O O3 0.301733 0.332965 0.704580
O O4 0.275593 0.590290 0.042153
O O5 0.260783 0.876782 0.312731
O O6 0.406992 0.419953 0.208801
O O7 0.352722 0.841842 0.861854
O O8 0.945740 0.418403 0.109438
O O9 0.902432 0.882770 0.907559
O O10 0.897402 0.727320 0.582814
O O11 0.772717 0.870610 0.358340
O O12 0.623037 0.950665 0.632058
O O13 0.000000 0.000000 0.500000
O O14 0.000000 0.000000 0.000000
O O15 0.500000 0.000000 0.500000
O O16 0.500000 0.000000 0.000000
#
# Coordination Sequence:
#
# PCOD9060481 Si02
#       7
#     2   2   2   2   2   2   2
#     4  11  23  43  71 107 144 184 241 307 363 425
#     4  11  25  45  69 105 142 182 243 301 360 432
#     4  11  25  43  76 107 140 196 238 297 363 423
#     4  11  25  45  74 102 146 185 240 304 366 426
#     4  11  24  41  73 107 139 183 242 305 363 420
#     4  11  28  51  71 106 157 193 245 288 352 443
#     4  12  28  47  72 102 146 196 241 293 366 444
#
# _framework density 25.807075999999999
#
# number of rings (size 3 to 8) (size 9 to 14) (size 15 to 20)
#    0.000    0.857    2.857    2.571    6.000    5.714 
#    0.000    0.000    0.000    0.000    0.000    0.000 
#    0.000    0.000    0.000    0.000    0.000    0.000 
#
# Total GULP energy -78175.783285 kJ/mol
# GULP energy per Si atom -5583.984520 kJ/mol
# Density = 2.574834 g / cm^3
# Si number density = 25.807076 Si / 1000 Ang^3
#
#
#
# Elastic Constant Matrix: (Units=GPa)
#
#
# Indices 1 2 3 4 5 6 
#
# 1 74.0971 29.5484 33.6195 -6.0861 -11.1155 14.4030
# 2 29.5484 132.5783 89.3559 -21.4393 3.6630 1.9222
# 3 33.6195 89.3559 146.4348 -38.1864 4.8697 1.1829
# 4 -6.0861 -21.4393 -38.1864 55.2313 -4.8264 17.0491
# 5 -11.1155 3.6630 4.8697 -4.8264 55.5691 -8.3862
# 6 14.4030 1.9222 1.1829 17.0491 -8.3862 51.4571
#
#
#
# Elastic Compliance Matrix: (Units=1/GPa)
#
#
# Indices 1 2 3 4 5 6 
#
# 1 0.016800 -0.001929 -0.002483 0.001017 0.003130 -0.004400
# 2 -0.001929 0.013049 -0.007659 -0.000595 -0.000576 0.000332
# 3 -0.002483 -0.007659 0.013894 0.006821 -0.000880 -0.001741
# 4 0.001017 -0.000595 0.006821 0.025455 0.000533 -0.008766
# 5 0.003130 -0.000576 -0.000880 0.000533 0.019100 0.002102
# 6 -0.004400 0.000332 -0.001741 -0.008766 0.002102 0.023940
#
#
# Mechanical properties :
#
#
# Convention : Reuss Voigt Hill
#
# Bulk Modulus (GPa) = 51.01431 73.12865 62.07148
# Shear Modulus (GPa) = 34.98582 45.82394 40.40488
#
# Velocity S-wave (km/s) = 3.68593 4.21840 3.96112
# Velocity P-wave (km/s) = 6.15835 7.21974 6.71007
#
# Compressibility (1/GPa) = 0.01960234
#
# Stress axis : x y z
#
# Youngs Moduli (GPa) = 59.52352 76.63246 71.97093
#
# Poissons Ratio (x) = 0.14780 0.17873
# Poissons Ratio (y) = 0.11480 0.55120
# Poissons Ratio (z) = 0.14782 0.58690
#
# Static dielectric constant tensor:
#      x y z
#    x 2.125710 -0.068970 0.027750 
#    y -0.068970 2.011040 0.033190 
#    z 0.027750 0.033190 2.114220 
# 
# From -- ./inp_files/10207.got.cif
#   From: 2010.05.17/outbox.cif.g08.bks.cpg/sg2_6_cif.got.tgz:10207.got - 2010.06.03 11:33:40.
