data_PCOD9060083
_publ_section_title
;
Structure prediction by ZEFSAII (Michael W. Deem and Ramdas Pophale) SiO2 
 PCOD9060083
Probable space group: P -1
;
_chemical_formula_sum "Si O2"
_cell_formula_units_Z 16
_cell_length_a 9.260495
_cell_length_b 10.023524
_cell_length_c 15.903066
_cell_angle_alpha 118.385803
_cell_angle_beta 149.868784
_cell_angle_gamma 63.305799
_cell_volume 649.489587
_symmetry_space_group_name_H-M "P -1"
_symmetry_group_IT_number 2
_symmetry_cell_setting 'triclinic'
loop_
_space_group_symop_operation_xyz
x,y,z
-x,-y,-z
loop_
_atom_site_type_symbol
_atom_site_label
_atom_site_fract_x
_atom_site_fract_y
_atom_site_fract_z
Si Si1 0.460780 0.463791 0.667905
Si Si2 0.036755 0.390161 0.305475
Si Si3 0.039445 0.420558 0.131456
Si Si4 0.598271 0.683001 0.052257
Si Si5 0.713706 0.133357 0.637902
Si Si6 0.544098 0.706818 0.225637
Si Si7 0.828097 0.099252 0.185976
Si Si8 0.897173 0.972111 0.532198
O O1 0.605144 0.298412 0.662162
O O2 0.369898 0.433544 0.708339
O O3 0.715374 0.571432 0.812318
O O4 0.197040 0.496986 0.480621
O O5 0.173925 0.387005 0.281341
O O6 0.691033 0.410368 0.121133
O O7 0.040778 0.225111 0.300301
O O8 0.849093 0.583057 0.100006
O O9 0.800786 0.303139 0.958195
O O10 0.340481 0.285831 0.809914
O O11 0.473643 0.837975 0.988246
O O12 0.500000 0.000000 0.500000
O O13 0.786907 0.124681 0.572502
O O14 0.011547 0.061323 0.809121
O O15 0.650640 0.855634 0.367003
O O16 0.855412 0.101574 0.301582
O O17 0.000000 0.000000 0.500000
#
# Coordination Sequence:
#
# PCOD9060083 Si02
#       8
#     2   2   2   2   2   2   2   2
#     4  12  21  38  64  91 121 162 204 246 297 364
#     4   9  17  38  61  83 120 162 202 239 295 364
#     4  11  24  37  63  91 122 164 201 243 311 356
#     4   9  20  40  61  84 121 169 197 236 312 355
#     4  10  17  38  64  83 117 158 202 240 307 348
#     4  11  20  38  60  86 126 156 197 257 297 353
#     4   8  18  37  64  81 120 158 197 240 307 346
#     4  10  21  37  63  91 114 155 210 254 292 348
#
# _framework density 24.634729
#
# number of rings (size 3 to 8) (size 9 to 14) (size 15 to 20)
#    1.500    0.500    3.750    2.250    1.750    0.000 
#    0.000    8.750   13.750    0.000    0.000    0.000 
#    0.000    0.000    0.000    0.000    0.000    0.000 
#
# Total GULP energy -89226.809285 kJ/mol
# GULP energy per Si atom -5576.675580 kJ/mol
# Density = 2.457866 g / cm^3
# Si number density = 24.634729 Si / 1000 Ang^3
#
#
#
# Elastic Constant Matrix: (Units=GPa)
#
#
# Indices 1 2 3 4 5 6 
#
# 1 117.8434 31.9696 33.2096 -8.4297 -8.3279 21.6442
# 2 31.9696 63.4640 20.3491 -21.9398 -3.4954 11.1689
# 3 33.2096 20.3491 114.0175 -4.6749 -2.4276 16.6417
# 4 -8.4297 -21.9398 -4.6749 38.7693 11.7992 -10.4340
# 5 -8.3279 -3.4954 -2.4276 11.7992 52.9111 -4.1331
# 6 21.6442 11.1689 16.6417 -10.4340 -4.1331 30.2236
#
#
#
# Elastic Compliance Matrix: (Units=1/GPa)
#
#
# Indices 1 2 3 4 5 6 
#
# 1 0.011314 -0.004937 -0.001600 -0.002621 0.001489 -0.006098
# 2 -0.004937 0.023109 -0.002257 0.012440 -0.002109 0.000245
# 3 -0.001600 -0.002257 0.010183 -0.001539 0.000086 -0.004147
# 4 -0.002621 0.012440 -0.001539 0.036908 -0.007119 0.009896
# 5 0.001489 -0.002109 0.000086 -0.007119 0.020588 0.000023
# 6 -0.006098 0.000245 -0.004147 0.009896 0.000023 0.043066
#
#
# Mechanical properties :
#
#
# Convention : Reuss Voigt Hill
#
# Bulk Modulus (GPa) = 37.01226 51.82017 44.41622
# Shear Modulus (GPa) = 29.11001 38.36725 33.73863
#
# Velocity S-wave (km/s) = 3.44127 3.95073 3.70477
# Velocity P-wave (km/s) = 5.55399 6.47241 6.03071
#
# Compressibility (1/GPa) = 0.02701807
#
# Stress axis : x y z
#
# Youngs Moduli (GPa) = 88.38660 43.27333 98.19919
#
# Poissons Ratio (x) = 0.21366 0.15711
# Poissons Ratio (y) = 0.43640 0.22162
# Poissons Ratio (z) = 0.14141 0.09766
#
# Static dielectric constant tensor:
#      x y z
#    x 2.068490 0.027740 0.026750 
#    y 0.027740 2.018610 -0.021060 
#    z 0.026750 -0.021060 1.994650 
# 
# From -- ./inp_files/500753.got.cif
#   From: 2010.05.17/outbox.cif.g08.bks.cpg/sg2_251_cif.got.tgz:500753.got - 2010.06.03 11:33:40.
