data_PCOD9060627
_publ_section_title
;
Structure prediction by ZEFSAII (Michael W. Deem and Ramdas Pophale) SiO2 
 PCOD9060627
Probable space group: P -1
;
_chemical_formula_sum "Si O2"
_cell_formula_units_Z 14
_cell_length_a 12.081787
_cell_length_b 19.408154
_cell_length_c 9.734691
_cell_angle_alpha 23.622432
_cell_angle_beta 46.209320
_cell_angle_gamma 35.317195
_cell_volume 513.336881
_symmetry_space_group_name_H-M "P -1"
_symmetry_group_IT_number 2
_symmetry_cell_setting 'triclinic'
loop_
_space_group_symop_operation_xyz
x,y,z
-x,-y,-z
loop_
_atom_site_type_symbol
_atom_site_label
_atom_site_fract_x
_atom_site_fract_y
_atom_site_fract_z
Si Si1 0.209264 0.968760 0.771952
Si Si2 0.800581 0.153941 0.478344
Si Si3 0.654430 0.505159 0.473702
Si Si4 0.768859 0.878367 0.235578
Si Si5 0.892925 0.576061 0.307311
Si Si6 0.239030 0.610184 0.680399
Si Si7 0.396004 0.921571 0.419995
O O1 0.269076 0.017891 0.771600
O O2 0.365063 0.891212 0.659112
O O3 0.990174 0.182874 0.528700
O O4 0.211251 0.760770 0.160987
O O5 0.763916 0.364989 0.196412
O O6 0.625373 0.219265 0.409279
O O7 0.000000 0.000000 0.500000
O O8 0.822443 0.994082 0.872570
O O9 0.715807 0.569673 0.435370
O O10 0.429944 0.601262 0.504938
O O11 0.705394 0.559701 0.183038
O O12 0.940416 0.616413 0.584591
O O13 0.587218 0.903971 0.279259
O O14 0.000000 0.500000 0.500000
O O15 0.793624 0.826867 0.909435
#
# Coordination Sequence:
#
# PCOD9060627 Si02
#       7
#     2   2   2   2   2   2   2
#     4  12  25  48  77 107 146 198 254 301 362 450
#     4  12  24  46  77 108 146 196 249 306 365 436
#     4  11  25  45  76 107 143 198 254 300 369 435
#     4  12  26  49  76 103 153 202 237 304 381 439
#     4  12  27  44  71 106 147 195 242 300 378 438
#     4  11  23  43  74 106 145 189 250 306 357 427
#     4  12  29  46  73 111 155 191 244 308 375 441
#
# _framework density 27.272538999999998
#
# number of rings (size 3 to 8) (size 9 to 14) (size 15 to 20)
#    0.000    0.286    5.714    3.000    4.000    1.714 
#    0.000    0.714    0.000    0.000    0.000    0.000 
#    0.000    0.000    0.000    0.000    0.000    0.000 
#
# Total GULP energy -78343.220178 kJ/mol
# GULP energy per Si atom -5595.944298 kJ/mol
# Density = 2.721047 g / cm^3
# Si number density = 27.272539 Si / 1000 Ang^3
#
#
#
# Elastic Constant Matrix: (Units=GPa)
#
#
# Indices 1 2 3 4 5 6 
#
# 1 193.0829 15.5352 10.8256 12.3364 3.4720 16.4472
# 2 15.5352 121.3337 -0.4985 12.3249 1.5719 12.6094
# 3 10.8256 -0.4985 59.2215 -1.3090 8.1534 5.3773
# 4 12.3364 12.3249 -1.3090 45.4675 -1.1372 6.0765
# 5 3.4720 1.5719 8.1534 -1.1372 36.9881 -0.5903
# 6 16.4472 12.6094 5.3773 6.0765 -0.5903 59.5933
#
#
#
# Elastic Compliance Matrix: (Units=1/GPa)
#
#
# Indices 1 2 3 4 5 6 
#
# 1 0.005452 -0.000446 -0.000868 -0.001231 -0.000359 -0.001210
# 2 -0.000446 0.008672 0.000316 -0.002027 -0.000483 -0.001538
# 3 -0.000868 0.000316 0.017733 0.000771 -0.003842 -0.001544
# 4 -0.001231 -0.002027 0.000771 0.023138 0.000717 -0.001653
# 5 -0.000359 -0.000483 -0.003842 0.000717 0.027971 0.000752
# 6 -0.001210 -0.001538 -0.001544 -0.001653 0.000752 0.017755
#
#
# Mechanical properties :
#
#
# Convention : Reuss Voigt Hill
#
# Bulk Modulus (GPa) = 33.48935 47.26253 40.37594
# Shear Modulus (GPa) = 44.37655 51.59483 47.98569
#
# Velocity S-wave (km/s) = 4.03817 4.35423 4.19917
# Velocity P-wave (km/s) = 5.83512 6.53042 6.19254
#
# Compressibility (1/GPa) = 0.02986024
#
# Stress axis : x y z
#
# Youngs Moduli (GPa) = 183.42413 115.31087 56.39100
#
# Poissons Ratio (x) = 0.05145 0.04897
# Poissons Ratio (y) = 0.08185 -0.01782
# Poissons Ratio (z) = 0.15927 -0.03644
#
# Static dielectric constant tensor:
#      x y z
#    x 2.161140 0.053810 0.004180 
#    y 0.053810 2.175260 0.049090 
#    z 0.004180 0.049090 2.258840 
# 
# From -- ./inp_files/278630.got.cif
#   From: 2010.05.17/outbox.cif.g08.bks.cpg/sg2_140_cif.got.tgz:278630.got - 2010.06.03 11:33:40.
