data_PCOD9060207
_publ_section_title
;
Structure prediction by ZEFSAII (Michael W. Deem and Ramdas Pophale) SiO2 
 PCOD9060207
Probable space group: P -1
;
_chemical_formula_sum "Si O2"
_cell_formula_units_Z 16
_cell_length_a 9.884323
_cell_length_b 16.347196
_cell_length_c 9.647454
_cell_angle_alpha 57.522128
_cell_angle_beta 58.425087
_cell_angle_gamma 31.679854
_cell_volume 682.762777
_symmetry_space_group_name_H-M "P -1"
_symmetry_group_IT_number 2
_symmetry_cell_setting 'triclinic'
loop_
_space_group_symop_operation_xyz
x,y,z
-x,-y,-z
loop_
_atom_site_type_symbol
_atom_site_label
_atom_site_fract_x
_atom_site_fract_y
_atom_site_fract_z
Si Si1 0.409740 0.154568 0.896795
Si Si2 0.911381 0.826921 0.343251
Si Si3 0.718407 0.290686 0.979800
Si Si4 0.561652 0.160795 0.098015
Si Si5 0.854762 0.353696 0.081331
Si Si6 0.167112 0.352540 0.362805
Si Si7 0.595139 0.689739 0.457262
Si Si8 0.733323 0.328059 0.455492
O O1 0.478066 0.172998 0.699470
O O2 0.528264 0.159266 0.954846
O O3 0.099330 0.297238 0.953517
O O4 0.500000 0.000000 0.000000
O O5 0.133001 0.715230 0.207401
O O6 0.051164 0.800222 0.429157
O O7 0.813839 0.767819 0.487451
O O8 0.695308 0.002406 0.238694
O O9 0.415567 0.464953 0.979037
O O10 0.729125 0.174548 0.032856
O O11 0.846750 0.256828 0.087369
O O12 0.282869 0.306657 0.190078
O O13 0.853463 0.334432 0.262624
O O14 0.342925 0.328983 0.397107
O O15 0.868300 0.526650 0.386731
O O16 0.389174 0.707544 0.515180
O O17 0.500000 0.500000 0.500000
#
# Coordination Sequence:
#
# PCOD9060207 Si02
#       8
#     2   2   2   2   2   2   2   2
#     4  12  27  45  66  98 138 174 221 273 332 392
#     4  12  24  42  65  92 134 171 213 275 323 388
#     4  11  23  43  67  97 130 171 223 264 332 388
#     4  12  26  41  65  96 133 176 219 265 333 397
#     4  11  24  43  70  96 131 173 219 279 323 389
#     4  11  23  43  67  97 130 171 223 264 332 388
#     4  11  24  43  70  96 131 173 219 279 323 389
#     4  12  23  42  67  98 127 164 222 271 322 382
#
# _framework density 23.434200000000001
#
# number of rings (size 3 to 8) (size 9 to 14) (size 15 to 20)
#    0.000    0.500    2.500    6.000    0.000    7.000 
#    0.000    1.875    0.000    0.000    0.000    0.000 
#    0.000    0.000    0.000    0.000    0.000    0.000 
#
# Total GULP energy -89685.215480 kJ/mol
# GULP energy per Si atom -5605.325968 kJ/mol
# Density = 2.338086 g / cm^3
# Si number density = 23.434200 Si / 1000 Ang^3
#
#
#
# Elastic Constant Matrix: (Units=GPa)
#
#
# Indices 1 2 3 4 5 6 
#
# 1 93.5886 5.9429 -0.8924 8.1798 6.6732 7.6666
# 2 5.9429 39.2823 -13.9425 -3.0473 2.3257 -0.5532
# 3 -0.8924 -13.9425 69.2168 8.7648 4.6871 0.9915
# 4 8.1798 -3.0473 8.7648 27.2870 -0.0918 1.0984
# 5 6.6732 2.3257 4.6871 -0.0918 43.2516 -3.9964
# 6 7.6666 -0.5532 0.9915 1.0984 -3.9964 26.9437
#
#
#
# Elastic Compliance Matrix: (Units=1/GPa)
#
#
# Indices 1 2 3 4 5 6 
#
# 1 0.011559 -0.001804 0.000441 -0.003674 -0.002065 -0.003499
# 2 -0.001804 0.027931 0.005477 0.001873 -0.001763 0.000547
# 3 0.000441 0.005477 0.016317 -0.004739 -0.002210 -0.000748
# 4 -0.003674 0.001873 -0.004739 0.039492 0.001045 -0.000197
# 5 -0.002065 -0.001763 -0.002210 0.001045 0.024161 0.004174
# 6 -0.003499 0.000547 -0.000748 -0.000197 0.004174 0.038776
#
#
# Mechanical properties :
#
#
# Convention : Reuss Voigt Hill
#
# Bulk Modulus (GPa) = 15.61659 20.47820 18.04740
# Shear Modulus (GPa) = 29.17962 33.56178 31.37070
#
# Velocity S-wave (km/s) = 3.53253 3.78851 3.66276
# Velocity P-wave (km/s) = 4.82875 5.28154 5.06021
#
# Compressibility (1/GPa) = 0.06403446
#
# Stress axis : x y z
#
# Youngs Moduli (GPa) = 86.51396 35.80241 61.28656
#
# Poissons Ratio (x) = 0.06460 -0.02702
# Poissons Ratio (y) = 0.15609 -0.33569
# Poissons Ratio (z) = -0.03814 -0.19610
#
# Static dielectric constant tensor:
#      x y z
#    x 1.852820 0.018300 -0.004720 
#    y 0.018300 1.933710 0.002090 
#    z -0.004720 0.002090 1.852680 
# 
# From -- ./inp_files/205723.got.cif
#   From: 2010.05.17/outbox.cif.g08.bks.cpg/sg2_103_cif.got.tgz:205723.got - 2010.06.03 11:33:40.
