data_PCOD9060025
_publ_section_title
;
Structure prediction by ZEFSAII (Michael W. Deem and Ramdas Pophale) SiO2 
 PCOD9060025
Probable space group: P -1
;
_chemical_formula_sum "Si O2"
_cell_formula_units_Z 10
_cell_length_a 7.768937
_cell_length_b 12.366038
_cell_length_c 12.399400
_cell_angle_alpha 144.967938
_cell_angle_beta 69.126075
_cell_angle_gamma 132.930207
_cell_volume 439.446162
_symmetry_space_group_name_H-M "P -1"
_symmetry_group_IT_number 2
_symmetry_cell_setting 'triclinic'
loop_
_space_group_symop_operation_xyz
x,y,z
-x,-y,-z
loop_
_atom_site_type_symbol
_atom_site_label
_atom_site_fract_x
_atom_site_fract_y
_atom_site_fract_z
Si Si1 0.203346 0.786041 0.628565
Si Si2 0.659369 0.365724 0.075132
Si Si3 0.945537 0.843465 0.542770
Si Si4 0.085785 0.353876 0.985526
Si Si5 0.519990 0.820673 0.416501
O O1 0.050058 0.785248 0.567536
O O2 0.430941 0.820982 0.553274
O O3 0.000000 0.500000 0.500000
O O4 0.367723 0.057359 0.884447
O O5 0.749584 0.485544 0.030881
O O6 0.693190 0.563908 0.311317
O O7 0.879400 0.371307 0.064070
O O8 0.935376 0.045179 0.755865
O O9 0.180544 0.019108 0.542901
O O10 0.306143 0.520553 0.166966
O O11 0.500000 0.000000 0.500000
#
# Coordination Sequence:
#
# PCOD9060025 Si02
#       5
#     2   2   2   2   2
#     4  11  24  42  61  85 125 167 198 241 301 356
#     4  11  21  38  63  92 122 153 197 253 300 349
#     4  11  22  40  65  93 118 156 201 249 300 354
#     4  11  20  37  67  95 120 148 200 259 299 346
#     4  10  17  38  63  86 122 154 193 250 297 343
#
# _framework density 22.755915000000002
#
# number of rings (size 3 to 8) (size 9 to 14) (size 15 to 20)
#    0.000    1.200    8.000    2.400    0.000    0.800 
#    0.000    2.000    0.000    0.000    0.000    0.000 
#    0.000    0.000    0.000    0.000    0.000    0.000 
#
# Total GULP energy -55975.592464 kJ/mol
# GULP energy per Si atom -5597.559246 kJ/mol
# Density = 2.270412 g / cm^3
# Si number density = 22.755915 Si / 1000 Ang^3
#
#
#
# Elastic Constant Matrix: (Units=GPa)
#
#
# Indices 1 2 3 4 5 6 
#
# 1 57.6627 17.2415 19.7458 3.0806 -2.4660 -18.1599
# 2 17.2415 56.2930 28.4804 29.0460 -0.9789 -10.0965
# 3 19.7458 28.4804 231.2017 17.0570 5.8389 -13.0788
# 4 3.0806 29.0460 17.0570 25.9605 0.8352 -5.3018
# 5 -2.4660 -0.9789 5.8389 0.8352 44.7808 -0.9249
# 6 -18.1599 -10.0965 -13.0788 -5.3018 -0.9249 11.4131
#
#
#
# Elastic Compliance Matrix: (Units=1/GPa)
#
#
# Indices 1 2 3 4 5 6 
#
# 1 0.039565 -0.011747 -0.000023 0.021155 0.002823 0.062592
# 2 -0.011747 0.049257 -0.001244 -0.053179 0.001561 -0.001118
# 3 -0.000023 -0.001244 0.004782 -0.000941 -0.000555 0.003860
# 4 0.021155 -0.053179 -0.000941 0.102959 -0.001108 0.033276
# 5 0.002823 0.001561 -0.000555 -0.001108 0.022749 0.006566
# 6 0.062592 -0.001118 0.003860 0.033276 0.006566 0.206637
#
#
# Mechanical properties :
#
#
# Convention : Reuss Voigt Hill
#
# Bulk Modulus (GPa) = 14.79787 52.89919 33.84853
# Shear Modulus (GPa) = 10.53734 35.07685 22.80710
#
# Velocity S-wave (km/s) = 2.15422 3.93038 3.16927
# Velocity P-wave (km/s) = 3.56434 6.62525 5.31970
#
# Compressibility (1/GPa) = 0.06757731
#
# Stress axis : x y z
#
# Youngs Moduli (GPa) = 25.27459 20.30169 209.10480
#
# Poissons Ratio (x) = 0.23847 0.00488
# Poissons Ratio (y) = 0.29689 0.26009
# Poissons Ratio (z) = 0.00059 0.02525
#
# Static dielectric constant tensor:
#      x y z
#    x 1.915740 -0.031780 0.016180 
#    y -0.031780 1.808400 -0.008910 
#    z 0.016180 -0.008910 1.884400 
# 
# From -- ./inp_files/144132.got.cif
#   From: 2010.05.17/outbox.cif.g08.bks.cpg/sg2_73_cif.got.tgz:144132.got - 2010.06.03 11:33:40.
