data_PCOD9060126
_publ_section_title
;
Structure prediction by ZEFSAII (Michael W. Deem and Ramdas Pophale) SiO2 
 PCOD9060126
Probable space group: P -1
;
_chemical_formula_sum "Si O2"
_cell_formula_units_Z 16
_cell_length_a 8.063028
_cell_length_b 8.845887
_cell_length_c 13.428760
_cell_angle_alpha 88.125719
_cell_angle_beta 125.264110
_cell_angle_gamma 106.463392
_cell_volume 739.424829
_symmetry_space_group_name_H-M "P -1"
_symmetry_group_IT_number 2
_symmetry_cell_setting 'triclinic'
loop_
_space_group_symop_operation_xyz
x,y,z
-x,-y,-z
loop_
_atom_site_type_symbol
_atom_site_label
_atom_site_fract_x
_atom_site_fract_y
_atom_site_fract_z
Si Si1 0.502184 0.845460 0.809295
Si Si2 0.199327 0.537306 0.640445
Si Si3 0.517931 0.681296 0.994806
Si Si4 0.086373 0.251160 0.767378
Si Si5 0.269351 0.856666 0.009486
Si Si6 0.394189 0.442336 0.357041
Si Si7 0.885959 0.387586 0.870725
Si Si8 0.144491 0.087544 0.235647
O O1 0.270369 0.720300 0.703595
O O2 0.660330 0.910945 0.770854
O O3 0.532998 0.984286 0.898687
O O4 0.596117 0.729694 0.909319
O O5 0.128478 0.389094 0.696263
O O6 0.409795 0.542619 0.650795
O O7 0.000000 0.500000 0.500000
O O8 0.686402 0.772469 0.133852
O O9 0.310149 0.730062 0.948583
O O10 0.500000 0.500000 0.000000
O O11 0.034537 0.333012 0.847117
O O12 0.919176 0.070753 0.713326
O O13 0.238228 0.768473 0.106505
O O14 0.063712 0.905596 0.900664
O O15 0.500000 0.500000 0.500000
O O16 0.256267 0.538590 0.251079
O O17 0.240422 0.258868 0.318571
O O18 0.000000 0.500000 0.000000
#
# Coordination Sequence:
#
# PCOD9060126 Si02
#       8
#     2   2   2   2   2   2   2   2
#     4  11  23  43  65  98 140 179 224 287 351 414
#     4  11  26  48  72  97 139 192 235 287 351 419
#     4  12  24  37  64 101 142 182 222 281 353 419
#     4  12  24  44  68 102 141 177 230 290 354 413
#     4  12  23  40  65 107 142 179 229 291 359 411
#     4  11  26  50  72 100 138 192 241 280 349 434
#     4  12  24  40  73 105 141 183 234 287 353 419
#     4  11  24  43  70 102 140 180 229 295 351 421
#
# _framework density 21.638442000000001
#
# number of rings (size 3 to 8) (size 9 to 14) (size 15 to 20)
#    0.000    0.500    5.000    3.750    3.500    1.000 
#    2.250    2.500    0.000    0.000    0.000    0.000 
#    0.000    0.000    0.000    0.000    0.000    0.000 
#
# Total GULP energy -89192.102472 kJ/mol
# GULP energy per Si atom -5574.506404 kJ/mol
# Density = 2.158919 g / cm^3
# Si number density = 21.638442 Si / 1000 Ang^3
#
#
#
# Elastic Constant Matrix: (Units=GPa)
#
#
# Indices 1 2 3 4 5 6 
#
# 1 71.9581 38.7554 22.5649 -1.1929 -5.3822 6.4357
# 2 38.7554 167.0999 56.0662 26.8975 -5.3402 27.4570
# 3 22.5649 56.0662 131.3079 20.4889 -1.8081 2.4698
# 4 -1.1929 26.8975 20.4889 31.3098 3.4963 -6.9996
# 5 -5.3822 -5.3402 -1.8081 3.4963 33.7548 -5.4149
# 6 6.4357 27.4570 2.4698 -6.9996 -5.4149 43.5848
#
#
#
# Elastic Compliance Matrix: (Units=1/GPa)
#
#
# Indices 1 2 3 4 5 6 
#
# 1 0.016974 -0.004436 -0.001952 0.005908 0.001535 0.001539
# 2 -0.004436 0.010448 -0.002074 -0.009481 0.000653 -0.007251
# 3 -0.001952 -0.002074 0.009536 -0.004492 0.000398 0.000382
# 4 0.005908 -0.009481 -0.004492 0.046416 -0.003624 0.012359
# 5 0.001535 0.000653 0.000398 -0.003624 0.030784 0.002582
# 6 0.001539 -0.007251 0.000382 0.012359 0.002582 0.029568
#
#
# Mechanical properties :
#
#
# Convention : Reuss Voigt Hill
#
# Bulk Modulus (GPa) = 49.91974 67.23767 58.57870
# Shear Modulus (GPa) = 29.88141 38.59517 34.23829
#
# Velocity S-wave (km/s) = 3.72013 4.22790 3.98212
# Velocity P-wave (km/s) = 6.44768 7.41446 6.94790
#
# Compressibility (1/GPa) = 0.02003216
#
# Stress axis : x y z
#
# Youngs Moduli (GPa) = 58.91463 95.71600 104.86736
#
# Poissons Ratio (x) = 0.42464 0.20473
# Poissons Ratio (y) = 0.26137 0.21747
# Poissons Ratio (z) = 0.11502 0.19849
#
# Static dielectric constant tensor:
#      x y z
#    x 1.926160 0.062870 0.027520 
#    y 0.062870 1.935850 0.048920 
#    z 0.027520 0.048920 1.803810 
# 
# From -- ./inp_files/494977.got.cif
#   From: 2010.05.17/outbox.cif.g08.bks.cpg/sg2_248_cif.got.tgz:494977.got - 2010.06.03 11:33:40.
