data_PCOD9060483
_publ_section_title
;
Structure prediction by ZEFSAII (Michael W. Deem and Ramdas Pophale) SiO2 
 PCOD9060483
Probable space group: P -1
;
_chemical_formula_sum "Si O2"
_cell_formula_units_Z 16
_cell_length_a 14.679537
_cell_length_b 14.537820
_cell_length_c 13.460755
_cell_angle_alpha 42.422259
_cell_angle_beta 139.973099
_cell_angle_gamma 160.214932
_cell_volume 623.315870
_symmetry_space_group_name_H-M "P -1"
_symmetry_group_IT_number 2
_symmetry_cell_setting 'triclinic'
loop_
_space_group_symop_operation_xyz
x,y,z
-x,-y,-z
loop_
_atom_site_type_symbol
_atom_site_label
_atom_site_fract_x
_atom_site_fract_y
_atom_site_fract_z
Si Si1 0.054411 0.182366 0.198848
Si Si2 0.693797 0.648541 0.396287
Si Si3 0.654834 0.124319 0.712427
Si Si4 0.668621 0.424284 0.390920
Si Si5 0.238797 0.549167 0.763109
Si Si6 0.823167 0.552497 0.736931
Si Si7 0.192530 0.226327 0.065016
Si Si8 0.416399 0.979260 0.837589
O O1 0.356755 0.363649 0.329854
O O2 0.091284 0.355407 0.150151
O O3 0.023002 0.142205 0.086749
O O4 0.801700 0.888322 0.271672
O O5 0.813020 0.645862 0.413587
O O6 0.790848 0.671832 0.563416
O O7 0.576115 0.210366 0.540505
O O8 0.565434 0.033478 0.825231
O O9 0.982370 0.381672 0.752500
O O10 0.483684 0.864877 0.718884
O O11 0.857668 0.546262 0.355797
O O12 0.409001 0.293466 0.231853
O O13 0.336407 0.482400 0.937017
O O14 0.534918 0.232288 0.733800
O O15 0.078331 0.690787 0.783121
O O16 0.000000 0.000000 0.000000
O O17 0.500000 0.000000 0.000000
#
# Coordination Sequence:
#
# PCOD9060483 Si02
#       8
#     2   2   2   2   2   2   2   2
#     4  11  25  41  72 107 145 190 244 304 365 452
#     4  11  23  43  71 107 147 183 245 306 375 437
#     4  12  28  49  77 110 148 197 255 308 370 443
#     4  11  25  49  77 111 152 199 252 309 377 446
#     4  12  27  47  76 109 152 193 252 309 372 444
#     4  12  24  46  73 103 143 190 251 302 379 433
#     4  11  26  48  76 111 156 197 248 305 389 443
#     4  12  28  47  75 101 149 198 249 308 377 445
#
# _framework density 25.669167999999999
#
# number of rings (size 3 to 8) (size 9 to 14) (size 15 to 20)
#    0.000    0.500    1.250    6.000    5.250    5.000 
#    0.000    0.000    0.000    0.000    0.000    0.000 
#    0.000    0.000    0.000    0.000    0.000    0.000 
#
# Total GULP energy -89696.108491 kJ/mol
# GULP energy per Si atom -5606.006781 kJ/mol
# Density = 2.561074 g / cm^3
# Si number density = 25.669168 Si / 1000 Ang^3
#
#
#
# Elastic Constant Matrix: (Units=GPa)
#
#
# Indices 1 2 3 4 5 6 
#
# 1 158.0124 6.9394 4.9328 7.4702 -26.6984 -4.0227
# 2 6.9394 69.7355 15.5439 -6.6207 6.6696 -7.4317
# 3 4.9328 15.5439 91.4881 -1.1863 -6.2794 6.0491
# 4 7.4702 -6.6207 -1.1863 35.5261 -6.8842 4.6026
# 5 -26.6984 6.6696 -6.2794 -6.8842 42.9326 -3.0690
# 6 -4.0227 -7.4317 6.0491 4.6026 -3.0690 44.8450
#
#
#
# Elastic Compliance Matrix: (Units=1/GPa)
#
#
# Indices 1 2 3 4 5 6 
#
# 1 0.007220 -0.001169 0.000055 -0.000956 0.004588 0.000859
# 2 -0.001169 0.015892 -0.002987 0.002183 -0.003104 0.002495
# 3 0.000055 -0.002987 0.011719 0.000496 0.002151 -0.001975
# 4 -0.000956 0.002183 0.000496 0.029833 0.003737 -0.002597
# 5 0.004588 -0.003104 0.002151 0.003737 0.027621 0.001114
# 6 0.000859 0.002495 -0.001975 -0.002597 0.001114 0.023399
#
#
# Mechanical properties :
#
#
# Convention : Reuss Voigt Hill
#
# Bulk Modulus (GPa) = 37.55067 41.56314 39.55691
# Shear Modulus (GPa) = 37.66107 44.11540 40.88824
#
# Velocity S-wave (km/s) = 3.83452 4.15011 3.99544
# Velocity P-wave (km/s) = 5.85365 6.26032 6.06040
#
# Compressibility (1/GPa) = 0.02663068
#
# Stress axis : x y z
#
# Youngs Moduli (GPa) = 138.49479 62.92473 85.32810
#
# Poissons Ratio (x) = 0.07355 -0.00469
# Poissons Ratio (y) = 0.16188 0.25486
# Poissons Ratio (z) = -0.00762 0.18794
#
# Static dielectric constant tensor:
#      x y z
#    x 2.092380 0.035280 0.017270 
#    y 0.035280 1.935360 0.002320 
#    z 0.017270 0.002320 2.010410 
# 
# From -- ./inp_files/534275.got.cif
#   From: 2010.05.17/outbox.cif.g08.bks.cpg/sg2_268_cif.got.tgz:534275.got - 2010.06.03 11:33:40.
