data_PCOD9060067
_publ_section_title
;
Structure prediction by ZEFSAII (Michael W. Deem and Ramdas Pophale) SiO2 
 PCOD9060067
Probable space group: P -1
;
_chemical_formula_sum "Si O2"
_cell_formula_units_Z 16
_cell_length_a 16.083720
_cell_length_b 11.163454
_cell_length_c 9.312884
_cell_angle_alpha 80.868801
_cell_angle_beta 151.285105
_cell_angle_gamma 108.662296
_cell_volume 733.314913
_symmetry_space_group_name_H-M "P -1"
_symmetry_group_IT_number 2
_symmetry_cell_setting 'triclinic'
loop_
_space_group_symop_operation_xyz
x,y,z
-x,-y,-z
loop_
_atom_site_type_symbol
_atom_site_label
_atom_site_fract_x
_atom_site_fract_y
_atom_site_fract_z
Si Si1 0.258545 0.614879 0.767617
Si Si2 0.525030 0.117793 0.124840
Si Si3 0.890444 0.260067 0.234316
Si Si4 0.616065 0.721559 0.684854
Si Si5 0.067367 0.434694 0.244359
Si Si6 0.410165 0.457475 0.578431
Si Si7 0.503810 0.056964 0.650618
Si Si8 0.171773 0.138342 0.747483
O O1 0.362019 0.750421 0.813223
O O2 0.142427 0.647370 0.712746
O O3 0.135743 0.521093 0.475120
O O4 0.408445 0.563577 0.078277
O O5 0.609868 0.065788 0.398061
O O6 0.342969 0.137575 0.909719
O O7 0.500000 0.000000 0.000000
O O8 0.896132 0.310488 0.070843
O O9 0.086150 0.244009 0.550856
O O10 0.717745 0.121661 0.016201
O O11 0.471702 0.608745 0.590527
O O12 0.667950 0.632717 0.663990
O O13 0.549863 0.816726 0.469182
O O14 0.762305 0.820599 0.997204
O O15 0.248493 0.415595 0.459602
O O16 0.000000 0.500000 0.000000
O O17 0.500000 0.000000 0.500000
O O18 0.000000 0.000000 0.500000
#
# Coordination Sequence:
#
# PCOD9060067 Si02
#       8
#     2   2   2   2   2   2   2   2
#     4  12  25  47  71  99 138 190 233 278 349 428
#     4  12  23  43  72 100 136 182 240 276 333 428
#     4  12  25  45  69 100 142 179 228 289 357 404
#     4  11  23  42  75 102 138 185 238 283 343 424
#     4  12  28  42  67 107 140 175 225 298 353 402
#     4  11  24  46  71 102 140 185 239 282 347 426
#     4  12  23  44  70 101 134 186 229 283 338 416
#     4  12  23  42  67 105 139 180 231 287 354 402
#
# _framework density 21.818729999999999
#
# number of rings (size 3 to 8) (size 9 to 14) (size 15 to 20)
#    0.000    0.250    5.000    3.750    5.250    0.000 
#    0.000    0.000    0.000    4.500    0.000    0.000 
#    0.000    0.000    0.000    0.000    0.000    0.000 
#
# Total GULP energy -89361.202542 kJ/mol
# GULP energy per Si atom -5585.075159 kJ/mol
# Density = 2.176907 g / cm^3
# Si number density = 21.818730 Si / 1000 Ang^3
#
#
#
# Elastic Constant Matrix: (Units=GPa)
#
#
# Indices 1 2 3 4 5 6 
#
# 1 147.0053 40.5358 38.7563 0.8128 -4.3766 4.9235
# 2 40.5358 104.7488 35.8857 -17.7040 18.4907 18.0579
# 3 38.7563 35.8857 73.6572 -7.9011 -14.2622 -12.7762
# 4 0.8128 -17.7040 -7.9011 47.1428 -2.4911 -9.7111
# 5 -4.3766 18.4907 -14.2622 -2.4911 28.3933 1.6103
# 6 4.9235 18.0579 -12.7762 -9.7111 1.6103 50.4425
#
#
#
# Elastic Compliance Matrix: (Units=1/GPa)
#
#
# Indices 1 2 3 4 5 6 
#
# 1 0.008459 -0.002298 -0.003572 -0.001824 0.000919 -0.001288
# 2 -0.002298 0.021230 -0.014618 0.002416 -0.020746 -0.009951
# 3 -0.003572 -0.014618 0.029762 0.003487 0.023485 0.013042
# 4 -0.001824 0.002416 0.003487 0.023799 0.001717 0.004723
# 5 0.000919 -0.020746 0.023485 0.001717 0.060156 0.011696
# 6 -0.001288 -0.009951 0.013042 0.004723 0.011696 0.027352
#
#
# Mechanical properties :
#
#
# Convention : Reuss Voigt Hill
#
# Bulk Modulus (GPa) = 54.13177 61.75189 57.94183
# Shear Modulus (GPa) = 22.94720 39.21127 31.07923
#
# Velocity S-wave (km/s) = 3.24654 4.24387 3.77826
# Velocity P-wave (km/s) = 6.23835 7.23723 6.75628
#
# Compressibility (1/GPa) = 0.01847344
#
# Stress axis : x y z
#
# Youngs Moduli (GPa) = 118.22424 47.10329 33.60039
#
# Poissons Ratio (x) = 0.10824 0.12003
# Poissons Ratio (y) = 0.27167 0.49117
# Poissons Ratio (z) = 0.42234 0.68856
#
# Static dielectric constant tensor:
#      x y z
#    x 1.822990 0.047470 -0.027830 
#    y 0.047470 1.927660 -0.043390 
#    z -0.027830 -0.043390 1.852050 
# 
# From -- ./inp_files/307456.got.cif
#   From: 2010.05.17/outbox.cif.g08.bks.cpg/sg2_154_cif.got.tgz:307456.got - 2010.06.03 11:33:40.
