data_PCOD9060606
_publ_section_title
;
Structure prediction by ZEFSAII (Michael W. Deem and Ramdas Pophale) SiO2 
 PCOD9060606
Probable space group: P -1
;
_chemical_formula_sum "Si O2"
_cell_formula_units_Z 10
_cell_length_a 9.249731
_cell_length_b 7.340694
_cell_length_c 7.805542
_cell_angle_alpha 104.604852
_cell_angle_beta 111.911081
_cell_angle_gamma 116.652025
_cell_volume 379.058763
_symmetry_space_group_name_H-M "P -1"
_symmetry_group_IT_number 2
_symmetry_cell_setting 'triclinic'
loop_
_space_group_symop_operation_xyz
x,y,z
-x,-y,-z
loop_
_atom_site_type_symbol
_atom_site_label
_atom_site_fract_x
_atom_site_fract_y
_atom_site_fract_z
Si Si1 0.403942 0.699419 0.601374
Si Si2 0.832468 0.160791 0.001468
Si Si3 0.121041 0.353838 0.870230
Si Si4 0.848414 0.132390 0.389049
Si Si5 0.487018 0.371737 0.728634
O O1 0.230246 0.711216 0.579865
O O2 0.391177 0.485478 0.629771
O O3 0.416258 0.675874 0.397503
O O4 0.610391 0.938265 0.810832
O O5 0.850158 0.399526 0.065281
O O6 0.892667 0.136208 0.210619
O O7 0.973927 0.195748 0.921581
O O8 0.021297 0.221888 0.619181
O O9 0.334687 0.435512 0.027060
O O10 0.334715 0.126191 0.694368
#
# Coordination Sequence:
#
# PCOD9060606 Si02
#       5
#     2   2   2   2   2
#     4  11  23  45  73 101 139 181 229 283 343 407
#     4  11  23  43  74 101 135 185 227 280 346 405
#     4  11  24  45  71 102 138 183 226 281 347 407
#     4  12  24  48  72 100 138 183 228 285 339 409
#     4  11  25  45  73 101 138 184 228 282 345 405
#
# _framework density 26.381133999999999
#
# number of rings (size 3 to 8) (size 9 to 14) (size 15 to 20)
#    0.000    0.800    4.000    4.200    0.000    1.600 
#    3.600    1.000    0.000    0.000    0.000    0.000 
#    0.000    0.000    0.000    0.000    0.000    0.000 
#
# Total GULP energy -56269.181543 kJ/mol
# GULP energy per Si atom -5626.918154 kJ/mol
# Density = 2.632109 g / cm^3
# Si number density = 26.381134 Si / 1000 Ang^3
#
#
#
# Elastic Constant Matrix: (Units=GPa)
#
#
# Indices 1 2 3 4 5 6 
#
# 1 123.9483 34.7846 54.6588 -13.2928 -14.6511 11.8829
# 2 34.7846 107.4564 30.0592 -27.8534 -21.7553 18.7623
# 3 54.6588 30.0592 206.3629 -25.0708 -8.6443 24.8055
# 4 -13.2928 -27.8534 -25.0708 45.8761 4.2538 -11.5592
# 5 -14.6511 -21.7553 -8.6443 4.2538 34.2245 5.0459
# 6 11.8829 18.7623 24.8055 -11.5592 5.0459 46.7609
#
#
#
# Elastic Compliance Matrix: (Units=1/GPa)
#
#
# Indices 1 2 3 4 5 6 
#
# 1 0.009949 -0.001915 -0.002128 0.000089 0.002625 -0.000892
# 2 -0.001915 0.013852 0.000094 0.006043 0.007919 -0.004482
# 3 -0.002128 0.000094 0.005943 0.002063 0.000720 -0.002217
# 4 0.000089 0.006043 0.002063 0.027368 0.000532 0.003166
# 5 0.002625 0.007919 0.000720 0.000532 0.036679 -0.008053
# 6 -0.000892 -0.004482 -0.002217 0.003166 -0.008053 0.026238
#
#
# Mechanical properties :
#
#
# Convention : Reuss Voigt Hill
#
# Bulk Modulus (GPa) = 45.77542 75.19698 60.48620
# Shear Modulus (GPa) = 36.97933 46.58997 41.78465
#
# Velocity S-wave (km/s) = 3.74804 4.20698 3.98412
# Velocity P-wave (km/s) = 6.00996 7.22248 6.64394
#
# Compressibility (1/GPa) = 0.02184579
#
# Stress axis : x y z
#
# Youngs Moduli (GPa) = 100.51102 72.19240 168.26058
#
# Poissons Ratio (x) = 0.13826 0.35810
# Poissons Ratio (y) = 0.19249 -0.01585
# Poissons Ratio (z) = 0.21391 -0.00680
#
# Static dielectric constant tensor:
#      x y z
#    x 2.047180 -0.028390 -0.029910 
#    y -0.028390 2.018060 -0.014210 
#    z -0.029910 -0.014210 1.981670 
# 
# From -- ./inp_files/148114.got.cif
#   From: 2010.05.17/outbox.cif.g08.bks.cpg/sg2_75_cif.got.tgz:148114.got - 2010.06.03 11:33:40.
