data_PCOD9060563
_publ_section_title
;
Structure prediction by ZEFSAII (Michael W. Deem and Ramdas Pophale) SiO2 
 PCOD9060563
Probable space group: P -1
;
_chemical_formula_sum "Si O2"
_cell_formula_units_Z 16
_cell_length_a 11.654909
_cell_length_b 16.375364
_cell_length_c 7.799393
_cell_angle_alpha 142.543913
_cell_angle_beta 114.057386
_cell_angle_gamma 55.448985
_cell_volume 742.896419
_symmetry_space_group_name_H-M "P -1"
_symmetry_group_IT_number 2
_symmetry_cell_setting 'triclinic'
loop_
_space_group_symop_operation_xyz
x,y,z
-x,-y,-z
loop_
_atom_site_type_symbol
_atom_site_label
_atom_site_fract_x
_atom_site_fract_y
_atom_site_fract_z
Si Si1 0.393787 0.168980 0.169209
Si Si2 0.440894 0.174221 0.798632
Si Si3 0.478253 0.419458 0.684223
Si Si4 0.685620 0.268796 0.027014
Si Si5 0.082954 0.332946 0.201003
Si Si6 0.773841 0.297936 0.479202
Si Si7 0.842334 0.577371 0.963803
Si Si8 0.899830 0.171196 0.704856
O O1 0.430198 0.292717 0.488561
O O2 0.228866 0.218667 0.187656
O O3 0.420684 0.185190 0.010454
O O4 0.500000 0.000000 0.000000
O O5 0.290227 0.281132 0.800136
O O6 0.500000 0.000000 0.500000
O O7 0.554137 0.233067 0.913473
O O8 0.366536 0.553246 0.725941
O O9 0.618530 0.347872 0.540076
O O10 0.500000 0.500000 0.000000
O O11 0.783394 0.216710 0.168427
O O12 0.763128 0.202833 0.786531
O O13 0.000000 0.500000 0.500000
O O14 0.136597 0.358798 0.095169
O O15 0.974041 0.264487 0.991997
O O16 0.869847 0.211425 0.553780
O O17 0.796496 0.444617 0.705249
O O18 0.000000 0.500000 0.000000
O O19 0.000000 0.000000 0.500000
#
# Coordination Sequence:
#
# PCOD9060563 Si02
#       8
#     2   2   2   2   2   2   2   2
#     4  11  27  45  72 108 145 185 243 308 365 435
#     4  11  26  43  71 106 142 191 238 302 372 424
#     4  12  24  43  76 108 141 190 244 302 364 431
#     4  12  25  47  75 105 146 187 250 302 357 440
#     4  11  25  47  69 102 144 189 240 292 365 435
#     4  12  24  45  73 106 140 187 246 294 362 435
#     4  11  23  43  72  99 138 184 242 295 350 435
#     4  12  29  46  74 105 149 192 239 301 371 437
#
# _framework density 21.537320999999999
#
# number of rings (size 3 to 8) (size 9 to 14) (size 15 to 20)
#    0.000    0.500    5.000    3.375    7.000    1.500 
#    0.000    0.000    0.000    0.000    0.000    0.000 
#    0.000    0.000    0.000    0.000    0.000    0.000 
#
# Total GULP energy -89414.304053 kJ/mol
# GULP energy per Si atom -5588.394003 kJ/mol
# Density = 2.148830 g / cm^3
# Si number density = 21.537321 Si / 1000 Ang^3
#
#
#
# Elastic Constant Matrix: (Units=GPa)
#
#
# Indices 1 2 3 4 5 6 
#
# 1 98.2414 34.7278 17.9354 7.0397 5.7524 -12.0094
# 2 34.7278 109.5651 48.9823 10.6681 7.8533 -28.1788
# 3 17.9354 48.9823 102.9597 10.7257 5.3437 -12.9032
# 4 7.0397 10.6681 10.7257 39.8985 -1.1380 -8.9866
# 5 5.7524 7.8533 5.3437 -1.1380 14.6355 -0.0084
# 6 -12.0094 -28.1788 -12.9032 -8.9866 -0.0084 34.0402
#
#
#
# Elastic Compliance Matrix: (Units=1/GPa)
#
#
# Indices 1 2 3 4 5 6 
#
# 1 0.011670 -0.002954 -0.000200 -0.001001 -0.003006 0.001331
# 2 -0.002954 0.015253 -0.005266 -0.000136 -0.005106 0.009551
# 3 -0.000200 -0.005266 0.012532 -0.002026 -0.001829 -0.000215
# 4 -0.001001 -0.000136 -0.002026 0.027259 0.003329 0.005964
# 5 -0.003006 -0.005106 -0.001829 0.003329 0.073172 -0.005084
# 6 0.001331 0.009551 -0.000215 0.005964 -0.005084 0.039245
#
#
# Mechanical properties :
#
#
# Convention : Reuss Voigt Hill
#
# Bulk Modulus (GPa) = 44.21996 57.11747 50.66872
# Shear Modulus (GPa) = 24.56879 31.65622 28.11250
#
# Velocity S-wave (km/s) = 3.38117 3.83800 3.61680
# Velocity P-wave (km/s) = 5.98493 6.79839 6.40459
#
# Compressibility (1/GPa) = 0.02261422
#
# Stress axis : x y z
#
# Youngs Moduli (GPa) = 85.68750 65.55993 79.79785
#
# Poissons Ratio (x) = 0.19368 0.01599
# Poissons Ratio (y) = 0.25314 0.42020
# Poissons Ratio (z) = 0.01717 0.34523
#
# Static dielectric constant tensor:
#      x y z
#    x 1.774490 -0.043600 -0.022500 
#    y -0.043600 1.873670 -0.033760 
#    z -0.022500 -0.033760 1.776820 
# 
# From -- ./inp_files/280278.got.cif
#   From: 2010.05.17/outbox.cif.g08.bks.cpg/sg2_141_cif.got.tgz:280278.got - 2010.06.03 11:33:40.
