data_PCOD9060397
_publ_section_title
;
Structure prediction by ZEFSAII (Michael W. Deem and Ramdas Pophale) SiO2 
 PCOD9060397
Probable space group: P -1
;
_chemical_formula_sum "Si O2"
_cell_formula_units_Z 14
_cell_length_a 8.275180
_cell_length_b 9.402740
_cell_length_c 8.747103
_cell_angle_alpha 67.750048
_cell_angle_beta 89.216983
_cell_angle_gamma 98.900321
_cell_volume 620.398482
_symmetry_space_group_name_H-M "P -1"
_symmetry_group_IT_number 2
_symmetry_cell_setting 'triclinic'
loop_
_space_group_symop_operation_xyz
x,y,z
-x,-y,-z
loop_
_atom_site_type_symbol
_atom_site_label
_atom_site_fract_x
_atom_site_fract_y
_atom_site_fract_z
Si Si1 0.679705 0.897185 0.401517
Si Si2 0.212265 0.756235 0.664816
Si Si3 0.012264 0.924605 0.193399
Si Si4 0.144480 0.632735 0.383685
Si Si5 0.330106 0.460472 0.928297
Si Si6 0.159831 0.206966 0.265197
Si Si7 0.488553 0.633992 0.323728
O O1 0.716165 0.802392 0.592037
O O2 0.539597 0.800456 0.338440
O O3 0.843244 0.905611 0.294457
O O4 0.674568 0.077072 0.368769
O O5 0.223426 0.706824 0.509758
O O6 0.258456 0.615765 0.822747
O O7 0.022228 0.776733 0.681061
O O8 0.063122 0.758079 0.244254
O O9 0.140221 0.040947 0.247174
O O10 0.000000 0.000000 0.000000
O O11 0.296431 0.597857 0.295526
O O12 0.000000 0.500000 0.500000
O O13 0.382167 0.380870 0.804924
O O14 0.500000 0.500000 0.000000
O O15 0.213958 0.340761 0.086378
O O16 0.500000 0.500000 0.500000
#
# Coordination Sequence:
#
# PCOD9060397 Si02
#       7
#     2   2   2   2   2   2   2
#     4  11  23  47  75 104 142 183 239 292 355 422
#     4  11  24  46  74 106 136 194 235 285 354 418
#     4  11  23  43  70 107 139 183 235 294 349 413
#     4  12  26  44  76 102 141 187 241 285 354 428
#     4  12  28  45  68 107 147 183 234 296 354 413
#     4  11  23  44  73 102 142 184 238 290 349 418
#     4  12  26  45  71 105 142 189 233 291 356 418
#
# _framework density 22.566143
#
# number of rings (size 3 to 8) (size 9 to 14) (size 15 to 20)
#    0.000    0.571    4.286    3.857    4.000    4.000 
#    0.000    2.143    0.000    0.000    0.000    0.000 
#    0.000    0.000    0.000    0.000    0.000    0.000 
#
# Total GULP energy -78365.214850 kJ/mol
# GULP energy per Si atom -5597.515346 kJ/mol
# Density = 2.251478 g / cm^3
# Si number density = 22.566143 Si / 1000 Ang^3
#
#
#
# Elastic Constant Matrix: (Units=GPa)
#
#
# Indices 1 2 3 4 5 6 
#
# 1 62.1751 26.2016 15.4210 -16.0908 -2.6119 -5.2196
# 2 26.2016 104.8548 26.4415 -16.5715 -3.6500 3.8977
# 3 15.4210 26.4415 136.5202 -20.4546 -0.4453 -11.7566
# 4 -16.0908 -16.5715 -20.4546 45.1644 -4.9011 4.9122
# 5 -2.6119 -3.6500 -0.4453 -4.9011 32.4372 -5.0492
# 6 -5.2196 3.8977 -11.7566 4.9122 -5.0492 31.6175
#
#
#
# Elastic Compliance Matrix: (Units=1/GPa)
#
#
# Indices 1 2 3 4 5 6 
#
# 1 0.019590 -0.004004 -0.000369 0.005261 0.002408 0.003158
# 2 -0.004004 0.011481 -0.001654 0.002449 0.000860 -0.002935
# 3 -0.000369 -0.001654 0.008365 0.002815 0.000782 0.002941
# 4 0.005261 0.002449 0.002815 0.026879 0.004512 -0.001842
# 5 0.002408 0.000860 0.000782 0.004512 0.032604 0.005088
# 6 0.003158 -0.002935 0.002941 -0.001842 0.005088 0.034703
#
#
# Mechanical properties :
#
#
# Convention : Reuss Voigt Hill
#
# Bulk Modulus (GPa) = 36.52287 48.85312 42.68800
# Shear Modulus (GPa) = 32.29872 37.54290 34.92081
#
# Velocity S-wave (km/s) = 3.78735 4.08325 3.93808
# Velocity P-wave (km/s) = 5.94519 6.62770 6.29570
#
# Compressibility (1/GPa) = 0.02738010
#
# Stress axis : x y z
#
# Youngs Moduli (GPa) = 51.04522 87.10130 119.55193
#
# Poissons Ratio (x) = 0.34878 0.04415
# Poissons Ratio (y) = 0.20440 0.19777
# Poissons Ratio (z) = 0.01885 0.14409
#
# Static dielectric constant tensor:
#      x y z
#    x 1.898410 -0.001110 -0.013040 
#    y -0.001110 1.894970 0.013100 
#    z -0.013040 0.013100 1.791880 
# 
# From -- ./inp_files/156618.got.cif
#   From: 2010.05.17/outbox.cif.g08.bks.cpg/sg2_79_cif.got.tgz:156618.got - 2010.06.03 11:33:40.
