data_PCOD9060942
_publ_section_title
;
Structure prediction by ZEFSAII (Michael W. Deem and Ramdas Pophale) SiO2 
 PCOD9060942
Probable space group: P -1
;
_chemical_formula_sum "Si O2"
_cell_formula_units_Z 14
_cell_length_a 9.703713
_cell_length_b 24.239995
_cell_length_c 21.096458
_cell_angle_alpha 162.308151
_cell_angle_beta 41.366575
_cell_angle_gamma 149.740330
_cell_volume 669.625367
_symmetry_space_group_name_H-M "P -1"
_symmetry_group_IT_number 2
_symmetry_cell_setting 'triclinic'
loop_
_space_group_symop_operation_xyz
x,y,z
-x,-y,-z
loop_
_atom_site_type_symbol
_atom_site_label
_atom_site_fract_x
_atom_site_fract_y
_atom_site_fract_z
Si Si1 0.510294 0.320260 0.087948
Si Si2 0.641265 0.673883 0.990305
Si Si3 0.698483 0.037019 0.917339
Si Si4 0.810059 0.079445 0.482530
Si Si5 0.641243 0.045799 0.802087
Si Si6 0.715151 0.457245 0.557420
Si Si7 0.759569 0.739713 0.221417
O O1 0.486523 0.307973 0.007007
O O2 0.452193 0.085810 0.880252
O O3 0.271245 0.319768 0.195085
O O4 0.864952 0.607138 0.296752
O O5 0.387696 0.382802 0.793187
O O6 0.760977 0.895873 0.244353
O O7 0.951914 0.765748 0.966264
O O8 0.514729 0.734137 0.631229
O O9 0.707054 0.135623 0.952134
O O10 0.500000 0.000000 0.000000
O O11 0.829574 0.985289 0.439876
O O12 0.500000 0.000000 0.500000
O O13 0.947840 0.201361 0.827010
O O14 0.466817 0.741581 0.536655
O O15 0.000000 0.500000 0.500000
O O16 0.500000 0.500000 0.000000
#
# Coordination Sequence:
#
# PCOD9060942 Si02
#       7
#     2   2   2   2   2   2   2
#     4  12  23  42  68  98 132 171 218 272 326 383
#     4  11  23  40  66  97 133 171 222 264 321 402
#     4  10  20  43  66  91 130 172 213 269 326 383
#     4  11  22  39  64  96 136 175 213 269 326 387
#     4  10  22  40  68  92 135 167 215 275 326 380
#     4  10  21  43  66  90 133 172 214 270 326 375
#     4  10  17  40  63  90 133 170 207 268 325 378
#
# _framework density 20.907215000000001
#
# number of rings (size 3 to 8) (size 9 to 14) (size 15 to 20)
#    0.857    0.571    5.714    2.571    0.000    3.429 
#    2.571    2.143    0.000    0.000    0.000    0.000 
#    0.000    0.000    0.000    0.000    0.000    0.000 
#
# Total GULP energy -78052.951898 kJ/mol
# GULP energy per Si atom -5575.210850 kJ/mol
# Density = 2.085963 g / cm^3
# Si number density = 20.907215 Si / 1000 Ang^3
#
#
#
# Elastic Constant Matrix: (Units=GPa)
#
#
# Indices 1 2 3 4 5 6 
#
# 1 104.2808 21.0844 15.2404 -17.5142 -6.4510 5.7973
# 2 21.0844 129.6460 2.6582 -19.4082 -0.0755 20.8077
# 3 15.2404 2.6582 28.3315 -9.0773 0.9452 -0.2129
# 4 -17.5142 -19.4082 -9.0773 17.1986 6.7188 -1.3787
# 5 -6.4510 -0.0755 0.9452 6.7188 33.6439 -7.8467
# 6 5.7973 20.8077 -0.2129 -1.3787 -7.8467 30.0230
#
#
#
# Elastic Compliance Matrix: (Units=1/GPa)
#
#
# Indices 1 2 3 4 5 6 
#
# 1 0.011877 -0.000020 -0.003080 0.010351 -0.000138 -0.001862
# 2 -0.000020 0.011507 0.004409 0.016732 -0.005448 -0.008596
# 3 -0.003080 0.004409 0.046172 0.029257 -0.008418 -0.002990
# 4 0.010351 0.016732 0.029257 0.111390 -0.024465 -0.014666
# 5 -0.000138 -0.005448 -0.008418 -0.024465 0.037717 0.012477
# 6 -0.001862 -0.008596 -0.002990 -0.014666 0.012477 0.042191
#
#
# Mechanical properties :
#
#
# Convention : Reuss Voigt Hill
#
# Bulk Modulus (GPa) = 13.85544 37.80273 25.82908
# Shear Modulus (GPa) = 17.71205 31.05813 24.38509
#
# Velocity S-wave (km/s) = 2.91378 3.85843 3.41889
# Velocity P-wave (km/s) = 4.23812 6.16201 5.28829
#
# Compressibility (1/GPa) = 0.07217384
#
# Stress axis : x y z
#
# Youngs Moduli (GPa) = 84.19462 86.90137 21.65829
#
# Poissons Ratio (x) = 0.00174 0.06671
# Poissons Ratio (y) = 0.00169 -0.09549
# Poissons Ratio (z) = 0.25933 -0.38315
#
# Static dielectric constant tensor:
#      x y z
#    x 1.741000 0.012240 0.002060 
#    y 0.012240 1.792080 0.012880 
#    z 0.002060 0.012880 1.777220 
# 
# From -- ./inp_files/591982.got.cif
#   From: 2010.05.17/outbox.cif.g08.bks.cpg/sg2_296_cif.got.tgz:591982.got - 2010.06.03 11:33:40.
