data_PCOD9060659
_publ_section_title
;
Structure prediction by ZEFSAII (Michael W. Deem and Ramdas Pophale) SiO2 
 PCOD9060659
Probable space group: P -1
;
_chemical_formula_sum "Si O2"
_cell_formula_units_Z 16
_cell_length_a 8.798656
_cell_length_b 16.382525
_cell_length_c 8.770107
_cell_angle_alpha 77.647129
_cell_angle_beta 127.425721
_cell_angle_gamma 64.993946
_cell_volume 688.114744
_symmetry_space_group_name_H-M "P -1"
_symmetry_group_IT_number 2
_symmetry_cell_setting 'triclinic'
loop_
_space_group_symop_operation_xyz
x,y,z
-x,-y,-z
loop_
_atom_site_type_symbol
_atom_site_label
_atom_site_fract_x
_atom_site_fract_y
_atom_site_fract_z
Si Si1 0.537969 0.462001 0.362999
Si Si2 0.862694 0.071662 0.544436
Si Si3 0.169281 0.689317 0.823530
Si Si4 0.774924 0.928001 0.046354
Si Si5 0.174012 0.087148 0.251583
Si Si6 0.082052 0.395443 0.688962
Si Si7 0.671465 0.812639 0.248704
Si Si8 0.552402 0.667460 0.826244
O O1 0.500000 0.500000 0.500000
O O2 0.489091 0.379461 0.325762
O O3 0.844652 0.399905 0.542915
O O4 0.334643 0.573132 0.076838
O O5 0.561956 0.202795 0.305959
O O6 0.023803 0.101401 0.691367
O O7 0.882118 0.990512 0.706112
O O8 0.000000 0.000000 0.500000
O O9 0.384253 0.671387 0.855293
O O10 0.001143 0.802813 0.785284
O O11 0.937894 0.726286 0.553084
O O12 0.659899 0.880095 0.070116
O O13 0.905077 0.869829 0.987158
O O14 0.561849 0.070823 0.838986
O O15 0.500000 0.000000 0.500000
O O16 0.339522 0.272943 0.806743
O O17 0.000000 0.500000 0.500000
O O18 0.149832 0.409182 0.892485
#
# Coordination Sequence:
#
# PCOD9060659 Si02
#       8
#     2   2   2   2   2   2   2   2
#     4  12  29  49  74 106 145 186 238 306 360 413
#     4  12  24  45  70 102 144 186 239 286 355 437
#     4  12  23  46  74 100 142 190 239 290 354 426
#     4  11  24  43  69 105 143 185 237 290 360 423
#     4  12  27  43  67 110 143 184 232 298 360 420
#     4  12  25  45  75 104 136 187 243 290 353 425
#     4  11  23  43  75 103 138 191 238 289 355 433
#     4  12  25  48  76 104 140 193 245 290 349 435
#
# _framework density 23.251936000000001
#
# number of rings (size 3 to 8) (size 9 to 14) (size 15 to 20)
#    0.000    0.250    6.250    2.250    7.000    0.500 
#    2.250    0.000    0.000    0.000    0.000    0.000 
#    0.000    0.000    0.000    0.000    0.000    0.000 
#
# Total GULP energy -89433.085843 kJ/mol
# GULP energy per Si atom -5589.567865 kJ/mol
# Density = 2.319901 g / cm^3
# Si number density = 23.251936 Si / 1000 Ang^3
#
#
#
# Elastic Constant Matrix: (Units=GPa)
#
#
# Indices 1 2 3 4 5 6 
#
# 1 28.9897 16.5144 -3.6545 5.8635 -15.4069 -16.6387
# 2 16.5144 141.0781 26.4738 19.5295 -13.3318 -15.2196
# 3 -3.6545 26.4738 100.9261 16.3264 -2.0924 -6.6191
# 4 5.8635 19.5295 16.3264 44.7975 -4.5671 -5.4686
# 5 -15.4069 -13.3318 -2.0924 -4.5671 34.4089 9.5737
# 6 -16.6387 -15.2196 -6.6191 -5.4686 9.5737 32.8014
#
#
#
# Elastic Compliance Matrix: (Units=1/GPa)
#
#
# Indices 1 2 3 4 5 6 
#
# 1 0.062753 -0.003346 0.005819 -0.003809 0.019673 0.025077
# 2 -0.003346 0.008362 -0.001848 -0.002292 0.001010 0.001133
# 3 0.005819 -0.001848 0.011435 -0.003583 0.001143 0.003470
# 4 -0.003809 -0.002292 -0.003583 0.025215 0.000436 0.000358
# 5 0.019673 0.001010 0.001143 0.000436 0.038527 -0.000494
# 6 0.025077 0.001133 0.003470 0.000358 -0.000494 0.044636
#
#
# Mechanical properties :
#
#
# Convention : Reuss Voigt Hill
#
# Bulk Modulus (GPa) = 11.93347 38.85125 25.39236
# Shear Modulus (GPa) = 22.97666 37.84557 30.41111
#
# Velocity S-wave (km/s) = 3.14691 4.03877 3.62041
# Velocity P-wave (km/s) = 4.28340 6.20435 5.33111
#
# Compressibility (1/GPa) = 0.08379789
#
# Stress axis : x y z
#
# Youngs Moduli (GPa) = 15.93541 119.59162 87.45316
#
# Poissons Ratio (x) = 0.40016 -0.50885
# Poissons Ratio (y) = 0.05332 0.16165
# Poissons Ratio (z) = -0.09272 0.22106
#
# Static dielectric constant tensor:
#      x y z
#    x -0.705670 0.386050 -0.330870 
#    y 0.386050 1.843400 0.029610 
#    z -0.330870 0.029610 1.915740 
# 
# From -- ./inp_files/207166.got.cif
#   From: 2010.05.17/outbox.cif.g08.bks.cpg/sg2_104_cif.got.tgz:207166.got - 2010.06.03 11:33:40.
