data_PCOD9060395
_publ_section_title
;
Structure prediction by ZEFSAII (Michael W. Deem and Ramdas Pophale) SiO2 
 PCOD9060395
Probable space group: P -1
;
_chemical_formula_sum "Si O2"
_cell_formula_units_Z 16
_cell_length_a 11.532989
_cell_length_b 15.994799
_cell_length_c 8.116393
_cell_angle_alpha 32.293137
_cell_angle_beta 55.561205
_cell_angle_gamma 61.185296
_cell_volume 659.666030
_symmetry_space_group_name_H-M "P -1"
_symmetry_group_IT_number 2
_symmetry_cell_setting 'triclinic'
loop_
_space_group_symop_operation_xyz
x,y,z
-x,-y,-z
loop_
_atom_site_type_symbol
_atom_site_label
_atom_site_fract_x
_atom_site_fract_y
_atom_site_fract_z
Si Si1 0.505040 0.633184 0.132129
Si Si2 0.295879 0.794339 0.795275
Si Si3 0.849792 0.974585 0.242374
Si Si4 0.757145 0.104731 0.777166
Si Si5 0.816034 0.799969 0.071091
Si Si6 0.549512 0.892876 0.926521
Si Si7 0.791189 0.655495 0.695635
Si Si8 0.910281 0.337724 0.093866
O O1 0.500000 0.500000 0.500000
O O2 0.367169 0.669526 0.071122
O O3 0.532071 0.796696 0.932381
O O4 0.637542 0.596350 0.969353
O O5 0.214946 0.705206 0.863727
O O6 0.178658 0.911162 0.775004
O O7 0.412600 0.925416 0.437611
O O8 0.827781 0.790285 0.573667
O O9 0.744727 0.034115 0.085851
O O10 0.000000 0.000000 0.000000
O O11 0.853794 0.254554 0.442378
O O12 0.595209 0.125815 0.826293
O O13 0.836318 0.981818 0.800297
O O14 0.791307 0.720920 0.400155
O O15 0.675289 0.807263 0.065061
O O16 0.945111 0.725460 0.992725
O O17 0.907261 0.520394 0.824794
#
# Coordination Sequence:
#
# PCOD9060395 Si02
#       8
#     2   2   2   2   2   2   2   2
#     4  12  27  47  71 107 145 186 237 299 360 421
#     4  12  24  45  75  99 147 185 244 290 354 423
#     4  11  24  45  74 101 140 193 245 291 349 427
#     4  11  23  43  70 106 140 182 246 287 358 422
#     4  11  25  44  72 102 146 183 242 287 357 425
#     4  12  24  45  72 108 139 188 238 299 347 426
#     4  11  26  47  70 103 147 185 239 292 360 418
#     4  12  27  45  70 107 145 191 230 301 358 422
#
# _framework density 24.254698999999999
#
# number of rings (size 3 to 8) (size 9 to 14) (size 15 to 20)
#    0.000    0.500    3.750    5.250    5.250    0.500 
#    0.000    1.250    0.000    0.000    0.000    0.000 
#    0.000    0.000    0.000    0.000    0.000    0.000 
#
# Total GULP energy -89539.650861 kJ/mol
# GULP energy per Si atom -5596.228179 kJ/mol
# Density = 2.419949 g / cm^3
# Si number density = 24.254699 Si / 1000 Ang^3
#
#
#
# Elastic Constant Matrix: (Units=GPa)
#
#
# Indices 1 2 3 4 5 6 
#
# 1 66.7601 15.7624 16.7963 -9.2643 2.5792 -22.1102
# 2 15.7624 120.0693 35.7620 -0.6116 -0.0127 -24.3465
# 3 16.7963 35.7620 102.7656 7.8244 7.8883 -24.8547
# 4 -9.2643 -0.6116 7.8244 35.1828 -8.2472 -6.0390
# 5 2.5792 -0.0127 7.8883 -8.2472 18.8364 1.6821
# 6 -22.1102 -24.3465 -24.8547 -6.0390 1.6821 43.8499
#
#
#
# Elastic Compliance Matrix: (Units=1/GPa)
#
#
# Indices 1 2 3 4 5 6 
#
# 1 0.019681 -0.000110 -0.001288 0.007230 0.000106 0.010124
# 2 -0.000110 0.010004 -0.002723 0.001836 0.001596 0.004148
# 3 -0.001288 -0.002723 0.012972 -0.004196 -0.007533 0.004903
# 4 0.007230 0.001836 -0.004196 0.036189 0.016019 0.006656
# 5 0.000106 0.001596 -0.007533 0.016019 0.063562 -0.003562
# 6 0.010124 0.004148 0.004903 0.006656 -0.003562 0.034045
#
#
# Mechanical properties :
#
#
# Convention : Reuss Voigt Hill
#
# Bulk Modulus (GPa) = 29.05682 47.35962 38.20822
# Shear Modulus (GPa) = 25.48827 34.32542 29.90685
#
# Velocity S-wave (km/s) = 3.24521 3.76601 3.51527
# Velocity P-wave (km/s) = 5.10370 6.20312 5.68007
#
# Compressibility (1/GPa) = 0.03441533
#
# Stress axis : x y z
#
# Youngs Moduli (GPa) = 50.80968 99.95547 77.08682
#
# Poissons Ratio (x) = 0.01103 0.09932
# Poissons Ratio (y) = 0.00560 0.20988
# Poissons Ratio (z) = 0.06546 0.27214
#
# Static dielectric constant tensor:
#      x y z
#    x 2.018070 0.002420 0.054250 
#    y 0.002420 1.919900 -0.009270 
#    z 0.054250 -0.009270 1.992180 
# 
# From -- ./inp_files/278648.got.cif
#   From: 2010.05.17/outbox.cif.g08.bks.cpg/sg2_140_cif.got.tgz:278648.got - 2010.06.03 11:33:40.
