data_PCOD9060321
_publ_section_title
;
Structure prediction by ZEFSAII (Michael W. Deem and Ramdas Pophale) SiO2 
 PCOD9060321
Probable space group: P -1
;
_chemical_formula_sum "Si O2"
_cell_formula_units_Z 13
_cell_length_a 15.703181
_cell_length_b 12.303457
_cell_length_c 8.128717
_cell_angle_alpha 48.696398
_cell_angle_beta 41.577309
_cell_angle_gamma 27.867700
_cell_volume 487.166296
_symmetry_space_group_name_H-M "P -1"
_symmetry_group_IT_number 2
_symmetry_cell_setting 'triclinic'
loop_
_space_group_symop_operation_xyz
x,y,z
-x,-y,-z
loop_
_atom_site_type_symbol
_atom_site_label
_atom_site_fract_x
_atom_site_fract_y
_atom_site_fract_z
Si Si1 0.864821 0.309972 0.002648
Si Si2 0.000000 0.000000 0.500000
Si Si3 0.720541 0.727680 0.940594
Si Si4 0.340446 0.285880 0.599312
Si Si5 0.725434 0.980189 0.153644
Si Si6 0.460348 0.590783 0.155213
Si Si7 0.001855 0.236344 0.529736
O O1 0.785755 0.545752 0.900772
O O2 0.993617 0.179223 0.779975
O O3 0.051697 0.134351 0.043399
O O4 0.658187 0.400038 0.178511
O O5 0.245640 0.723920 0.404074
O O6 0.931451 0.940961 0.519073
O O7 0.867054 0.734451 0.701702
O O8 0.733722 0.633670 0.188965
O O9 0.500000 0.000000 0.000000
O O10 0.267511 0.189325 0.749481
O O11 0.225033 0.500884 0.438389
O O12 0.585160 0.090063 0.411239
O O13 0.593434 0.192398 0.009080
O O14 0.500000 0.500000 0.000000
#
# Coordination Sequence:
#
# PCOD9060321 Si02
#       7
#     2   1   2   2   2   2   2
#     4  12  25  45  74 107 144 191 246 308 364 430
#     4  12  26  46  80  94 146 208 238 284 382 436
#     4  12  25  40  70 111 146 182 248 307 365 433
#     4  11  23  43  69 109 147 188 236 305 372 429
#     4  11  24  43  76 102 147 190 242 300 372 429
#     4  12  26  52  70 106 149 195 240 306 363 439
#     4  12  24  45  70 104 145 193 241 298 364 435
#
# _framework density 26.684932
#
# number of rings (size 3 to 8) (size 9 to 14) (size 15 to 20)
#    0.000    0.308    4.615    4.615    4.308    0.615 
#    0.000    0.769    0.000    0.000    0.000    0.000 
#    0.000    0.000    0.000    0.000    0.000    0.000 
#
# Total GULP energy -72553.622386 kJ/mol
# GULP energy per Si atom -5581.047876 kJ/mol
# Density = 2.662420 g / cm^3
# Si number density = 26.684932 Si / 1000 Ang^3
#
#
#
# Elastic Constant Matrix: (Units=GPa)
#
#
# Indices 1 2 3 4 5 6 
#
# 1 117.9229 43.0879 23.5565 29.4118 -10.1015 -0.5825
# 2 43.0879 112.8640 7.1178 21.4935 -9.9765 -7.5259
# 3 23.5565 7.1178 94.6514 40.6292 -19.6163 -9.0756
# 4 29.4118 21.4935 40.6292 57.9461 -4.2892 -8.6675
# 5 -10.1015 -9.9765 -19.6163 -4.2892 51.6193 14.9318
# 6 -0.5825 -7.5259 -9.0756 -8.6675 14.9318 64.8018
#
#
#
# Elastic Compliance Matrix: (Units=1/GPa)
#
#
# Indices 1 2 3 4 5 6 
#
# 1 0.010914 -0.003343 -0.000621 -0.003949 0.001272 -0.001198
# 2 -0.003343 0.010866 0.001910 -0.003451 0.001698 0.000647
# 3 -0.000621 0.001910 0.016799 -0.011796 0.005748 -0.000333
# 4 -0.003949 -0.003451 -0.011796 0.028908 -0.004323 0.002774
# 5 0.001272 0.001698 0.005748 -0.004323 0.023195 -0.004909
# 6 -0.001198 0.000647 -0.000333 0.002774 -0.004909 0.016952
#
#
# Mechanical properties :
#
#
# Convention : Reuss Voigt Hill
#
# Bulk Modulus (GPa) = 29.00947 52.55142 40.78044
# Shear Modulus (GPa) = 40.57438 51.65186 46.11312
#
# Velocity S-wave (km/s) = 3.90359 4.40434 4.16150
# Velocity P-wave (km/s) = 5.58677 6.75280 6.19727
#
# Compressibility (1/GPa) = 0.03447151
#
# Stress axis : x y z
#
# Youngs Moduli (GPa) = 91.62878 92.02832 59.52831
#
# Poissons Ratio (x) = 0.30762 0.03695
# Poissons Ratio (y) = 0.30628 -0.11369
# Poissons Ratio (z) = 0.05687 -0.17576
#
# Static dielectric constant tensor:
#      x y z
#    x 2.013880 -0.065480 -0.160660 
#    y -0.065480 2.069260 -0.004360 
#    z -0.160660 -0.004360 1.791940 
# 
# From -- ./inp_files/194996.got.cif
#   From: 2010.05.17/outbox.cif.g08.bks.cpg/sg2_98_cif.got.tgz:194996.got - 2010.06.03 11:33:40.
