data_PCOD9060154
_publ_section_title
;
Structure prediction by ZEFSAII (Michael W. Deem and Ramdas Pophale) SiO2 
 PCOD9060154
Probable space group: P -1
;
_chemical_formula_sum "Si O2"
_cell_formula_units_Z 16
_cell_length_a 6.446616
_cell_length_b 6.782486
_cell_length_c 21.116893
_cell_angle_alpha 119.754677
_cell_angle_beta 61.191112
_cell_angle_gamma 109.689531
_cell_volume 696.549485
_symmetry_space_group_name_H-M "P -1"
_symmetry_group_IT_number 2
_symmetry_cell_setting 'triclinic'
loop_
_space_group_symop_operation_xyz
x,y,z
-x,-y,-z
loop_
_atom_site_type_symbol
_atom_site_label
_atom_site_fract_x
_atom_site_fract_y
_atom_site_fract_z
Si Si1 0.378336 0.576677 0.467559
Si Si2 0.811620 0.716301 0.345756
Si Si3 0.485842 0.769572 0.006144
Si Si4 0.715975 0.711055 0.081070
Si Si5 0.930282 0.817751 0.617997
Si Si6 0.009648 0.178965 0.110096
Si Si7 0.117100 0.319070 0.256377
Si Si8 0.341972 0.442775 0.793849
O O1 0.500000 0.500000 0.500000
O O2 0.568533 0.731335 0.421363
O O3 0.289124 0.346409 0.404834
O O4 0.158361 0.703800 0.541849
O O5 0.751890 0.699736 0.277220
O O6 0.913685 0.486082 0.313888
O O7 0.014942 0.919619 0.367101
O O8 0.295456 0.557857 0.979043
O O9 0.750459 0.707009 0.940779
O O10 0.497660 0.791420 0.083927
O O11 0.500000 0.000000 0.000000
O O12 0.690446 0.697985 0.158415
O O13 0.927895 0.911888 0.064851
O O14 0.904234 0.816108 0.696970
O O15 0.071040 0.184320 0.176391
O O16 0.804651 0.336532 0.149402
O O17 0.379321 0.462431 0.237820
#
# Coordination Sequence:
#
# PCOD9060154 Si02
#       8
#     2   2   2   2   2   2   2   2
#     4  11  23  43  66  96 134 170 225 274 327 391
#     4  11  24  43  68  97 130 177 221 270 337 390
#     4  11  25  45  69 102 135 171 224 273 322 399
#     4  11  24  43  70  98 130 178 217 267 336 387
#     4  11  24  42  67  95 132 177 215 277 328 390
#     4  11  25  44  69  95 134 175 214 278 330 384
#     4  11  23  45  65  97 136 167 224 274 320 402
#     4  11  24  45  67  98 135 171 225 273 326 399
#
# _framework density 22.970372000000001
#
# number of rings (size 3 to 8) (size 9 to 14) (size 15 to 20)
#    0.000    1.000    3.750    2.250    0.000    5.500 
#    0.000    0.000    0.000    0.000    0.000    0.000 
#    0.000    0.000    0.000    0.000    0.000    0.000 
#
# Total GULP energy -89439.723796 kJ/mol
# GULP energy per Si atom -5589.982737 kJ/mol
# Density = 2.291809 g / cm^3
# Si number density = 22.970372 Si / 1000 Ang^3
#
#
#
# Elastic Constant Matrix: (Units=GPa)
#
#
# Indices 1 2 3 4 5 6 
#
# 1 65.0590 18.3191 17.3170 -3.8481 0.7945 1.8192
# 2 18.3191 116.7411 24.0073 -14.6781 13.1288 16.9635
# 3 17.3170 24.0073 63.6147 -18.0004 7.7067 -4.4592
# 4 -3.8481 -14.6781 -18.0004 35.3700 3.1637 8.1599
# 5 0.7945 13.1288 7.7067 3.1637 33.9751 -7.8085
# 6 1.8192 16.9635 -4.4592 8.1599 -7.8085 43.0921
#
#
#
# Elastic Compliance Matrix: (Units=1/GPa)
#
#
# Indices 1 2 3 4 5 6 
#
# 1 0.017045 -0.002178 -0.004427 -0.001511 0.001649 0.000265
# 2 -0.002178 0.011741 -0.001932 0.005809 -0.006186 -0.006951
# 3 -0.004427 -0.001932 0.021010 0.009734 -0.004725 0.000422
# 4 -0.001511 0.005809 0.009734 0.038819 -0.010436 -0.010457
# 5 0.001649 -0.006186 -0.004725 -0.010436 0.036223 0.010417
# 6 0.000265 -0.006951 0.000422 -0.010457 0.010417 0.029843
#
#
# Mechanical properties :
#
#
# Convention : Reuss Voigt Hill
#
# Bulk Modulus (GPa) = 30.55963 40.52238 35.54100
# Shear Modulus (GPa) = 27.37281 34.87222 31.12251
#
# Velocity S-wave (km/s) = 3.45578 3.90056 3.68489
# Velocity P-wave (km/s) = 5.40889 6.16159 5.79747
#
# Compressibility (1/GPa) = 0.03272290
#
# Stress axis : x y z
#
# Youngs Moduli (GPa) = 58.66691 85.16959 47.59588
#
# Poissons Ratio (x) = 0.18552 0.21069
# Poissons Ratio (y) = 0.12779 0.09196
# Poissons Ratio (z) = 0.25970 0.16455
#
# Static dielectric constant tensor:
#      x y z
#    x 1.883750 -0.009470 0.023450 
#    y -0.009470 1.848550 0.011710 
#    z 0.023450 0.011710 1.877150 
# 
# From -- ./inp_files/603361.got.cif
#   From: 2010.05.17/outbox.cif.g08.bks.cpg/sg2_302_cif.got.tgz:603361.got - 2010.06.03 11:33:40.
