data_PCOD9060575
_publ_section_title
;
Structure prediction by ZEFSAII (Michael W. Deem and Ramdas Pophale) SiO2 
 PCOD9060575
Probable space group: P -1
;
_chemical_formula_sum "Si O2"
_cell_formula_units_Z 12
_cell_length_a 5.039759
_cell_length_b 9.867247
_cell_length_c 10.001105
_cell_angle_alpha 70.029801
_cell_angle_beta 98.040695
_cell_angle_gamma 109.827299
_cell_volume 439.563125
_symmetry_space_group_name_H-M "P -1"
_symmetry_group_IT_number 2
_symmetry_cell_setting 'triclinic'
loop_
_space_group_symop_operation_xyz
x,y,z
-x,-y,-z
loop_
_atom_site_type_symbol
_atom_site_label
_atom_site_fract_x
_atom_site_fract_y
_atom_site_fract_z
Si Si1 0.265800 0.644595 0.929374
Si Si2 0.729832 0.766175 0.148207
Si Si3 0.718736 0.447380 0.330378
Si Si4 0.936385 0.087220 0.120826
Si Si5 0.251004 0.011797 0.379385
Si Si6 0.153301 0.273418 0.462464
O O1 0.386286 0.604120 0.811543
O O2 0.159849 0.788527 0.848897
O O3 0.477211 0.689022 0.053574
O O4 0.000000 0.500000 0.000000
O O5 0.760605 0.624993 0.281349
O O6 0.997490 0.840989 0.045541
O O7 0.707826 0.919476 0.163890
O O8 0.486262 0.359535 0.451225
O O9 0.998544 0.397899 0.378710
O O10 0.227867 0.071113 0.207405
O O11 0.048198 0.839752 0.408032
O O12 0.500000 0.000000 0.500000
O O13 0.138361 0.135767 0.404225
#
# Coordination Sequence:
#
# PCOD9060575 Si02
#       6
#     2   2   2   2   2   2
#     4  12  23  41  72 106 142 189 239 294 357 436
#     4  11  26  42  71 104 151 185 226 301 379 428
#     4  12  23  43  72 108 141 182 245 296 354 434
#     4  11  25  47  66 107 146 188 234 299 369 432
#     4  11  23  43  73 103 141 190 246 299 351 422
#     4  11  24  41  73 104 137 183 246 300 346 417
#
# _framework density 27.299835999999999
#
# number of rings (size 3 to 8) (size 9 to 14) (size 15 to 20)
#    0.000    0.667    5.000    3.000    0.000    0.000 
#    0.000    1.667    0.000    0.000    0.000    0.000 
#    0.000    0.000    0.000    0.000    0.000    0.000 
#
# Total GULP energy -67037.788554 kJ/mol
# GULP energy per Si atom -5586.482379 kJ/mol
# Density = 2.723770 g / cm^3
# Si number density = 27.299836 Si / 1000 Ang^3
#
#
#
# Elastic Constant Matrix: (Units=GPa)
#
#
# Indices 1 2 3 4 5 6 
#
# 1 123.8333 55.1112 32.2203 -14.3413 22.2184 -5.9840
# 2 55.1112 220.5001 27.7671 -30.6331 9.1706 0.6921
# 3 32.2203 27.7671 62.0415 -25.2191 7.0675 -6.9607
# 4 -14.3413 -30.6331 -25.2191 42.4857 4.8087 13.0445
# 5 22.2184 9.1706 7.0675 4.8087 39.3915 -13.8365
# 6 -5.9840 0.6921 -6.9607 13.0445 -13.8365 36.0160
#
#
#
# Elastic Compliance Matrix: (Units=1/GPa)
#
#
# Indices 1 2 3 4 5 6 
#
# 1 0.011017 -0.001851 -0.003933 0.001171 -0.005758 -0.001530
# 2 -0.001851 0.005709 0.000212 0.004688 -0.001877 -0.002796
# 3 -0.003933 0.000212 0.024330 0.014879 -0.005184 -0.003336
# 4 0.001171 0.004688 0.014879 0.043946 -0.016566 -0.019301
# 5 -0.005758 -0.001877 -0.005184 -0.016566 0.038675 0.018935
# 6 -0.001530 -0.002796 -0.003336 -0.019301 0.018935 0.041185
#
#
# Mechanical properties :
#
#
# Convention : Reuss Voigt Hill
#
# Bulk Modulus (GPa) = 33.43047 70.73021 52.08034
# Shear Modulus (GPa) = 26.88500 42.99706 34.94103
#
# Velocity S-wave (km/s) = 3.14156 3.97292 3.58145
# Velocity P-wave (km/s) = 5.04296 6.85641 6.01838
#
# Compressibility (1/GPa) = 0.02991283
#
# Stress axis : x y z
#
# Youngs Moduli (GPa) = 90.76519 175.15135 41.10156
#
# Poissons Ratio (x) = 0.32428 0.16164
# Poissons Ratio (y) = 0.16805 -0.00872
# Poissons Ratio (z) = 0.35696 -0.03717
#
# Static dielectric constant tensor:
#      x y z
#    x 2.165330 -0.022590 -0.045550 
#    y -0.022590 2.256120 0.136730 
#    z -0.045550 0.136730 2.314020 
# 
# From -- ./inp_files/359759.got.cif
#   From: 2010.05.17/outbox.cif.g08.bks.cpg/sg2_180_cif.got.tgz:359759.got - 2010.06.03 11:33:40.
