data_PCOD9060747
_publ_section_title
;
Structure prediction by ZEFSAII (Michael W. Deem and Ramdas Pophale) SiO2 
 PCOD9060747
Probable space group: P -1
;
_chemical_formula_sum "Si O2"
_cell_formula_units_Z 14
_cell_length_a 14.529199
_cell_length_b 11.300948
_cell_length_c 6.941173
_cell_angle_alpha 94.938737
_cell_angle_beta 140.625939
_cell_angle_gamma 79.843855
_cell_volume 709.367849
_symmetry_space_group_name_H-M "P -1"
_symmetry_group_IT_number 2
_symmetry_cell_setting 'triclinic'
loop_
_space_group_symop_operation_xyz
x,y,z
-x,-y,-z
loop_
_atom_site_type_symbol
_atom_site_label
_atom_site_fract_x
_atom_site_fract_y
_atom_site_fract_z
Si Si1 0.344671 0.453852 0.247646
Si Si2 0.957708 0.126101 0.837564
Si Si3 0.414090 0.236392 0.623763
Si Si4 0.095288 0.684914 0.879187
Si Si5 0.748726 0.903186 0.923805
Si Si6 0.245439 0.840826 0.847822
Si Si7 0.756577 0.713558 0.249198
O O1 0.500000 0.500000 0.500000
O O2 0.353487 0.353643 0.414319
O O3 0.210385 0.562811 0.078345
O O4 0.314065 0.387622 0.990851
O O5 0.845654 0.244380 0.193410
O O6 0.910083 0.230214 0.930343
O O7 0.101692 0.146712 0.956578
O O8 0.000000 0.000000 0.000000
O O9 0.379837 0.122543 0.429392
O O10 0.588418 0.224772 0.926906
O O11 0.330542 0.246222 0.691672
O O12 0.928796 0.667609 0.565008
O O13 0.166518 0.878718 0.523645
O O14 0.750489 0.040374 0.001535
O O15 0.744885 0.826644 0.101088
#
# Coordination Sequence:
#
# PCOD9060747 Si02
#       7
#     2   2   2   2   2   2   2
#     4  11  26  46  70  98 135 172 231 284 323 394
#     4  12  24  41  71 102 134 177 227 268 329 406
#     4  11  26  45  68 100 135 180 221 277 335 396
#     4  12  24  45  70 100 135 180 223 272 334 395
#     4  11  23  44  66 102 138 173 222 277 327 405
#     4  12  25  41  72 100 138 180 217 271 341 392
#     4  11  25  45  69  95 140 175 223 276 335 394
#
# _framework density 19.735882
#
# number of rings (size 3 to 8) (size 9 to 14) (size 15 to 20)
#    0.000    0.571    5.714    2.143    2.000    2.857 
#    0.000    0.000    0.000    0.000    0.000    0.000 
#    0.000    0.000    0.000    0.000    0.000    0.000 
#
# Total GULP energy -78335.722618 kJ/mol
# GULP energy per Si atom -5595.408758 kJ/mol
# Density = 1.969096 g / cm^3
# Si number density = 19.735882 Si / 1000 Ang^3
#
#
#
# Elastic Constant Matrix: (Units=GPa)
#
#
# Indices 1 2 3 4 5 6 
#
# 1 120.3045 18.3616 74.8525 -0.2865 -1.5786 -4.4170
# 2 18.3616 76.2396 42.1290 2.7073 -5.9797 -4.3090
# 3 74.8525 42.1290 128.7355 8.4632 -4.6995 -3.9958
# 4 -0.2865 2.7073 8.4632 25.7476 4.7083 8.2811
# 5 -1.5786 -5.9797 -4.6995 4.7083 37.4801 -1.0091
# 6 -4.4170 -4.3090 -3.9958 8.2811 -1.0091 25.2908
#
#
#
# Elastic Compliance Matrix: (Units=1/GPa)
#
#
# Indices 1 2 3 4 5 6 
#
# 1 0.013332 0.001282 -0.008369 0.002786 -0.000626 0.000287
# 2 0.001282 0.016407 -0.005897 -0.000960 0.002120 0.002487
# 3 -0.008369 -0.005897 0.015001 -0.005168 0.001281 0.001647
# 4 0.002786 -0.000960 -0.005168 0.047175 -0.007047 -0.016221
# 5 -0.000626 0.002120 0.001281 -0.007047 0.028143 0.003885
# 6 0.000287 0.002487 0.001647 -0.016221 0.003885 0.045741
#
#
# Mechanical properties :
#
#
# Convention : Reuss Voigt Hill
#
# Bulk Modulus (GPa) = 53.26723 66.21843 59.74283
# Shear Modulus (GPa) = 25.24933 30.36613 27.80773
#
# Velocity S-wave (km/s) = 3.58070 3.92679 3.75773
# Velocity P-wave (km/s) = 6.64408 7.36102 7.01172
#
# Compressibility (1/GPa) = 0.01877327
#
# Stress axis : x y z
#
# Youngs Moduli (GPa) = 75.00477 60.94851 66.66163
#
# Poissons Ratio (x) = -0.07811 0.55786
# Poissons Ratio (y) = -0.09613 0.39309
# Poissons Ratio (z) = 0.62768 0.35940
#
# Static dielectric constant tensor:
#      x y z
#    x 1.659810 0.013630 0.012950 
#    y 0.013630 1.679290 0.010400 
#    z 0.012950 0.010400 1.683180 
# 
# From -- ./inp_files/70809.got.cif
#   From: 2010.05.17/outbox.cif.g08.bks.cpg/sg2_36_cif.got.tgz:70809.got - 2010.06.03 11:33:40.
