data_PCOD9060113
_publ_section_title
;
Structure prediction by ZEFSAII (Michael W. Deem and Ramdas Pophale) SiO2 
 PCOD9060113
Probable space group: P -1
;
_chemical_formula_sum "Si O2"
_cell_formula_units_Z 16
_cell_length_a 14.456527
_cell_length_b 15.625971
_cell_length_c 7.945165
_cell_angle_alpha 30.523489
_cell_angle_beta 123.532207
_cell_angle_gamma 125.445092
_cell_volume 736.539094
_symmetry_space_group_name_H-M "P -1"
_symmetry_group_IT_number 2
_symmetry_cell_setting 'triclinic'
loop_
_space_group_symop_operation_xyz
x,y,z
-x,-y,-z
loop_
_atom_site_type_symbol
_atom_site_label
_atom_site_fract_x
_atom_site_fract_y
_atom_site_fract_z
Si Si1 0.268542 0.178030 0.202321
Si Si2 0.037949 0.175316 0.847183
Si Si3 0.193646 0.488038 0.258659
Si Si4 0.624322 0.988977 0.707880
Si Si5 0.175326 0.681373 0.574505
Si Si6 0.293119 0.577519 0.558446
Si Si7 0.404044 0.358356 0.548239
Si Si8 0.531820 0.817943 0.379775
O O1 0.304501 0.093491 0.214700
O O2 0.344670 0.114937 0.522707
O O3 0.132085 0.145443 0.126593
O O4 0.311858 0.385517 0.884052
O O5 0.103245 0.332218 0.524107
O O6 0.928182 0.229545 0.717360
O O7 0.000000 0.000000 0.000000
O O8 0.251766 0.610112 0.269532
O O9 0.287702 0.405109 0.402094
O O10 0.149929 0.582204 0.897456
O O11 0.500000 0.000000 0.500000
O O12 0.707651 0.171520 0.527015
O O13 0.599408 0.841930 0.073834
O O14 0.199259 0.575694 0.613475
O O15 0.408352 0.712130 0.504853
O O16 0.500000 0.500000 0.500000
O O17 0.440745 0.347132 0.414515
O O18 0.500000 0.000000 0.000000
#
# Coordination Sequence:
#
# PCOD9060113 Si02
#       8
#     2   2   2   2   2   2   2   2
#     4  11  23  43  65  93 137 181 224 279 349 403
#     4  11  23  47  73  98 138 187 237 286 344 423
#     4  11  24  43  72 104 136 183 238 286 348 424
#     4  12  23  40  66 101 134 181 230 280 357 418
#     4  12  25  44  73 101 138 187 235 289 351 408
#     4  11  24  45  67 102 143 178 231 289 349 422
#     4  12  21  42  66  96 143 182 224 283 361 422
#     4  12  25  39  66 106 141 174 231 295 347 418
#
# _framework density 21.723220000000001
#
# number of rings (size 3 to 8) (size 9 to 14) (size 15 to 20)
#    0.000    0.500    5.000    4.500    1.750    2.000 
#    0.000    1.250    0.000    9.000    0.000    0.000 
#    0.000    0.000    0.000    0.000    0.000    0.000 
#
# Total GULP energy -89158.187756 kJ/mol
# GULP energy per Si atom -5572.386735 kJ/mol
# Density = 2.167378 g / cm^3
# Si number density = 21.723220 Si / 1000 Ang^3
#
#
#
# Elastic Constant Matrix: (Units=GPa)
#
#
# Indices 1 2 3 4 5 6 
#
# 1 96.6806 37.7498 3.8154 3.2863 26.6519 -6.4015
# 2 37.7498 91.6174 39.5646 4.1287 13.1160 4.9808
# 3 3.8154 39.5646 60.8123 13.0556 18.3996 3.0158
# 4 3.2863 4.1287 13.0556 44.7617 11.2911 8.7437
# 5 26.6519 13.1160 18.3996 11.2911 30.0853 -6.4401
# 6 -6.4015 4.9808 3.0158 8.7437 -6.4401 47.9503
#
#
#
# Elastic Compliance Matrix: (Units=1/GPa)
#
#
# Indices 1 2 3 4 5 6 
#
# 1 0.019196 -0.009841 0.010936 0.001334 -0.019908 -0.000020
# 2 -0.009841 0.020483 -0.015481 0.001571 0.008316 -0.001637
# 3 0.010936 -0.015481 0.033384 -0.003150 -0.022490 -0.001478
# 4 0.001334 0.001571 -0.003150 0.027135 -0.011467 -0.006275
# 5 -0.019908 0.008316 -0.022490 -0.011467 0.067238 0.009014
# 6 -0.000020 -0.001637 -0.001478 -0.006275 0.009014 0.023470
#
#
# Mechanical properties :
#
#
# Convention : Reuss Voigt Hill
#
# Bulk Modulus (GPa) = 22.57772 45.70777 34.14274
# Shear Modulus (GPa) = 21.32729 35.75817 28.54273
#
# Velocity S-wave (km/s) = 3.13673 4.06159 3.62875
# Velocity P-wave (km/s) = 4.85125 6.56369 5.77134
#
# Compressibility (1/GPa) = 0.04429146
#
# Stress axis : x y z
#
# Youngs Moduli (GPa) = 52.09479 48.82098 29.95414
#
# Poissons Ratio (x) = 0.48046 -0.32759
# Poissons Ratio (y) = 0.51268 0.46372
# Poissons Ratio (z) = -0.56973 0.75580
#
# Static dielectric constant tensor:
#      x y z
#    x 1.768580 0.026270 0.033690 
#    y 0.026270 1.669670 -0.001190 
#    z 0.033690 -0.001190 1.724030 
# 
# From -- ./inp_files/314414.got.cif
#   From: 2010.05.17/outbox.cif.g08.bks.cpg/sg2_158_cif.got.tgz:314414.got - 2010.06.03 11:33:40.
