data_PCOD9060190
_publ_section_title
;
Structure prediction by ZEFSAII (Michael W. Deem and Ramdas Pophale) SiO2 
 PCOD9060190
Probable space group: P -1
;
_chemical_formula_sum "Si O2"
_cell_formula_units_Z 10
_cell_length_a 17.417731
_cell_length_b 4.761165
_cell_length_c 13.489550
_cell_angle_alpha 81.339521
_cell_angle_beta 157.277866
_cell_angle_gamma 105.176493
_cell_volume 404.444078
_symmetry_space_group_name_H-M "P -1"
_symmetry_group_IT_number 2
_symmetry_cell_setting 'triclinic'
loop_
_space_group_symop_operation_xyz
x,y,z
-x,-y,-z
loop_
_atom_site_type_symbol
_atom_site_label
_atom_site_fract_x
_atom_site_fract_y
_atom_site_fract_z
Si Si1 0.141572 0.780537 0.589127
Si Si2 0.885346 0.752009 0.095247
Si Si3 0.476099 0.245837 0.089181
Si Si4 0.037546 0.356181 0.154194
Si Si5 0.482176 0.293547 0.724845
O O1 0.326440 0.710400 0.750313
O O2 0.000000 0.500000 0.500000
O O3 0.995940 0.858241 0.327384
O O4 0.264104 0.059750 0.789709
O O5 0.024260 0.584961 0.211714
O O6 0.873265 0.033056 0.002880
O O7 0.664041 0.503093 0.863170
O O8 0.484260 0.554386 0.133885
O O9 0.497122 0.030821 0.216094
O O10 0.257895 0.293666 0.421020
O O11 0.000000 0.500000 0.000000
#
# Coordination Sequence:
#
# PCOD9060190 Si02
#       5
#     2   2   2   2   2
#     4  11  23  43  67 106 139 183 221 267 337 413
#     4  12  26  45  72 103 137 178 229 278 340 409
#     4  11  25  41  67 100 143 182 218 273 332 407
#     4  12  27  49  72  98 135 179 232 293 341 389
#     4  12  24  46  69 100 138 179 228 280 336 405
#
# _framework density 24.725294999999999
#
# number of rings (size 3 to 8) (size 9 to 14) (size 15 to 20)
#    0.000    0.400    6.000    1.800    0.000    7.200 
#    0.000    0.000    0.000    0.000    0.000    0.000 
#    0.000    0.000    0.000    0.000    0.000    0.000 
#
# Total GULP energy -56147.058280 kJ/mol
# GULP energy per Si atom -5614.705828 kJ/mol
# Density = 2.466902 g / cm^3
# Si number density = 24.725295 Si / 1000 Ang^3
#
#
#
# Elastic Constant Matrix: (Units=GPa)
#
#
# Indices 1 2 3 4 5 6 
#
# 1 86.8818 33.5520 43.1348 -3.8144 10.5652 40.2208
# 2 33.5520 120.6644 14.5309 -9.1098 4.7983 40.9461
# 3 43.1348 14.5309 67.1253 2.0502 10.5065 24.1109
# 4 -3.8144 -9.1098 2.0502 36.2949 15.3251 -0.0489
# 5 10.5652 4.7983 10.5065 15.3251 29.5685 1.2626
# 6 40.2208 40.9461 24.1109 -0.0489 1.2626 62.8635
#
#
#
# Elastic Compliance Matrix: (Units=1/GPa)
#
#
# Indices 1 2 3 4 5 6 
#
# 1 0.022304 -0.001052 -0.009723 0.005473 -0.006766 -0.009716
# 2 -0.001052 0.011308 0.001239 0.004253 -0.003801 -0.007088
# 3 -0.009723 0.001239 0.022766 -0.000033 -0.004661 -0.003224
# 4 0.005473 0.004253 -0.000033 0.038657 -0.022423 -0.005779
# 5 -0.006766 -0.003801 -0.004661 -0.022423 0.049808 0.007575
# 6 -0.009716 -0.007088 -0.003224 -0.005779 0.007575 0.027821
#
#
# Mechanical properties :
#
#
# Convention : Reuss Voigt Hill
#
# Bulk Modulus (GPa) = 26.80483 50.78966 38.79725
# Shear Modulus (GPa) = 24.48904 37.97565 31.23235
#
# Velocity S-wave (km/s) = 3.15055 3.92331 3.55797
# Velocity P-wave (km/s) = 4.90909 6.41166 5.71001
#
# Compressibility (1/GPa) = 0.03730671
#
# Stress axis : x y z
#
# Youngs Moduli (GPa) = 44.83401 88.43066 43.92460
#
# Poissons Ratio (x) = 0.09301 0.42710
# Poissons Ratio (y) = 0.04716 -0.05442
# Poissons Ratio (z) = 0.43594 -0.10957
#
# Static dielectric constant tensor:
#      x y z
#    x 1.959690 -0.007180 0.015220 
#    y -0.007180 1.920210 -0.006320 
#    z 0.015220 -0.006320 1.954460 
# 
# From -- ./inp_files/372657.got.cif
#   From: 2010.05.17/outbox.cif.g08.bks.cpg/sg2_187_cif.got.tgz:372657.got - 2010.06.03 11:33:40.
