data_PCOD9060118
_publ_section_title
;
Structure prediction by ZEFSAII (Michael W. Deem and Ramdas Pophale) SiO2 
 PCOD9060118
Probable space group: P -1
;
_chemical_formula_sum "Si O2"
_cell_formula_units_Z 14
_cell_length_a 5.405338
_cell_length_b 7.075647
_cell_length_c 21.117907
_cell_angle_alpha 70.622431
_cell_angle_beta 123.393002
_cell_angle_gamma 90.647227
_cell_volume 620.914661
_symmetry_space_group_name_H-M "P -1"
_symmetry_group_IT_number 2
_symmetry_cell_setting 'triclinic'
loop_
_space_group_symop_operation_xyz
x,y,z
-x,-y,-z
loop_
_atom_site_type_symbol
_atom_site_label
_atom_site_fract_x
_atom_site_fract_y
_atom_site_fract_z
Si Si1 0.134943 0.956615 0.168162
Si Si2 0.183452 0.696018 0.705321
Si Si3 0.581051 0.738223 0.146198
Si Si4 0.214981 0.939452 0.322717
Si Si5 0.336583 0.475714 0.414273
Si Si6 0.682710 0.136836 0.418276
Si Si7 0.773394 0.367767 0.011779
O O1 0.373114 0.870552 0.156118
O O2 0.872802 0.826086 0.156361
O O3 0.294840 0.949309 0.259307
O O4 0.966393 0.186271 0.101313
O O5 0.317859 0.490042 0.784883
O O6 0.381262 0.776835 0.671655
O O7 0.064330 0.877513 0.718127
O O8 0.917336 0.650987 0.625914
O O9 0.376911 0.729282 0.056860
O O10 0.461353 0.976553 0.405025
O O11 0.174982 0.708729 0.349549
O O12 0.500000 0.500000 0.500000
O O13 0.607354 0.344114 0.424995
O O14 0.000000 0.000000 0.500000
O O15 0.500000 0.500000 0.000000
O O16 0.000000 0.500000 0.000000
#
# Coordination Sequence:
#
# PCOD9060118 Si02
#       7
#     2   2   2   2   2   2   2
#     4  12  26  46  73 105 142 190 235 290 352 420
#     4  11  25  42  67  97 137 180 236 291 351 423
#     4  12  26  46  73 104 144 185 241 287 349 427
#     4  11  25  42  67  98 136 183 235 288 358 417
#     4  11  23  43  65  95 135 177 234 291 355 420
#     4  11  25  41  65  98 134 182 236 297 352 424
#     4  12  26  46  74 107 146 187 234 290 351 419
#
# _framework density 22.547381000000001
#
# number of rings (size 3 to 8) (size 9 to 14) (size 15 to 20)
#    0.000    0.571    1.429    6.000    6.000    6.857 
#    0.000    0.000    0.000    0.000    0.000    0.000 
#    0.000    0.000    0.000    0.000    0.000    0.000 
#
# Total GULP energy -78194.991167 kJ/mol
# GULP energy per Si atom -5585.356512 kJ/mol
# Density = 2.249606 g / cm^3
# Si number density = 22.547381 Si / 1000 Ang^3
#
#
#
# Elastic Constant Matrix: (Units=GPa)
#
#
# Indices 1 2 3 4 5 6 
#
# 1 67.2782 31.9128 -16.3802 2.2716 -5.1460 -10.6512
# 2 31.9128 131.4872 3.0102 2.6700 -3.1676 -12.6764
# 3 -16.3802 3.0102 42.8145 8.1764 -4.6853 5.7606
# 4 2.2716 2.6700 8.1764 62.7825 -2.8126 -3.2303
# 5 -5.1460 -3.1676 -4.6853 -2.8126 30.5682 3.6218
# 6 -10.6512 -12.6764 5.7606 -3.2303 3.6218 52.5601
#
#
#
# Elastic Compliance Matrix: (Units=1/GPa)
#
#
# Indices 1 2 3 4 5 6 
#
# 1 0.019711 -0.004701 0.008328 -0.001345 0.003794 0.001604
# 2 -0.004701 0.008943 -0.002723 0.000204 -0.000447 0.001546
# 3 0.008328 -0.002723 0.028414 -0.003780 0.005446 -0.002691
# 4 -0.001345 0.000204 -0.003780 0.016547 0.000600 0.001167
# 5 0.003794 -0.000447 0.005446 0.000600 0.034465 -0.002274
# 6 0.001604 0.001546 -0.002691 0.001167 -0.002274 0.020247
#
#
# Mechanical properties :
#
#
# Convention : Reuss Voigt Hill
#
# Bulk Modulus (GPa) = 16.98531 30.96284 23.97407
# Shear Modulus (GPa) = 34.21256 44.05130 39.13193
#
# Velocity S-wave (km/s) = 3.89956 4.42489 4.17050
# Velocity P-wave (km/s) = 5.27494 6.31414 5.81779
#
# Compressibility (1/GPa) = 0.05887439
#
# Stress axis : x y z
#
# Youngs Moduli (GPa) = 50.73384 111.82168 35.19383
#
# Poissons Ratio (x) = 0.52570 -0.29309
# Poissons Ratio (y) = 0.23851 0.09584
# Poissons Ratio (z) = -0.42250 0.30451
#
# Static dielectric constant tensor:
#      x y z
#    x 2.002160 0.073870 0.022370 
#    y 0.073870 1.875680 0.041550 
#    z 0.022370 0.041550 1.822890 
# 
# From -- ./inp_files/6281.got.cif
#   From: 2010.05.17/outbox.cif.g08.bks.cpg/sg2_4_cif.got.tgz:6281.got - 2010.06.03 11:33:40.
