data_PCOD9060408
_publ_section_title
;
Structure prediction by ZEFSAII (Michael W. Deem and Ramdas Pophale) SiO2 
 PCOD9060408
Probable space group: P -1
;
_chemical_formula_sum "Si O2"
_cell_formula_units_Z 12
_cell_length_a 8.341195
_cell_length_b 7.408957
_cell_length_c 9.134721
_cell_angle_alpha 53.311147
_cell_angle_beta 100.390742
_cell_angle_gamma 102.871357
_cell_volume 440.503203
_symmetry_space_group_name_H-M "P -1"
_symmetry_group_IT_number 2
_symmetry_cell_setting 'triclinic'
loop_
_space_group_symop_operation_xyz
x,y,z
-x,-y,-z
loop_
_atom_site_type_symbol
_atom_site_label
_atom_site_fract_x
_atom_site_fract_y
_atom_site_fract_z
Si Si1 0.071810 0.310635 0.004253
Si Si2 0.930772 0.095220 0.591335
Si Si3 0.467583 0.915116 0.800585
Si Si4 0.725244 0.245827 0.862190
Si Si5 0.334146 0.594828 0.703194
Si Si6 0.720254 0.669458 0.453997
O O1 0.913078 0.209757 0.931785
O O2 0.118157 0.119292 0.211000
O O3 0.000000 0.500000 0.000000
O O4 0.221701 0.427203 0.875376
O O5 0.785373 0.237357 0.464041
O O6 0.091874 0.252988 0.604634
O O7 0.000000 0.000000 0.500000
O O8 0.626178 0.056591 0.832736
O O9 0.361061 0.107750 0.633411
O O10 0.364890 0.783421 0.981326
O O11 0.526371 0.258057 0.247908
O O12 0.730210 0.492045 0.670890
O O13 0.379259 0.452593 0.641015
#
# Coordination Sequence:
#
# PCOD9060408 Si02
#       6
#     2   2   2   2   2   2
#     4  12  21  40  70  98 127 174 214 266 327 383
#     4  12  21  39  67  96 131 166 212 268 323 375
#     4  11  25  46  67  93 133 177 214 266 324 388
#     4  11  23  43  70  93 132 175 217 264 325 388
#     4  12  26  41  69 101 130 168 220 269 326 385
#     4  12  24  43  67 100 130 170 221 267 324 385
#
# _framework density 27.241571
#
# number of rings (size 3 to 8) (size 9 to 14) (size 15 to 20)
#    0.000    0.333    8.333    1.000    0.000    2.667 
#    0.000    3.333    0.000    0.000    0.000    0.000 
#    0.000    0.000    0.000    0.000    0.000    0.000 
#
# Total GULP energy -67505.627622 kJ/mol
# GULP energy per Si atom -5625.468968 kJ/mol
# Density = 2.717957 g / cm^3
# Si number density = 27.241571 Si / 1000 Ang^3
#
#
#
# Elastic Constant Matrix: (Units=GPa)
#
#
# Indices 1 2 3 4 5 6 
#
# 1 76.6672 34.9011 34.1891 -0.6269 4.2797 15.3174
# 2 34.9011 151.2698 30.2191 7.9879 1.7213 18.0213
# 3 34.1891 30.2191 250.3707 -17.9136 -27.1845 -4.7677
# 4 -0.6269 7.9879 -17.9136 32.6677 2.1840 2.7653
# 5 4.2797 1.7213 -27.1845 2.1840 34.8800 9.0294
# 6 15.3174 18.0213 -4.7677 2.7653 9.0294 59.3657
#
#
#
# Elastic Compliance Matrix: (Units=1/GPa)
#
#
# Indices 1 2 3 4 5 6 
#
# 1 0.016103 -0.002898 -0.002189 0.000260 -0.002768 -0.003042
# 2 -0.002898 0.007727 -0.000731 -0.002211 -0.000057 -0.001545
# 3 -0.002189 -0.000731 0.005000 0.002576 0.003918 0.000472
# 4 0.000260 -0.002211 0.002576 0.032617 0.000236 -0.000744
# 5 -0.002768 -0.000057 0.003918 0.000236 0.033086 -0.003997
# 6 -0.003042 -0.001545 0.000472 -0.000744 -0.003997 0.018779
#
#
# Mechanical properties :
#
#
# Convention : Reuss Voigt Hill
#
# Bulk Modulus (GPa) = 58.15741 75.21403 66.68572
# Shear Modulus (GPa) = 38.26192 50.64923 44.45557
#
# Velocity S-wave (km/s) = 3.75179 4.31659 4.04406
# Velocity P-wave (km/s) = 6.33743 7.24665 6.80724
#
# Compressibility (1/GPa) = 0.01719471
#
# Stress axis : x y z
#
# Youngs Moduli (GPa) = 62.09965 129.42114 200.00342
#
# Poissons Ratio (x) = 0.37504 0.43781
# Poissons Ratio (y) = 0.17995 0.14614
# Poissons Ratio (z) = 0.13594 0.09456
#
# Static dielectric constant tensor:
#      x y z
#    x 2.136500 0.040280 -0.012430 
#    y 0.040280 2.149560 0.007650 
#    z -0.012430 0.007650 2.040080 
# 
# From -- ./inp_files/380881.got.cif
#   From: 2010.05.17/outbox.cif.g08.bks.cpg/sg2_191_cif.got.tgz:380881.got - 2010.06.03 11:33:40.
