data_PCOD9060648
_publ_section_title
;
Structure prediction by ZEFSAII (Michael W. Deem and Ramdas Pophale) SiO2 
 PCOD9060648
Probable space group: P -1
;
_chemical_formula_sum "Si O2"
_cell_formula_units_Z 14
_cell_length_a 14.537431
_cell_length_b 11.500661
_cell_length_c 6.372134
_cell_angle_alpha 128.496400
_cell_angle_beta 121.797122
_cell_angle_gamma 47.373565
_cell_volume 603.138974
_symmetry_space_group_name_H-M "P -1"
_symmetry_group_IT_number 2
_symmetry_cell_setting 'triclinic'
loop_
_space_group_symop_operation_xyz
x,y,z
-x,-y,-z
loop_
_atom_site_type_symbol
_atom_site_label
_atom_site_fract_x
_atom_site_fract_y
_atom_site_fract_z
Si Si1 0.380779 0.811549 0.235099
Si Si2 0.086987 0.081134 0.242645
Si Si3 0.265734 0.422478 0.032648
Si Si4 0.424079 0.137894 0.245785
Si Si5 0.060188 0.603276 0.291051
Si Si6 0.516911 0.544152 0.802060
Si Si7 0.185479 0.290191 0.406048
O O1 0.467785 0.885625 0.490829
O O2 0.456860 0.623800 0.228650
O O3 0.235695 0.929047 0.261677
O O4 0.401888 0.737563 0.941547
O O5 0.093884 0.213174 0.229997
O O6 0.031684 0.202887 0.518792
O O7 0.000000 0.000000 0.000000
O O8 0.350667 0.310057 0.205615
O O9 0.154301 0.589933 0.205839
O O10 0.354086 0.454296 0.024170
O O11 0.218422 0.320155 0.716091
O O12 0.309340 0.154195 0.266564
O O13 0.500000 0.000000 0.000000
O O14 0.129307 0.476381 0.432579
O O15 0.000000 0.500000 0.000000
O O16 0.500000 0.500000 0.500000
#
# Coordination Sequence:
#
# PCOD9060648 Si02
#       7
#     2   2   2   2   2   2   2
#     4  11  26  44  70 107 146 179 244 298 363 433
#     4  12  29  47  70 106 151 192 241 301 354 425
#     4  11  23  43  75 100 136 188 242 287 360 437
#     4  11  24  41  71 108 138 173 240 305 359 427
#     4  11  26  48  73 103 139 196 252 282 348 447
#     4  11  24  44  72 104 141 191 226 298 381 427
#     4  11  25  47  77 101 142 194 239 299 366 422
#
# _framework density 23.211898000000001
#
# number of rings (size 3 to 8) (size 9 to 14) (size 15 to 20)
#    0.000    0.857    4.286    1.286    8.000    1.143 
#    0.000    1.429    0.000    0.000    0.000    0.000 
#    0.000    0.000    0.000    0.000    0.000    0.000 
#
# Total GULP energy -78125.394551 kJ/mol
# GULP energy per Si atom -5580.385325 kJ/mol
# Density = 2.315907 g / cm^3
# Si number density = 23.211898 Si / 1000 Ang^3
#
#
#
# Elastic Constant Matrix: (Units=GPa)
#
#
# Indices 1 2 3 4 5 6 
#
# 1 143.2257 18.6050 53.2682 33.1420 -7.5136 -28.6970
# 2 18.6050 60.1330 42.8946 15.0024 -15.9475 -28.2400
# 3 53.2682 42.8946 145.1850 30.9706 -11.5910 -33.1037
# 4 33.1420 15.0024 30.9706 42.5212 -15.9351 -16.1582
# 5 -7.5136 -15.9475 -11.5910 -15.9351 47.2182 16.2289
# 6 -28.6970 -28.2400 -33.1037 -16.1582 16.2289 46.4180
#
#
#
# Elastic Compliance Matrix: (Units=1/GPa)
#
#
# Indices 1 2 3 4 5 6 
#
# 1 0.009531 0.001170 -0.001886 -0.005654 -0.001808 0.003923
# 2 0.001170 0.026594 -0.005178 -0.000719 0.003637 0.011689
# 3 -0.001886 -0.005178 0.010342 -0.003995 -0.001628 0.002238
# 4 -0.005654 -0.000719 -0.003995 0.035364 0.008992 0.002384
# 5 -0.001808 0.003637 -0.001628 0.008992 0.026938 -0.006354
# 6 0.003923 0.011689 0.002238 0.002384 -0.006354 0.035727
#
#
# Mechanical properties :
#
#
# Convention : Reuss Voigt Hill
#
# Bulk Modulus (GPa) = 28.83506 64.23102 46.53304
# Shear Modulus (GPa) = 29.78953 42.81653 36.30303
#
# Velocity S-wave (km/s) = 3.58631 4.29953 3.95901
# Velocity P-wave (km/s) = 5.44043 7.23738 6.40226
#
# Compressibility (1/GPa) = 0.03468000
#
# Stress axis : x y z
#
# Youngs Moduli (GPa) = 104.91943 37.60190 96.69154
#
# Poissons Ratio (x) = -0.04400 0.18240
# Poissons Ratio (y) = -0.12278 0.50064
# Poissons Ratio (z) = 0.19792 0.19469
#
# Static dielectric constant tensor:
#      x y z
#    x 2.080260 0.022440 -0.094390 
#    y 0.022440 2.001800 -0.001070 
#    z -0.094390 -0.001070 2.038530 
# 
# From -- ./inp_files/37034.got.cif
#   From: 2010.05.17/outbox.cif.g08.bks.cpg/sg2_19_cif.got.tgz:37034.got - 2010.06.03 11:33:40.
