data_PCOD9060391
_publ_section_title
;
Structure prediction by ZEFSAII (Michael W. Deem and Ramdas Pophale) SiO2 
 PCOD9060391
Probable space group: P -1
;
_chemical_formula_sum "Si O2"
_cell_formula_units_Z 16
_cell_length_a 12.120456
_cell_length_b 25.327860
_cell_length_c 5.748800
_cell_angle_alpha 116.471917
_cell_angle_beta 95.114218
_cell_angle_gamma 32.526832
_cell_volume 682.301863
_symmetry_space_group_name_H-M "P -1"
_symmetry_group_IT_number 2
_symmetry_cell_setting 'triclinic'
loop_
_space_group_symop_operation_xyz
x,y,z
-x,-y,-z
loop_
_atom_site_type_symbol
_atom_site_label
_atom_site_fract_x
_atom_site_fract_y
_atom_site_fract_z
Si Si1 0.967477 0.894572 0.710261
Si Si2 0.919729 0.341065 0.193172
Si Si3 0.540726 0.142125 0.434459
Si Si4 0.246637 0.845559 0.325452
Si Si5 0.789270 0.347019 0.688026
Si Si6 0.151838 0.400758 0.619809
Si Si7 0.482228 0.078508 0.688330
Si Si8 0.665941 0.585799 0.607146
O O1 0.141439 0.859680 0.551674
O O2 0.135769 0.757195 0.532099
O O3 0.733371 0.983685 0.677295
O O4 0.817657 0.995323 0.094101
O O5 0.843211 0.349707 0.447119
O O6 0.729950 0.486779 0.391181
O O7 0.923478 0.303343 0.872599
O O8 0.214998 0.216557 0.037379
O O9 0.554837 0.195902 0.688048
O O10 0.337793 0.257901 0.431907
O O11 0.461583 0.124466 0.535225
O O12 0.401530 0.724297 0.961787
O O13 0.000000 0.000000 0.500000
O O14 0.500000 0.500000 0.000000
O O15 0.329783 0.370038 0.515503
O O16 0.923996 0.485383 0.584926
O O17 0.000000 0.500000 0.000000
O O18 0.500000 0.000000 0.500000
#
# Coordination Sequence:
#
# PCOD9060391 Si02
#       8
#     2   2   2   2   2   2   2   2
#     4  12  27  47  75 105 152 197 255 313 378 453
#     4  12  28  48  81 112 154 199 257 313 383 451
#     4  12  26  45  77 104 149 195 251 312 378 454
#     4  12  25  47  70 106 147 197 246 308 378 450
#     4  12  29  52  78 113 152 203 256 312 378 457
#     4  11  23  43  70 105 144 192 249 308 381 449
#     4  12  26  48  75 110 149 195 252 317 376 450
#     4  11  26  43  70 106 149 191 247 315 377 454
#
# _framework density 23.450030000000002
#
# number of rings (size 3 to 8) (size 9 to 14) (size 15 to 20)
#    0.000    0.250    3.750    4.500    7.000    3.000 
#    0.000    0.000    0.000    0.000    0.000    0.000 
#    0.000    0.000    0.000    0.000    0.000    0.000 
#
# Total GULP energy -89393.037172 kJ/mol
# GULP energy per Si atom -5587.064823 kJ/mol
# Density = 2.339666 g / cm^3
# Si number density = 23.450030 Si / 1000 Ang^3
#
#
#
# Elastic Constant Matrix: (Units=GPa)
#
#
# Indices 1 2 3 4 5 6 
#
# 1 97.7477 50.7165 41.8839 -7.3108 0.5328 42.2739
# 2 50.7165 121.0095 39.0358 22.4660 -8.3276 30.9422
# 3 41.8839 39.0358 137.9392 19.5595 -15.5603 39.5626
# 4 -7.3108 22.4660 19.5595 53.6295 7.8757 -2.0457
# 5 0.5328 -8.3276 -15.5603 7.8757 58.1484 -3.0501
# 6 42.2739 30.9422 39.5626 -2.0457 -3.0501 53.0501
#
#
#
# Elastic Compliance Matrix: (Units=1/GPa)
#
#
# Indices 1 2 3 4 5 6 
#
# 1 0.019172 -0.006071 -0.002508 0.006148 -0.003063 -0.009805
# 2 -0.006071 0.012959 0.000358 -0.006913 0.002781 -0.003094
# 3 -0.002508 0.000358 0.010824 -0.005170 0.003341 -0.006289
# 4 0.006148 -0.006913 -0.005170 0.025235 -0.005657 0.003637
# 5 -0.003063 0.002781 0.003341 -0.005657 0.019243 -0.000784
# 6 -0.009805 -0.003094 -0.006289 0.003637 -0.000784 0.033253
#
#
# Mechanical properties :
#
#
# Convention : Reuss Voigt Hill
#
# Bulk Modulus (GPa) = 37.72052 68.88543 53.30298
# Shear Modulus (GPa) = 34.25429 47.96962 41.11196
#
# Velocity S-wave (km/s) = 3.82610 4.52775 4.19163
# Velocity P-wave (km/s) = 5.96985 7.53480 6.79751
#
# Compressibility (1/GPa) = 0.02651077
#
# Stress axis : x y z
#
# Youngs Moduli (GPa) = 52.15872 77.16688 92.38993
#
# Poissons Ratio (x) = 0.46849 0.23176
# Poissons Ratio (y) = 0.31666 -0.03303
# Poissons Ratio (z) = 0.13084 -0.02759
#
# Static dielectric constant tensor:
#      x y z
#    x 1.908390 -0.083360 0.049290 
#    y -0.083360 1.999240 -0.084680 
#    z 0.049290 -0.084680 1.859570 
# 
# From -- ./inp_files/84428.got.cif
#   From: 2010.05.17/outbox.cif.g08.bks.cpg/sg2_43_cif.got.tgz:84428.got - 2010.06.03 11:33:40.
