data_PCOD9060453
_publ_section_title
;
Structure prediction by ZEFSAII (Michael W. Deem and Ramdas Pophale) SiO2 
 PCOD9060453
Probable space group: P -1
;
_chemical_formula_sum "Si O2"
_cell_formula_units_Z 14
_cell_length_a 10.885301
_cell_length_b 6.798892
_cell_length_c 10.302206
_cell_angle_alpha 79.928991
_cell_angle_beta 58.808576
_cell_angle_gamma 72.252369
_cell_volume 621.051954
_symmetry_space_group_name_H-M "P -1"
_symmetry_group_IT_number 2
_symmetry_cell_setting 'triclinic'
loop_
_space_group_symop_operation_xyz
x,y,z
-x,-y,-z
loop_
_atom_site_type_symbol
_atom_site_label
_atom_site_fract_x
_atom_site_fract_y
_atom_site_fract_z
Si Si1 0.709657 0.593739 0.462615
Si Si2 0.475942 0.081727 0.859963
Si Si3 0.565285 0.528573 0.292047
Si Si4 0.786282 0.923528 0.571625
Si Si5 0.980980 0.214553 0.316938
Si Si6 0.980577 0.740221 0.006530
Si Si7 0.745374 0.107761 0.152707
O O1 0.610172 0.639714 0.381599
O O2 0.604032 0.484528 0.617249
O O3 0.740290 0.778098 0.506862
O O4 0.866208 0.438369 0.360715
O O5 0.632380 0.047427 0.704930
O O6 0.380067 0.941743 0.862057
O O7 0.401727 0.327838 0.858290
O O8 0.500000 0.000000 0.000000
O O9 0.660600 0.289119 0.274703
O O10 0.887606 0.805981 0.648465
O O11 0.883906 0.058901 0.433158
O O12 0.035619 0.173638 0.143480
O O13 0.129254 0.783480 0.979496
O O14 0.000000 0.500000 0.000000
O O15 0.846480 0.875169 0.150554
#
# Coordination Sequence:
#
# PCOD9060453 Si02
#       7
#     2   2   2   2   2   2   2
#     4  11  23  43  71 102 140 180 238 293 347 414
#     4  12  26  46  69 105 147 185 234 291 354 431
#     4  11  24  43  71 107 137 182 236 292 350 420
#     4  11  25  44  71 101 143 191 232 291 352 416
#     4  11  24  46  69 104 140 185 239 288 352 423
#     4  11  25  46  71 106 142 183 235 292 350 427
#     4  11  24  44  71 101 140 188 228 283 363 404
#
# _framework density 22.542397000000001
#
# number of rings (size 3 to 8) (size 9 to 14) (size 15 to 20)
#    0.000    0.857    4.286    2.143    2.000    2.286 
#    2.571    0.000    0.000    0.000    0.000    0.000 
#    0.000    0.000    0.000    0.000    0.000    0.000 
#
# Total GULP energy -78173.245958 kJ/mol
# GULP energy per Si atom -5583.803283 kJ/mol
# Density = 2.249109 g / cm^3
# Si number density = 22.542397 Si / 1000 Ang^3
#
#
#
# Elastic Constant Matrix: (Units=GPa)
#
#
# Indices 1 2 3 4 5 6 
#
# 1 111.3107 36.4158 30.2308 1.8571 -13.3700 15.0836
# 2 36.4158 123.9078 41.4291 9.9714 4.3026 10.6282
# 3 30.2308 41.4291 82.7383 2.4789 8.3673 3.3351
# 4 1.8571 9.9714 2.4789 38.6247 -6.9335 -5.5568
# 5 -13.3700 4.3026 8.3673 -6.9335 27.1322 -3.0079
# 6 15.0836 10.6282 3.3351 -5.5568 -3.0079 36.5988
#
#
#
# Elastic Compliance Matrix: (Units=1/GPa)
#
#
# Indices 1 2 3 4 5 6 
#
# 1 0.012125 -0.002332 -0.003928 0.001162 0.007502 -0.003169
# 2 -0.002332 0.010666 -0.004019 -0.003225 -0.002701 -0.002482
# 3 -0.003928 -0.004019 0.016185 -0.000875 -0.006442 0.000649
# 4 0.001162 -0.003225 -0.000875 0.029251 0.009467 0.005757
# 5 0.007502 -0.002701 -0.006442 0.009467 0.045773 0.003479
# 6 -0.003169 -0.002482 0.000649 0.005757 0.003479 0.030451
#
#
# Mechanical properties :
#
#
# Convention : Reuss Voigt Hill
#
# Bulk Modulus (GPa) = 54.29502 59.34537 56.82020
# Shear Modulus (GPa) = 29.21457 34.46322 31.83890
#
# Velocity S-wave (km/s) = 3.60388 3.91425 3.76227
# Velocity P-wave (km/s) = 6.43858 6.84191 6.64331
#
# Compressibility (1/GPa) = 0.01841790
#
# Stress axis : x y z
#
# Youngs Moduli (GPa) = 82.47593 93.75765 61.78441
#
# Poissons Ratio (x) = 0.21866 0.24269
# Poissons Ratio (y) = 0.19235 0.24829
# Poissons Ratio (z) = 0.32397 0.37679
#
# Static dielectric constant tensor:
#      x y z
#    x 1.809100 -0.046650 -0.020870 
#    y -0.046650 1.879300 -0.026460 
#    z -0.020870 -0.026460 1.868480 
# 
# From -- ./inp_files/409105.got.cif
#   From: 2010.05.17/outbox.cif.g08.bks.cpg/sg2_205_cif.got.tgz:409105.got - 2010.06.03 11:33:40.
