data_PCOD9060162
_publ_section_title
;
Structure prediction by ZEFSAII (Michael W. Deem and Ramdas Pophale) SiO2 
 PCOD9060162
Probable space group: P -1
;
_chemical_formula_sum "Si O2"
_cell_formula_units_Z 12
_cell_length_a 5.560497
_cell_length_b 7.047788
_cell_length_c 14.011829
_cell_angle_alpha 98.200965
_cell_angle_beta 62.952618
_cell_angle_gamma 72.256932
_cell_volume 439.450674
_symmetry_space_group_name_H-M "P -1"
_symmetry_group_IT_number 2
_symmetry_cell_setting 'triclinic'
loop_
_space_group_symop_operation_xyz
x,y,z
-x,-y,-z
loop_
_atom_site_type_symbol
_atom_site_label
_atom_site_fract_x
_atom_site_fract_y
_atom_site_fract_z
Si Si1 0.811853 0.677632 0.440431
Si Si2 0.254717 0.382973 0.200889
Si Si3 0.170882 0.772096 0.528908
Si Si4 0.801510 0.153324 0.964171
Si Si5 0.284519 0.980651 0.225750
Si Si6 0.858563 0.597721 0.134212
O O1 0.492233 0.770965 0.453024
O O2 0.787865 0.471119 0.477487
O O3 0.090464 0.580226 0.311993
O O4 0.907211 0.824231 0.502390
O O5 0.371305 0.179407 0.233968
O O6 0.980214 0.419194 0.179734
O O7 0.531493 0.342167 0.079462
O O8 0.031445 0.918500 0.657592
O O9 0.982867 0.244190 0.870858
O O10 0.691993 0.041591 0.895070
O O11 0.000000 0.000000 0.000000
O O12 0.516425 0.756481 0.205359
O O13 0.000000 0.500000 0.000000
#
# Coordination Sequence:
#
# PCOD9060162 Si02
#       6
#     2   2   2   2   2   2
#     4   9  20  39  65  98 128 178 226 275 331 399
#     4  11  23  43  66  99 132 175 223 276 336 402
#     4   9  20  39  67  94 133 174 227 276 332 396
#     4  12  24  41  68  97 132 175 219 276 342 401
#     4  11  24  43  67  97 132 176 221 278 336 403
#     4  12  25  42  64  97 138 172 222 274 339 407
#
# _framework density 27.306816999999999
#
# number of rings (size 3 to 8) (size 9 to 14) (size 15 to 20)
#    0.000    1.333    3.333    2.000    2.333    5.333 
#    0.000    1.667    0.000    0.000    0.000    0.000 
#    0.000    0.000    0.000    0.000    0.000    0.000 
#
# Total GULP energy -67020.868225 kJ/mol
# GULP energy per Si atom -5585.072352 kJ/mol
# Density = 2.724467 g / cm^3
# Si number density = 27.306817 Si / 1000 Ang^3
#
#
#
# Elastic Constant Matrix: (Units=GPa)
#
#
# Indices 1 2 3 4 5 6 
#
# 1 135.1127 39.8116 68.7284 18.1247 -20.7779 -9.1913
# 2 39.8116 116.8847 13.3248 21.5300 -14.6917 -30.1007
# 3 68.7284 13.3248 142.0911 17.0949 -10.3114 -0.6206
# 4 18.1247 21.5300 17.0949 42.1774 -4.2060 -8.1913
# 5 -20.7779 -14.6917 -10.3114 -4.2060 44.1357 -5.3267
# 6 -9.1913 -30.1007 -0.6206 -8.1913 -5.3267 41.8714
#
#
#
# Elastic Compliance Matrix: (Units=1/GPa)
#
#
# Indices 1 2 3 4 5 6 
#
# 1 0.011327 -0.002447 -0.004863 -0.001144 0.003377 0.000861
# 2 -0.002447 0.012609 0.000763 -0.003694 0.003874 0.008309
# 3 -0.004863 0.000763 0.009590 -0.002365 -0.000123 -0.000855
# 4 -0.001144 -0.003694 -0.002365 0.027599 0.000616 0.002536
# 5 0.003377 0.003874 -0.000123 0.000616 0.026412 0.007005
# 6 0.000861 0.008309 -0.000855 0.002536 0.007005 0.031419
#
#
# Mechanical properties :
#
#
# Convention : Reuss Voigt Hill
#
# Bulk Modulus (GPa) = 48.94111 70.86866 59.90489
# Shear Modulus (GPa) = 36.00709 43.78515 39.89612
#
# Velocity S-wave (km/s) = 3.63521 4.00866 3.82649
# Velocity P-wave (km/s) = 5.96500 6.88730 6.44267
#
# Compressibility (1/GPa) = 0.02043272
#
# Stress axis : x y z
#
# Youngs Moduli (GPa) = 88.28316 79.30813 104.27252
#
# Poissons Ratio (x) = 0.19405 0.50708
# Poissons Ratio (y) = 0.21601 -0.07956
# Poissons Ratio (z) = 0.42932 -0.06051
#
# Static dielectric constant tensor:
#      x y z
#    x 2.360540 0.025990 0.097930 
#    y 0.025990 2.214320 -0.016390 
#    z 0.097930 -0.016390 2.079430 
# 
# From -- ./inp_files/20372.got.cif
#   From: 2010.05.17/outbox.cif.g08.bks.cpg/sg2_11_cif.got.tgz:20372.got - 2010.06.03 11:33:40.
