data_PCOD9060599
_publ_section_title
;
Structure prediction by ZEFSAII (Michael W. Deem and Ramdas Pophale) SiO2 
 PCOD9060599
Probable space group: P -1
;
_chemical_formula_sum "Si O2"
_cell_formula_units_Z 14
_cell_length_a 17.038252
_cell_length_b 11.288641
_cell_length_c 17.940648
_cell_angle_alpha 149.854877
_cell_angle_beta 30.996818
_cell_angle_gamma 158.223910
_cell_volume 615.121198
_symmetry_space_group_name_H-M "P -1"
_symmetry_group_IT_number 2
_symmetry_cell_setting 'triclinic'
loop_
_space_group_symop_operation_xyz
x,y,z
-x,-y,-z
loop_
_atom_site_type_symbol
_atom_site_label
_atom_site_fract_x
_atom_site_fract_y
_atom_site_fract_z
Si Si1 0.240296 0.201324 0.041850
Si Si2 0.309589 0.505101 0.997715
Si Si3 0.011825 0.482648 0.786190
Si Si4 0.983704 0.748631 0.619275
Si Si5 0.314249 0.616016 0.481476
Si Si6 0.357492 0.410253 0.748414
Si Si7 0.214840 0.783102 0.030653
O O1 0.209024 0.276235 0.026989
O O2 0.144802 0.242915 0.209926
O O3 0.500000 0.500000 0.000000
O O4 0.145319 0.833514 0.913520
O O5 0.189399 0.620061 0.149526
O O6 0.576571 0.834923 0.962190
O O7 0.254767 0.296287 0.853964
O O8 0.178480 0.567556 0.635941
O O9 0.887012 0.213671 0.809659
O O10 0.859745 0.623824 0.574017
O O11 0.000000 0.500000 0.500000
O O12 0.225945 0.134008 0.638982
O O13 0.433145 0.519449 0.366768
O O14 0.500000 0.000000 0.500000
O O15 0.332707 0.662122 0.888184
O O16 0.000000 0.500000 0.000000
#
# Coordination Sequence:
#
# PCOD9060599 Si02
#       7
#     2   2   2   2   2   2   2
#     4  12  23  38  69 105 132 179 239 290 345 414
#     4  11  23  43  73  96 142 183 236 294 349 411
#     4  11  23  45  69 101 135 185 238 286 353 422
#     4  12  24  41  67 107 145 179 229 290 355 416
#     4  12  25  43  69 105 152 183 225 297 360 414
#     4  11  24  44  69  99 141 187 230 285 359 411
#     4  11  25  48  75 102 137 188 245 293 344 426
#
# _framework density 22.759741999999999
#
# number of rings (size 3 to 8) (size 9 to 14) (size 15 to 20)
#    0.000    0.571    4.286    6.429    2.000    0.000 
#    2.571    3.571    0.000    0.000    0.000    0.000 
#    0.000    0.000    0.000    0.000    0.000    0.000 
#
# Total GULP energy -78158.915085 kJ/mol
# GULP energy per Si atom -5582.779649 kJ/mol
# Density = 2.270794 g / cm^3
# Si number density = 22.759742 Si / 1000 Ang^3
#
#
#
# Elastic Constant Matrix: (Units=GPa)
#
#
# Indices 1 2 3 4 5 6 
#
# 1 127.5382 43.1787 55.6753 -3.3529 3.0538 21.4907
# 2 43.1787 138.5704 51.8125 -5.3732 3.8128 13.4193
# 3 55.6753 51.8125 168.5290 -25.6775 12.2265 6.4285
# 4 -3.3529 -5.3732 -25.6775 43.8282 4.8234 6.1570
# 5 3.0538 3.8128 12.2265 4.8234 33.9280 -5.6494
# 6 21.4907 13.4193 6.4285 6.1570 -5.6494 42.8043
#
#
#
# Elastic Compliance Matrix: (Units=1/GPa)
#
#
# Indices 1 2 3 4 5 6 
#
# 1 0.010355 -0.001799 -0.002740 -0.000398 -0.000388 -0.004218
# 2 -0.001799 0.008682 -0.001985 0.000025 -0.000364 -0.001572
# 3 -0.002740 -0.001985 0.008460 0.004932 -0.003351 -0.000424
# 4 -0.000398 0.000025 0.004932 0.027138 -0.006486 -0.005308
# 5 -0.000388 -0.000364 -0.003351 -0.006486 0.032689 0.006060
# 6 -0.004218 -0.001572 -0.000424 -0.005308 0.006060 0.027600
#
#
# Mechanical properties :
#
#
# Convention : Reuss Voigt Hill
#
# Bulk Modulus (GPa) = 69.19955 81.77451 75.48703
# Shear Modulus (GPa) = 37.65441 43.04352 40.34897
#
# Velocity S-wave (km/s) = 4.07188 4.35353 4.21506
# Velocity P-wave (km/s) = 7.25102 7.82805 7.54505
#
# Compressibility (1/GPa) = 0.01445096
#
# Stress axis : x y z
#
# Youngs Moduli (GPa) = 96.56995 115.17486 118.20798
#
# Poissons Ratio (x) = 0.20716 0.32384
# Poissons Ratio (y) = 0.17370 0.23464
# Poissons Ratio (z) = 0.26456 0.22862
#
# Static dielectric constant tensor:
#      x y z
#    x 1.939970 0.024670 -0.042470 
#    y 0.024670 1.944040 0.000650 
#    z -0.042470 0.000650 1.847680 
# 
# From -- ./inp_files/532491.got.cif
#   From: 2010.05.17/outbox.cif.g08.bks.cpg/sg2_267_cif.got.tgz:532491.got - 2010.06.03 11:33:40.
