data_PCOD9060152
_publ_section_title
;
Structure prediction by ZEFSAII (Michael W. Deem and Ramdas Pophale) SiO2 
 PCOD9060152
Probable space group: P -1
;
_chemical_formula_sum "Si O2"
_cell_formula_units_Z 16
_cell_length_a 10.213560
_cell_length_b 12.317595
_cell_length_c 9.523920
_cell_angle_alpha 126.102790
_cell_angle_beta 77.140502
_cell_angle_gamma 131.079039
_cell_volume 702.575171
_symmetry_space_group_name_H-M "P -1"
_symmetry_group_IT_number 2
_symmetry_cell_setting 'triclinic'
loop_
_space_group_symop_operation_xyz
x,y,z
-x,-y,-z
loop_
_atom_site_type_symbol
_atom_site_label
_atom_site_fract_x
_atom_site_fract_y
_atom_site_fract_z
Si Si1 0.279229 0.163903 0.981496
Si Si2 0.717279 0.855884 0.470394
Si Si3 0.927981 0.592433 0.893031
Si Si4 0.331789 0.470393 0.855884
Si Si5 0.135370 0.480189 0.664287
Si Si6 0.319469 0.664287 0.480189
Si Si7 0.096823 0.981496 0.163902
Si Si8 0.228579 0.893031 0.592432
O O1 0.455344 0.365836 0.054543
O O2 0.299044 0.029087 0.807936
O O3 0.242896 0.131266 0.131266
O O4 0.096365 0.096366 0.903635
O O5 0.720174 0.720175 0.279826
O O6 0.517234 0.735759 0.490607
O O7 0.855949 0.945458 0.634165
O O8 0.745589 0.001693 0.473126
O O9 0.815146 0.517502 0.717969
O O10 0.025467 0.513693 0.810505
O O11 0.782979 0.526876 0.998308
O O12 0.077894 0.807936 0.029086
O O13 0.272082 0.490607 0.735759
O O14 0.234694 0.621647 0.621647
O O15 0.984388 0.282031 0.482498
O O16 0.322278 0.810505 0.513694
#
# Coordination Sequence:
#
# PCOD9060152 Si02
#       8
#     2   2   2   2   2   2   2   2
#     4  11  24  42  66  96 133 176 221 270 326 391
#     4  12  26  43  66  99 136 174 219 272 328 388
#     4  11  23  43  66  95 132 174 219 266 328 391
#     4  12  26  43  66  99 136 174 219 272 328 388
#     4  11  24  44  70  98 133 174 218 270 328 392
#     4  11  24  44  70  98 133 174 218 270 328 392
#     4  11  24  42  66  96 133 176 221 270 326 391
#     4  11  23  43  66  95 132 174 219 266 328 391
#
# _framework density 22.773361999999999
#
# number of rings (size 3 to 8) (size 9 to 14) (size 15 to 20)
#    0.000    0.750    0.000    8.250    0.000   10.000 
#    0.000    2.500    0.000    0.000    0.000    0.000 
#    0.000    0.000    0.000    0.000    0.000    0.000 
#
# Total GULP energy -89639.839229 kJ/mol
# GULP energy per Si atom -5602.489952 kJ/mol
# Density = 2.272153 g / cm^3
# Si number density = 22.773362 Si / 1000 Ang^3
#
#
#
# Elastic Constant Matrix: (Units=GPa)
#
#
# Indices 1 2 3 4 5 6 
#
# 1 75.3746 26.7686 23.6786 -3.9264 9.3291 6.0819
# 2 26.7686 118.5656 48.8732 -16.9235 -5.0792 3.2750
# 3 23.6786 48.8732 95.7016 -2.6175 -5.2710 -2.6023
# 4 -3.9264 -16.9235 -2.6175 38.7685 -2.3434 -2.1314
# 5 9.3291 -5.0792 -5.2710 -2.3434 27.8795 -0.1563
# 6 6.0819 3.2750 -2.6023 -2.1314 -0.1563 26.2584
#
#
#
# Elastic Compliance Matrix: (Units=1/GPa)
#
#
# Indices 1 2 3 4 5 6 
#
# 1 0.016292 -0.002584 -0.003186 -0.000301 -0.006572 -0.003831
# 2 -0.002584 0.011984 -0.005245 0.004708 0.002446 -0.001019
# 3 -0.003186 -0.005245 0.014100 -0.001350 0.002678 0.002696
# 4 -0.000301 0.004708 -0.001350 0.028003 0.003066 0.001640
# 5 -0.006572 0.002446 0.002678 0.003066 0.039288 0.001965
# 6 -0.003831 -0.001019 0.002696 0.001640 0.001965 0.039509
#
#
# Mechanical properties :
#
#
# Convention : Reuss Voigt Hill
#
# Bulk Modulus (GPa) = 49.14741 54.25359 51.70050
# Shear Modulus (GPa) = 28.09156 31.26938 29.68047
#
# Velocity S-wave (km/s) = 3.51597 3.70951 3.61404
# Velocity P-wave (km/s) = 6.17338 6.49787 6.33770
#
# Compressibility (1/GPa) = 0.02034695
#
# Stress axis : x y z
#
# Youngs Moduli (GPa) = 61.37874 83.44136 70.92239
#
# Poissons Ratio (x) = 0.21559 0.22595
# Poissons Ratio (y) = 0.15858 0.37200
# Poissons Ratio (z) = 0.19555 0.43767
#
# Static dielectric constant tensor:
#      x y z
#    x 1.847340 -0.012100 -0.019600 
#    y -0.012100 1.840510 -0.001190 
#    z -0.019600 -0.001190 1.835120 
# 
# From -- ./inp_files/260100.got.cif
#   From: 2010.05.17/outbox.cif.g08.bks.cpg/sg2_131_cif.got.tgz:260100.got - 2010.06.03 11:33:40.
