data_PCOD9060250
_publ_section_title
;
Structure prediction by ZEFSAII (Michael W. Deem and Ramdas Pophale) SiO2 
 PCOD9060250
Probable space group: P -1
;
_chemical_formula_sum "Si O2"
_cell_formula_units_Z 16
_cell_length_a 9.527313
_cell_length_b 24.349073
_cell_length_c 9.652267
_cell_angle_alpha 139.925307
_cell_angle_beta 135.260598
_cell_angle_gamma 28.871741
_cell_volume 690.191731
_symmetry_space_group_name_H-M "P -1"
_symmetry_group_IT_number 2
_symmetry_cell_setting 'triclinic'
loop_
_space_group_symop_operation_xyz
x,y,z
-x,-y,-z
loop_
_atom_site_type_symbol
_atom_site_label
_atom_site_fract_x
_atom_site_fract_y
_atom_site_fract_z
Si Si1 0.848979 0.510413 0.053661
Si Si2 0.720515 0.701746 0.838074
Si Si3 0.671730 0.012140 0.245190
Si Si4 0.234112 0.766552 0.059735
Si Si5 0.847054 0.713946 0.646326
Si Si6 0.494966 0.048296 0.736625
Si Si7 0.152117 0.817928 0.793136
Si Si8 0.814154 0.390340 0.579073
O O1 0.786376 0.436522 0.801008
O O2 0.064464 0.425091 0.166487
O O3 0.531032 0.651656 0.125093
O O4 0.000000 0.500000 0.000000
O O5 0.688002 0.807753 0.085613
O O6 0.832598 0.671408 0.700544
O O7 0.390689 0.769255 0.753808
O O8 0.626394 0.985198 0.309916
O O9 0.009529 0.903747 0.232902
O O10 0.484251 0.154881 0.367304
O O11 0.500000 0.000000 0.000000
O O12 0.298187 0.780238 0.975492
O O13 0.048982 0.735803 0.854730
O O14 0.976791 0.634664 0.442088
O O15 0.500000 0.000000 0.500000
O O16 0.836223 0.961370 0.844105
O O17 0.088220 0.737420 0.582257
O O18 0.500000 0.500000 0.500000
#
# Coordination Sequence:
#
# PCOD9060250 Si02
#       8
#     2   2   2   2   2   2   2   2
#     4  12  24  42  65  97 132 166 219 266 318 383
#     4  12  24  39  65  99 128 167 220 269 316 375
#     4  10  17  38  66  89 123 171 214 254 315 395
#     4  10  18  39  66  87 120 175 214 241 327 380
#     4  10  20  39  67  94 123 173 219 257 322 381
#     4  12  23  39  64 102 129 163 216 271 319 381
#     4  11  21  41  66  91 129 168 217 259 320 382
#     4  11  20  41  68  90 122 178 213 252 324 387
#
# _framework density 23.181964000000001
#
# number of rings (size 3 to 8) (size 9 to 14) (size 15 to 20)
#    0.000    1.000   10.000    1.125    0.000    0.500 
#    0.000    3.750    0.000    2.250    0.000    0.000 
#    0.000    0.000    0.000    0.000    0.000    0.000 
#
# Total GULP energy -89392.930489 kJ/mol
# GULP energy per Si atom -5587.058156 kJ/mol
# Density = 2.312920 g / cm^3
# Si number density = 23.181964 Si / 1000 Ang^3
#
#
#
# Elastic Constant Matrix: (Units=GPa)
#
#
# Indices 1 2 3 4 5 6 
#
# 1 91.3755 17.8781 16.7455 -3.1169 -25.8199 -1.2866
# 2 17.8781 171.2180 20.6386 9.9099 -5.1754 -9.0949
# 3 16.7455 20.6386 43.4721 12.3233 -20.0405 3.0999
# 4 -3.1169 9.9099 12.3233 22.7877 -8.8052 -3.3811
# 5 -25.8199 -5.1754 -20.0405 -8.8052 32.7866 0.4604
# 6 -1.2866 -9.0949 3.0999 -3.3811 0.4604 39.6467
#
#
#
# Elastic Compliance Matrix: (Units=1/GPa)
#
#
# Indices 1 2 3 4 5 6 
#
# 1 0.015689 -0.001495 -0.001769 0.009094 0.013468 0.000924
# 2 -0.001495 0.006515 -0.003307 -0.002081 -0.002751 0.001559
# 3 -0.001769 -0.003307 0.037370 -0.012998 0.017507 -0.005050
# 4 0.009094 -0.002081 -0.012998 0.059643 0.014825 0.005748
# 5 0.013468 -0.002751 0.017507 0.014825 0.055368 -0.000942
# 6 0.000924 0.001559 -0.005050 0.005748 -0.000942 0.026506
#
#
# Mechanical properties :
#
#
# Convention : Reuss Voigt Hill
#
# Bulk Modulus (GPa) = 21.53638 46.28778 33.91208
# Shear Modulus (GPa) = 21.76651 35.76442 28.76547
#
# Velocity S-wave (km/s) = 3.06754 3.93207 3.52640
# Velocity P-wave (km/s) = 4.67512 6.37381 5.58937
#
# Compressibility (1/GPa) = 0.04643306
#
# Stress axis : x y z
#
# Youngs Moduli (GPa) = 63.73768 153.48393 26.75955
#
# Poissons Ratio (x) = 0.22949 0.04734
# Poissons Ratio (y) = 0.09530 0.08848
# Poissons Ratio (z) = 0.11275 0.50751
#
# Static dielectric constant tensor:
#      x y z
#    x 1.882540 0.019740 0.091340 
#    y 0.019740 1.870260 0.040800 
#    z 0.091340 0.040800 2.039510 
# 
# From -- ./inp_files/225547.got.cif
#   From: 2010.05.17/outbox.cif.g08.bks.cpg/sg2_113_cif.got.tgz:225547.got - 2010.06.03 11:33:40.
