data_PCOD9060803
_publ_section_title
;
Structure prediction by ZEFSAII (Michael W. Deem and Ramdas Pophale) SiO2 
 PCOD9060803
Probable space group: P -1
;
_chemical_formula_sum "Si O2"
_cell_formula_units_Z 15
_cell_length_a 16.950988
_cell_length_b 8.044663
_cell_length_c 8.165215
_cell_angle_alpha 104.495050
_cell_angle_beta 136.375233
_cell_angle_gamma 93.107795
_cell_volume 696.038453
_symmetry_space_group_name_H-M "P -1"
_symmetry_group_IT_number 2
_symmetry_cell_setting 'triclinic'
loop_
_space_group_symop_operation_xyz
x,y,z
-x,-y,-z
loop_
_atom_site_type_symbol
_atom_site_label
_atom_site_fract_x
_atom_site_fract_y
_atom_site_fract_z
Si Si1 0.895244 0.314764 0.741570
Si Si2 0.652845 0.290004 0.490143
Si Si3 0.120427 0.875155 0.988462
Si Si4 0.504323 0.475570 0.806947
Si Si5 0.401380 0.043932 0.475658
Si Si6 0.000000 0.500000 0.500000
Si Si7 0.047674 0.142299 0.750621
Si Si8 0.754102 0.526766 0.018795
O O1 0.764351 0.336174 0.539773
O O2 0.952589 0.249564 0.655891
O O3 0.880627 0.174559 0.834499
O O4 0.000000 0.500000 0.000000
O O5 0.560395 0.391836 0.334294
O O6 0.599183 0.072117 0.387586
O O7 0.710411 0.374000 0.773199
O O8 0.047884 0.690443 0.734936
O O9 0.061550 0.028110 0.899034
O O10 0.263753 0.965517 0.178400
O O11 0.438151 0.260621 0.611488
O O12 0.500000 0.500000 0.000000
O O13 0.640029 0.529603 0.951867
O O14 0.500000 0.000000 0.500000
O O15 0.860644 0.504282 0.283721
O O16 0.177520 0.287949 0.933306
O O17 0.000000 0.000000 0.500000
#
# Coordination Sequence:
#
# PCOD9060803 Si02
#       8
#     2   2   2   2   2   1   2   2
#     4  11  23  44  68 101 141 189 235 288 373 425
#     4  11  24  48  76 103 146 195 245 295 366 445
#     4  11  24  41  71 105 145 186 239 295 363 435
#     4  12  29  49  75 108 146 193 249 314 361 430
#     4  11  23  45  75 104 137 195 245 289 367 435
#     4  12  20  44  72 108 146 180 242 304 356 432
#     4  12  25  42  68 105 145 185 237 300 355 440
#     4  12  24  46  71 107 142 194 242 294 369 430
#
# _framework density 21.550533999999999
#
# number of rings (size 3 to 8) (size 9 to 14) (size 15 to 20)
#    0.000    0.533    6.667    1.600    1.867    4.800 
#    2.400    0.000    0.000    0.000    0.000    0.000 
#    0.000    0.000    0.000    0.000    0.000    0.000 
#
# Total GULP energy -83601.113882 kJ/mol
# GULP energy per Si atom -5573.407592 kJ/mol
# Density = 2.150148 g / cm^3
# Si number density = 21.550534 Si / 1000 Ang^3
#
#
#
# Elastic Constant Matrix: (Units=GPa)
#
#
# Indices 1 2 3 4 5 6 
#
# 1 142.2383 19.7981 51.4040 8.4028 29.2199 -20.6468
# 2 19.7981 94.8654 20.2518 -6.2977 26.3722 -15.9922
# 3 51.4040 20.2518 91.4160 -16.5283 29.0189 -15.4697
# 4 8.4028 -6.2977 -16.5283 28.8270 -7.2398 6.6087
# 5 29.2199 26.3722 29.0189 -7.2398 39.1844 -2.5178
# 6 -20.6468 -15.9922 -15.4697 6.6087 -2.5178 37.7096
#
#
#
# Elastic Compliance Matrix: (Units=1/GPa)
#
#
# Indices 1 2 3 4 5 6 
#
# 1 0.011546 0.000919 -0.005277 -0.009169 -0.006647 0.005709
# 2 0.000919 0.014086 0.000519 -0.000896 -0.010319 0.006158
# 3 -0.005277 0.000519 0.018610 0.009627 -0.008242 0.002728
# 4 -0.009169 -0.000896 0.009627 0.046881 0.008388 -0.009107
# 5 -0.006647 -0.010319 -0.008242 0.008388 0.044440 -0.009900
# 6 0.005709 0.006158 0.002728 -0.009107 -0.009900 0.034310
#
#
# Mechanical properties :
#
#
# Convention : Reuss Voigt Hill
#
# Bulk Modulus (GPa) = 27.35127 56.82526 42.08827
# Shear Modulus (GPa) = 26.35200 36.94858 31.65029
#
# Velocity S-wave (km/s) = 3.50065 4.14515 3.83646
# Velocity P-wave (km/s) = 5.39061 7.02391 6.26075
#
# Compressibility (1/GPa) = 0.03656138
#
# Stress axis : x y z
#
# Youngs Moduli (GPa) = 86.61292 70.99194 53.73449
#
# Poissons Ratio (x) = -0.06521 0.28358
# Poissons Ratio (y) = -0.07956 -0.02787
# Poissons Ratio (z) = 0.45709 -0.03682
#
# Static dielectric constant tensor:
#      x y z
#    x 1.560300 0.024260 0.186710 
#    y 0.024260 1.892090 -0.008650 
#    z 0.186710 -0.008650 1.620360 
# 
# From -- ./inp_files/326351.got.cif
#   From: 2010.05.17/outbox.cif.g08.bks.cpg/sg2_164_cif.got.tgz:326351.got - 2010.06.03 11:33:40.
