data_PCOD9060742
_publ_section_title
;
Structure prediction by ZEFSAII (Michael W. Deem and Ramdas Pophale) SiO2 
 PCOD9060742
Probable space group: P -1
;
_chemical_formula_sum "Si O2"
_cell_formula_units_Z 14
_cell_length_a 26.757425
_cell_length_b 5.194698
_cell_length_c 5.461556
_cell_angle_alpha 84.977292
_cell_angle_beta 134.566746
_cell_angle_gamma 98.980348
_cell_volume 533.945214
_symmetry_space_group_name_H-M "P -1"
_symmetry_group_IT_number 2
_symmetry_cell_setting 'triclinic'
loop_
_space_group_symop_operation_xyz
x,y,z
-x,-y,-z
loop_
_atom_site_type_symbol
_atom_site_label
_atom_site_fract_x
_atom_site_fract_y
_atom_site_fract_z
Si Si1 0.873419 0.502076 0.689495
Si Si2 0.955836 0.011685 0.098010
Si Si3 0.336826 0.323670 0.161826
Si Si4 0.800780 0.729285 0.027656
Si Si5 0.482964 0.136770 0.679676
Si Si6 0.627697 0.394925 0.234102
Si Si7 0.243344 0.780917 0.404266
O O1 0.869281 0.651766 0.405957
O O2 0.794579 0.343536 0.471881
O O3 0.899345 0.747017 0.930823
O O4 0.922759 0.281020 0.926731
O O5 0.000000 0.000000 0.500000
O O6 0.000000 0.000000 0.000000
O O7 0.400565 0.154255 0.401486
O O8 0.361043 0.527899 0.450104
O O9 0.257758 0.211945 0.974407
O O10 0.336946 0.419346 0.875810
O O11 0.773351 0.463427 0.815608
O O12 0.798412 0.984715 0.836763
O O13 0.500000 0.000000 0.500000
O O14 0.544653 0.382574 0.887373
O O15 0.500000 0.000000 0.000000
O O16 0.671427 0.151529 0.339246
#
# Coordination Sequence:
#
# PCOD9060742 Si02
#       7
#     2   2   2   2   2   2   2
#     4  12  26  50  80 113 154 200 248 306 372 449
#     4  12  30  52  82 114 156 199 248 303 368 448
#     4  11  23  44  66 100 142 195 251 312 374 444
#     4  11  25  45  74 111 152 199 252 312 375 445
#     4  12  24  40  64  98 138 198 251 313 378 439
#     4  11  23  44  66 100 142 195 251 312 374 444
#     4  11  25  45  74 111 152 199 252 312 375 445
#
# _framework density 26.219919999999998
#
# number of rings (size 3 to 8) (size 9 to 14) (size 15 to 20)
#    0.000    0.571    1.429    6.000    6.000    2.286 
#    2.571    0.000    0.000    0.000    0.000    0.000 
#    0.000    0.000    0.000    0.000    0.000    0.000 
#
# Total GULP energy -78214.695805 kJ/mol
# GULP energy per Si atom -5586.763986 kJ/mol
# Density = 2.616024 g / cm^3
# Si number density = 26.219920 Si / 1000 Ang^3
#
#
#
# Elastic Constant Matrix: (Units=GPa)
#
#
# Indices 1 2 3 4 5 6 
#
# 1 127.2171 45.7101 21.5850 -21.1511 -8.0917 -7.0090
# 2 45.7101 139.8466 51.6293 -26.9258 0.5498 -18.6337
# 3 21.5850 51.6293 160.3299 -30.4015 -17.2269 -22.5577
# 4 -21.1511 -26.9258 -30.4015 60.1536 -8.5388 9.3484
# 5 -8.0917 0.5498 -17.2269 -8.5388 37.1895 -3.8197
# 6 -7.0090 -18.6337 -22.5577 9.3484 -3.8197 43.5619
#
#
#
# Elastic Compliance Matrix: (Units=1/GPa)
#
#
# Indices 1 2 3 4 5 6 
#
# 1 0.009406 -0.002701 0.000476 0.002715 0.002959 0.000281
# 2 -0.002701 0.009442 -0.002198 0.001691 -0.001152 0.002002
# 3 0.000476 -0.002198 0.008634 0.003799 0.005343 0.003260
# 4 0.002715 0.001691 0.003799 0.021401 0.007153 -0.000838
# 5 0.002959 -0.001152 0.005343 0.007153 0.032081 0.004028
# 6 0.000281 0.002002 0.003260 -0.000838 0.004028 0.026079
#
#
# Mechanical properties :
#
#
# Convention : Reuss Voigt Hill
#
# Bulk Modulus (GPa) = 53.66524 73.91581 63.79052
# Shear Modulus (GPa) = 40.94949 48.74562 44.84756
#
# Velocity S-wave (km/s) = 3.95621 4.31641 4.14023
# Velocity P-wave (km/s) = 6.43278 7.28655 6.87293
#
# Compressibility (1/GPa) = 0.01863404
#
# Stress axis : x y z
#
# Youngs Moduli (GPa) = 106.32024 105.90837 115.82085
#
# Poissons Ratio (x) = 0.28611 -0.05512
# Poissons Ratio (y) = 0.28722 0.25461
# Poissons Ratio (z) = -0.05060 0.23282
#
# Static dielectric constant tensor:
#      x y z
#    x 2.153270 0.096100 0.160920 
#    y 0.096100 2.151340 0.051580 
#    z 0.160920 0.051580 2.180560 
# 
# From -- ./inp_files/12406.got.cif
#   From: 2010.05.17/outbox.cif.g08.bks.cpg/sg2_7_cif.got.tgz:12406.got - 2010.06.03 11:33:40.
