data_PCOD9060973
_publ_section_title
;
Structure prediction by ZEFSAII (Michael W. Deem and Ramdas Pophale) SiO2 
 PCOD9060973
Probable space group: P -1
;
_chemical_formula_sum "Si O2"
_cell_formula_units_Z 14
_cell_length_a 9.676641
_cell_length_b 17.858582
_cell_length_c 11.419295
_cell_angle_alpha 31.504871
_cell_angle_beta 115.487243
_cell_angle_gamma 136.053915
_cell_volume 617.219030
_symmetry_space_group_name_H-M "P -1"
_symmetry_group_IT_number 2
_symmetry_cell_setting 'triclinic'
loop_
_space_group_symop_operation_xyz
x,y,z
-x,-y,-z
loop_
_atom_site_type_symbol
_atom_site_label
_atom_site_fract_x
_atom_site_fract_y
_atom_site_fract_z
Si Si1 0.989263 0.137804 0.928922
Si Si2 0.572208 0.713875 0.100319
Si Si3 0.272151 0.926532 0.482133
Si Si4 0.938568 0.571382 0.627531
Si Si5 0.603875 0.710156 0.479254
Si Si6 0.096001 0.211294 0.308576
Si Si7 0.828254 0.556584 0.190518
O O1 0.165411 0.132632 0.967202
O O2 0.059370 0.256742 0.922887
O O3 0.006058 0.275079 0.658088
O O4 0.738501 0.901140 0.182786
O O5 0.501929 0.499214 0.346085
O O6 0.337653 0.616442 0.198279
O O7 0.631767 0.854654 0.822861
O O8 0.101937 0.732890 0.581960
O O9 0.115029 0.841704 0.650938
O O10 0.500000 0.000000 0.500000
O O11 0.014300 0.467653 0.750971
O O12 0.764268 0.743579 0.588121
O O13 0.408230 0.657494 0.548510
O O14 0.225998 0.392998 0.014626
O O15 0.000000 0.000000 0.500000
#
# Coordination Sequence:
#
# PCOD9060973 Si02
#       7
#     2   2   2   2   2   2   2
#     4  11  24  48  70 101 135 178 238 273 334 409
#     4  11  23  46  70 100 132 181 230 280 331 406
#     4  12  28  44  67 105 142 177 225 281 344 404
#     4  12  27  45  69 101 143 182 217 286 344 400
#     4  11  23  44  70  99 132 182 228 279 335 398
#     4  12  22  45  69  97 136 177 232 280 331 402
#     4  11  26  41  70 102 135 180 224 282 341 404
#
# _framework density 22.682385
#
# number of rings (size 3 to 8) (size 9 to 14) (size 15 to 20)
#    0.000    0.571    4.286    3.000    4.000    7.429 
#    0.000    0.000    0.000    0.000    0.000    0.000 
#    0.000    0.000    0.000    0.000    0.000    0.000 
#
# Total GULP energy -78258.874704 kJ/mol
# GULP energy per Si atom -5589.919622 kJ/mol
# Density = 2.263076 g / cm^3
# Si number density = 22.682385 Si / 1000 Ang^3
#
#
#
# Elastic Constant Matrix: (Units=GPa)
#
#
# Indices 1 2 3 4 5 6 
#
# 1 159.1746 20.4100 20.2433 -1.4004 -24.7786 7.9363
# 2 20.4100 58.5005 1.6004 9.6258 -9.5304 10.8096
# 3 20.2433 1.6004 112.7974 9.6801 -25.8807 -1.1649
# 4 -1.4004 9.6258 9.6801 32.5388 8.2866 -4.2825
# 5 -24.7786 -9.5304 -25.8807 8.2866 40.4323 5.8275
# 6 7.9363 10.8096 -1.1649 -4.2825 5.8275 31.7231
#
#
#
# Elastic Compliance Matrix: (Units=1/GPa)
#
#
# Indices 1 2 3 4 5 6 
#
# 1 0.007282 -0.001255 -0.000219 -0.000704 0.004506 -0.002325
# 2 -0.001255 0.023300 0.003345 -0.012207 0.010975 -0.011167
# 3 -0.000219 0.003345 0.011839 -0.007617 0.010309 -0.003572
# 4 -0.000704 -0.012207 -0.007617 0.043166 -0.018957 0.013365
# 5 0.004506 0.010975 0.010309 -0.018957 0.042712 -0.014894
# 6 -0.002325 -0.011167 -0.003572 0.013365 -0.014894 0.040319
#
#
# Mechanical properties :
#
#
# Convention : Reuss Voigt Hill
#
# Bulk Modulus (GPa) = 21.66180 46.10887 33.88533
# Shear Modulus (GPa) = 27.73711 40.15343 33.94527
#
# Velocity S-wave (km/s) = 3.50072 4.21199 3.87272
# Velocity P-wave (km/s) = 5.09027 6.63526 5.91344
#
# Compressibility (1/GPa) = 0.04616421
#
# Stress axis : x y z
#
# Youngs Moduli (GPa) = 137.31696 42.91821 84.46489
#
# Poissons Ratio (x) = 0.05387 0.01848
# Poissons Ratio (y) = 0.17235 -0.28255
# Poissons Ratio (z) = 0.03004 -0.14357
#
# Static dielectric constant tensor:
#      x y z
#    x 1.821940 0.005610 -0.038130 
#    y 0.005610 1.902550 -0.051700 
#    z -0.038130 -0.051700 1.801350 
# 
# From -- ./inp_files/47394.got.cif
#   From: 2010.05.17/outbox.cif.g08.bks.cpg/sg2_24_cif.got.tgz:47394.got - 2010.06.03 11:33:40.
