data_PCOD9060819
_publ_section_title
;
Structure prediction by ZEFSAII (Michael W. Deem and Ramdas Pophale) SiO2 
 PCOD9060819
Probable space group: P -1
;
_chemical_formula_sum "Si O2"
_cell_formula_units_Z 16
_cell_length_a 18.368378
_cell_length_b 20.984226
_cell_length_c 9.113491
_cell_angle_alpha 138.113626
_cell_angle_beta 140.354475
_cell_angle_gamma 19.361884
_cell_volume 740.356530
_symmetry_space_group_name_H-M "P -1"
_symmetry_group_IT_number 2
_symmetry_cell_setting 'triclinic'
loop_
_space_group_symop_operation_xyz
x,y,z
-x,-y,-z
loop_
_atom_site_type_symbol
_atom_site_label
_atom_site_fract_x
_atom_site_fract_y
_atom_site_fract_z
Si Si1 0.584502 0.716137 0.856557
Si Si2 0.165571 0.603957 0.482667
Si Si3 0.857202 0.482249 0.155005
Si Si4 0.380627 0.609346 0.659393
Si Si5 0.799794 0.347162 0.048374
Si Si6 0.373331 0.160938 0.463816
Si Si7 0.665457 0.877793 0.186427
Si Si8 0.844798 0.047653 0.232956
O O1 0.630985 0.620960 0.619395
O O2 0.334346 0.880381 0.820111
O O3 0.760229 0.539041 0.940349
O O4 0.647920 0.781190 0.051261
O O5 0.188447 0.673310 0.519636
O O6 0.183518 0.635382 0.727095
O O7 0.926614 0.719864 0.296007
O O8 0.811480 0.432782 0.113618
O O9 0.712482 0.679180 0.323123
O O10 0.131880 0.295648 0.259450
O O11 0.500000 0.500000 0.500000
O O12 0.285806 0.784024 0.787837
O O13 0.565031 0.469012 0.836558
O O14 0.005126 0.131151 0.939942
O O15 0.500000 0.000000 0.500000
O O16 0.555195 0.032406 0.395189
O O17 0.500000 0.000000 0.000000
O O18 0.000000 0.000000 0.500000
#
# Coordination Sequence:
#
# PCOD9060819 Si02
#       8
#     2   2   2   2   2   2   2   2
#     4  12  25  48  72 104 147 201 243 290 366 444
#     4  12  28  46  71 106 152 189 238 308 375 425
#     4  11  24  42  77 100 148 190 245 296 356 435
#     4  12  24  51  77 105 142 192 245 299 370 439
#     4  12  26  45  74 115 142 184 244 312 369 421
#     4  11  23  44  68 105 140 195 246 295 348 436
#     4  12  28  44  70 106 155 192 245 297 370 433
#     4  12  26  46  81 105 137 192 253 296 353 445
#
# _framework density 21.611208999999999
#
# number of rings (size 3 to 8) (size 9 to 14) (size 15 to 20)
#    0.000    0.250    5.000    3.000    7.000    0.500 
#    0.000    0.000    0.000    0.000    0.000    0.000 
#    0.000    0.000    0.000    0.000    0.000    0.000 
#
# Total GULP energy -89495.138077 kJ/mol
# GULP energy per Si atom -5593.446130 kJ/mol
# Density = 2.156202 g / cm^3
# Si number density = 21.611209 Si / 1000 Ang^3
#
#
#
# Elastic Constant Matrix: (Units=GPa)
#
#
# Indices 1 2 3 4 5 6 
#
# 1 136.2307 49.2576 48.6190 -0.2544 13.9500 -9.7740
# 2 49.2576 124.3973 46.1036 17.3220 -1.5982 -3.2234
# 3 48.6190 46.1036 102.1671 -1.5690 -15.5092 -11.5223
# 4 -0.2544 17.3220 -1.5690 31.3302 -2.7377 1.8183
# 5 13.9500 -1.5982 -15.5092 -2.7377 45.1977 -5.8226
# 6 -9.7740 -3.2234 -11.5223 1.8183 -5.8226 38.7839
#
#
#
# Elastic Compliance Matrix: (Units=1/GPa)
#
#
# Indices 1 2 3 4 5 6 
#
# 1 0.010381 -0.002655 -0.004405 0.000900 -0.004712 0.000337
# 2 -0.002655 0.011563 -0.004255 -0.006647 -0.000734 -0.000771
# 3 -0.004405 -0.004255 0.015410 0.003486 0.007228 0.004036
# 4 0.000900 -0.006647 0.003486 0.036052 0.002795 -0.000561
# 5 -0.004712 -0.000734 0.007228 0.002795 0.026821 0.004795
# 6 0.000337 -0.000771 0.004036 -0.000561 0.004795 0.027750
#
#
# Mechanical properties :
#
#
# Convention : Reuss Voigt Hill
#
# Bulk Modulus (GPa) = 67.91622 72.30615 70.11119
# Shear Modulus (GPa) = 32.15114 37.65002 34.90058
#
# Velocity S-wave (km/s) = 3.86126 4.17844 4.02298
# Velocity P-wave (km/s) = 7.16755 7.53721 7.35470
#
# Compressibility (1/GPa) = 0.01472402
#
# Stress axis : x y z
#
# Youngs Moduli (GPa) = 96.32933 86.48132 64.89156
#
# Poissons Ratio (x) = 0.22961 0.28587
# Poissons Ratio (y) = 0.25576 0.27610
# Poissons Ratio (z) = 0.42437 0.36796
#
# Static dielectric constant tensor:
#      x y z
#    x 1.770440 -0.070330 0.052210 
#    y -0.070330 1.720850 0.101340 
#    z 0.052210 0.101340 1.730350 
# 
# From -- ./inp_files/338221.got.cif
#   From: 2010.05.17/outbox.cif.g08.bks.cpg/sg2_170_cif.got.tgz:338221.got - 2010.06.03 11:33:40.
