data_PCOD9060301
_publ_section_title
;
Structure prediction by ZEFSAII (Michael W. Deem and Ramdas Pophale) SiO2 
 PCOD9060301
Probable space group: P -1
;
_chemical_formula_sum "Si O2"
_cell_formula_units_Z 16
_cell_length_a 8.369027
_cell_length_b 28.497164
_cell_length_c 15.660955
_cell_angle_alpha 161.697732
_cell_angle_beta 129.770349
_cell_angle_gamma 39.681527
_cell_volume 667.433660
_symmetry_space_group_name_H-M "P -1"
_symmetry_group_IT_number 2
_symmetry_cell_setting 'triclinic'
loop_
_space_group_symop_operation_xyz
x,y,z
-x,-y,-z
loop_
_atom_site_type_symbol
_atom_site_label
_atom_site_fract_x
_atom_site_fract_y
_atom_site_fract_z
Si Si1 0.931357 0.167504 0.446805
Si Si2 0.679596 0.503313 0.672023
Si Si3 0.149789 0.186705 0.982200
Si Si4 0.347018 0.521639 0.807734
Si Si5 0.774449 0.771995 0.725024
Si Si6 0.388192 0.760793 0.369371
Si Si7 0.964179 0.572402 0.016794
Si Si8 0.451496 0.748829 0.845362
O O1 0.684706 0.353490 0.624809
O O2 0.772147 0.165601 0.467942
O O3 0.102023 0.220795 0.640217
O O4 0.141225 0.966971 0.118370
O O5 0.522010 0.668253 0.827604
O O6 0.539469 0.410514 0.478039
O O7 0.981587 0.316172 0.411276
O O8 0.738291 0.585941 0.912078
O O9 0.304859 0.952546 0.624082
O O10 0.126815 0.231075 0.151649
O O11 0.335507 0.230960 0.082484
O O12 0.859392 0.320626 0.063380
O O13 0.271904 0.383939 0.557933
O O14 0.305550 0.654243 0.102682
O O15 0.500000 0.000000 0.000000
O O16 0.725172 0.593951 0.205644
O O17 0.000000 0.500000 0.000000
#
# Coordination Sequence:
#
# PCOD9060301 Si02
#       8
#     2   2   2   2   2   2   2   2
#     4  11  24  46  71 104 141 191 236 286 365 424
#     4  11  24  47  69 102 145 186 230 297 361 421
#     4  12  25  44  72 107 140 182 246 291 353 418
#     4  11  23  43  69 103 139 182 236 297 342 424
#     4  12  24  45  77 102 140 192 234 293 358 427
#     4  11  24  45  72 102 143 191 239 287 361 426
#     4  11  24  46  73 106 142 185 240 297 356 423
#     4  11  26  44  71 106 145 184 237 296 356 419
#
# _framework density 23.972417
#
# number of rings (size 3 to 8) (size 9 to 14) (size 15 to 20)
#    0.000    0.750    1.250    7.500    0.000    2.500 
#   11.250    3.750    0.000    0.000    0.000    0.000 
#    0.000    0.000    0.000    0.000    0.000    0.000 
#
# Total GULP energy -89666.200690 kJ/mol
# GULP energy per Si atom -5604.137543 kJ/mol
# Density = 2.391786 g / cm^3
# Si number density = 23.972417 Si / 1000 Ang^3
#
#
#
# Elastic Constant Matrix: (Units=GPa)
#
#
# Indices 1 2 3 4 5 6 
#
# 1 58.1787 1.3090 19.9043 -7.9987 14.0482 -1.4811
# 2 1.3090 142.1360 33.4698 -22.7752 18.4007 1.2622
# 3 19.9043 33.4698 110.9732 -9.4569 42.8746 -6.5423
# 4 -7.9987 -22.7752 -9.4569 37.8958 -2.4129 3.1132
# 5 14.0482 18.4007 42.8746 -2.4129 43.0475 -3.4653
# 6 -1.4811 1.2622 -6.5423 3.1132 -3.4653 28.0513
#
#
#
# Elastic Compliance Matrix: (Units=1/GPa)
#
#
# Indices 1 2 3 4 5 6 
#
# 1 0.019564 0.001589 -0.001618 0.004392 -0.005250 -0.000552
# 2 0.001589 0.008528 -0.001578 0.005038 -0.002433 -0.001527
# 3 -0.001618 -0.001578 0.015371 0.001523 -0.013886 0.001686
# 4 0.004392 0.005038 0.001523 0.030778 -0.003661 -0.003508
# 5 -0.005250 -0.002433 -0.013886 -0.003661 0.039763 0.001912
# 6 -0.000552 -0.001527 0.001686 -0.003508 0.001912 0.036707
#
#
# Mechanical properties :
#
#
# Convention : Reuss Voigt Hill
#
# Bulk Modulus (GPa) = 24.84487 46.73935 35.79211
# Shear Modulus (GPa) = 29.87906 38.90591 34.39248
#
# Velocity S-wave (km/s) = 3.53426 4.03295 3.79181
# Velocity P-wave (km/s) = 5.20011 6.42072 5.84238
#
# Compressibility (1/GPa) = 0.04024975
#
# Stress axis : x y z
#
# Youngs Moduli (GPa) = 51.11490 117.25823 65.05590
#
# Poissons Ratio (x) = -0.18634 0.10526
# Poissons Ratio (y) = -0.08123 0.10265
# Poissons Ratio (z) = 0.08271 0.18502
#
# Static dielectric constant tensor:
#      x y z
#    x 1.952400 -0.005870 0.027040 
#    y -0.005870 1.905560 -0.021320 
#    z 0.027040 -0.021320 1.894200 
# 
# From -- ./inp_files/509032.got.cif
#   From: 2010.05.17/outbox.cif.g08.bks.cpg/sg2_255_cif.got.tgz:509032.got - 2010.06.03 11:33:40.
