data_PCOD9060427
_publ_section_title
;
Structure prediction by ZEFSAII (Michael W. Deem and Ramdas Pophale) SiO2 
 PCOD9060427
Probable space group: P -1
;
_chemical_formula_sum "Si O2"
_cell_formula_units_Z 16
_cell_length_a 8.922080
_cell_length_b 8.735446
_cell_length_c 11.944088
_cell_angle_alpha 122.654207
_cell_angle_beta 61.783980
_cell_angle_gamma 98.286081
_cell_volume 682.859918
_symmetry_space_group_name_H-M "P -1"
_symmetry_group_IT_number 2
_symmetry_cell_setting 'triclinic'
loop_
_space_group_symop_operation_xyz
x,y,z
-x,-y,-z
loop_
_atom_site_type_symbol
_atom_site_label
_atom_site_fract_x
_atom_site_fract_y
_atom_site_fract_z
Si Si1 0.885431 0.227686 0.898722
Si Si2 0.786860 0.900304 0.121491
Si Si3 0.342481 0.412247 0.583072
Si Si4 0.262306 0.527316 0.309214
Si Si5 0.618610 0.592383 0.170543
Si Si6 0.206612 0.125830 0.156683
Si Si7 0.955192 0.794938 0.407423
Si Si8 0.186313 0.728661 0.646384
O O1 0.019043 0.174370 0.932976
O O2 0.006398 0.226473 0.746986
O O3 0.760147 0.070933 0.873060
O O4 0.765017 0.419635 0.030190
O O5 0.668360 0.761044 0.152525
O O6 0.728654 0.097823 0.277200
O O7 0.778129 0.909549 0.995127
O O8 0.500000 0.500000 0.500000
O O9 0.384323 0.372639 0.681234
O O10 0.238801 0.247367 0.513107
O O11 0.196041 0.589500 0.691219
O O12 0.427225 0.562738 0.195501
O O13 0.286673 0.307050 0.228310
O O14 0.256742 0.618250 0.469098
O O15 0.090633 0.635002 0.355051
O O16 0.007939 0.193021 0.281985
O O17 0.000000 0.000000 0.500000
#
# Coordination Sequence:
#
# PCOD9060427 Si02
#       8
#     2   2   2   2   2   2   2   2
#     4  11  24  43  73 101 139 185 237 291 350 427
#     4  11  23  43  72  99 137 184 240 292 346 428
#     4  12  25  45  72 103 140 186 237 289 350 431
#     4  12  27  44  69 103 148 185 230 297 361 422
#     4  12  26  44  69 106 142 184 238 292 354 420
#     4  11  23  43  72 101 136 186 233 289 358 423
#     4  12  27  46  73 107 144 186 237 297 363 420
#     4  11  23  43  70  99 135 183 238 286 353 428
#
# _framework density 23.430868
#
# number of rings (size 3 to 8) (size 9 to 14) (size 15 to 20)
#    0.000    0.500    3.750    6.000    1.750    4.000 
#    0.000    0.000    0.000    0.000    0.000    0.000 
#    0.000    0.000    0.000    0.000    0.000    0.000 
#
# Total GULP energy -89397.339443 kJ/mol
# GULP energy per Si atom -5587.333715 kJ/mol
# Density = 2.337754 g / cm^3
# Si number density = 23.430868 Si / 1000 Ang^3
#
#
#
# Elastic Constant Matrix: (Units=GPa)
#
#
# Indices 1 2 3 4 5 6 
#
# 1 52.5564 29.1168 30.0708 1.4821 -11.1943 24.1273
# 2 29.1168 130.2198 0.9827 -22.7381 19.5086 53.2933
# 3 30.0708 0.9827 28.5382 -44.7958 46.4939 39.3986
# 4 1.4821 -22.7381 -44.7958 18.6018 20.3723 12.3299
# 5 -11.1943 19.5086 46.4939 20.3723 3.6794 -14.8280
# 6 24.1273 53.2933 39.3986 12.3299 -14.8280 51.2329
#
#
#
# Elastic Compliance Matrix: (Units=1/GPa)
#
#
# Indices 1 2 3 4 5 6 
#
# 1 0.025005 0.000607 -0.000719 0.005260 0.000355 -0.013018
# 2 0.000607 0.008394 -0.004282 -0.001684 0.003970 -0.004170
# 3 -0.000719 -0.004282 0.005104 -0.005992 0.008994 0.004913
# 4 0.005260 -0.001684 -0.005992 0.018249 0.014716 0.003750
# 5 0.000355 0.003970 0.008994 0.014716 0.016742 -0.009909
# 6 -0.013018 -0.004170 0.004913 0.003750 -0.009909 0.022439
#
#
# Mechanical properties :
#
#
# Convention : Reuss Voigt Hill
#
# Bulk Modulus (GPa) = 33.65149 36.85057 35.25103
# Shear Modulus (GPa) = 43.62016 24.77909 34.19963
#
# Velocity S-wave (km/s) = 4.31937 3.25551 3.82461
# Velocity P-wave (km/s) = 6.26651 5.46742 5.88055
#
# Compressibility (1/GPa) = 0.02971636
#
# Stress axis : x y z
#
# Youngs Moduli (GPa) = 39.99125 119.13556 195.91392
#
# Poissons Ratio (x) = -0.07235 0.14081
# Poissons Ratio (y) = -0.02429 0.83893
# Poissons Ratio (z) = 0.02874 0.51016
#
# Static dielectric constant tensor:
#      x y z
#    x 1.979650 -0.008240 0.017300 
#    y -0.008240 1.943460 0.012120 
#    z 0.017300 0.012120 1.885540 
# 
# From -- ./inp_files/383126.got.cif
#   From: 2010.05.17/outbox.cif.g08.bks.cpg/sg2_192_cif.got.tgz:383126.got - 2010.06.03 11:33:40.
