data_PCOD9060969
_publ_section_title
;
Structure prediction by ZEFSAII (Michael W. Deem and Ramdas Pophale) SiO2 
 PCOD9060969
Probable space group: P -1
;
_chemical_formula_sum "Si O2"
_cell_formula_units_Z 16
_cell_length_a 5.227830
_cell_length_b 18.101865
_cell_length_c 8.938697
_cell_angle_alpha 95.240733
_cell_angle_beta 126.077591
_cell_angle_gamma 80.058551
_cell_volume 673.351266
_symmetry_space_group_name_H-M "P -1"
_symmetry_group_IT_number 2
_symmetry_cell_setting 'triclinic'
loop_
_space_group_symop_operation_xyz
x,y,z
-x,-y,-z
loop_
_atom_site_type_symbol
_atom_site_label
_atom_site_fract_x
_atom_site_fract_y
_atom_site_fract_z
Si Si1 0.254351 0.812642 0.396190
Si Si2 0.089133 0.511621 0.201619
Si Si3 0.363722 0.073319 0.557735
Si Si4 0.768682 0.162432 0.267840
Si Si5 0.373551 0.079175 0.896912
Si Si6 0.009939 0.323975 0.878443
Si Si7 0.216780 0.693415 0.864256
Si Si8 0.236299 0.549870 0.667975
O O1 0.562976 0.844641 0.450213
O O2 0.300470 0.799119 0.586913
O O3 0.982865 0.883265 0.268900
O O4 0.146597 0.742136 0.264563
O O5 0.439150 0.461799 0.318384
O O6 0.119886 0.598977 0.237982
O O7 0.795488 0.489028 0.189380
O O8 0.000000 0.500000 0.000000
O O9 0.507048 0.067268 0.772033
O O10 0.988474 0.086039 0.385916
O O11 0.500000 0.000000 0.500000
O O12 0.895868 0.221859 0.211540
O O13 0.487931 0.136850 0.065997
O O14 0.500000 0.000000 0.000000
O O15 0.395016 0.315118 0.994752
O O16 0.919093 0.324852 0.023737
O O17 0.137983 0.636172 0.696750
O O18 0.000000 0.500000 0.500000
#
# Coordination Sequence:
#
# PCOD9060969 Si02
#       8
#     2   2   2   2   2   2   2   2
#     4  11  26  44  67 103 138 184 239 289 359 432
#     4  12  23  46  70 100 137 190 239 296 355 426
#     4  11  25  44  69 104 140 183 241 293 357 430
#     4  11  26  43  68 101 142 183 235 296 360 419
#     4  11  23  44  70  98 137 182 230 291 356 424
#     4  12  26  44  75 100 142 188 246 293 363 429
#     4  12  25  46  70 103 142 191 237 296 363 432
#     4  12  26  44  69 105 145 184 244 296 360 425
#
# _framework density 23.761744
#
# number of rings (size 3 to 8) (size 9 to 14) (size 15 to 20)
#    0.000    0.500    3.750    3.750    5.250    7.000 
#    0.000    0.000    0.000    0.000    0.000    0.000 
#    0.000    0.000    0.000    0.000    0.000    0.000 
#
# Total GULP energy -89187.565672 kJ/mol
# GULP energy per Si atom -5574.222855 kJ/mol
# Density = 2.370766 g / cm^3
# Si number density = 23.761744 Si / 1000 Ang^3
#
#
#
# Elastic Constant Matrix: (Units=GPa)
#
#
# Indices 1 2 3 4 5 6 
#
# 1 59.8186 -9.2343 10.5887 -7.1021 -7.7137 2.2453
# 2 -9.2343 75.0845 -9.9018 -0.5065 -2.3511 5.0810
# 3 10.5887 -9.9018 112.1526 8.8053 -2.6973 -6.8506
# 4 -7.1021 -0.5065 8.8053 48.6481 7.1267 -6.1454
# 5 -7.7137 -2.3511 -2.6973 7.1267 33.7932 -0.5691
# 6 2.2453 5.0810 -6.8506 -6.1454 -0.5691 29.5587
#
#
#
# Elastic Compliance Matrix: (Units=1/GPa)
#
#
# Indices 1 2 3 4 5 6 
#
# 1 0.018166 0.002249 -0.001704 0.002241 0.003667 -0.001625
# 2 0.002249 0.013925 0.000928 -0.000222 0.001563 -0.002366
# 3 -0.001704 0.000928 0.009434 -0.001845 0.000848 0.001789
# 4 0.002241 -0.000222 -0.001845 0.022350 -0.004297 0.004004
# 5 0.003667 0.001563 0.000848 -0.004297 0.031501 -0.000638
# 6 -0.001625 -0.002366 0.001789 0.004004 -0.000638 0.035596
#
#
# Mechanical properties :
#
#
# Convention : Reuss Voigt Hill
#
# Bulk Modulus (GPa) = 22.48637 25.55120 24.01879
# Shear Modulus (GPa) = 35.00225 39.44020 37.22122
#
# Velocity S-wave (km/s) = 3.84220 4.07851 3.96211
# Velocity P-wave (km/s) = 5.40066 5.74068 5.57326
#
# Compressibility (1/GPa) = 0.04447138
#
# Stress axis : x y z
#
# Youngs Moduli (GPa) = 55.04797 71.81412 106.00341
#
# Poissons Ratio (x) = -0.16154 0.18058
# Poissons Ratio (y) = -0.12382 -0.09833
# Poissons Ratio (z) = 0.09378 -0.06661
#
# Static dielectric constant tensor:
#      x y z
#    x 1.826700 0.061170 0.064910 
#    y 0.061170 1.938110 -0.066060 
#    z 0.064910 -0.066060 1.972160 
# 
# From -- ./inp_files/139188.got.cif
#   From: 2010.05.17/outbox.cif.g08.bks.cpg/sg2_70_cif.got.tgz:139188.got - 2010.06.03 11:33:40.
