data_PCOD9060854
_publ_section_title
;
Structure prediction by ZEFSAII (Michael W. Deem and Ramdas Pophale) SiO2 
 PCOD9060854
Probable space group: P -1
;
_chemical_formula_sum "Si O2"
_cell_formula_units_Z 16
_cell_length_a 11.595784
_cell_length_b 13.767686
_cell_length_c 7.000392
_cell_angle_alpha 117.041473
_cell_angle_beta 89.591381
_cell_angle_gamma 52.568159
_cell_volume 724.172785
_symmetry_space_group_name_H-M "P -1"
_symmetry_group_IT_number 2
_symmetry_cell_setting 'triclinic'
loop_
_space_group_symop_operation_xyz
x,y,z
-x,-y,-z
loop_
_atom_site_type_symbol
_atom_site_label
_atom_site_fract_x
_atom_site_fract_y
_atom_site_fract_z
Si Si1 0.690771 0.712976 0.362176
Si Si2 0.551569 0.295210 0.818238
Si Si3 0.346574 0.140864 0.851358
Si Si4 0.541917 0.128514 0.158619
Si Si5 0.206390 0.901164 0.067878
Si Si6 0.996082 0.581034 0.755522
Si Si7 0.399157 0.557511 0.360090
Si Si8 0.079568 0.765812 0.762016
O O1 0.579912 0.706337 0.234625
O O2 0.661247 0.844946 0.366363
O O3 0.617674 0.753499 0.611431
O O4 0.868802 0.554980 0.229785
O O5 0.587714 0.341442 0.672210
O O6 0.714874 0.144563 0.766689
O O7 0.474983 0.419320 0.095295
O O8 0.355535 0.015610 0.832197
O O9 0.487459 0.108432 0.941812
O O10 0.180414 0.303273 0.056909
O O11 0.651163 0.159129 0.132250
O O12 0.143987 0.820115 0.950380
O O13 0.070981 0.078904 0.196179
O O14 0.038518 0.678507 0.785722
O O15 0.000000 0.500000 0.500000
O O16 0.500000 0.500000 0.500000
O O17 0.219344 0.651784 0.507721
#
# Coordination Sequence:
#
# PCOD9060854 Si02
#       8
#     2   2   2   2   2   2   2   2
#     4  12  25  41  72 103 136 185 236 286 350 408
#     4  11  25  41  71 107 135 181 236 283 341 425
#     4  11  24  46  70  99 138 188 235 286 346 408
#     4  11  23  46  72  98 141 183 232 291 344 414
#     4  11  23  46  71 104 139 179 237 282 349 414
#     4  12  26  46  69 103 142 184 232 287 353 412
#     4  11  23  44  69 100 141 180 227 283 347 411
#     4  11  25  44  75  97 140 192 218 290 356 404
#
# _framework density 22.094175
#
# number of rings (size 3 to 8) (size 9 to 14) (size 15 to 20)
#    0.000    0.750    5.000    2.250    5.250    0.500 
#    2.250    0.000    0.000    0.000    0.000    0.000 
#    0.000    0.000    0.000    0.000    0.000    0.000 
#
# Total GULP energy -89442.000100 kJ/mol
# GULP energy per Si atom -5590.125006 kJ/mol
# Density = 2.204389 g / cm^3
# Si number density = 22.094175 Si / 1000 Ang^3
#
#
#
# Elastic Constant Matrix: (Units=GPa)
#
#
# Indices 1 2 3 4 5 6 
#
# 1 73.8074 48.8118 14.9972 -14.9480 5.2011 1.8504
# 2 48.8118 163.2996 20.6835 -20.7541 1.5115 -12.1313
# 3 14.9972 20.6835 65.6866 -16.1725 -8.0459 -2.5107
# 4 -14.9480 -20.7541 -16.1725 37.7323 -8.2042 -4.7250
# 5 5.2011 1.5115 -8.0459 -8.2042 29.9115 5.1198
# 6 1.8504 -12.1313 -2.5107 -4.7250 5.1198 36.1165
#
#
#
# Elastic Compliance Matrix: (Units=1/GPa)
#
#
# Indices 1 2 3 4 5 6 
#
# 1 0.018006 -0.004879 -0.002285 0.002692 -0.002414 -0.002026
# 2 -0.004879 0.008263 -0.000593 0.002878 0.000498 0.003290
# 3 -0.002285 -0.000593 0.019100 0.008804 0.007758 0.001298
# 4 0.002692 0.002878 0.008804 0.035850 0.010801 0.004600
# 5 -0.002414 0.000498 0.007758 0.010801 0.039449 -0.003349
# 6 -0.002026 0.003290 0.001298 0.004600 -0.003349 0.030064
#
#
# Mechanical properties :
#
#
# Convention : Reuss Voigt Hill
#
# Bulk Modulus (GPa) = 33.49491 52.41984 42.95738
# Shear Modulus (GPa) = 28.37762 35.30549 31.84156
#
# Velocity S-wave (km/s) = 3.58773 4.00178 3.80040
# Velocity P-wave (km/s) = 5.68818 6.71785 6.22434
#
# Compressibility (1/GPa) = 0.02985528
#
# Stress axis : x y z
#
# Youngs Moduli (GPa) = 55.53831 121.02639 52.35690
#
# Poissons Ratio (x) = 0.59045 0.11964
# Poissons Ratio (y) = 0.27095 0.03102
# Poissons Ratio (z) = 0.12691 0.07171
#
# Static dielectric constant tensor:
#      x y z
#    x 1.825830 0.038870 -0.022550 
#    y 0.038870 1.847470 -0.001790 
#    z -0.022550 -0.001790 1.837070 
# 
# From -- ./inp_files/78362.got.cif
#   From: 2010.05.17/outbox.cif.g08.bks.cpg/sg2_40_cif.got.tgz:78362.got - 2010.06.03 11:33:40.
