data_PCOD9060096
_publ_section_title
;
Structure prediction by ZEFSAII (Michael W. Deem and Ramdas Pophale) SiO2 
 PCOD9060096
Probable space group: P -1
;
_chemical_formula_sum "Si O2"
_cell_formula_units_Z 16
_cell_length_a 5.000238
_cell_length_b 19.984772
_cell_length_c 12.128053
_cell_angle_alpha 137.104068
_cell_angle_beta 115.710661
_cell_angle_gamma 74.495612
_cell_volume 740.733764
_symmetry_space_group_name_H-M "P -1"
_symmetry_group_IT_number 2
_symmetry_cell_setting 'triclinic'
loop_
_space_group_symop_operation_xyz
x,y,z
-x,-y,-z
loop_
_atom_site_type_symbol
_atom_site_label
_atom_site_fract_x
_atom_site_fract_y
_atom_site_fract_z
Si Si1 0.914704 0.796158 0.474216
Si Si2 0.259699 0.988577 0.343275
Si Si3 0.473307 0.289362 0.516598
Si Si4 0.873175 0.789031 0.094510
Si Si5 0.789676 0.071705 0.984168
Si Si6 0.340666 0.205088 0.164964
Si Si7 0.348165 0.501665 0.093436
Si Si8 0.511798 0.294304 0.890395
O O1 0.815036 0.768229 0.547345
O O2 0.670581 0.728442 0.280698
O O3 0.239290 0.766969 0.467021
O O4 0.885798 0.908167 0.570860
O O5 0.025989 0.898060 0.228393
O O6 0.500000 0.000000 0.500000
O O7 0.349553 0.970171 0.207964
O O8 0.458819 0.278021 0.369105
O O9 0.534579 0.401074 0.702205
O O10 0.638255 0.784310 0.144934
O O11 0.146374 0.723096 0.087842
O O12 0.699980 0.750170 0.908047
O O13 0.545441 0.114063 0.071306
O O14 0.016472 0.161627 0.093415
O O15 0.000000 0.000000 0.000000
O O16 0.500000 0.500000 0.000000
O O17 0.441002 0.402164 0.047433
O O18 0.000000 0.500000 0.000000
#
# Coordination Sequence:
#
# PCOD9060096 Si02
#       8
#     2   2   2   2   2   2   2   2
#     4  12  25  39  67  98 134 166 214 270 329 383
#     4  11  24  40  64 100 132 177 220 267 321 391
#     4  12  24  45  66 101 127 165 222 275 323 397
#     4  11  25  43  62  93 136 176 214 259 321 390
#     4  11  23  43  62  92 131 177 227 269 320 387
#     4  11  24  42  66  87 131 178 213 263 325 383
#     4  12  23  42  69  99 128 163 213 274 343 383
#     4  12  23  43  65  95 132 169 209 270 332 387
#
# _framework density 21.600204000000002
#
# number of rings (size 3 to 8) (size 9 to 14) (size 15 to 20)
#    0.000    0.500    3.750    5.625    0.000    4.500 
#    0.000    1.250    0.000    0.000    0.000    0.000 
#    0.000    0.000    0.000    0.000    0.000    0.000 
#
# Total GULP energy -89494.335584 kJ/mol
# GULP energy per Si atom -5593.395974 kJ/mol
# Density = 2.155104 g / cm^3
# Si number density = 21.600204 Si / 1000 Ang^3
#
#
#
# Elastic Constant Matrix: (Units=GPa)
#
#
# Indices 1 2 3 4 5 6 
#
# 1 86.4261 1.9011 13.1734 0.4275 -7.0454 -3.3109
# 2 1.9011 42.5691 36.3265 6.7471 3.4172 3.4826
# 3 13.1734 36.3265 149.5940 -7.0411 -18.7640 -3.0896
# 4 0.4275 6.7471 -7.0411 49.4282 1.5562 -7.1145
# 5 -7.0454 3.4172 -18.7640 1.5562 21.9970 -5.0334
# 6 -3.3109 3.4826 -3.0896 -7.1145 -5.0334 33.8048
#
#
#
# Elastic Compliance Matrix: (Units=1/GPa)
#
#
# Indices 1 2 3 4 5 6 
#
# 1 0.012043 -0.000771 -0.000312 0.000095 0.004131 0.001865
# 2 -0.000771 0.036692 -0.011554 -0.007405 -0.017351 -0.009053
# 3 -0.000312 -0.011554 0.011308 0.003490 0.012179 0.004741
# 4 0.000095 -0.007405 0.003490 0.022538 0.004035 0.006435
# 5 0.004131 -0.017351 0.012179 0.004035 0.062668 0.013485
# 6 0.001865 -0.009053 0.004741 0.006435 0.013485 0.034493
#
#
# Mechanical properties :
#
#
# Convention : Reuss Voigt Hill
#
# Bulk Modulus (GPa) = 28.76120 42.37680 35.56900
# Shear Modulus (GPa) = 23.08348 36.19187 29.63767
#
# Velocity S-wave (km/s) = 3.27260 4.09777 3.70821
# Velocity P-wave (km/s) = 5.25585 6.48462 5.90230
#
# Compressibility (1/GPa) = 0.03476906
#
# Stress axis : x y z
#
# Youngs Moduli (GPa) = 83.03690 27.25354 88.43473
#
# Poissons Ratio (x) = 0.02100 0.02762
# Poissons Ratio (y) = 0.06399 1.02179
# Poissons Ratio (z) = 0.02593 0.31489
#
# Static dielectric constant tensor:
#      x y z
#    x 1.795610 0.025470 -0.039820 
#    y 0.025470 1.833600 -0.023220 
#    z -0.039820 -0.023220 1.828100 
# 
# From -- ./inp_files/370471.got.cif
#   From: 2010.05.17/outbox.cif.g08.bks.cpg/sg2_186_cif.got.tgz:370471.got - 2010.06.03 11:33:40.
