data_PCOD9060119
_publ_section_title
;
Structure prediction by ZEFSAII (Michael W. Deem and Ramdas Pophale) SiO2 
 PCOD9060119
Probable space group: P -1
;
_chemical_formula_sum "Si O2"
_cell_formula_units_Z 14
_cell_length_a 9.136563
_cell_length_b 6.676991
_cell_length_c 17.929292
_cell_angle_alpha 111.509762
_cell_angle_beta 76.992804
_cell_angle_gamma 53.415739
_cell_volume 657.456565
_symmetry_space_group_name_H-M "P -1"
_symmetry_group_IT_number 2
_symmetry_cell_setting 'triclinic'
loop_
_space_group_symop_operation_xyz
x,y,z
-x,-y,-z
loop_
_atom_site_type_symbol
_atom_site_label
_atom_site_fract_x
_atom_site_fract_y
_atom_site_fract_z
Si Si1 0.935111 0.911177 0.854603
Si Si2 0.235841 0.179471 0.748941
Si Si3 0.365177 0.162798 0.458802
Si Si4 0.144703 0.133399 0.912220
Si Si5 0.910417 0.142528 0.748472
Si Si6 0.054444 0.097513 0.438656
Si Si7 0.464932 0.785442 0.966095
O O1 0.081703 0.558702 0.823108
O O2 0.996913 0.855541 0.752038
O O3 0.003497 0.069275 0.902164
O O4 0.674055 0.141495 0.935685
O O5 0.280344 0.050271 0.810201
O O6 0.089323 0.144099 0.723926
O O7 0.452076 0.996119 0.649188
O O8 0.222705 0.099854 0.449682
O O9 0.175129 0.553347 0.523075
O O10 0.500000 0.000000 0.500000
O O11 0.300234 0.914943 0.934029
O O12 0.000000 0.500000 0.000000
O O13 0.703970 0.441515 0.864498
O O14 0.837634 0.145850 0.676266
O O15 0.000000 0.000000 0.500000
O O16 0.500000 0.000000 0.000000
#
# Coordination Sequence:
#
# PCOD9060119 Si02
#       7
#     2   2   2   2   2   2   2
#     4  11  23  43  65  95 137 178 224 275 343 404
#     4  11  24  43  68  95 132 177 223 277 345 406
#     4  11  26  48  73 101 140 180 231 294 353 412
#     4  11  24  41  63  97 133 177 230 272 333 412
#     4  11  25  42  67 100 133 177 227 278 342 408
#     4  11  27  47  72 106 137 179 237 289 351 419
#     4  12  23  42  64  96 138 176 220 280 332 399
#
# _framework density 21.294181999999999
#
# number of rings (size 3 to 8) (size 9 to 14) (size 15 to 20)
#    0.000    0.857    2.857    3.429    4.000    5.714 
#    0.000    0.000    0.000    0.000    0.000    0.000 
#    0.000    0.000    0.000    0.000    0.000    0.000 
#
# Total GULP energy -78230.798642 kJ/mol
# GULP energy per Si atom -5587.914189 kJ/mol
# Density = 2.124572 g / cm^3
# Si number density = 21.294182 Si / 1000 Ang^3
#
#
#
# Elastic Constant Matrix: (Units=GPa)
#
#
# Indices 1 2 3 4 5 6 
#
# 1 100.5524 45.4906 46.4127 -18.4146 -11.3528 9.3335
# 2 45.4906 79.5164 29.5218 -19.0447 -1.0654 11.4686
# 3 46.4127 29.5218 105.8765 -17.7483 -13.1723 14.9229
# 4 -18.4146 -19.0447 -17.7483 36.4133 -4.5023 -7.2429
# 5 -11.3528 -1.0654 -13.1723 -4.5023 44.1412 -10.1167
# 6 9.3335 11.4686 14.9229 -7.2429 -10.1167 40.7820
#
#
#
# Elastic Compliance Matrix: (Units=1/GPa)
#
#
# Indices 1 2 3 4 5 6 
#
# 1 0.015834 -0.006888 -0.004298 0.002945 0.003200 0.001203
# 2 -0.006888 0.018483 -0.001155 0.004841 -0.001816 -0.002789
# 3 -0.004298 -0.001155 0.012836 0.003364 0.002545 -0.002160
# 4 0.002945 0.004841 0.003364 0.034822 0.006466 0.004522
# 5 0.003200 -0.001816 0.002545 0.006466 0.026350 0.006532
# 6 0.001203 -0.002789 -0.002160 0.004522 0.006532 0.028243
#
#
# Mechanical properties :
#
#
# Convention : Reuss Voigt Hill
#
# Bulk Modulus (GPa) = 44.50428 58.75505 51.62967
# Shear Modulus (GPa) = 29.63092 35.23530 32.43311
#
# Velocity S-wave (km/s) = 3.73433 4.07220 3.90692
# Velocity P-wave (km/s) = 6.28799 7.05425 6.68211
#
# Compressibility (1/GPa) = 0.02246975
#
# Stress axis : x y z
#
# Youngs Moduli (GPa) = 63.15440 54.10374 77.90400
#
# Poissons Ratio (x) = 0.37267 0.33486
# Poissons Ratio (y) = 0.43501 0.09001
# Poissons Ratio (z) = 0.27146 0.06251
#
# Static dielectric constant tensor:
#      x y z
#    x 1.729290 -0.015330 -0.007990 
#    y -0.015330 1.846180 0.047460 
#    z -0.007990 0.047460 1.760620 
# 
# From -- ./inp_files/46997.got.cif
#   From: 2010.05.17/outbox.cif.g08.bks.cpg/sg2_24_cif.got.tgz:46997.got - 2010.06.03 11:33:40.
