data_PCOD9060431
_publ_section_title
;
Structure prediction by ZEFSAII (Michael W. Deem and Ramdas Pophale) SiO2 
 PCOD9060431
Probable space group: P -1
;
_chemical_formula_sum "Si O2"
_cell_formula_units_Z 12
_cell_length_a 11.937768
_cell_length_b 8.404900
_cell_length_c 10.282993
_cell_angle_alpha 89.921709
_cell_angle_beta 37.193031
_cell_angle_gamma 109.000771
_cell_volume 524.784872
_symmetry_space_group_name_H-M "P -1"
_symmetry_group_IT_number 2
_symmetry_cell_setting 'triclinic'
loop_
_space_group_symop_operation_xyz
x,y,z
-x,-y,-z
loop_
_atom_site_type_symbol
_atom_site_label
_atom_site_fract_x
_atom_site_fract_y
_atom_site_fract_z
Si Si1 0.666731 0.201939 0.494695
Si Si2 0.984661 0.372282 0.736893
Si Si3 0.042136 0.830360 0.969233
Si Si4 0.516415 0.898187 0.858864
Si Si5 0.593126 0.607603 0.279505
Si Si6 0.339686 0.369392 0.262812
O O1 0.865609 0.407912 0.361641
O O2 0.743661 0.150325 0.292290
O O3 0.464052 0.231506 0.670403
O O4 0.601827 0.041229 0.660006
O O5 0.108043 0.350126 0.498824
O O6 0.989969 0.253324 0.855984
O O7 0.729245 0.282430 0.942751
O O8 0.847062 0.682889 0.053391
O O9 0.000000 0.000000 0.000000
O O10 0.679776 0.827830 0.731286
O O11 0.500000 0.000000 0.000000
O O12 0.500000 0.500000 0.500000
O O13 0.469415 0.470194 0.275284
O O14 0.500000 0.500000 0.000000
#
# Coordination Sequence:
#
# PCOD9060431 Si02
#       6
#     2   2   2   2   2   2
#     4  11  25  42  70 102 137 180 229 283 344 408
#     4  11  25  45  68  99 138 180 228 285 344 404
#     4  12  24  40  68 103 139 179 229 284 347 405
#     4  12  27  45  70 101 138 182 233 283 342 415
#     4  11  23  43  70  99 137 181 228 279 343 404
#     4  11  25  46  73  99 139 184 229 283 345 411
#
# _framework density 22.866510999999999
#
# number of rings (size 3 to 8) (size 9 to 14) (size 15 to 20)
#    0.000    0.667    3.333    5.500    2.333    6.000 
#    0.000    0.000    0.000    0.000    0.000    0.000 
#    0.000    0.000    0.000    0.000    0.000    0.000 
#
# Total GULP energy -67149.155217 kJ/mol
# GULP energy per Si atom -5595.762935 kJ/mol
# Density = 2.281447 g / cm^3
# Si number density = 22.866511 Si / 1000 Ang^3
#
#
#
# Elastic Constant Matrix: (Units=GPa)
#
#
# Indices 1 2 3 4 5 6 
#
# 1 28.7088 -1.1504 15.7495 -4.2413 -1.1208 0.3180
# 2 -1.1504 86.4048 41.5125 17.4496 2.4495 -17.5591
# 3 15.7495 41.5125 146.7814 10.7805 14.2242 -19.7276
# 4 -4.2413 17.4496 10.7805 46.7522 -0.9612 -1.9329
# 5 -1.1208 2.4495 14.2242 -0.9612 55.4084 -7.1902
# 6 0.3180 -17.5591 -19.7276 -1.9329 -7.1902 46.6146
#
#
#
# Elastic Compliance Matrix: (Units=1/GPa)
#
#
# Indices 1 2 3 4 5 6 
#
# 1 0.038524 0.001953 -0.005346 0.003985 0.001963 -0.001322
# 2 0.001953 0.015055 -0.003675 -0.004412 0.000765 0.004037
# 3 -0.005346 -0.003675 0.008985 -0.001140 -0.002000 0.002099
# 4 0.003985 -0.004412 -0.001140 0.023634 0.000840 -0.001062
# 5 0.001963 0.000765 -0.002000 0.000840 0.018890 0.002377
# 6 -0.001322 0.004037 0.002099 -0.001062 0.002377 0.024193
#
#
# Mechanical properties :
#
#
# Convention : Reuss Voigt Hill
#
# Bulk Modulus (GPa) = 20.64968 41.56868 31.10918
# Shear Modulus (GPa) = 31.33613 43.47393 37.40503
#
# Velocity S-wave (km/s) = 3.70590 4.36501 4.04889
# Velocity P-wave (km/s) = 5.23084 6.60475 5.95754
#
# Compressibility (1/GPa) = 0.04842689
#
# Stress axis : x y z
#
# Youngs Moduli (GPa) = 25.95803 66.42454 111.29144
#
# Poissons Ratio (x) = -0.12970 0.59500
# Poissons Ratio (y) = -0.05068 0.40896
# Poissons Ratio (z) = 0.13878 0.24409
#
# Static dielectric constant tensor:
#      x y z
#    x 1.858550 0.029160 -0.104370 
#    y 0.029160 1.607770 -0.135610 
#    z -0.104370 -0.135610 1.898470 
# 
# From -- ./inp_files/160236.got.cif
#   From: 2010.05.17/outbox.cif.g08.bks.cpg/sg2_81_cif.got.tgz:160236.got - 2010.06.03 11:33:40.
