data_PCOD9060641
_publ_section_title
;
Structure prediction by ZEFSAII (Michael W. Deem and Ramdas Pophale) SiO2 
 PCOD9060641
Probable space group: P -1
;
_chemical_formula_sum "Si O2"
_cell_formula_units_Z 12
_cell_length_a 20.133141
_cell_length_b 11.340414
_cell_length_c 9.071499
_cell_angle_alpha 38.864053
_cell_angle_beta 149.602621
_cell_angle_gamma 152.234177
_cell_volume 487.179603
_symmetry_space_group_name_H-M "P -1"
_symmetry_group_IT_number 2
_symmetry_cell_setting 'triclinic'
loop_
_space_group_symop_operation_xyz
x,y,z
-x,-y,-z
loop_
_atom_site_type_symbol
_atom_site_label
_atom_site_fract_x
_atom_site_fract_y
_atom_site_fract_z
Si Si1 0.693586 0.731054 0.081893
Si Si2 0.665558 0.273375 0.219348
Si Si3 0.143515 0.792083 0.544043
Si Si4 0.687699 0.696921 0.757212
Si Si5 0.833545 0.458452 0.661544
Si Si6 0.702192 0.068312 0.992275
O O1 0.818743 0.669197 0.410556
O O2 0.748201 0.960496 0.061378
O O3 0.500000 0.500000 0.000000
O O4 0.675410 0.749298 0.854315
O O5 0.778261 0.326182 0.526333
O O6 0.000000 0.500000 0.500000
O O7 0.677116 0.119728 0.273913
O O8 0.744713 0.535278 0.040158
O O9 0.168413 0.031657 0.309956
O O10 0.154063 0.794684 0.736899
O O11 0.500000 0.500000 0.500000
O O12 0.478898 0.148279 0.056989
O O13 0.000000 0.500000 0.000000
O O14 0.687584 0.254643 0.702425
#
# Coordination Sequence:
#
# PCOD9060641 Si02
#       6
#     2   2   2   2   2   2
#     4  11  23  43  74 110 141 189 254 308 364 445
#     4  11  24  45  72 105 142 195 256 301 368 453
#     4  12  27  45  69 107 153 194 243 310 383 438
#     4  11  23  44  74 105 144 190 250 306 366 445
#     4  11  25  44  70 107 152 190 240 314 380 434
#     4  12  24  43  74 107 143 196 254 306 367 449
#
# _framework density 24.631571999999998
#
# number of rings (size 3 to 8) (size 9 to 14) (size 15 to 20)
#    0.000    0.667    5.000    3.000    2.333    2.667 
#    0.000    3.333    0.000    0.000    0.000    0.000 
#    0.000    0.000    0.000    0.000    0.000    0.000 
#
# Total GULP energy -67055.614403 kJ/mol
# GULP energy per Si atom -5587.967867 kJ/mol
# Density = 2.457551 g / cm^3
# Si number density = 24.631572 Si / 1000 Ang^3
#
#
#
# Elastic Constant Matrix: (Units=GPa)
#
#
# Indices 1 2 3 4 5 6 
#
# 1 115.6538 21.4276 56.8747 8.7939 -13.4713 -33.3863
# 2 21.4276 134.4787 71.5897 -1.7410 -13.5077 -5.4925
# 3 56.8747 71.5897 170.6604 -0.7618 -31.5459 -15.2676
# 4 8.7939 -1.7410 -0.7618 49.8163 5.6211 -7.7777
# 5 -13.4713 -13.5077 -31.5459 5.6211 53.4515 5.6047
# 6 -33.3863 -5.4925 -15.2676 -7.7777 5.6047 49.1378
#
#
#
# Elastic Compliance Matrix: (Units=1/GPa)
#
#
# Indices 1 2 3 4 5 6 
#
# 1 0.012589 0.000215 -0.003552 -0.001197 0.000499 0.007227
# 2 0.000215 0.009583 -0.004084 0.000226 0.000044 -0.000021
# 3 -0.003552 -0.004084 0.009400 0.000165 0.003638 -0.000338
# 4 -0.001197 0.000226 0.000165 0.021049 -0.002665 0.002899
# 5 0.000499 0.000044 0.003638 -0.002665 0.021419 -0.001391
# 6 0.007227 -0.000021 -0.000338 0.002899 -0.001391 0.025772
#
#
# Mechanical properties :
#
#
# Convention : Reuss Voigt Hill
#
# Bulk Modulus (GPa) = 59.77883 80.06410 69.92146
# Shear Modulus (GPa) = 41.58730 48.54116 45.06423
#
# Velocity S-wave (km/s) = 4.11344 4.44406 4.28194
# Velocity P-wave (km/s) = 6.84707 7.67516 7.27291
#
# Compressibility (1/GPa) = 0.01672833
#
# Stress axis : x y z
#
# Youngs Moduli (GPa) = 79.43432 104.35648 106.38744
#
# Poissons Ratio (x) = -0.02242 0.37790
# Poissons Ratio (y) = -0.01707 0.43450
# Poissons Ratio (z) = 0.28216 0.42620
#
# Static dielectric constant tensor:
#      x y z
#    x 1.928060 0.088980 0.031380 
#    y 0.088980 2.145850 0.052930 
#    z 0.031380 0.052930 1.947230 
# 
# From -- ./inp_files/345007.got.cif
#   From: 2010.05.17/outbox.cif.g08.bks.cpg/sg2_173_cif.got.tgz:345007.got - 2010.06.03 11:33:40.
