data_PCOD9060962
_publ_section_title
;
Structure prediction by ZEFSAII (Michael W. Deem and Ramdas Pophale) SiO2 
 PCOD9060962
Probable space group: P -1
;
_chemical_formula_sum "Si O2"
_cell_formula_units_Z 16
_cell_length_a 9.385153
_cell_length_b 12.119029
_cell_length_c 17.955738
_cell_angle_alpha 43.041535
_cell_angle_beta 131.738264
_cell_angle_gamma 98.711271
_cell_volume 783.266380
_symmetry_space_group_name_H-M "P -1"
_symmetry_group_IT_number 2
_symmetry_cell_setting 'triclinic'
loop_
_space_group_symop_operation_xyz
x,y,z
-x,-y,-z
loop_
_atom_site_type_symbol
_atom_site_label
_atom_site_fract_x
_atom_site_fract_y
_atom_site_fract_z
Si Si1 0.149848 0.793634 0.101832
Si Si2 0.640246 0.652569 0.543077
Si Si3 0.870632 0.422563 0.035295
Si Si4 0.024617 0.227663 0.622537
Si Si5 0.725050 0.251986 0.363967
Si Si6 0.657380 0.664395 0.366973
Si Si7 0.974011 0.763332 0.660275
Si Si8 0.087681 0.018582 0.224788
O O1 0.207285 0.591832 0.259941
O O2 0.410970 0.739674 0.201650
O O3 0.994955 0.854966 0.943050
O O4 0.000000 0.000000 0.000000
O O5 0.606419 0.667331 0.435146
O O6 0.781756 0.737870 0.572837
O O7 0.372206 0.798157 0.420690
O O8 0.885552 0.403387 0.139554
O O9 0.045159 0.175099 0.194461
O O10 0.580322 0.571396 0.832723
O O11 0.000000 0.500000 0.000000
O O12 0.845534 0.266599 0.472819
O O13 0.880576 0.426456 0.531370
O O14 0.258353 0.199052 0.685671
O O15 0.086880 0.034342 0.786636
O O16 0.834756 0.286637 0.313444
O O17 0.825165 0.010699 0.510462
#
# Coordination Sequence:
#
# PCOD9060962 Si02
#       8
#     2   2   2   2   2   2   2   2
#     4  12  24  42  67  99 136 175 222 276 329 396
#     4  12  24  45  70  99 136 178 227 269 338 408
#     4  12  26  42  67 106 134 171 227 276 334 400
#     4  11  23  44  71  97 132 180 222 275 337 395
#     4  11  24  48  69  96 139 174 227 276 335 400
#     4  11  23  44  70  97 135 177 224 275 335 398
#     4  11  25  45  73  96 133 187 215 278 340 395
#     4  12  25  42  69  97 136 177 219 282 335 391
#
# _framework density 20.427277
#
# number of rings (size 3 to 8) (size 9 to 14) (size 15 to 20)
#    0.000    0.500    5.000    3.750    1.750    1.500 
#    2.250    0.000    0.000    0.000    0.000    0.000 
#    0.000    0.000    0.000    0.000    0.000    0.000 
#
# Total GULP energy -89412.595042 kJ/mol
# GULP energy per Si atom -5588.287190 kJ/mol
# Density = 2.038078 g / cm^3
# Si number density = 20.427277 Si / 1000 Ang^3
#
#
#
# Elastic Constant Matrix: (Units=GPa)
#
#
# Indices 1 2 3 4 5 6 
#
# 1 110.5117 24.5002 23.9961 -16.5038 -16.6454 12.4522
# 2 24.5002 76.3800 -5.1017 -10.3347 -4.6049 8.3802
# 3 23.9961 -5.1017 32.5988 -13.1374 -12.2454 5.7045
# 4 -16.5038 -10.3347 -13.1374 32.8264 4.0767 -5.2117
# 5 -16.6454 -4.6049 -12.2454 4.0767 14.2907 -6.7007
# 6 12.4522 8.3802 5.7045 -5.2117 -6.7007 39.1617
#
#
#
# Elastic Compliance Matrix: (Units=1/GPa)
#
#
# Indices 1 2 3 4 5 6 
#
# 1 0.012700 -0.003760 -0.006436 0.001595 0.007213 -0.000850
# 2 -0.003760 0.016626 0.011341 0.006611 0.007981 -0.001769
# 3 -0.006436 0.011341 0.061253 0.019574 0.043402 0.000728
# 4 0.001595 0.006611 0.019574 0.040266 0.010382 0.002362
# 5 0.007213 0.007981 0.043402 0.010382 0.120665 0.011704
# 6 -0.000850 -0.001769 0.000728 0.002362 0.011704 0.028395
#
#
# Mechanical properties :
#
#
# Convention : Reuss Voigt Hill
#
# Bulk Modulus (GPa) = 10.76784 34.03107 22.39945
# Shear Modulus (GPa) = 16.20374 28.99550 22.59962
#
# Velocity S-wave (km/s) = 2.81951 3.77165 3.32979
# Velocity P-wave (km/s) = 3.98525 5.97184 5.07667
#
# Compressibility (1/GPa) = 0.09286914
#
# Stress axis : x y z
#
# Youngs Moduli (GPa) = 78.73863 60.14781 16.32574
#
# Poissons Ratio (x) = 0.22614 0.10508
# Poissons Ratio (y) = 0.29604 -0.18515
# Poissons Ratio (z) = 0.50678 -0.68215
#
# Static dielectric constant tensor:
#      x y z
#    x 1.742370 -0.016530 -0.005400 
#    y -0.016530 1.802050 -0.031600 
#    z -0.005400 -0.031600 1.765680 
# 
# From -- ./inp_files/70839.got.cif
#   From: 2010.05.17/outbox.cif.g08.bks.cpg/sg2_36_cif.got.tgz:70839.got - 2010.06.03 11:33:40.
