data_PCOD9060279
_publ_section_title
;
Structure prediction by ZEFSAII (Michael W. Deem and Ramdas Pophale) SiO2 
 PCOD9060279
Probable space group: P -1
;
_chemical_formula_sum "Si O2"
_cell_formula_units_Z 14
_cell_length_a 13.370307
_cell_length_b 6.672759
_cell_length_c 16.840718
_cell_angle_alpha 135.767897
_cell_angle_beta 39.059372
_cell_angle_gamma 124.979420
_cell_volume 659.930991
_symmetry_space_group_name_H-M "P -1"
_symmetry_group_IT_number 2
_symmetry_cell_setting 'triclinic'
loop_
_space_group_symop_operation_xyz
x,y,z
-x,-y,-z
loop_
_atom_site_type_symbol
_atom_site_label
_atom_site_fract_x
_atom_site_fract_y
_atom_site_fract_z
Si Si1 0.614966 0.652429 0.671679
Si Si2 0.780627 0.680776 0.408991
Si Si3 0.623844 0.752747 0.365827
Si Si4 0.936786 0.804396 0.100510
Si Si5 0.097844 0.337598 0.096159
Si Si6 0.171155 0.643576 0.414524
Si Si7 0.337551 0.666851 0.149216
O O1 0.707709 0.605517 0.518233
O O2 0.440086 0.515791 0.723800
O O3 0.701207 0.483674 0.640071
O O4 0.623755 0.991704 0.779450
O O5 0.651240 0.658933 0.412599
O O6 0.928484 0.487766 0.243354
O O7 0.837331 0.014515 0.472413
O O8 0.793901 0.872996 0.265503
O O9 0.500000 0.000000 0.500000
O O10 0.870073 0.771175 0.042884
O O11 0.072165 0.055011 0.086200
O O12 0.000000 0.500000 0.000000
O O13 0.230008 0.556056 0.110913
O O14 0.234654 0.599679 0.273408
O O15 0.000000 0.500000 0.500000
O O16 0.500000 0.500000 0.000000
#
# Coordination Sequence:
#
# PCOD9060279 Si02
#       7
#     2   2   2   2   2   2   2
#     4  11  25  43  67 103 135 175 227 282 336 415
#     4  11  23  43  69 101 131 178 223 284 347 400
#     4  12  24  43  72 101 138 175 226 284 352 399
#     4  11  26  44  69 102 132 182 232 281 336 418
#     4  11  25  45  69  96 138 178 230 279 340 406
#     4  11  24  44  69  99 134 179 235 274 334 422
#     4  11  28  44  67  99 141 184 222 285 347 397
#
# _framework density 21.214338999999999
#
# number of rings (size 3 to 8) (size 9 to 14) (size 15 to 20)
#    0.000    0.857    2.857    3.000    6.000    4.000 
#    0.000    0.000    0.000    0.000    0.000    0.000 
#    0.000    0.000    0.000    0.000    0.000    0.000 
#
# Total GULP energy -78352.183877 kJ/mol
# GULP energy per Si atom -5596.584563 kJ/mol
# Density = 2.116605 g / cm^3
# Si number density = 21.214339 Si / 1000 Ang^3
#
#
#
# Elastic Constant Matrix: (Units=GPa)
#
#
# Indices 1 2 3 4 5 6 
#
# 1 55.4388 -3.7948 -13.2571 15.3618 6.1192 7.3123
# 2 -3.7948 91.1316 0.2096 13.5053 2.8802 4.2362
# 3 -13.2571 0.2096 65.3510 8.0283 -5.3705 -5.7832
# 4 15.3618 13.5053 8.0283 33.5291 -2.4951 0.2531
# 5 6.1192 2.8802 -5.3705 -2.4951 36.9346 8.7605
# 6 7.3123 4.2362 -5.7832 0.2531 8.7605 37.8796
#
#
#
# Elastic Compliance Matrix: (Units=1/GPa)
#
#
# Indices 1 2 3 4 5 6 
#
# 1 0.024538 0.003396 0.006141 -0.014327 -0.003636 -0.003242
# 2 0.003396 0.012246 0.001247 -0.006885 -0.001457 -0.001452
# 3 0.006141 0.001247 0.017630 -0.007499 0.000641 0.001268
# 4 -0.014327 -0.006885 -0.007499 0.041273 0.004345 0.001110
# 5 -0.003636 -0.001457 0.000641 0.004345 0.029579 -0.005907
# 6 -0.003242 -0.001452 0.001268 0.001110 -0.005907 0.028740
#
#
# Mechanical properties :
#
#
# Convention : Reuss Voigt Hill
#
# Bulk Modulus (GPa) = 13.16074 19.80409 16.48242
# Shear Modulus (GPa) = 31.69313 36.91957 34.30635
#
# Velocity S-wave (km/s) = 3.86936 4.17623 4.02572
# Velocity P-wave (km/s) = 5.11661 5.71052 5.42170
#
# Compressibility (1/GPa) = 0.07598354
#
# Stress axis : x y z
#
# Youngs Moduli (GPa) = 40.75325 81.66254 56.72137
#
# Poissons Ratio (x) = -0.27737 -0.34834
# Poissons Ratio (y) = -0.13842 -0.07075
# Poissons Ratio (z) = -0.25027 -0.10186
#
# Static dielectric constant tensor:
#      x y z
#    x 1.763010 -0.012800 0.011080 
#    y -0.012800 1.784130 -0.000230 
#    z 0.011080 -0.000230 1.736580 
# 
# From -- ./inp_files/69244.got.cif
#   From: 2010.05.17/outbox.cif.g08.bks.cpg/sg2_35_cif.got.tgz:69244.got - 2010.06.03 11:33:40.
