data_PCOD9060149
_publ_section_title
;
Structure prediction by ZEFSAII (Michael W. Deem and Ramdas Pophale) SiO2 
 PCOD9060149
Probable space group: P -1
;
_chemical_formula_sum "Si O2"
_cell_formula_units_Z 16
_cell_length_a 18.676826
_cell_length_b 6.812456
_cell_length_c 9.144617
_cell_angle_alpha 90.188296
_cell_angle_beta 82.875902
_cell_angle_gamma 47.515977
_cell_volume 845.383464
_symmetry_space_group_name_H-M "P -1"
_symmetry_group_IT_number 2
_symmetry_cell_setting 'triclinic'
loop_
_space_group_symop_operation_xyz
x,y,z
-x,-y,-z
loop_
_atom_site_type_symbol
_atom_site_label
_atom_site_fract_x
_atom_site_fract_y
_atom_site_fract_z
Si Si1 0.725317 0.712220 0.033701
Si Si2 0.595085 0.254636 0.885606
Si Si3 0.523720 0.260823 0.584175
Si Si4 0.157347 0.740358 0.492456
Si Si5 0.976176 0.349523 0.596888
Si Si6 0.346373 0.283380 0.631379
Si Si7 0.094694 0.353584 0.075902
Si Si8 0.227964 0.765106 0.160411
O O1 0.680812 0.744682 0.202068
O O2 0.822809 0.665312 0.022188
O O3 0.751803 0.464465 0.941006
O O4 0.648618 0.979428 0.957392
O O5 0.563708 0.243675 0.733005
O O6 0.673843 0.284934 0.854606
O O7 0.500000 0.500000 0.000000
O O8 0.500000 0.500000 0.500000
O O9 0.425610 0.311274 0.623469
O O10 0.603078 0.981794 0.477258
O O11 0.104355 0.633392 0.466339
O O12 0.248876 0.538144 0.574858
O O13 0.193456 0.766340 0.330421
O O14 0.074387 0.035895 0.581630
O O15 0.935908 0.483506 0.765465
O O16 0.000000 0.500000 0.500000
O O17 0.145210 0.054552 0.107049
O O18 0.000000 0.500000 0.000000
#
# Coordination Sequence:
#
# PCOD9060149 Si02
#       8
#     2   2   2   2   2   2   2   2
#     4  11  25  44  64  95 134 167 216 259 324 389
#     4  11  24  43  69  95 130 170 210 265 321 386
#     4  11  24  44  67  97 131 165 217 266 317 379
#     4  11  24  42  67  94 127 170 216 263 317 379
#     4  11  24  43  66  95 128 172 217 261 321 381
#     4  11  26  41  66  99 128 171 211 266 321 376
#     4  11  26  43  65  97 132 168 214 268 320 381
#     4  11  23  43  66  94 125 174 212 259 324 379
#
# _framework density 18.926321999999999
#
# number of rings (size 3 to 8) (size 9 to 14) (size 15 to 20)
#    0.000    1.000    2.500    3.000    5.250    6.500 
#    0.000    0.000    0.000    0.000    0.000    0.000 
#    0.000    0.000    0.000    0.000    0.000    0.000 
#
# Total GULP energy -89536.064858 kJ/mol
# GULP energy per Si atom -5596.004054 kJ/mol
# Density = 1.888324 g / cm^3
# Si number density = 18.926322 Si / 1000 Ang^3
#
#
#
# Elastic Constant Matrix: (Units=GPa)
#
#
# Indices 1 2 3 4 5 6 
#
# 1 117.6827 98.9517 61.8494 -16.5787 -0.6776 -7.2502
# 2 98.9517 132.3815 60.8727 -2.9755 7.4020 -1.8958
# 3 61.8494 60.8727 115.3545 -6.1578 -13.2454 0.2668
# 4 -16.5787 -2.9755 -6.1578 32.2257 -0.3454 0.0726
# 5 -0.6776 7.4020 -13.2454 -0.3454 36.7139 -5.4962
# 6 -7.2502 -1.8958 0.2668 0.0726 -5.4962 36.2469
#
#
#
# Elastic Compliance Matrix: (Units=1/GPa)
#
#
# Indices 1 2 3 4 5 6 
#
# 1 0.029956 -0.020322 -0.004200 0.012763 0.004086 0.005554
# 2 -0.020322 0.024385 -0.003255 -0.008893 -0.007123 -0.003828
# 3 -0.004200 -0.003255 0.013257 0.000130 0.005318 -0.000302
# 4 0.012763 -0.008893 0.000130 0.036825 0.002786 0.002436
# 5 0.004086 -0.007123 0.005318 0.002786 0.031468 0.005172
# 6 0.005554 -0.003828 -0.000302 0.002436 0.005172 0.029281
#
#
# Mechanical properties :
#
#
# Convention : Reuss Voigt Hill
#
# Bulk Modulus (GPa) = 83.03714 89.86294 86.45004
# Shear Modulus (GPa) = 22.24782 30.62028 26.43405
#
# Velocity S-wave (km/s) = 3.43227 4.02664 3.74128
# Velocity P-wave (km/s) = 7.72505 8.31877 8.02740
#
# Compressibility (1/GPa) = 0.01204280
#
# Stress axis : x y z
#
# Youngs Moduli (GPa) = 33.38216 41.00910 75.43332
#
# Poissons Ratio (x) = 0.83340 0.31679
# Poissons Ratio (y) = 0.67840 0.24557
# Poissons Ratio (z) = 0.14019 0.13350
#
# Static dielectric constant tensor:
#      x y z
#    x 1.633420 0.001960 -0.012200 
#    y 0.001960 1.629750 0.009090 
#    z -0.012200 0.009090 1.614470 
# 
# From -- ./inp_files/37331.got.cif
#   From: 2010.05.17/outbox.cif.g08.bks.cpg/sg2_19_cif.got.tgz:37331.got - 2010.06.03 11:33:40.
