data_PCOD9060555
_publ_section_title
;
Structure prediction by ZEFSAII (Michael W. Deem and Ramdas Pophale) SiO2 
 PCOD9060555
Probable space group: P -1
;
_chemical_formula_sum "Si O2"
_cell_formula_units_Z 16
_cell_length_a 17.626099
_cell_length_b 12.269451
_cell_length_c 19.824457
_cell_angle_alpha 138.821459
_cell_angle_beta 159.436332
_cell_angle_gamma 28.258737
_cell_volume 642.618577
_symmetry_space_group_name_H-M "P -1"
_symmetry_group_IT_number 2
_symmetry_cell_setting 'triclinic'
loop_
_space_group_symop_operation_xyz
x,y,z
-x,-y,-z
loop_
_atom_site_type_symbol
_atom_site_label
_atom_site_fract_x
_atom_site_fract_y
_atom_site_fract_z
Si Si1 0.239637 0.451233 0.392298
Si Si2 0.827029 0.602205 0.475614
Si Si3 0.800844 0.913551 0.672286
Si Si4 0.702682 0.895668 0.924455
Si Si5 0.666555 0.576041 0.695023
Si Si6 0.374769 0.586933 0.688467
Si Si7 0.127479 0.033800 0.037685
Si Si8 0.476092 0.168468 0.006388
O O1 0.177178 0.475654 0.271959
O O2 0.253895 0.614263 0.523804
O O3 0.595199 0.158661 0.566253
O O4 0.911003 0.556431 0.196304
O O5 0.000709 0.651569 0.681512
O O6 0.792945 0.455996 0.423327
O O7 0.000000 0.500000 0.500000
O O8 0.444735 0.882862 0.277085
O O9 0.500000 0.000000 0.500000
O O10 0.042868 0.889285 0.903897
O O11 0.509503 0.840891 0.714015
O O12 0.738859 0.997114 0.939596
O O13 0.077876 0.619768 0.124998
O O14 0.588604 0.043107 0.967963
O O15 0.500000 0.500000 0.500000
O O16 0.326639 0.794310 0.778177
O O17 0.775603 0.325445 0.895642
O O18 0.500000 0.000000 0.000000
#
# Coordination Sequence:
#
# PCOD9060555 Si02
#       8
#     2   2   2   2   2   2   2   2
#     4  11  24  45  72 100 139 185 234 295 346 430
#     4  12  27  44  70 108 144 182 235 296 360 426
#     4  11  23  44  72 103 134 185 239 283 354 427
#     4  11  26  43  66 106 134 183 237 290 354 421
#     4  11  23  43  72  95 134 182 242 292 345 413
#     4  11  26  46  72 104 139 191 239 284 362 425
#     4  11  25  46  75  96 145 187 237 293 350 428
#     4  12  27  45  69 101 149 185 232 296 360 416
#
# _framework density 24.898126999999999
#
# number of rings (size 3 to 8) (size 9 to 14) (size 15 to 20)
#    0.000    0.750    3.750    4.125    8.750    2.000 
#    0.000    0.000    0.000    0.000    0.000    0.000 
#    0.000    0.000    0.000    0.000    0.000    0.000 
#
# Total GULP energy -89386.021380 kJ/mol
# GULP energy per Si atom -5586.626336 kJ/mol
# Density = 2.484146 g / cm^3
# Si number density = 24.898127 Si / 1000 Ang^3
#
#
#
# Elastic Constant Matrix: (Units=GPa)
#
#
# Indices 1 2 3 4 5 6 
#
# 1 144.5388 53.8829 8.1020 25.3009 -13.9025 -14.1230
# 2 53.8829 90.7191 38.8504 47.1407 -1.9845 -24.0372
# 3 8.1020 38.8504 96.3222 33.0307 -15.5270 -7.3450
# 4 25.3009 47.1407 33.0307 62.1149 -4.3872 -18.9984
# 5 -13.9025 -1.9845 -15.5270 -4.3872 37.2150 2.0970
# 6 -14.1230 -24.0372 -7.3450 -18.9984 2.0970 36.8968
#
#
#
# Elastic Compliance Matrix: (Units=1/GPa)
#
#
# Indices 1 2 3 4 5 6 
#
# 1 0.009740 -0.007009 0.002645 0.000101 0.004409 -0.000510
# 2 -0.007009 0.025550 -0.006131 -0.011484 -0.005570 0.007146
# 3 0.002645 -0.006131 0.015150 -0.004891 0.006566 -0.002857
# 4 0.000101 -0.011484 -0.004891 0.029466 0.000479 0.006729
# 5 0.004409 -0.005570 0.006566 0.000479 0.031139 -0.002157
# 6 -0.000510 0.007146 -0.002857 0.006729 -0.002157 0.034581
#
#
# Mechanical properties :
#
#
# Convention : Reuss Voigt Hill
#
# Bulk Modulus (GPa) = 33.95542 59.25008 46.60275
# Shear Modulus (GPa) = 28.33960 42.62832 35.48396
#
# Velocity S-wave (km/s) = 3.37742 4.14225 3.77923
# Velocity P-wave (km/s) = 5.37369 6.83567 6.14829
#
# Compressibility (1/GPa) = 0.02945038
#
# Stress axis : x y z
#
# Youngs Moduli (GPa) = 102.67313 39.13872 66.00677
#
# Poissons Ratio (x) = 0.27431 -0.17458
# Poissons Ratio (y) = 0.71960 0.40468
# Poissons Ratio (z) = -0.27156 0.23996
#
# Static dielectric constant tensor:
#      x y z
#    x 2.141110 -0.004020 -0.018500 
#    y -0.004020 2.132470 0.006230 
#    z -0.018500 0.006230 1.975680 
# 
# From -- ./inp_files/515579.got.cif
#   From: 2010.05.17/outbox.cif.g08.bks.cpg/sg2_258_cif.got.tgz:515579.got - 2010.06.03 11:33:40.
