data_PCOD9060039
_publ_section_title
;
Structure prediction by ZEFSAII (Michael W. Deem and Ramdas Pophale) SiO2 
 PCOD9060039
Probable space group: P -1
;
_chemical_formula_sum "Si O2"
_cell_formula_units_Z 16
_cell_length_a 8.311703
_cell_length_b 15.138606
_cell_length_c 5.312852
_cell_angle_alpha 90.085228
_cell_angle_beta 85.890601
_cell_angle_gamma 76.647165
_cell_volume 648.646993
_symmetry_space_group_name_H-M "P -1"
_symmetry_group_IT_number 2
_symmetry_cell_setting 'triclinic'
loop_
_space_group_symop_operation_xyz
x,y,z
-x,-y,-z
loop_
_atom_site_type_symbol
_atom_site_label
_atom_site_fract_x
_atom_site_fract_y
_atom_site_fract_z
Si Si1 0.370366 0.584944 0.396438
Si Si2 0.574565 0.085856 0.050608
Si Si3 0.063438 0.745243 0.017078
Si Si4 0.452917 0.719868 0.050320
Si Si5 0.735669 0.552712 0.896818
Si Si6 0.245228 0.957148 0.466230
Si Si7 0.929880 0.430566 0.248662
Si Si8 0.043344 0.145676 0.461329
O O1 0.500000 0.500000 0.500000
O O2 0.434085 0.674279 0.325320
O O3 0.333075 0.536363 0.145805
O O4 0.195465 0.605553 0.557250
O O5 0.616931 0.082974 0.341071
O O6 0.485192 0.187864 0.979984
O O7 0.724830 0.067418 0.830674
O O8 0.500000 0.000000 0.000000
O O9 0.036534 0.645059 0.976892
O O10 0.962328 0.801888 0.799122
O O11 0.262356 0.740247 0.971974
O O12 0.001932 0.789525 0.292025
O O13 0.587572 0.640355 0.902629
O O14 0.887095 0.560264 0.696463
O O15 0.825916 0.526094 0.152129
O O16 0.095760 0.912211 0.558003
O O17 0.205227 0.066074 0.493174
#
# Coordination Sequence:
#
# PCOD9060039 Si02
#       8
#     2   2   2   2   2   2   2   2
#     4  12  23  44  74 106 141 196 249 305 363 446
#     4  12  27  47  73 106 152 196 244 310 375 447
#     4  12  23  42  72 110 144 187 250 303 358 455
#     4  12  24  45  71 106 143 194 256 296 370 443
#     4  11  25  44  66 104 146 193 235 307 373 440
#     4  11  23  46  71 103 141 185 245 308 372 434
#     4  11  25  44  67 101 152 184 240 300 375 437
#     4  11  23  42  74 105 135 182 243 308 366 423
#
# _framework density 24.666732
#
# number of rings (size 3 to 8) (size 9 to 14) (size 15 to 20)
#    0.000    0.500    5.000    3.375    0.000    5.000 
#    0.000    1.250    0.000    0.000    0.000    0.000 
#    0.000    0.000    0.000    0.000    0.000    0.000 
#
# Total GULP energy -89381.308663 kJ/mol
# GULP energy per Si atom -5586.331791 kJ/mol
# Density = 2.461059 g / cm^3
# Si number density = 24.666732 Si / 1000 Ang^3
#
#
#
# Elastic Constant Matrix: (Units=GPa)
#
#
# Indices 1 2 3 4 5 6 
#
# 1 45.7077 19.9631 23.0312 -8.6451 -11.7420 5.3644
# 2 19.9631 163.2042 40.6098 -21.4492 4.0343 1.3636
# 3 23.0312 40.6098 109.4079 -11.6066 3.5639 -12.1216
# 4 -8.6451 -21.4492 -11.6066 45.8268 -0.0921 -5.8283
# 5 -11.7420 4.0343 3.5639 -0.0921 28.0905 7.5466
# 6 5.3644 1.3636 -12.1216 -5.8283 7.5466 38.1475
#
#
#
# Elastic Compliance Matrix: (Units=1/GPa)
#
#
# Indices 1 2 3 4 5 6 
#
# 1 0.032770 -0.002220 -0.007565 0.001974 0.017706 -0.010134
# 2 -0.002220 0.007238 -0.001873 0.002515 -0.001773 0.000193
# 3 -0.007565 -0.001873 0.012545 0.001702 -0.006256 0.006615
# 4 0.001974 0.002515 0.001702 0.024314 -0.000757 0.004038
# 5 0.017706 -0.001773 -0.006256 -0.000757 0.047804 -0.013987
# 6 -0.010134 0.000193 0.006615 0.004038 -0.013987 0.033118
#
#
# Mechanical properties :
#
#
# Convention : Reuss Voigt Hill
#
# Bulk Modulus (GPa) = 34.20187 53.94754 44.07471
# Shear Modulus (GPa) = 26.19851 38.06067 32.12959
#
# Velocity S-wave (km/s) = 3.26252 3.93236 3.61300
# Velocity P-wave (km/s) = 5.29979 6.52196 5.94238
#
# Compressibility (1/GPa) = 0.02923816
#
# Stress axis : x y z
#
# Youngs Moduli (GPa) = 30.51526 138.16487 79.71290
#
# Poissons Ratio (x) = 0.30669 0.60300
# Poissons Ratio (y) = 0.06774 0.14931
# Poissons Ratio (z) = 0.23084 0.25880
#
# Static dielectric constant tensor:
#      x y z
#    x 2.027690 -0.027200 0.005500 
#    y -0.027200 1.983630 -0.023060 
#    z 0.005500 -0.023060 2.049200 
# 
# From -- ./inp_files/38739.got.cif
#   From: 2010.05.17/outbox.cif.g08.bks.cpg/sg2_20_cif.got.tgz:38739.got - 2010.06.03 11:33:40.
