data_PCOD9060574
_publ_section_title
;
Structure prediction by ZEFSAII (Michael W. Deem and Ramdas Pophale) SiO2 
 PCOD9060574
Probable space group: P -1
;
_chemical_formula_sum "Si O2"
_cell_formula_units_Z 16
_cell_length_a 10.405054
_cell_length_b 6.285699
_cell_length_c 16.521786
_cell_angle_alpha 111.078250
_cell_angle_beta 49.415859
_cell_angle_gamma 127.106094
_cell_volume 653.517346
_symmetry_space_group_name_H-M "P -1"
_symmetry_group_IT_number 2
_symmetry_cell_setting 'triclinic'
loop_
_space_group_symop_operation_xyz
x,y,z
-x,-y,-z
loop_
_atom_site_type_symbol
_atom_site_label
_atom_site_fract_x
_atom_site_fract_y
_atom_site_fract_z
Si Si1 0.181409 0.313703 0.815241
Si Si2 0.491408 0.868762 0.739204
Si Si3 0.539967 0.409362 0.851498
Si Si4 0.463875 0.122262 0.630983
Si Si5 0.005103 0.403147 0.747845
Si Si6 0.184026 0.159602 0.327197
Si Si7 0.170284 0.263303 0.074105
Si Si8 0.831621 0.228659 0.428175
O O1 0.306811 0.626002 0.829946
O O2 0.342472 0.229367 0.740586
O O3 0.141464 0.346788 0.742202
O O4 0.980942 0.055952 0.896799
O O5 0.687421 0.845569 0.651136
O O6 0.536464 0.136100 0.803244
O O7 0.439369 0.893116 0.670856
O O8 0.657998 0.588978 0.753092
O O9 0.677806 0.599356 0.894288
O O10 0.314680 0.330439 0.948291
O O11 0.700236 0.307249 0.547089
O O12 0.345295 0.027555 0.581576
O O13 0.068284 0.564742 0.659024
O O14 0.941161 0.572300 0.853466
O O15 0.853665 0.101192 0.741917
O O16 0.983246 0.171672 0.406270
#
# Coordination Sequence:
#
# PCOD9060574 Si02
#       8
#     2   2   2   2   2   2   2   2
#     4  12  23  44  72 100 141 184 229 286 348 411
#     4  12  26  44  70 104 148 180 224 294 360 396
#     4  11  24  44  69 104 143 184 232 289 345 415
#     4  11  24  44  69 104 143 184 232 289 345 415
#     4  12  20  42  72 100 136 182 232 282 340 412
#     4  12  23  44  72 100 141 184 229 286 348 411
#     4  11  23  43  73 103 138 185 241 282 336 425
#     4  11  23  43  73 103 138 185 241 282 336 425
#
# _framework density 24.482901999999999
#
# number of rings (size 3 to 8) (size 9 to 14) (size 15 to 20)
#    0.000    0.500    7.500    0.750    0.000    4.000 
#    0.000    8.750    0.000    0.000    0.000    0.000 
#    0.000    0.000    0.000    0.000    0.000    0.000 
#
# Total GULP energy -89203.735363 kJ/mol
# GULP energy per Si atom -5575.233460 kJ/mol
# Density = 2.442718 g / cm^3
# Si number density = 24.482902 Si / 1000 Ang^3
#
#
#
# Elastic Constant Matrix: (Units=GPa)
#
#
# Indices 1 2 3 4 5 6 
#
# 1 101.6631 15.4151 18.5354 -3.2695 -27.3340 -20.5501
# 2 15.4151 123.8428 38.2210 -13.9855 -31.8177 -2.7094
# 3 18.5354 38.2210 131.8248 -11.5179 -26.1431 -15.5201
# 4 -3.2695 -13.9855 -11.5179 13.6244 6.3773 -5.9921
# 5 -27.3340 -31.8177 -26.1431 6.3773 28.7972 5.2440
# 6 -20.5501 -2.7094 -15.5201 -5.9921 5.2440 39.6755
#
#
#
# Elastic Compliance Matrix: (Units=1/GPa)
#
#
# Indices 1 2 3 4 5 6 
#
# 1 0.015080 0.002321 0.001483 0.002537 0.016432 0.006761
# 2 0.002321 0.012207 -0.000447 0.006842 0.013569 0.001101
# 3 0.001483 -0.000447 0.010221 0.006993 0.007776 0.004764
# 4 0.002537 0.006842 0.006993 0.100800 -0.009838 0.021041
# 5 0.016432 0.013569 0.007776 -0.009838 0.074341 0.001168
# 6 0.006761 0.001101 0.004764 0.021041 0.001168 0.033668
#
#
# Mechanical properties :
#
#
# Convention : Reuss Voigt Hill
#
# Bulk Modulus (GPa) = 22.61288 55.74153 39.17721
# Shear Modulus (GPa) = 19.65843 35.43005 27.54424
#
# Velocity S-wave (km/s) = 2.83670 3.80825 3.35780
# Velocity P-wave (km/s) = 4.47051 6.49261 5.57402
#
# Compressibility (1/GPa) = 0.04422258
#
# Stress axis : x y z
#
# Youngs Moduli (GPa) = 66.31120 81.92234 97.83746
#
# Poissons Ratio (x) = -0.19018 -0.14509
# Poissons Ratio (y) = -0.15394 0.04376
# Poissons Ratio (z) = -0.09834 0.03664
#
# Static dielectric constant tensor:
#      x y z
#    x 2.033530 0.072000 0.014890 
#    y 0.072000 1.956610 0.033780 
#    z 0.014890 0.033780 2.004860 
# 
# From -- ./inp_files/575573.got.cif
#   From: 2010.05.17/outbox.cif.g08.bks.cpg/sg2_288_cif.got.tgz:575573.got - 2010.06.03 11:33:40.
