data_PCOD9060846
_publ_section_title
;
Structure prediction by ZEFSAII (Michael W. Deem and Ramdas Pophale) SiO2 
 PCOD9060846
Probable space group: P -1
;
_chemical_formula_sum "Si O2"
_cell_formula_units_Z 14
_cell_length_a 11.256025
_cell_length_b 11.427494
_cell_length_c 11.951909
_cell_angle_alpha 34.057408
_cell_angle_beta 57.228832
_cell_angle_gamma 40.823891
_cell_volume 547.219916
_symmetry_space_group_name_H-M "P -1"
_symmetry_group_IT_number 2
_symmetry_cell_setting 'triclinic'
loop_
_space_group_symop_operation_xyz
x,y,z
-x,-y,-z
loop_
_atom_site_type_symbol
_atom_site_label
_atom_site_fract_x
_atom_site_fract_y
_atom_site_fract_z
Si Si1 0.493755 0.692715 0.666079
Si Si2 0.526374 0.736141 0.051143
Si Si3 0.778261 0.178818 0.477808
Si Si4 0.809295 0.536641 0.883813
Si Si5 0.257623 0.194182 0.531586
Si Si6 0.797717 0.960793 0.872489
Si Si7 0.959125 0.983332 0.160826
O O1 0.550386 0.396619 0.870149
O O2 0.308406 0.866312 0.545559
O O3 0.654318 0.693174 0.539420
O O4 0.428680 0.869260 0.672639
O O5 0.669517 0.501318 0.256406
O O6 0.354497 0.992803 0.004720
O O7 0.648884 0.736884 0.896831
O O8 0.728592 0.104156 0.674565
O O9 0.000000 0.000000 0.500000
O O10 0.812268 0.647337 0.676339
O O11 0.013905 0.357815 0.977475
O O12 0.803987 0.293858 0.045222
O O13 0.103503 0.193944 0.661842
O O14 0.868812 0.108029 0.777982
O O15 0.000000 0.000000 0.000000
#
# Coordination Sequence:
#
# PCOD9060846 Si02
#       7
#     2   2   2   2   2   2   2
#     4   9  22  36  65  99 127 181 222 267 331 400
#     4  10  20  39  65  97 132 177 221 275 327 395
#     4  10  17  39  69  93 134 180 227 271 339 386
#     4  10  23  40  67  97 132 181 213 276 337 397
#     4  11  21  43  64  99 140 170 220 277 335 396
#     4  10  21  39  66 102 127 179 226 270 334 398
#     4  10  23  42  65  97 131 174 220 270 335 400
#
# _framework density 25.583863000000001
#
# number of rings (size 3 to 8) (size 9 to 14) (size 15 to 20)
#    1.714    0.286    2.857    1.286    2.000    3.429 
#    0.000    0.714    0.000    3.429    0.000    0.000 
#    0.000    0.000    0.000    0.000    0.000    0.000 
#
# Total GULP energy -78187.973735 kJ/mol
# GULP energy per Si atom -5584.855267 kJ/mol
# Density = 2.552563 g / cm^3
# Si number density = 25.583863 Si / 1000 Ang^3
#
#
#
# Elastic Constant Matrix: (Units=GPa)
#
#
# Indices 1 2 3 4 5 6 
#
# 1 110.3598 23.6218 36.0347 8.8498 -11.1761 -4.9203
# 2 23.6218 99.5021 37.9551 31.8130 -12.1978 -15.8441
# 3 36.0347 37.9551 132.0338 30.5678 -0.9556 -9.9584
# 4 8.8498 31.8130 30.5678 40.3857 -0.4562 -8.7112
# 5 -11.1761 -12.1978 -0.9556 -0.4562 48.3941 2.2823
# 6 -4.9203 -15.8441 -9.9584 -8.7112 2.2823 34.4163
#
#
#
# Elastic Compliance Matrix: (Units=1/GPa)
#
#
# Indices 1 2 3 4 5 6 
#
# 1 0.010358 -0.001506 -0.002583 0.000925 0.001963 0.000144
# 2 -0.001506 0.014963 -0.001371 -0.009599 0.003135 0.003639
# 3 -0.002583 -0.001371 0.010064 -0.005877 -0.000821 0.000478
# 4 0.000925 -0.009599 -0.005877 0.037321 -0.002140 0.003601
# 5 0.001963 0.003135 -0.000821 -0.002140 0.021895 -0.000507
# 6 0.000144 0.003639 0.000478 0.003601 -0.000507 0.031835
#
#
# Mechanical properties :
#
#
# Convention : Reuss Voigt Hill
#
# Bulk Modulus (GPa) = 40.87401 59.67988 50.27695
# Shear Modulus (GPa) = 34.36168 40.92483 37.64326
#
# Velocity S-wave (km/s) = 3.66881 4.00388 3.84000
# Velocity P-wave (km/s) = 5.82735 6.68974 6.27338
#
# Compressibility (1/GPa) = 0.02446543
#
# Stress axis : x y z
#
# Youngs Moduli (GPa) = 96.54280 66.83072 99.36675
#
# Poissons Ratio (x) = 0.10063 0.25667
# Poissons Ratio (y) = 0.14536 0.13623
# Poissons Ratio (z) = 0.24938 0.09162
#
# Static dielectric constant tensor:
#      x y z
#    x 2.043890 -0.039460 -0.005860 
#    y -0.039460 2.074630 -0.047000 
#    z -0.005860 -0.047000 2.014080 
# 
# From -- ./inp_files/424890.got.cif
#   From: 2010.05.17/outbox.cif.g08.bks.cpg/sg2_213_cif.got.tgz:424890.got - 2010.06.03 11:33:40.
