data_PCOD9060386
_publ_section_title
;
Structure prediction by ZEFSAII (Michael W. Deem and Ramdas Pophale) SiO2 
 PCOD9060386
Probable space group: P -1
;
_chemical_formula_sum "Si O2"
_cell_formula_units_Z 16
_cell_length_a 5.605476
_cell_length_b 12.374968
_cell_length_c 20.704907
_cell_angle_alpha 35.894477
_cell_angle_beta 123.864305
_cell_angle_gamma 129.133074
_cell_volume 649.831257
_symmetry_space_group_name_H-M "P -1"
_symmetry_group_IT_number 2
_symmetry_cell_setting 'triclinic'
loop_
_space_group_symop_operation_xyz
x,y,z
-x,-y,-z
loop_
_atom_site_type_symbol
_atom_site_label
_atom_site_fract_x
_atom_site_fract_y
_atom_site_fract_z
Si Si1 0.713430 0.336252 0.274469
Si Si2 0.820989 0.753068 0.105698
Si Si3 0.850669 0.239403 0.989670
Si Si4 0.833296 0.791786 0.541396
Si Si5 0.794259 0.018206 0.827286
Si Si6 0.803183 0.270577 0.589036
Si Si7 0.777646 0.311226 0.150289
Si Si8 0.120313 0.002001 0.362550
O O1 0.678243 0.521097 0.213819
O O2 0.628876 0.318747 0.194522
O O3 0.477181 0.132410 0.365450
O O4 0.066732 0.357599 0.328788
O O5 0.515070 0.808938 0.038501
O O6 0.996857 0.748640 0.065908
O O7 0.072988 0.879135 0.134386
O O8 0.021956 0.456941 0.943574
O O9 0.945811 0.065562 0.118086
O O10 0.488256 0.755108 0.488157
O O11 0.000000 0.000000 0.500000
O O12 0.994685 0.826782 0.479531
O O13 0.729593 0.180918 0.693491
O O14 0.488773 0.814770 0.878315
O O15 0.000000 0.500000 0.500000
O O16 0.943764 0.117705 0.655123
O O17 0.967523 0.167861 0.259935
#
# Coordination Sequence:
#
# PCOD9060386 Si02
#       8
#     2   2   2   2   2   2   2   2
#     4  11  23  43  70 105 138 191 242 301 360 439
#     4  11  27  47  77 110 149 193 250 304 377 448
#     4  11  26  50  78 111 145 196 252 304 373 454
#     4  12  23  42  68  98 138 188 245 295 359 433
#     4  12  25  50  71 107 150 192 238 316 374 433
#     4  12  30  45  65 107 148 189 246 300 370 440
#     4  11  23  45  72 111 140 184 246 302 368 445
#     4  12  21  42  72  93 145 183 247 297 359 428
#
# _framework density 24.621776000000001
#
# number of rings (size 3 to 8) (size 9 to 14) (size 15 to 20)
#    0.000    0.500    6.250    1.500    1.750    5.500 
#    0.000    2.500    0.000    0.000    0.000    0.000 
#    0.000    0.000    0.000    0.000    0.000    0.000 
#
# Total GULP energy -89343.408223 kJ/mol
# GULP energy per Si atom -5583.963014 kJ/mol
# Density = 2.456574 g / cm^3
# Si number density = 24.621776 Si / 1000 Ang^3
#
#
#
# Elastic Constant Matrix: (Units=GPa)
#
#
# Indices 1 2 3 4 5 6 
#
# 1 71.7227 57.1058 13.4283 8.6771 6.9502 -1.5383
# 2 57.1058 202.3964 61.8211 -0.9777 4.5083 12.1221
# 3 13.4283 61.8211 83.1147 -2.2124 16.4903 -1.6589
# 4 8.6771 -0.9777 -2.2124 49.5747 3.3156 0.6955
# 5 6.9502 4.5083 16.4903 3.3156 34.5945 -1.0472
# 6 -1.5383 12.1221 -1.6589 0.6955 -1.0472 25.0377
#
#
#
# Elastic Compliance Matrix: (Units=1/GPa)
#
#
# Indices 1 2 3 4 5 6 
#
# 1 0.019449 -0.006406 0.002370 -0.003235 -0.003759 0.004386
# 2 -0.006406 0.008889 -0.006219 0.000898 0.002855 -0.005015
# 3 0.002370 -0.006219 0.018001 0.000758 -0.008198 0.003985
# 4 -0.003235 0.000898 0.000758 0.020932 -0.001872 -0.001243
# 5 -0.003759 0.002855 -0.008198 -0.001872 0.033355 -0.000709
# 6 0.004386 -0.005015 0.003985 -0.001243 -0.000709 0.042906
#
#
# Mechanical properties :
#
#
# Convention : Reuss Voigt Hill
#
# Bulk Modulus (GPa) = 38.71757 69.10493 53.91125
# Shear Modulus (GPa) = 28.95982 36.83329 32.89656
#
# Velocity S-wave (km/s) = 3.43328 3.87197 3.65920
# Velocity P-wave (km/s) = 5.61031 6.93664 6.30843
#
# Compressibility (1/GPa) = 0.02582807
#
# Stress axis : x y z
#
# Youngs Moduli (GPa) = 51.41630 112.49834 55.55247
#
# Poissons Ratio (x) = 0.72066 -0.13165
# Poissons Ratio (y) = 0.32937 0.34550
# Poissons Ratio (z) = -0.12185 0.69967
#
# Static dielectric constant tensor:
#      x y z
#    x 2.011060 0.016950 0.093500 
#    y 0.016950 1.913480 -0.008570 
#    z 0.093500 -0.008570 1.821080 
# 
# From -- ./inp_files/583050.got.cif
#   From: 2010.05.17/outbox.cif.g08.bks.cpg/sg2_292_cif.got.tgz:583050.got - 2010.06.03 11:33:40.
