data_PCOD9060285
_publ_section_title
;
Structure prediction by ZEFSAII (Michael W. Deem and Ramdas Pophale) SiO2 
 PCOD9060285
Probable space group: P -1
;
_chemical_formula_sum "Si O2"
_cell_formula_units_Z 16
_cell_length_a 5.814004
_cell_length_b 12.311528
_cell_length_c 14.959186
_cell_angle_alpha 51.949805
_cell_angle_beta 117.266955
_cell_angle_gamma 95.260376
_cell_volume 721.154466
_symmetry_space_group_name_H-M "P -1"
_symmetry_group_IT_number 2
_symmetry_cell_setting 'triclinic'
loop_
_space_group_symop_operation_xyz
x,y,z
-x,-y,-z
loop_
_atom_site_type_symbol
_atom_site_label
_atom_site_fract_x
_atom_site_fract_y
_atom_site_fract_z
Si Si1 0.625141 0.107421 0.092866
Si Si2 0.282312 0.603776 0.971127
Si Si3 0.807519 0.593777 0.783665
Si Si4 0.263895 0.387984 0.573546
Si Si5 0.416243 0.873917 0.496703
Si Si6 0.101043 0.098714 0.896642
Si Si7 0.773958 0.421115 0.700254
Si Si8 0.770303 0.896410 0.371285
O O1 0.654556 0.263167 0.036879
O O2 0.864743 0.993315 0.141379
O O3 0.607882 0.041378 0.220434
O O4 0.375629 0.113625 0.981494
O O5 0.031178 0.662266 0.829668
O O6 0.500000 0.500000 0.000000
O O7 0.239898 0.502533 0.094690
O O8 0.552213 0.718698 0.643695
O O9 0.901689 0.483872 0.773532
O O10 0.487216 0.392957 0.684027
O O11 0.302901 0.452429 0.450578
O O12 0.235493 0.231758 0.632205
O O13 0.000000 0.500000 0.500000
O O14 0.587262 0.872904 0.434906
O O15 0.088727 0.896679 0.434115
O O16 0.500000 0.000000 0.500000
O O17 0.931755 0.264291 0.771865
O O18 0.000000 0.000000 0.000000
#
# Coordination Sequence:
#
# PCOD9060285 Si02
#       8
#     2   2   2   2   2   2   2   2
#     4  11  26  44  67 105 141 187 241 297 360 434
#     4  11  26  44  71 100 140 187 237 298 359 427
#     4  11  25  46  69 104 138 184 241 295 359 434
#     4  11  24  41  69 103 142 187 231 302 363 432
#     4  12  28  48  76 104 145 195 242 304 364 436
#     4  11  24  42  70  98 141 187 234 300 360 430
#     4  11  23  43  69 101 140 181 240 291 366 428
#     4  12  27  46  75 107 146 189 246 302 366 434
#
# _framework density 22.186646
#
# number of rings (size 3 to 8) (size 9 to 14) (size 15 to 20)
#    0.000    0.750    1.250    4.875    8.750    6.000 
#    0.000    0.000    0.000    0.000    0.000    0.000 
#    0.000    0.000    0.000    0.000    0.000    0.000 
#
# Total GULP energy -89264.297515 kJ/mol
# GULP energy per Si atom -5579.018595 kJ/mol
# Density = 2.213615 g / cm^3
# Si number density = 22.186646 Si / 1000 Ang^3
#
#
#
# Elastic Constant Matrix: (Units=GPa)
#
#
# Indices 1 2 3 4 5 6 
#
# 1 62.2779 28.4122 7.5420 8.1734 2.2699 8.7645
# 2 28.4122 144.0245 4.5743 -9.4988 -6.0212 12.4735
# 3 7.5420 4.5743 76.6901 -6.9078 -4.7235 2.7357
# 4 8.1734 -9.4988 -6.9078 41.3363 -2.0520 -1.2982
# 5 2.2699 -6.0212 -4.7235 -2.0520 34.1591 0.4508
# 6 8.7645 12.4735 2.7357 -1.2982 0.4508 34.6487
#
#
#
# Elastic Compliance Matrix: (Units=1/GPa)
#
#
# Indices 1 2 3 4 5 6 
#
# 1 0.019391 -0.003912 -0.002187 -0.005335 -0.002555 -0.003491
# 2 -0.003912 0.008129 0.000332 0.002733 0.001928 -0.001886
# 3 -0.002187 0.000332 0.013655 0.002886 0.002273 -0.000566
# 4 -0.005335 0.002733 0.002886 0.026531 0.002815 0.001095
# 5 -0.002555 0.001928 0.002273 0.002815 0.030275 -0.000516
# 6 -0.003491 -0.001886 -0.000566 0.001095 -0.000516 0.030515
#
#
# Mechanical properties :
#
#
# Convention : Reuss Voigt Hill
#
# Bulk Modulus (GPa) = 33.73776 40.44994 37.09385
# Shear Modulus (GPa) = 33.35318 38.19308 35.77313
#
# Velocity S-wave (km/s) = 3.88145 4.15353 4.01979
# Velocity P-wave (km/s) = 5.94364 6.42446 6.18872
#
# Compressibility (1/GPa) = 0.02964038
#
# Stress axis : x y z
#
# Youngs Moduli (GPa) = 51.56933 123.02105 73.23388
#
# Poissons Ratio (x) = 0.48130 0.16017
# Poissons Ratio (y) = 0.20176 -0.02432
# Poissons Ratio (z) = 0.11279 -0.04086
#
# Static dielectric constant tensor:
#      x y z
#    x 5.059850 0.764190 -3.729840 
#    y 0.764190 1.940780 -0.915410 
#    z -3.729840 -0.915410 6.236350 
# 
# From -- ./inp_files/81388.got.cif
#   From: 2010.05.17/outbox.cif.g08.bks.cpg/sg2_41_cif.got.tgz:81388.got - 2010.06.03 11:33:40.
