data_PCOD9060497
_publ_section_title
;
Structure prediction by ZEFSAII (Michael W. Deem and Ramdas Pophale) SiO2 
 PCOD9060497
Probable space group: P -1
;
_chemical_formula_sum "Si O2"
_cell_formula_units_Z 14
_cell_length_a 17.455813
_cell_length_b 12.083111
_cell_length_c 14.801840
_cell_angle_alpha 152.737794
_cell_angle_beta 29.489034
_cell_angle_gamma 135.088592
_cell_volume 673.553441
_symmetry_space_group_name_H-M "P -1"
_symmetry_group_IT_number 2
_symmetry_cell_setting 'triclinic'
loop_
_space_group_symop_operation_xyz
x,y,z
-x,-y,-z
loop_
_atom_site_type_symbol
_atom_site_label
_atom_site_fract_x
_atom_site_fract_y
_atom_site_fract_z
Si Si1 0.527324 0.372276 0.140378
Si Si2 0.088916 0.519007 0.329795
Si Si3 0.601958 0.285378 0.806496
Si Si4 0.902346 0.924134 0.679151
Si Si5 0.643100 0.847035 0.309936
Si Si6 0.806209 0.876357 0.540575
Si Si7 0.660437 0.444815 0.357491
O O1 0.608007 0.597102 0.203731
O O2 0.388837 0.483716 0.436186
O O3 0.498618 0.295462 0.011667
O O4 0.648717 0.120269 0.874516
O O5 0.230248 0.653515 0.299559
O O6 0.000000 0.500000 0.500000
O O7 0.188958 0.251240 0.989076
O O8 0.961622 0.688656 0.513655
O O9 0.644149 0.024714 0.521691
O O10 0.500000 0.500000 0.000000
O O11 0.051992 0.042170 0.596116
O O12 0.857291 0.838293 0.565235
O O13 0.758506 0.154246 0.032518
O O14 0.500000 0.000000 0.500000
O O15 0.765316 0.636252 0.364849
O O16 0.500000 0.500000 0.500000
#
# Coordination Sequence:
#
# PCOD9060497 Si02
#       7
#     2   2   2   2   2   2   2
#     4  11  24  42  69 104 133 176 236 286 338 406
#     4  11  26  45  68 107 138 175 232 286 342 407
#     4  11  23  43  71  97 135 185 226 281 336 408
#     4  11  25  46  69  99 144 184 225 286 349 411
#     4  11  23  45  70  96 135 184 228 273 348 410
#     4  11  24  48  68  98 143 181 233 283 349 413
#     4  12  27  42  71 106 137 182 232 287 349 411
#
# _framework density 20.785285999999999
#
# number of rings (size 3 to 8) (size 9 to 14) (size 15 to 20)
#    0.000    0.857    7.143    0.857    4.000    2.857 
#    0.000    0.000    0.000    0.000    0.000    0.000 
#    0.000    0.000    0.000    0.000    0.000    0.000 
#
# Total GULP energy -78256.469974 kJ/mol
# GULP energy per Si atom -5589.747855 kJ/mol
# Density = 2.073798 g / cm^3
# Si number density = 20.785286 Si / 1000 Ang^3
#
#
#
# Elastic Constant Matrix: (Units=GPa)
#
#
# Indices 1 2 3 4 5 6 
#
# 1 107.7563 35.6908 40.2606 5.9853 5.2461 -17.4556
# 2 35.6908 58.3654 18.0595 1.0414 2.9701 -14.1873
# 3 40.2606 18.0595 143.9775 2.0289 10.1287 -17.9893
# 4 5.9853 1.0414 2.0289 35.6353 -8.9154 7.1880
# 5 5.2461 2.9701 10.1287 -8.9154 47.6617 9.1421
# 6 -17.4556 -14.1873 -17.9893 7.1880 9.1421 45.9552
#
#
#
# Elastic Compliance Matrix: (Units=1/GPa)
#
#
# Indices 1 2 3 4 5 6 
#
# 1 0.012951 -0.006390 -0.002318 -0.002821 -0.001599 0.002798
# 2 -0.006390 0.022423 -0.000277 -0.000993 -0.001759 0.004892
# 3 -0.002318 -0.000277 0.008160 -0.001204 -0.002236 0.002862
# 4 -0.002821 -0.000993 -0.001204 0.032453 0.008346 -0.008586
# 5 -0.001599 -0.001759 -0.002236 0.008346 0.024892 -0.008283
# 6 0.002798 0.004892 0.002862 -0.008586 -0.008283 0.028444
#
#
# Mechanical properties :
#
#
# Convention : Reuss Voigt Hill
#
# Bulk Modulus (GPa) = 39.11708 55.34676 47.23192
# Shear Modulus (GPa) = 32.08938 40.25632 36.17285
#
# Velocity S-wave (km/s) = 3.93345 4.40565 4.17623
# Velocity P-wave (km/s) = 6.28409 7.25019 6.78436
#
# Compressibility (1/GPa) = 0.02556428
#
# Stress axis : x y z
#
# Youngs Moduli (GPa) = 77.21607 44.59671 122.54611
#
# Poissons Ratio (x) = 0.28498 0.28406
# Poissons Ratio (y) = 0.49343 0.03390
# Poissons Ratio (z) = 0.17898 0.01234
#
# Static dielectric constant tensor:
#      x y z
#    x 1.747340 0.011360 0.012280 
#    y 0.011360 1.768230 -0.029590 
#    z 0.012280 -0.029590 1.738240 
# 
# From -- ./inp_files/538334.got.cif
#   From: 2010.05.17/outbox.cif.g08.bks.cpg/sg2_270_cif.got.tgz:538334.got - 2010.06.03 11:33:40.
