data_PCOD9060044
_publ_section_title
;
Structure prediction by ZEFSAII (Michael W. Deem and Ramdas Pophale) SiO2 
 PCOD9060044
Probable space group: P -1
;
_chemical_formula_sum "Si O2"
_cell_formula_units_Z 16
_cell_length_a 17.921775
_cell_length_b 11.996207
_cell_length_c 8.983665
_cell_angle_alpha 130.471287
_cell_angle_beta 78.042494
_cell_angle_gamma 140.026733
_cell_volume 759.458809
_symmetry_space_group_name_H-M "P -1"
_symmetry_group_IT_number 2
_symmetry_cell_setting 'triclinic'
loop_
_space_group_symop_operation_xyz
x,y,z
-x,-y,-z
loop_
_atom_site_type_symbol
_atom_site_label
_atom_site_fract_x
_atom_site_fract_y
_atom_site_fract_z
Si Si1 0.659952 0.623497 0.670937
Si Si2 0.574249 0.706388 0.288390
Si Si3 0.841706 0.275788 0.514585
Si Si4 0.309894 0.005641 0.973213
Si Si5 0.063639 0.506338 0.845783
Si Si6 0.880207 0.711285 0.217919
Si Si7 0.998376 0.847143 0.962584
Si Si8 0.618430 0.473206 0.224726
O O1 0.548445 0.407974 0.664448
O O2 0.640910 0.509509 0.425142
O O3 0.830567 0.903227 0.876951
O O4 0.626666 0.740559 0.770253
O O5 0.640942 0.676374 0.327635
O O6 0.697220 0.018809 0.452176
O O7 0.500000 0.500000 0.000000
O O8 0.790658 0.139727 0.255537
O O9 0.954042 0.352570 0.619875
O O10 0.913836 0.555576 0.706983
O O11 0.216639 0.797122 0.965616
O O12 0.452809 0.155046 0.991273
O O13 0.095118 0.403174 0.814662
O O14 0.000000 0.500000 0.000000
O O15 0.922724 0.766760 0.077937
O O16 0.728629 0.542612 0.162207
O O17 0.000000 0.000000 0.500000
O O18 0.000000 0.000000 0.000000
#
# Coordination Sequence:
#
# PCOD9060044 Si02
#       8
#     2   2   2   2   2   2   2   2
#     4  11  23  45  70 106 146 189 240 296 365 429
#     4  11  23  42  74 107 142 190 241 294 359 437
#     4  12  25  45  74 109 142 194 241 297 363 430
#     4  11  24  43  71 108 142 190 237 298 365 434
#     4  12  26  45  73 105 145 185 251 297 353 442
#     4  12  26  47  71 105 141 192 240 302 366 421
#     4  12  29  46  71 105 147 191 244 304 370 428
#     4  11  25  44  71 105 151 186 240 299 367 431
#
# _framework density 21.067634999999999
#
# number of rings (size 3 to 8) (size 9 to 14) (size 15 to 20)
#    0.000    0.500    6.250    2.625    7.000    0.500 
#    0.000    2.500    0.000    0.000    0.000    0.000 
#    0.000    0.000    0.000    0.000    0.000    0.000 
#
# Total GULP energy -89243.724096 kJ/mol
# GULP energy per Si atom -5577.732756 kJ/mol
# Density = 2.101968 g / cm^3
# Si number density = 21.067635 Si / 1000 Ang^3
#
#
#
# Elastic Constant Matrix: (Units=GPa)
#
#
# Indices 1 2 3 4 5 6 
#
# 1 114.4230 71.3588 34.1512 9.7798 4.1061 13.2053
# 2 71.3588 176.8881 43.1493 21.1259 -5.6116 6.6987
# 3 34.1512 43.1493 74.5200 -0.5741 12.7556 0.1389
# 4 9.7798 21.1259 -0.5741 38.3644 6.9015 0.3082
# 5 4.1061 -5.6116 12.7556 6.9015 18.2298 4.3096
# 6 13.2053 6.6987 0.1389 0.3082 4.3096 47.8997
#
#
#
# Elastic Compliance Matrix: (Units=1/GPa)
#
#
# Indices 1 2 3 4 5 6 
#
# 1 0.012744 -0.004162 -0.003283 -0.000827 -0.000871 -0.002838
# 2 -0.004162 0.009848 -0.005655 -0.006343 0.010593 -0.001126
# 3 -0.003283 -0.005655 0.021662 0.007832 -0.019921 0.003375
# 4 -0.000827 -0.006343 0.007832 0.033571 -0.020601 0.002730
# 5 -0.000871 0.010593 -0.019921 -0.020601 0.082044 -0.008433
# 6 -0.002838 -0.001126 0.003375 0.002730 -0.008433 0.022548
#
#
# Mechanical properties :
#
#
# Convention : Reuss Voigt Hill
#
# Bulk Modulus (GPa) = 55.38570 73.68329 64.53449
# Shear Modulus (GPa) = 23.29539 35.37691 29.33615
#
# Velocity S-wave (km/s) = 3.32888 4.10226 3.73564
# Velocity P-wave (km/s) = 6.41263 7.58212 7.02177
#
# Compressibility (1/GPa) = 0.01805520
#
# Stress axis : x y z
#
# Youngs Moduli (GPa) = 78.46710 101.54397 46.16381
#
# Poissons Ratio (x) = 0.42261 0.15154
# Poissons Ratio (y) = 0.32657 0.26106
# Poissons Ratio (z) = 0.25758 0.57423
#
# Static dielectric constant tensor:
#      x y z
#    x 1.912470 0.216190 0.002580 
#    y 0.216190 2.162280 -0.057160 
#    z 0.002580 -0.057160 1.763320 
# 
# From -- ./inp_files/333764.got.cif
#   From: 2010.05.17/outbox.cif.g08.bks.cpg/sg2_167_cif.got.tgz:333764.got - 2010.06.03 11:33:40.
