data_PCOD9060703
_publ_section_title
;
Structure prediction by ZEFSAII (Michael W. Deem and Ramdas Pophale) SiO2 
 PCOD9060703
Probable space group: P -1
;
_chemical_formula_sum "Si O2"
_cell_formula_units_Z 16
_cell_length_a 13.077401
_cell_length_b 13.296746
_cell_length_c 9.012123
_cell_angle_alpha 90.351048
_cell_angle_beta 67.673530
_cell_angle_gamma 35.475009
_cell_volume 680.672179
_symmetry_space_group_name_H-M "P -1"
_symmetry_group_IT_number 2
_symmetry_cell_setting 'triclinic'
loop_
_space_group_symop_operation_xyz
x,y,z
-x,-y,-z
loop_
_atom_site_type_symbol
_atom_site_label
_atom_site_fract_x
_atom_site_fract_y
_atom_site_fract_z
Si Si1 0.164043 0.556257 0.467290
Si Si2 0.644569 0.095670 0.278460
Si Si3 0.849380 0.084312 0.374719
Si Si4 0.588225 0.600247 0.207509
Si Si5 0.701415 0.416003 0.851520
Si Si6 0.745722 0.844420 0.474241
Si Si7 0.744873 0.695915 0.216508
Si Si8 0.032319 0.795037 0.810411
O O1 0.373692 0.310480 0.380597
O O2 0.299973 0.537713 0.309521
O O3 0.049380 0.692739 0.679930
O O4 0.958412 0.690378 0.468305
O O5 0.686359 0.170544 0.334225
O O6 0.718043 0.954159 0.362122
O O7 0.811549 0.957592 0.042032
O O8 0.683998 0.207381 0.611662
O O9 0.949971 0.112344 0.280574
O O10 0.058900 0.837023 0.265573
O O11 0.659906 0.649724 0.238239
O O12 0.741448 0.395287 0.208877
O O13 0.666265 0.531993 0.993545
O O14 0.500000 0.500000 0.000000
O O15 0.785363 0.713326 0.354759
O O16 0.492179 0.052324 0.699359
O O17 0.000000 0.500000 0.000000
#
# Coordination Sequence:
#
# PCOD9060703 Si02
#       8
#     2   2   2   2   2   2   2   2
#     4  12  25  44  68 104 141 179 233 288 338 411
#     4  12  24  46  70 100 144 187 225 285 344 408
#     4  12  24  43  68  97 144 187 226 280 337 409
#     4  12  24  45  72  99 139 185 231 285 344 414
#     4  12  26  41  65 102 143 186 233 280 339 406
#     4  11  25  49  71 102 140 175 231 298 345 404
#     4  11  23  43  78 100 128 186 231 284 360 406
#     4  12  25  39  70 105 139 188 233 269 342 416
#
# _framework density 23.506177999999998
#
# number of rings (size 3 to 8) (size 9 to 14) (size 15 to 20)
#    0.000    0.250    5.000    3.750    1.750    6.000 
#    0.000    5.625    0.000    9.750    0.000    0.000 
#    0.000    0.000    0.000    0.000    0.000    0.000 
#
# Total GULP energy -89517.844411 kJ/mol
# GULP energy per Si atom -5594.865276 kJ/mol
# Density = 2.345268 g / cm^3
# Si number density = 23.506178 Si / 1000 Ang^3
#
#
#
# Elastic Constant Matrix: (Units=GPa)
#
#
# Indices 1 2 3 4 5 6 
#
# 1 78.9677 34.2811 38.5076 9.3769 -3.2350 -4.5544
# 2 34.2811 90.0520 58.3567 20.0900 -9.3536 -22.7191
# 3 38.5076 58.3567 195.9914 29.8799 -1.8833 -0.0641
# 4 9.3769 20.0900 29.8799 31.5341 -6.7225 -0.8147
# 5 -3.2350 -9.3536 -1.8833 -6.7225 42.1159 3.6252
# 6 -4.5544 -22.7191 -0.0641 -0.8147 3.6252 35.5523
#
#
#
# Elastic Compliance Matrix: (Units=1/GPa)
#
#
# Indices 1 2 3 4 5 6 
#
# 1 0.015625 -0.005370 -0.001497 0.000177 0.000093 -0.001438
# 2 -0.005370 0.020516 -0.003962 -0.007023 0.001807 0.012070
# 3 -0.001497 -0.003962 0.007198 -0.004157 -0.001105 -0.002693
# 4 0.000177 -0.007023 -0.004157 0.041070 0.005173 -0.004059
# 5 0.000093 0.001807 -0.001105 0.005173 0.025038 -0.001270
# 6 -0.001438 0.012070 -0.002693 -0.004059 -0.001270 0.035688
#
#
# Mechanical properties :
#
#
# Convention : Reuss Voigt Hill
#
# Bulk Modulus (GPa) = 46.12477 69.70020 57.91249
# Shear Modulus (GPa) = 28.73233 37.43150 33.08192
#
# Velocity S-wave (km/s) = 3.49998 3.99483 3.75556
# Velocity P-wave (km/s) = 5.99984 7.14104 6.59517
#
# Compressibility (1/GPa) = 0.02168032
#
# Stress axis : x y z
#
# Youngs Moduli (GPa) = 64.00076 48.74284 138.92363
#
# Poissons Ratio (x) = 0.26177 0.20802
# Poissons Ratio (y) = 0.34371 0.55035
# Poissons Ratio (z) = 0.09583 0.19309
#
# Static dielectric constant tensor:
#      x y z
#    x 1.933420 0.009310 -0.016540 
#    y 0.009310 1.913050 -0.006680 
#    z -0.016540 -0.006680 1.906520 
# 
# From -- ./inp_files/315215.got.cif
#   From: 2010.05.17/outbox.cif.g08.bks.cpg/sg2_158_cif.got.tgz:315215.got - 2010.06.03 11:33:40.
