data_PCOD9060717
_publ_section_title
;
Structure prediction by ZEFSAII (Michael W. Deem and Ramdas Pophale) SiO2 
 PCOD9060717
Probable space group: P -1
;
_chemical_formula_sum "Si O2"
_cell_formula_units_Z 16
_cell_length_a 24.877579
_cell_length_b 5.776857
_cell_length_c 6.269488
_cell_angle_alpha 104.601185
_cell_angle_beta 101.051610
_cell_angle_gamma 50.142889
_cell_volume 668.770572
_symmetry_space_group_name_H-M "P -1"
_symmetry_group_IT_number 2
_symmetry_cell_setting 'triclinic'
loop_
_space_group_symop_operation_xyz
x,y,z
-x,-y,-z
loop_
_atom_site_type_symbol
_atom_site_label
_atom_site_fract_x
_atom_site_fract_y
_atom_site_fract_z
Si Si1 0.031760 0.276985 0.669644
Si Si2 0.274227 0.874241 0.463983
Si Si3 0.603552 0.733629 0.799524
Si Si4 0.468903 0.584707 0.247083
Si Si5 0.696128 0.775794 0.161574
Si Si6 0.058778 0.665012 0.056969
Si Si7 0.785013 0.678861 0.835687
Si Si8 0.810951 0.231692 0.390063
O O1 0.000000 0.500000 0.500000
O O2 0.968383 0.291474 0.713160
O O3 0.106664 0.955753 0.609653
O O4 0.052612 0.424443 0.888562
O O5 0.332206 0.526615 0.361912
O O6 0.217664 0.952188 0.617265
O O7 0.314860 0.996888 0.612297
O O8 0.228012 0.060763 0.266052
O O9 0.567193 0.582332 0.805577
O O10 0.566627 0.052532 0.717528
O O11 0.633703 0.772924 0.048924
O O12 0.500000 0.500000 0.500000
O O13 0.500000 0.500000 0.000000
O O14 0.765516 0.443006 0.206691
O O15 0.719723 0.843021 0.980177
O O16 0.137883 0.529114 0.054924
O O17 0.000000 0.000000 0.000000
O O18 0.786744 0.450568 0.625323
#
# Coordination Sequence:
#
# PCOD9060717 Si02
#       8
#     2   2   2   2   2   2   2   2
#     4  11  24  40  59  92 125 189 251 323 392 479
#     4  11  26  44  72 111 150 200 252 325 402 470
#     4  12  28  52  87 122 168 214 277 325 399 492
#     4  12  31  59  90 130 177 229 274 336 398 481
#     4  11  26  44  73 109 152 198 253 326 404 464
#     4  11  24  39  63  85 130 186 255 318 398 473
#     4  11  23  44  61 100 142 190 251 328 399 474
#     4  11  24  40  67  97 144 186 253 325 402 473
#
# _framework density 23.924499000000001
#
# number of rings (size 3 to 8) (size 9 to 14) (size 15 to 20)
#    0.000    0.750    1.250    4.500    8.750    6.000 
#    0.000    0.000    0.000    0.000    0.000    0.000 
#    0.000    0.000    0.000    0.000    0.000    0.000 
#
# Total GULP energy -89253.747887 kJ/mol
# GULP energy per Si atom -5578.359243 kJ/mol
# Density = 2.387005 g / cm^3
# Si number density = 23.924499 Si / 1000 Ang^3
#
#
#
# Elastic Constant Matrix: (Units=GPa)
#
#
# Indices 1 2 3 4 5 6 
#
# 1 120.2707 31.4730 24.4383 -4.9837 6.8014 14.4499
# 2 31.4730 138.6101 28.2416 -9.2304 -5.3375 0.0065
# 3 24.4383 28.2416 75.4806 -6.2057 7.8539 -5.2438
# 4 -4.9837 -9.2304 -6.2057 39.2366 7.2922 -3.7297
# 5 6.8014 -5.3375 7.8539 7.2922 45.9982 -0.1305
# 6 14.4499 0.0065 -5.2438 -3.7297 -0.1305 23.4671
#
#
#
# Elastic Compliance Matrix: (Units=1/GPa)
#
#
# Indices 1 2 3 4 5 6 
#
# 1 0.010309 -0.001770 -0.003039 -0.000029 -0.001226 -0.007038
# 2 -0.001770 0.008263 -0.002532 0.001111 0.001479 0.000707
# 3 -0.003039 -0.002532 0.016122 0.002686 -0.003006 0.005885
# 4 -0.000029 0.001111 0.002686 0.027509 -0.004673 0.004964
# 5 -0.001226 0.001479 -0.003006 -0.004673 0.023345 -0.000530
# 6 -0.007038 0.000707 0.005885 0.004964 -0.000530 0.049047
#
#
# Mechanical properties :
#
#
# Convention : Reuss Voigt Hill
#
# Bulk Modulus (GPa) = 49.97072 55.85191 52.91131
# Shear Modulus (GPa) = 32.06155 38.42093 35.24124
#
# Velocity S-wave (km/s) = 3.66473 4.01175 3.84216
# Velocity P-wave (km/s) = 6.23211 6.69735 6.46891
#
# Compressibility (1/GPa) = 0.02001172
#
# Stress axis : x y z
#
# Youngs Moduli (GPa) = 97.00179 121.01768 62.02597
#
# Poissons Ratio (x) = 0.21425 0.18850
# Poissons Ratio (y) = 0.17173 0.15705
# Poissons Ratio (z) = 0.29479 0.30641
#
# Static dielectric constant tensor:
#      x y z
#    x 1.962900 0.009800 -0.031180 
#    y 0.009800 1.921020 0.019260 
#    z -0.031180 0.019260 1.942650 
# 
# From -- ./inp_files/14804.got.cif
#   From: 2010.05.17/outbox.cif.g08.bks.cpg/sg2_8_cif.got.tgz:14804.got - 2010.06.03 11:33:40.
