data_PCOD9060668
_publ_section_title
;
Structure prediction by ZEFSAII (Michael W. Deem and Ramdas Pophale) SiO2 
 PCOD9060668
Probable space group: P -1
;
_chemical_formula_sum "Si O2"
_cell_formula_units_Z 16
_cell_length_a 11.203743
_cell_length_b 16.289539
_cell_length_c 19.084768
_cell_angle_alpha 156.325138
_cell_angle_beta 149.739854
_cell_angle_gamma 43.338348
_cell_volume 668.914925
_symmetry_space_group_name_H-M "P -1"
_symmetry_group_IT_number 2
_symmetry_cell_setting 'triclinic'
loop_
_space_group_symop_operation_xyz
x,y,z
-x,-y,-z
loop_
_atom_site_type_symbol
_atom_site_label
_atom_site_fract_x
_atom_site_fract_y
_atom_site_fract_z
Si Si1 0.685078 0.583995 0.991264
Si Si2 0.786301 0.314455 0.206156
Si Si3 0.523718 0.804347 0.904948
Si Si4 0.007087 0.045905 0.660854
Si Si5 0.009364 0.439949 0.738577
Si Si6 0.482048 0.360584 0.471132
Si Si7 0.542251 0.174640 0.501655
Si Si8 0.940496 0.180054 0.036115
O O1 0.411245 0.605351 0.876562
O O2 0.644357 0.401882 0.769378
O O3 0.866271 0.811155 0.231001
O O4 0.811150 0.512732 0.065808
O O5 0.613273 0.192225 0.087527
O O6 0.904032 0.200850 0.117726
O O7 0.000000 0.500000 0.500000
O O8 0.420134 0.569453 0.633758
O O9 0.813382 0.832438 0.090280
O O10 0.500000 0.000000 0.000000
O O11 0.724667 0.043720 0.514586
O O12 0.014075 0.805324 0.481734
O O13 0.727840 0.436068 0.608741
O O14 0.110647 0.618105 0.870242
O O15 0.554436 0.229413 0.468748
O O16 0.228656 0.209370 0.190922
O O17 0.257221 0.035782 0.262349
#
# Coordination Sequence:
#
# PCOD9060668 Si02
#       8
#     2   2   2   2   2   2   2   2
#     4  11  23  45  74 104 141 193 241 292 364 429
#     4  11  23  46  72 101 144 186 232 292 362 426
#     4  11  24  46  75 107 137 188 244 295 355 430
#     4  11  23  43  75 107 140 190 242 298 354 429
#     4  12  27  46  74 108 147 190 247 298 355 430
#     4  12  24  49  72 103 146 193 244 293 358 435
#     4  12  24  46  76 105 145 189 242 298 364 430
#     4  12  28  47  68 112 147 191 236 299 369 422
#
# _framework density 23.919336000000001
#
# number of rings (size 3 to 8) (size 9 to 14) (size 15 to 20)
#    0.000    0.500    5.000    3.750    3.500    2.500 
#    4.500    0.000    0.000    0.000    0.000    0.000 
#    0.000    0.000    0.000    0.000    0.000    0.000 
#
# Total GULP energy -89584.680314 kJ/mol
# GULP energy per Si atom -5599.042520 kJ/mol
# Density = 2.386489 g / cm^3
# Si number density = 23.919336 Si / 1000 Ang^3
#
#
#
# Elastic Constant Matrix: (Units=GPa)
#
#
# Indices 1 2 3 4 5 6 
#
# 1 44.3835 28.1258 8.1806 -0.9495 17.2544 10.7142
# 2 28.1258 125.3070 32.2175 -11.9718 18.0137 9.5799
# 3 8.1806 32.2175 122.8182 -13.0768 7.5086 11.3931
# 4 -0.9495 -11.9718 -13.0768 58.0418 -1.6773 3.7646
# 5 17.2544 18.0137 7.5086 -1.6773 22.3267 6.5961
# 6 10.7142 9.5799 11.3931 3.7646 6.5961 44.3897
#
#
#
# Elastic Compliance Matrix: (Units=1/GPa)
#
#
# Indices 1 2 3 4 5 6 
#
# 1 0.035003 -0.004514 0.000550 -0.000607 -0.022388 -0.004237
# 2 -0.004514 0.010219 -0.001967 0.001487 -0.003939 -0.000152
# 3 0.000550 -0.001967 0.009064 0.001742 -0.001162 -0.002010
# 4 -0.000607 0.001487 0.001742 0.018085 0.000710 -0.002261
# 5 -0.022388 -0.003939 -0.001162 0.000710 0.066724 -0.003423
# 6 -0.004237 -0.000152 -0.002010 -0.002261 -0.003423 0.024800
#
#
# Mechanical properties :
#
#
# Convention : Reuss Voigt Hill
#
# Bulk Modulus (GPa) = 23.57083 47.72850 35.64966
# Shear Modulus (GPa) = 26.32978 39.88395 33.10686
#
# Velocity S-wave (km/s) = 3.32139 4.08785 3.72439
# Velocity P-wave (km/s) = 4.95828 6.50215 5.78198
#
# Compressibility (1/GPa) = 0.04242532
#
# Stress axis : x y z
#
# Youngs Moduli (GPa) = 28.56882 97.85613 110.32168
#
# Poissons Ratio (x) = 0.44168 -0.06065
# Poissons Ratio (y) = 0.12895 0.21698
# Poissons Ratio (z) = -0.01570 0.19246
#
# Static dielectric constant tensor:
#      x y z
#    x 1.909810 -0.040510 -0.021460 
#    y -0.040510 1.959860 -0.002590 
#    z -0.021460 -0.002590 1.905000 
# 
# From -- ./inp_files/596101.got.cif
#   From: 2010.05.17/outbox.cif.g08.bks.cpg/sg2_299_cif.got.tgz:596101.got - 2010.06.03 11:33:40.
