data_PCOD9060513
_publ_section_title
;
Structure prediction by ZEFSAII (Michael W. Deem and Ramdas Pophale) SiO2 
 PCOD9060513
Probable space group: P -1
;
_chemical_formula_sum "Si O2"
_cell_formula_units_Z 16
_cell_length_a 11.597230
_cell_length_b 13.677361
_cell_length_c 5.397093
_cell_angle_alpha 97.171454
_cell_angle_beta 55.842480
_cell_angle_gamma 89.831799
_cell_volume 700.079315
_symmetry_space_group_name_H-M "P -1"
_symmetry_group_IT_number 2
_symmetry_cell_setting 'triclinic'
loop_
_space_group_symop_operation_xyz
x,y,z
-x,-y,-z
loop_
_atom_site_type_symbol
_atom_site_label
_atom_site_fract_x
_atom_site_fract_y
_atom_site_fract_z
Si Si1 0.995122 0.118139 0.026555
Si Si2 0.351808 0.258653 0.407399
Si Si3 0.558832 0.328540 0.822411
Si Si4 0.083110 0.224909 0.440817
Si Si5 0.290562 0.802622 0.770772
Si Si6 0.493056 0.938241 0.738184
Si Si7 0.634614 0.549969 0.234606
Si Si8 0.183079 0.634562 0.192972
O O1 0.831530 0.157373 0.254665
O O2 0.072875 0.162635 0.181141
O O3 0.041657 0.161500 0.716285
O O4 0.000000 0.000000 0.000000
O O5 0.235525 0.254873 0.334940
O O6 0.380554 0.148984 0.447023
O O7 0.320057 0.353416 0.649743
O O8 0.500007 0.277870 0.114326
O O9 0.580412 0.248070 0.556555
O O10 0.437613 0.411206 0.920475
O O11 0.711331 0.364198 0.699910
O O12 0.976848 0.324513 0.561347
O O13 0.344744 0.890864 0.889818
O O14 0.232173 0.718171 0.977725
O O15 0.500000 0.000000 0.500000
O O16 0.500000 0.000000 0.000000
O O17 0.500000 0.500000 0.500000
O O18 0.767238 0.470746 0.020096
#
# Coordination Sequence:
#
# PCOD9060513 Si02
#       8
#     2   2   2   2   2   2   2   2
#     4  11  26  47  75 100 137 196 247 287 350 429
#     4  12  28  44  68 108 147 184 238 298 362 425
#     4  12  20  43  72 100 143 178 240 296 356 414
#     4  11  28  47  70 103 151 185 231 303 354 424
#     4  11  23  43  72 101 140 178 248 294 348 425
#     4  12  27  42  69 101 142 186 229 294 358 413
#     4  12  23  41  73 107 135 185 243 296 357 428
#     4  11  23  45  70 101 137 187 234 293 356 422
#
# _framework density 22.854554
#
# number of rings (size 3 to 8) (size 9 to 14) (size 15 to 20)
#    0.000    0.500    6.250    1.500    5.250    0.500 
#    0.000    0.625    0.000    0.000    0.000    0.000 
#    0.000    0.000    0.000    0.000    0.000    0.000 
#
# Total GULP energy -89405.917821 kJ/mol
# GULP energy per Si atom -5587.869864 kJ/mol
# Density = 2.280254 g / cm^3
# Si number density = 22.854554 Si / 1000 Ang^3
#
#
#
# Elastic Constant Matrix: (Units=GPa)
#
#
# Indices 1 2 3 4 5 6 
#
# 1 153.6104 51.4848 15.9237 26.7448 17.6573 3.1513
# 2 51.4848 119.8029 30.8363 25.5791 17.9983 -5.8697
# 3 15.9237 30.8363 58.9381 13.5293 25.1169 5.6345
# 4 26.7448 25.5791 13.5293 36.1586 2.2624 17.0245
# 5 17.6573 17.9983 25.1169 2.2624 44.2864 9.9983
# 6 3.1513 -5.8697 5.6345 17.0245 9.9983 33.6034
#
#
#
# Elastic Compliance Matrix: (Units=1/GPa)
#
#
# Indices 1 2 3 4 5 6 
#
# 1 0.008559 -0.001862 0.001627 -0.006921 -0.003967 0.003286
# 2 -0.001862 0.013679 -0.002796 -0.011911 -0.005006 0.010557
# 3 0.001627 -0.002796 0.026274 -0.010293 -0.014929 0.004610
# 4 -0.006921 -0.011911 -0.010293 0.060863 0.018464 -0.036034
# 5 -0.003967 -0.005006 -0.014929 0.018464 0.037928 -0.018638
# 6 0.003286 0.010557 0.004610 -0.036034 -0.018638 0.054323
#
#
# Mechanical properties :
#
#
# Convention : Reuss Voigt Hill
#
# Bulk Modulus (GPa) = 23.55691 58.76010 41.15851
# Shear Modulus (GPa) = 22.53895 38.41680 30.47788
#
# Velocity S-wave (km/s) = 3.14377 4.10436 3.65575
# Velocity P-wave (km/s) = 4.84845 6.94459 5.98894
#
# Compressibility (1/GPa) = 0.04245038
#
# Stress axis : x y z
#
# Youngs Moduli (GPa) = 116.83531 73.10325 38.06030
#
# Poissons Ratio (x) = 0.13615 -0.06192
# Poissons Ratio (y) = 0.21760 0.10640
# Poissons Ratio (z) = -0.19008 0.20436
#
# Static dielectric constant tensor:
#      x y z
#    x 1.870490 -0.004210 -0.019010 
#    y -0.004210 1.916160 0.010030 
#    z -0.019010 0.010030 1.916130 
# 
# From -- ./inp_files/71006.got.cif
#   From: 2010.05.17/outbox.cif.g08.bks.cpg/sg2_36_cif.got.tgz:71006.got - 2010.06.03 11:33:40.
