data_PCOD9060291
_publ_section_title
;
Structure prediction by ZEFSAII (Michael W. Deem and Ramdas Pophale) SiO2 
 PCOD9060291
Probable space group: P -1
;
_chemical_formula_sum "Si O2"
_cell_formula_units_Z 16
_cell_length_a 8.729582
_cell_length_b 16.825748
_cell_length_c 6.248946
_cell_angle_alpha 128.292339
_cell_angle_beta 83.227760
_cell_angle_gamma 96.101352
_cell_volume 714.711647
_symmetry_space_group_name_H-M "P -1"
_symmetry_group_IT_number 2
_symmetry_cell_setting 'triclinic'
loop_
_space_group_symop_operation_xyz
x,y,z
-x,-y,-z
loop_
_atom_site_type_symbol
_atom_site_label
_atom_site_fract_x
_atom_site_fract_y
_atom_site_fract_z
Si Si1 0.972623 0.175034 0.317150
Si Si2 0.856956 0.633849 0.234969
Si Si3 0.543738 0.964090 0.680676
Si Si4 0.444680 0.402006 0.053643
Si Si5 0.578678 0.376948 0.411996
Si Si6 0.902947 0.009889 0.740813
Si Si7 0.892196 0.451308 0.250558
Si Si8 0.633511 0.242404 0.552041
O O1 0.097386 0.266916 0.469491
O O2 0.037228 0.079613 0.270122
O O3 0.808821 0.211258 0.491183
O O4 0.932557 0.124016 0.011981
O O5 0.847386 0.538098 0.235271
O O6 0.701067 0.635723 0.125427
O O7 0.998100 0.619893 0.022508
O O8 0.724753 0.986048 0.692236
O O9 0.478223 0.848718 0.503572
O O10 0.500000 0.000000 0.500000
O O11 0.500000 0.000000 0.000000
O O12 0.441704 0.370283 0.251145
O O13 0.452524 0.524027 0.272158
O O14 0.593284 0.344391 0.852263
O O15 0.742176 0.403547 0.314342
O O16 0.595751 0.274978 0.370544
O O17 0.000000 0.000000 0.500000
O O18 0.000000 0.500000 0.500000
#
# Coordination Sequence:
#
# PCOD9060291 Si02
#       8
#     2   2   2   2   2   2   2   2
#     4  11  25  47  73 108 144 200 260 324 402 479
#     4  11  25  43  69 105 147 197 258 318 387 473
#     4  12  28  54  86 123 163 208 269 339 411 489
#     4  11  26  44  68 106 149 200 253 322 384 471
#     4  11  26  44  71 107 152 201 260 321 395 472
#     4  11  26  51  80 109 156 199 260 341 405 483
#     4  11  23  43  69 101 148 197 250 319 385 466
#     4  12  26  47  77 106 150 205 259 323 404 484
#
# _framework density 22.386648000000001
#
# number of rings (size 3 to 8) (size 9 to 14) (size 15 to 20)
#    0.000    0.750    2.500    3.375   10.500    3.000 
#    2.250    0.000    0.000    0.000    0.000    0.000 
#    0.000    0.000    0.000    0.000    0.000    0.000 
#
# Total GULP energy -89340.292480 kJ/mol
# GULP energy per Si atom -5583.768280 kJ/mol
# Density = 2.233570 g / cm^3
# Si number density = 22.386648 Si / 1000 Ang^3
#
#
#
# Elastic Constant Matrix: (Units=GPa)
#
#
# Indices 1 2 3 4 5 6 
#
# 1 154.8592 46.7185 86.9366 -5.8390 12.3615 -6.9292
# 2 46.7185 124.0778 49.8461 -3.8141 18.0825 3.1225
# 3 86.9366 49.8461 106.3403 -2.9975 1.6369 -1.4429
# 4 -5.8390 -3.8141 -2.9975 28.0116 1.1858 -2.1084
# 5 12.3615 18.0825 1.6369 1.1858 50.9143 -6.9434
# 6 -6.9292 3.1225 -1.4429 -2.1084 -6.9434 38.0998
#
#
#
# Elastic Compliance Matrix: (Units=1/GPa)
#
#
# Indices 1 2 3 4 5 6 
#
# 1 0.012454 -0.000342 -0.009914 0.001709 -0.002409 0.001573
# 2 -0.000342 0.010696 -0.004673 0.000914 -0.003827 -0.001763
# 3 -0.009914 -0.004673 0.019624 -0.000755 0.003441 -0.000092
# 4 0.001709 0.000914 -0.000755 0.036303 -0.001291 0.001981
# 5 -0.002409 -0.003827 0.003441 -0.001291 0.022043 0.003952
# 6 0.001573 -0.001763 -0.000092 0.001981 0.003952 0.027504
#
#
# Mechanical properties :
#
#
# Convention : Reuss Voigt Hill
#
# Bulk Modulus (GPa) = 77.43313 83.58662 80.50988
# Shear Modulus (GPa) = 30.71502 36.85686 33.78594
#
# Velocity S-wave (km/s) = 3.70810 4.06196 3.88906
# Velocity P-wave (km/s) = 7.27993 7.70831 7.49718
#
# Compressibility (1/GPa) = 0.01291437
#
# Stress axis : x y z
#
# Youngs Moduli (GPa) = 80.29848 93.49440 50.95853
#
# Poissons Ratio (x) = 0.03200 0.50521
# Poissons Ratio (y) = 0.02749 0.23813
# Poissons Ratio (z) = 0.79609 0.43690
#
# Static dielectric constant tensor:
#      x y z
#    x 1.789690 -0.005540 0.005340 
#    y -0.005540 1.821080 -0.074520 
#    z 0.005340 -0.074520 1.909730 
# 
# From -- ./inp_files/49342.got.cif
#   From: 2010.05.17/outbox.cif.g08.bks.cpg/sg2_25_cif.got.tgz:49342.got - 2010.06.03 11:33:40.
