data_PCOD9060370
_publ_section_title
;
Structure prediction by ZEFSAII (Michael W. Deem and Ramdas Pophale) SiO2 
 PCOD9060370
Probable space group: P -1
;
_chemical_formula_sum "Si O2"
_cell_formula_units_Z 16
_cell_length_a 11.744265
_cell_length_b 10.151147
_cell_length_c 15.212649
_cell_angle_alpha 134.111357
_cell_angle_beta 138.321018
_cell_angle_gamma 74.526165
_cell_volume 734.222886
_symmetry_space_group_name_H-M "P -1"
_symmetry_group_IT_number 2
_symmetry_cell_setting 'triclinic'
loop_
_space_group_symop_operation_xyz
x,y,z
-x,-y,-z
loop_
_atom_site_type_symbol
_atom_site_label
_atom_site_fract_x
_atom_site_fract_y
_atom_site_fract_z
Si Si1 0.388644 0.342137 0.077123
Si Si2 0.872491 0.270040 0.114792
Si Si3 0.171644 0.498262 0.655162
Si Si4 0.967405 0.017900 0.386488
Si Si5 0.686701 0.272025 0.821758
Si Si6 0.298417 0.202488 0.161216
Si Si7 0.733789 0.423340 0.592327
Si Si8 0.769974 0.139576 0.629454
O O1 0.629253 0.455569 0.259556
O O2 0.326228 0.516476 0.100292
O O3 0.321424 0.253759 0.095558
O O4 0.266682 0.139794 0.846990
O O5 0.756323 0.315797 0.143563
O O6 0.099544 0.476103 0.340481
O O7 0.786888 0.269013 0.969178
O O8 0.858640 0.047448 0.024442
O O9 0.000000 0.500000 0.500000
O O10 0.066047 0.265989 0.533028
O O11 0.000000 0.000000 0.500000
O O12 0.080336 0.932235 0.350556
O O13 0.800918 0.242071 0.791626
O O14 0.456755 0.069375 0.596636
O O15 0.513663 0.260564 0.351279
O O16 0.255466 0.368923 0.262094
O O17 0.780613 0.304511 0.639598
#
# Coordination Sequence:
#
# PCOD9060370 Si02
#       8
#     2   2   2   2   2   2   2   2
#     4  12  26  46  75 101 142 187 238 289 352 421
#     4  12  26  44  72 100 139 186 236 285 349 421
#     4  12  28  50  69 102 145 189 239 290 347 418
#     4  12  28  46  75 106 141 188 236 291 349 417
#     4  11  24  44  74 106 138 187 229 296 353 413
#     4  11  25  44  68 105 138 184 231 284 354 417
#     4  11  23  43  70 102 145 175 226 295 347 419
#     4  11  23  45  74 104 147 177 233 293 353 412
#
# _framework density 21.791748999999999
#
# number of rings (size 3 to 8) (size 9 to 14) (size 15 to 20)
#    0.000    0.500    3.750    4.125    3.500    5.000 
#    2.250    0.000    0.000    0.000    0.000    0.000 
#    0.000    0.000    0.000    0.000    0.000    0.000 
#
# Total GULP energy -89598.341237 kJ/mol
# GULP energy per Si atom -5599.896327 kJ/mol
# Density = 2.174215 g / cm^3
# Si number density = 21.791749 Si / 1000 Ang^3
#
#
#
# Elastic Constant Matrix: (Units=GPa)
#
#
# Indices 1 2 3 4 5 6 
#
# 1 81.1198 14.7832 19.7704 -4.0225 0.3794 12.8987
# 2 14.7832 106.3969 15.3027 7.8744 -0.1224 26.0312
# 3 19.7704 15.3027 63.8391 2.9609 1.7702 6.8892
# 4 -4.0225 7.8744 2.9609 30.2379 6.8655 -1.0197
# 5 0.3794 -0.1224 1.7702 6.8655 34.2034 -0.4500
# 6 12.8987 26.0312 6.8892 -1.0197 -0.4500 34.4847
#
#
#
# Elastic Compliance Matrix: (Units=1/GPa)
#
#
# Indices 1 2 3 4 5 6 
#
# 1 0.014144 -0.000606 -0.003902 0.002399 -0.000491 -0.003989
# 2 -0.000606 0.012103 -0.001633 -0.003531 0.000729 -0.008678
# 3 -0.003902 -0.001633 0.017450 -0.001710 -0.000534 -0.000851
# 4 0.002399 -0.003531 -0.001710 0.036211 -0.007179 0.003087
# 5 -0.000491 0.000729 -0.000534 -0.007179 0.030713 -0.000072
# 6 -0.003989 -0.008678 -0.000851 0.003087 -0.000072 0.037302
#
#
# Mechanical properties :
#
#
# Convention : Reuss Voigt Hill
#
# Bulk Modulus (GPa) = 31.83265 39.00760 35.42013
# Shear Modulus (GPa) = 29.29482 33.21850 31.25666
#
# Velocity S-wave (km/s) = 3.67046 3.90854 3.79137
# Velocity P-wave (km/s) = 5.70985 6.18934 5.95443
#
# Compressibility (1/GPa) = 0.03141429
#
# Stress axis : x y z
#
# Youngs Moduli (GPa) = 70.69889 82.62215 57.30525
#
# Poissons Ratio (x) = 0.05008 0.22362
# Poissons Ratio (y) = 0.04286 0.09361
# Poissons Ratio (z) = 0.27589 0.13496
#
# Static dielectric constant tensor:
#      x y z
#    x 1.765170 -0.004570 0.007330 
#    y -0.004570 1.727410 -0.001160 
#    z 0.007330 -0.001160 1.795980 
# 
# From -- ./inp_files/246009.got.cif
#   From: 2010.05.17/outbox.cif.g08.bks.cpg/sg2_124_cif.got.tgz:246009.got - 2010.06.03 11:33:40.
