data_PCOD9060985
_publ_section_title
;
Structure prediction by ZEFSAII (Michael W. Deem and Ramdas Pophale) SiO2 
 PCOD9060985
Probable space group: P -1
;
_chemical_formula_sum "Si O2"
_cell_formula_units_Z 16
_cell_length_a 19.784333
_cell_length_b 12.044013
_cell_length_c 6.506522
_cell_angle_alpha 90.063397
_cell_angle_beta 87.278874
_cell_angle_gamma 28.761714
_cell_volume 742.207945
_symmetry_space_group_name_H-M "P -1"
_symmetry_group_IT_number 2
_symmetry_cell_setting 'triclinic'
loop_
_space_group_symop_operation_xyz
x,y,z
-x,-y,-z
loop_
_atom_site_type_symbol
_atom_site_label
_atom_site_fract_x
_atom_site_fract_y
_atom_site_fract_z
Si Si1 0.281519 0.343860 0.146280
Si Si2 0.885302 0.803137 0.678089
Si Si3 0.571865 0.457431 0.297777
Si Si4 0.184809 0.328097 0.508003
Si Si5 0.361315 0.846195 0.998728
Si Si6 0.085253 0.825860 0.175473
Si Si7 0.428098 0.981183 0.780579
Si Si8 0.166232 0.881030 0.491170
O O1 0.190166 0.394196 0.302633
O O2 0.186198 0.582580 0.085456
O O3 0.410848 0.211895 0.255172
O O4 0.350888 0.172618 0.955705
O O5 0.844493 0.757588 0.541759
O O6 0.054954 0.557357 0.667284
O O7 0.799144 0.910646 0.900548
O O8 0.834293 0.991281 0.584421
O O9 0.500000 0.500000 0.500000
O O10 0.460447 0.689777 0.185459
O O11 0.703777 0.331025 0.376725
O O12 0.625358 0.284339 0.136321
O O13 0.336561 0.119647 0.589512
O O14 0.414097 0.876305 0.866652
O O15 0.168967 0.799751 0.289518
O O16 0.975321 0.935766 0.358364
O O17 0.000000 0.000000 0.000000
#
# Coordination Sequence:
#
# PCOD9060985 Si02
#       8
#     2   2   2   2   2   2   2   2
#     4  11  25  47  66 101 135 182 235 278 343 414
#     4  11  23  44  71 100 140 171 234 282 346 410
#     4  11  25  42  70  99 143 179 226 286 346 415
#     4  11  24  46  69 100 137 183 224 288 344 408
#     4  11  25  42  66 111 135 183 230 283 350 407
#     4  11  28  45  71  97 137 183 233 287 342 409
#     4  11  26  42  70 100 137 182 232 283 340 409
#     4  11  25  45  65 104 132 185 229 283 348 411
#
# _framework density 21.557302
#
# number of rings (size 3 to 8) (size 9 to 14) (size 15 to 20)
#    0.000    1.000    3.750    1.125    7.000    0.500 
#    2.250    0.000    0.000    0.000    0.000    0.000 
#    0.000    0.000    0.000    0.000    0.000    0.000 
#
# Total GULP energy -89535.848019 kJ/mol
# GULP energy per Si atom -5595.990501 kJ/mol
# Density = 2.150824 g / cm^3
# Si number density = 21.557302 Si / 1000 Ang^3
#
#
#
# Elastic Constant Matrix: (Units=GPa)
#
#
# Indices 1 2 3 4 5 6 
#
# 1 83.1623 20.3399 9.3844 -10.5968 -1.7912 8.5909
# 2 20.3399 67.6995 1.8154 -11.6301 5.1474 5.6698
# 3 9.3844 1.8154 38.1839 -15.3054 8.5672 6.4646
# 4 -10.5968 -11.6301 -15.3054 36.8380 -7.2193 -7.0932
# 5 -1.7912 5.1474 8.5672 -7.2193 32.4016 -5.7872
# 6 8.5909 5.6698 6.4646 -7.0932 -5.7872 30.5464
#
#
#
# Elastic Compliance Matrix: (Units=1/GPa)
#
#
# Indices 1 2 3 4 5 6 
#
# 1 0.013695 -0.003760 -0.002674 0.001713 0.002124 -0.001787
# 2 -0.003760 0.017019 0.002999 0.004488 -0.003113 -0.002284
# 3 -0.002674 0.002999 0.034193 0.011664 -0.008115 -0.005870
# 4 0.001713 0.004488 0.011664 0.036021 0.005322 0.005589
# 5 0.002124 -0.003113 -0.008115 0.005322 0.036567 0.009861
# 6 -0.001787 -0.002284 -0.005870 0.005589 0.009861 0.038072
#
#
# Mechanical properties :
#
#
# Convention : Reuss Voigt Hill
#
# Bulk Modulus (GPa) = 17.23059 28.01391 22.62225
# Shear Modulus (GPa) = 24.77892 30.45761 27.61826
#
# Velocity S-wave (km/s) = 3.39402 3.76289 3.58321
# Velocity P-wave (km/s) = 4.83420 5.64822 5.25699
#
# Compressibility (1/GPa) = 0.05803633
#
# Stress axis : x y z
#
# Youngs Moduli (GPa) = 73.02022 58.75663 29.24541
#
# Poissons Ratio (x) = 0.22094 0.07821
# Poissons Ratio (y) = 0.27458 -0.08770
# Poissons Ratio (z) = 0.19527 -0.17620
#
# Static dielectric constant tensor:
#      x y z
#    x 1.476190 -0.044540 0.091070 
#    y -0.044540 1.776730 0.012490 
#    z 0.091070 0.012490 1.723480 
# 
# From -- ./inp_files/83238.got.cif
#   From: 2010.05.17/outbox.cif.g08.bks.cpg/sg2_42_cif.got.tgz:83238.got - 2010.06.03 11:33:40.
