data_PCOD9060733
_publ_section_title
;
Structure prediction by ZEFSAII (Michael W. Deem and Ramdas Pophale) SiO2 
 PCOD9060733
Probable space group: P -1
;
_chemical_formula_sum "Si O2"
_cell_formula_units_Z 16
_cell_length_a 14.730672
_cell_length_b 14.431492
_cell_length_c 14.816921
_cell_angle_alpha 50.668088
_cell_angle_beta 31.830208
_cell_angle_gamma 30.337386
_cell_volume 778.400580
_symmetry_space_group_name_H-M "P -1"
_symmetry_group_IT_number 2
_symmetry_cell_setting 'triclinic'
loop_
_space_group_symop_operation_xyz
x,y,z
-x,-y,-z
loop_
_atom_site_type_symbol
_atom_site_label
_atom_site_fract_x
_atom_site_fract_y
_atom_site_fract_z
Si Si1 0.793032 0.527137 0.605920
Si Si2 0.932238 0.763398 0.141595
Si Si3 0.436627 0.301430 0.996904
Si Si4 0.930882 0.833109 0.294711
Si Si5 0.717185 0.131797 0.060061
Si Si6 0.516328 0.163215 0.589167
Si Si7 0.073393 0.592113 0.640422
Si Si8 0.956961 0.110753 0.552100
O O1 0.488321 0.746547 0.755407
O O2 0.864245 0.482483 0.469065
O O3 0.000000 0.500000 0.500000
O O4 0.872185 0.355749 0.689185
O O5 0.839625 0.811016 0.296178
O O6 0.714976 0.815105 0.227068
O O7 0.229030 0.531218 0.030341
O O8 0.924179 0.904805 0.031495
O O9 0.541456 0.219844 0.060897
O O10 0.230353 0.302933 0.142976
O O11 0.704697 0.191964 0.776314
O O12 0.688312 0.030450 0.436033
O O13 0.124883 0.831541 0.096960
O O14 0.328404 0.387213 0.605515
O O15 0.754310 0.039847 0.540385
O O16 0.092416 0.725182 0.541532
O O17 0.000000 0.000000 0.500000
#
# Coordination Sequence:
#
# PCOD9060733 Si02
#       8
#     2   2   2   2   2   2   2   2
#     4  12  20  36  63  96 140 185 216 255 324 396
#     4  11  24  39  63  99 140 182 217 262 327 404
#     4  11  24  45  67  98 133 174 226 277 332 403
#     4  12  22  36  60  99 141 180 225 260 314 404
#     4  12  22  36  61  97 142 181 221 264 317 393
#     4  11  23  44  65  97 133 176 221 273 328 401
#     4  11  24  44  70  98 140 177 218 277 331 394
#     4  12  28  49  74  97 126 171 230 294 347 390
#
# _framework density 20.554970000000001
#
# number of rings (size 3 to 8) (size 9 to 14) (size 15 to 20)
#    0.000    0.500    5.000    4.125    3.500    1.000 
#    0.000    2.500    0.000    0.000    0.000    0.000 
#    0.000    0.000    0.000    0.000    0.000    0.000 
#
# Total GULP energy -89411.538387 kJ/mol
# GULP energy per Si atom -5588.221149 kJ/mol
# Density = 2.050819 g / cm^3
# Si number density = 20.554970 Si / 1000 Ang^3
#
#
#
# Elastic Constant Matrix: (Units=GPa)
#
#
# Indices 1 2 3 4 5 6 
#
# 1 73.4214 22.4500 21.5209 15.3104 -6.7714 1.9489
# 2 22.4500 77.5411 -11.2215 -7.8942 24.0632 2.7994
# 3 21.5209 -11.2215 -42.7667 1.7807 78.0932 6.3681
# 4 15.3104 -7.8942 1.7807 26.5422 0.5164 -5.0520
# 5 -6.7714 24.0632 78.0932 0.5164 -59.7019 -11.6214
# 6 1.9489 2.7994 6.3681 -5.0520 -11.6214 22.1637
#
#
#
# Elastic Compliance Matrix: (Units=1/GPa)
#
#
# Indices 1 2 3 4 5 6 
#
# 1 0.018106 -0.004737 -0.002677 -0.012778 -0.006319 -0.006451
# 2 -0.004737 0.014130 -0.003834 0.007541 0.000907 0.001928
# 3 -0.002677 -0.003834 0.019792 -0.000002 0.023242 0.007219
# 4 -0.012778 0.007541 -0.000002 0.049673 0.002430 0.012768
# 5 -0.006319 0.000907 0.023242 0.002430 0.014393 0.001864
# 6 -0.006451 0.001928 0.007219 0.012768 0.001864 0.047256
#
#
# Mechanical properties :
#
#
# Convention : Reuss Voigt Hill
#
# Bulk Modulus (GPa) = 33.86067 19.29941 26.58004
# Shear Modulus (GPa) = 25.55079 2.83056 14.19068
#
# Velocity S-wave (km/s) = 3.52951 1.17476 2.63035
# Velocity P-wave (km/s) = 5.75490 3.35405 4.71002
#
# Compressibility (1/GPa) = 0.02953279
#
# Stress axis : x y z
#
# Youngs Moduli (GPa) = 55.23040 70.77319 50.52455
#
# Poissons Ratio (x) = 0.33523 0.13523
# Poissons Ratio (y) = 0.26161 0.19373
# Poissons Ratio (z) = 0.14783 0.27137
#
# Static dielectric constant tensor:
#      x y z
#    x 1.744830 -0.040520 -0.047020 
#    y -0.040520 1.789670 0.022110 
#    z -0.047020 0.022110 1.820530 
# 
# From -- ./inp_files/214241.got.cif
#   From: 2010.05.17/outbox.cif.g08.bks.cpg/sg2_108_cif.got.tgz:214241.got - 2010.06.03 11:33:40.
