data_PCOD9060376
_publ_section_title
;
Structure prediction by ZEFSAII (Michael W. Deem and Ramdas Pophale) SiO2 
 PCOD9060376
Probable space group: P -1
;
_chemical_formula_sum "Si O2"
_cell_formula_units_Z 16
_cell_length_a 7.912188
_cell_length_b 14.757883
_cell_length_c 6.382988
_cell_angle_alpha 101.982307
_cell_angle_beta 94.108661
_cell_angle_gamma 112.922211
_cell_volume 661.821206
_symmetry_space_group_name_H-M "P -1"
_symmetry_group_IT_number 2
_symmetry_cell_setting 'triclinic'
loop_
_space_group_symop_operation_xyz
x,y,z
-x,-y,-z
loop_
_atom_site_type_symbol
_atom_site_label
_atom_site_fract_x
_atom_site_fract_y
_atom_site_fract_z
Si Si1 0.428125 0.902554 0.294974
Si Si2 0.159051 0.832230 0.871960
Si Si3 0.237028 0.707803 0.476731
Si Si4 0.118252 0.460289 0.841512
Si Si5 0.245027 0.148931 0.654293
Si Si6 0.438813 0.588453 0.615560
Si Si7 0.227778 0.310345 0.009769
Si Si8 0.023526 0.039688 0.255113
O O1 0.308300 0.799907 0.363237
O O2 0.607084 0.882939 0.236541
O O3 0.500000 0.000000 0.500000
O O4 0.308531 0.904830 0.085137
O O5 0.233947 0.758793 0.724221
O O6 0.102716 0.896238 0.725438
O O7 0.970360 0.761785 0.942879
O O8 0.367840 0.646732 0.466886
O O9 0.030883 0.629671 0.355032
O O10 0.265711 0.539730 0.737546
O O11 0.223989 0.414260 0.982280
O O12 0.000000 0.500000 0.000000
O O13 0.265672 0.256765 0.782811
O O14 0.224867 0.118556 0.393957
O O15 0.045851 0.066282 0.676857
O O16 0.500000 0.500000 0.500000
O O17 0.613584 0.668044 0.795343
O O18 0.000000 0.000000 0.000000
#
# Coordination Sequence:
#
# PCOD9060376 Si02
#       8
#     2   2   2   2   2   2   2   2
#     4  12  28  46  72 108 148 192 242 295 362 436
#     4  12  25  46  72 105 146 193 241 291 366 430
#     4  12  27  48  76 105 149 192 238 303 361 435
#     4  12  26  49  77 105 148 192 244 304 369 437
#     4  11  26  42  70 105 143 187 243 294 358 426
#     4  12  28  47  74 111 145 189 249 304 370 436
#     4  12  25  44  74 105 142 185 240 303 360 432
#     4  11  23  43  70 103 145 189 240 296 354 431
#
# _framework density 24.175716999999999
#
# number of rings (size 3 to 8) (size 9 to 14) (size 15 to 20)
#    0.000    0.250    2.500    6.000    7.000    4.000 
#    0.000    0.000    0.000    0.000    0.000    0.000 
#    0.000    0.000    0.000    0.000    0.000    0.000 
#
# Total GULP energy -89588.279318 kJ/mol
# GULP energy per Si atom -5599.267457 kJ/mol
# Density = 2.412069 g / cm^3
# Si number density = 24.175717 Si / 1000 Ang^3
#
#
#
# Elastic Constant Matrix: (Units=GPa)
#
#
# Indices 1 2 3 4 5 6 
#
# 1 75.1238 22.1977 19.3850 2.6650 7.6101 -10.9209
# 2 22.1977 82.7027 12.6141 -3.7184 -1.7698 -12.6243
# 3 19.3850 12.6141 82.0204 14.8792 16.2780 6.8206
# 4 2.6650 -3.7184 14.8792 40.3857 -8.8333 4.7560
# 5 7.6101 -1.7698 16.2780 -8.8333 56.8131 2.8366
# 6 -10.9209 -12.6243 6.8206 4.7560 2.8366 45.1775
#
#
#
# Elastic Compliance Matrix: (Units=1/GPa)
#
#
# Indices 1 2 3 4 5 6 
#
# 1 0.015791 -0.003322 -0.002991 -0.001037 -0.001700 0.003556
# 2 -0.003322 0.013972 -0.002417 0.002424 0.001795 0.003098
# 3 -0.002991 -0.002417 0.015700 -0.006592 -0.005060 -0.002757
# 4 -0.001037 0.002424 -0.006592 0.029202 0.006747 -0.002076
# 5 -0.001700 0.001795 -0.005060 0.006747 0.020441 -0.001139
# 6 0.003556 0.003098 -0.002757 -0.002076 -0.001139 0.024567
#
#
# Mechanical properties :
#
#
# Convention : Reuss Voigt Hill
#
# Bulk Modulus (GPa) = 35.71231 38.69339 37.20285
# Shear Modulus (GPa) = 34.13711 40.85193 37.49452
#
# Velocity S-wave (km/s) = 3.76179 4.11517 3.94244
# Velocity P-wave (km/s) = 5.80277 6.21444 6.01213
#
# Compressibility (1/GPa) = 0.02800155
#
# Stress axis : x y z
#
# Youngs Moduli (GPa) = 63.32753 71.57055 63.69358
#
# Poissons Ratio (x) = 0.23777 0.19053
# Poissons Ratio (y) = 0.21039 0.15396
# Poissons Ratio (z) = 0.18944 0.17301
#
# Static dielectric constant tensor:
#      x y z
#    x 1.964600 0.011150 -0.009000 
#    y 0.011150 1.941530 -0.051640 
#    z -0.009000 -0.051640 2.116770 
# 
# From -- ./inp_files/39460.got.cif
#   From: 2010.05.17/outbox.cif.g08.bks.cpg/sg2_20_cif.got.tgz:39460.got - 2010.06.03 11:33:40.
