data_PCOD9060182
_publ_section_title
;
Structure prediction by ZEFSAII (Michael W. Deem and Ramdas Pophale) SiO2 
 PCOD9060182
Probable space group: P -1
;
_chemical_formula_sum "Si O2"
_cell_formula_units_Z 16
_cell_length_a 18.839252
_cell_length_b 6.663101
_cell_length_c 13.855739
_cell_angle_alpha 48.597627
_cell_angle_beta 138.833774
_cell_angle_gamma 138.208485
_cell_volume 742.851271
_symmetry_space_group_name_H-M "P -1"
_symmetry_group_IT_number 2
_symmetry_cell_setting 'triclinic'
loop_
_space_group_symop_operation_xyz
x,y,z
-x,-y,-z
loop_
_atom_site_type_symbol
_atom_site_label
_atom_site_fract_x
_atom_site_fract_y
_atom_site_fract_z
Si Si1 0.988990 0.905594 0.906296
Si Si2 0.613154 0.931979 0.645597
Si Si3 0.208136 0.805609 0.095469
Si Si4 0.096418 0.821167 0.445892
Si Si5 0.375427 0.155501 0.973196
Si Si6 0.669622 0.106760 0.447955
Si Si7 0.726912 0.776499 0.338575
Si Si8 0.500958 0.766855 0.211557
O O1 0.881789 0.546802 0.913608
O O2 0.955988 0.074992 0.732325
O O3 0.118653 0.934470 0.995926
O O4 0.000000 0.000000 0.000000
O O5 0.574618 0.600763 0.755769
O O6 0.500000 0.000000 0.500000
O O7 0.715182 0.193373 0.733625
O O8 0.667067 0.927452 0.597753
O O9 0.305902 0.015632 0.047080
O O10 0.209333 0.793532 0.523512
O O11 0.000000 0.500000 0.500000
O O12 0.156929 0.065783 0.519319
O O13 0.424716 0.933595 0.053949
O O14 0.500000 0.500000 0.000000
O O15 0.270573 0.140832 0.797771
O O16 0.672510 0.410816 0.394046
O O17 0.549687 0.889218 0.330705
O O18 0.625395 0.855411 0.252010
#
# Coordination Sequence:
#
# PCOD9060182 Si02
#       8
#     2   2   2   2   2   2   2   2
#     4  11  27  53  74 102 143 197 256 305 362 428
#     4  12  23  43  74 107 147 182 233 298 370 437
#     4  11  28  46  74 105 143 195 248 302 362 441
#     4  11  28  44  73 104 137 188 251 308 366 424
#     4  12  25  45  72 106 153 190 240 296 372 442
#     4  11  23  43  67 102 141 182 236 297 361 435
#     4  11  24  45  67 102 146 187 236 300 361 438
#     4  11  24  41  68 106 144 194 228 288 366 444
#
# _framework density 21.538630999999999
#
# number of rings (size 3 to 8) (size 9 to 14) (size 15 to 20)
#    0.000    0.750    2.500    3.750    8.750    1.500 
#    0.000    0.000    0.000    0.000    0.000    0.000 
#    0.000    0.000    0.000    0.000    0.000    0.000 
#
# Total GULP energy -89354.021806 kJ/mol
# GULP energy per Si atom -5584.626363 kJ/mol
# Density = 2.148961 g / cm^3
# Si number density = 21.538631 Si / 1000 Ang^3
#
#
#
# Elastic Constant Matrix: (Units=GPa)
#
#
# Indices 1 2 3 4 5 6 
#
# 1 88.1729 42.2342 33.4529 2.2446 -4.3728 10.8077
# 2 42.2342 70.0768 20.5187 9.8832 7.4183 -13.5060
# 3 33.4529 20.5187 120.5447 14.2855 -7.5299 -8.0425
# 4 2.2446 9.8832 14.2855 41.4515 -6.6612 -6.0802
# 5 -4.3728 7.4183 -7.5299 -6.6612 38.7198 -4.3114
# 6 10.8077 -13.5060 -8.0425 -6.0802 -4.3114 33.3744
#
#
#
# Elastic Compliance Matrix: (Units=1/GPa)
#
#
# Indices 1 2 3 4 5 6 
#
# 1 0.022233 -0.015433 -0.004540 0.002610 0.003518 -0.013609
# 2 -0.015433 0.027488 0.000773 -0.004809 -0.006055 0.014650
# 3 -0.004540 0.000773 0.010076 -0.002634 0.001279 0.003897
# 4 0.002610 -0.004809 -0.002634 0.027279 0.005650 0.002274
# 5 0.003518 -0.006055 0.001279 0.005650 0.028768 0.001464
# 6 -0.013609 0.014650 0.003897 0.002274 0.001464 0.041841
#
#
# Mechanical properties :
#
#
# Convention : Reuss Voigt Hill
#
# Bulk Modulus (GPa) = 46.73894 52.35623 49.54758
# Shear Modulus (GPa) = 24.60421 34.88173 29.74297
#
# Velocity S-wave (km/s) = 3.38350 4.02866 3.72009
# Velocity P-wave (km/s) = 6.08369 6.78240 6.44253
#
# Compressibility (1/GPa) = 0.02139544
#
# Stress axis : x y z
#
# Youngs Moduli (GPa) = 44.97895 36.37988 99.24453
#
# Poissons Ratio (x) = 0.56146 0.45061
# Poissons Ratio (y) = 0.69417 -0.07673
# Poissons Ratio (z) = 0.20422 -0.02813
#
# Static dielectric constant tensor:
#      x y z
#    x 1.788440 0.007060 -0.026420 
#    y 0.007060 1.767020 0.002130 
#    z -0.026420 0.002130 1.850290 
# 
# From -- ./inp_files/459446.got.cif
#   From: 2010.05.17/outbox.cif.g08.bks.cpg/sg2_230_cif.got.tgz:459446.got - 2010.06.03 11:33:40.
