data_PCOD9060141
_publ_section_title
;
Structure prediction by ZEFSAII (Michael W. Deem and Ramdas Pophale) SiO2 
 PCOD9060141
Probable space group: P -1
;
_chemical_formula_sum "Si O2"
_cell_formula_units_Z 16
_cell_length_a 8.501356
_cell_length_b 24.620601
_cell_length_c 8.986174
_cell_angle_alpha 30.136781
_cell_angle_beta 119.725258
_cell_angle_gamma 130.960241
_cell_volume 700.476726
_symmetry_space_group_name_H-M "P -1"
_symmetry_group_IT_number 2
_symmetry_cell_setting 'triclinic'
loop_
_space_group_symop_operation_xyz
x,y,z
-x,-y,-z
loop_
_atom_site_type_symbol
_atom_site_label
_atom_site_fract_x
_atom_site_fract_y
_atom_site_fract_z
Si Si1 0.950379 0.242396 0.148530
Si Si2 0.528933 0.567112 0.693666
Si Si3 0.844292 0.394141 0.972298
Si Si4 0.832829 0.980923 0.839907
Si Si5 0.374005 0.743129 0.247569
Si Si6 0.134642 0.214454 0.839465
Si Si7 0.611567 0.666845 0.023647
Si Si8 0.097837 0.663562 0.543560
O O1 0.933325 0.342044 0.011793
O O2 0.180468 0.268202 0.143310
O O3 0.844922 0.109348 0.499673
O O4 0.806380 0.238239 0.953286
O O5 0.374425 0.622278 0.466082
O O6 0.751505 0.698266 0.460100
O O7 0.500000 0.500000 0.000000
O O8 0.499489 0.472033 0.773728
O O9 0.592405 0.319239 0.067476
O O10 0.942829 0.383208 0.197971
O O11 0.934462 0.544429 0.646073
O O12 0.595692 0.871641 0.029230
O O13 0.886329 0.919077 0.872405
O O14 0.000000 0.000000 0.000000
O O15 0.325776 0.704994 0.487956
O O16 0.921048 0.213820 0.759283
O O17 0.275760 0.292484 0.860328
#
# Coordination Sequence:
#
# PCOD9060141 Si02
#       8
#     2   2   2   2   2   2   2   2
#     4  12  27  47  72 105 143 191 244 293 360 425
#     4  11  24  40  74 108 149 188 231 290 364 434
#     4  11  25  42  71 106 146 187 227 295 362 436
#     4  11  27  49  75  98 139 192 252 303 350 424
#     4  11  25  45  71 102 143 187 237 298 362 419
#     4  11  24  45  69 103 145 183 236 299 353 423
#     4  12  25  43  74 109 146 187 235 291 366 433
#     4  11  23  43  66 107 147 175 234 298 362 432
#
# _framework density 22.841584999999998
#
# number of rings (size 3 to 8) (size 9 to 14) (size 15 to 20)
#    0.000    0.750    2.500    4.500   10.500    1.500 
#    2.250    1.250    0.000    0.000    0.000    0.000 
#    0.000    0.000    0.000    0.000    0.000    0.000 
#
# Total GULP energy -89180.594825 kJ/mol
# GULP energy per Si atom -5573.787177 kJ/mol
# Density = 2.278960 g / cm^3
# Si number density = 22.841585 Si / 1000 Ang^3
#
#
#
# Elastic Constant Matrix: (Units=GPa)
#
#
# Indices 1 2 3 4 5 6 
#
# 1 120.9537 17.0209 22.4278 -10.5239 -5.3359 -3.2714
# 2 17.0209 60.4265 20.9167 -6.0479 -4.7800 -6.2965
# 3 22.4278 20.9167 71.4330 -9.0240 4.8909 4.7025
# 4 -10.5239 -6.0479 -9.0240 22.5868 1.5118 -1.1085
# 5 -5.3359 -4.7800 4.8909 1.5118 30.8801 8.0616
# 6 -3.2714 -6.2965 4.7025 -1.1085 8.0616 27.6933
#
#
#
# Elastic Compliance Matrix: (Units=1/GPa)
#
#
# Indices 1 2 3 4 5 6 
#
# 1 0.009220 -0.001303 -0.002290 0.002985 0.001373 0.000902
# 2 -0.001303 0.019759 -0.005525 0.002549 0.002359 0.004692
# 3 -0.002290 -0.005525 0.017345 0.004445 -0.003349 -0.003319
# 4 0.002985 0.002549 0.004445 0.048465 -0.002943 0.002974
# 5 0.001373 0.002359 -0.003349 -0.002943 0.036104 -0.009361
# 6 0.000902 0.004692 -0.003319 0.002974 -0.009361 0.040691
#
#
# Mechanical properties :
#
#
# Convention : Reuss Voigt Hill
#
# Bulk Modulus (GPa) = 35.60149 41.50491 38.55320
# Shear Modulus (GPa) = 25.10252 29.06190 27.08221
#
# Velocity S-wave (km/s) = 3.31869 3.57084 3.44707
# Velocity P-wave (km/s) = 5.50500 5.93392 5.72348
#
# Compressibility (1/GPa) = 0.02808871
#
# Stress axis : x y z
#
# Youngs Moduli (GPa) = 108.45765 50.60924 57.65310
#
# Poissons Ratio (x) = 0.06596 0.13200
# Poissons Ratio (y) = 0.14136 0.31854
# Poissons Ratio (z) = 0.24831 0.27962
#
# Static dielectric constant tensor:
#      x y z
#    x 1.942150 0.007470 -0.005550 
#    y 0.007470 1.861020 0.025020 
#    z -0.005550 0.025020 1.838840 
# 
# From -- ./inp_files/223874.got.cif
#   From: 2010.05.17/outbox.cif.g08.bks.cpg/sg2_112_cif.got.tgz:223874.got - 2010.06.03 11:33:40.
