data_PCOD9060569
_publ_section_title
;
Structure prediction by ZEFSAII (Michael W. Deem and Ramdas Pophale) SiO2 
 PCOD9060569
Probable space group: P -1
;
_chemical_formula_sum "Si O2"
_cell_formula_units_Z 16
_cell_length_a 17.846619
_cell_length_b 11.328647
_cell_length_c 9.408080
_cell_angle_alpha 57.739314
_cell_angle_beta 31.332824
_cell_angle_gamma 49.908328
_cell_volume 756.048667
_symmetry_space_group_name_H-M "P -1"
_symmetry_group_IT_number 2
_symmetry_cell_setting 'triclinic'
loop_
_space_group_symop_operation_xyz
x,y,z
-x,-y,-z
loop_
_atom_site_type_symbol
_atom_site_label
_atom_site_fract_x
_atom_site_fract_y
_atom_site_fract_z
Si Si1 0.515956 0.844629 0.500281
Si Si2 0.090221 0.629981 0.928381
Si Si3 0.380855 0.620855 0.003790
Si Si4 0.963856 0.873164 0.221207
Si Si5 0.880021 0.695397 0.964936
Si Si6 0.406153 0.930066 0.296147
Si Si7 0.968098 0.151231 0.546459
Si Si8 0.554026 0.408969 0.618514
O O1 0.427178 0.756814 0.784144
O O2 0.463429 0.885486 0.395225
O O3 0.500000 0.000000 0.500000
O O4 0.702665 0.735803 0.272747
O O5 0.274225 0.592697 0.623237
O O6 0.979411 0.721527 0.916881
O O7 0.055966 0.478930 0.081539
O O8 0.041424 0.720467 0.097582
O O9 0.411557 0.509131 0.890786
O O10 0.500000 0.500000 0.000000
O O11 0.203714 0.707917 0.297110
O O12 0.030869 0.864942 0.275727
O O13 0.774160 0.940253 0.491839
O O14 0.000000 0.000000 0.000000
O O15 0.891276 0.801177 0.753058
O O16 0.418202 0.768090 0.318386
O O17 0.500000 0.000000 0.000000
O O18 0.000000 0.000000 0.500000
O O19 0.500000 0.500000 0.500000
#
# Coordination Sequence:
#
# PCOD9060569 Si02
#       8
#     2   2   2   2   2   2   2   2
#     4  12  25  47  69 104 144 184 237 295 357 428
#     4  11  23  43  73 100 135 188 233 286 358 425
#     4  12  27  43  75 107 136 190 241 291 360 423
#     4  12  24  43  72  99 141 188 236 285 361 425
#     4  11  24  44  71  98 142 182 231 290 352 419
#     4  12  27  44  73 107 140 189 238 296 357 424
#     4  12  27  45  69 106 144 185 238 297 355 428
#     4  12  23  47  72  99 147 183 239 298 358 424
#
# _framework density 21.162659000000001
#
# number of rings (size 3 to 8) (size 9 to 14) (size 15 to 20)
#    0.000    0.250    3.750    5.250    5.250    1.500 
#    0.000    0.000    0.000    0.000    0.000    0.000 
#    0.000    0.000    0.000    0.000    0.000    0.000 
#
# Total GULP energy -89442.310395 kJ/mol
# GULP energy per Si atom -5590.144400 kJ/mol
# Density = 2.111449 g / cm^3
# Si number density = 21.162659 Si / 1000 Ang^3
#
#
#
# Elastic Constant Matrix: (Units=GPa)
#
#
# Indices 1 2 3 4 5 6 
#
# 1 111.5691 31.3314 10.3116 6.7974 12.0790 1.0866
# 2 31.3314 88.7872 12.6323 2.8660 14.0965 25.3000
# 3 10.3116 12.6323 81.3952 2.4600 -5.1460 11.1898
# 4 6.7974 2.8660 2.4600 56.7432 -2.4531 3.8958
# 5 12.0790 14.0965 -5.1460 -2.4531 41.9807 9.3584
# 6 1.0866 25.3000 11.1898 3.8958 9.3584 45.0943
#
#
#
# Elastic Compliance Matrix: (Units=1/GPa)
#
#
# Indices 1 2 3 4 5 6 
#
# 1 0.010506 -0.003902 -0.001247 -0.001318 -0.002588 0.002897
# 2 -0.003902 0.015381 -0.000977 0.000165 -0.002412 -0.007807
# 3 -0.001247 -0.000977 0.013248 -0.000014 0.003055 -0.003342
# 4 -0.001318 0.000165 -0.000014 0.017988 0.001817 -0.001988
# 5 -0.002588 -0.002412 0.003055 0.001817 0.026993 -0.005101
# 6 0.002897 -0.007807 -0.003342 -0.001988 -0.005101 0.028546
#
#
# Mechanical properties :
#
#
# Convention : Reuss Voigt Hill
#
# Bulk Modulus (GPa) = 37.19816 43.36688 40.28252
# Shear Modulus (GPa) = 37.34780 43.92873 40.63827
#
# Velocity S-wave (km/s) = 4.20551 4.56100 4.38686
# Velocity P-wave (km/s) = 6.41850 6.94792 6.68845
#
# Compressibility (1/GPa) = 0.02688305
#
# Stress axis : x y z
#
# Youngs Moduli (GPa) = 95.17968 65.01548 75.48067
#
# Poissons Ratio (x) = 0.25369 0.09416
# Poissons Ratio (y) = 0.37138 0.07374
# Poissons Ratio (z) = 0.11873 0.06352
#
# Static dielectric constant tensor:
#      x y z
#    x 1.927770 -0.131820 0.245040 
#    y -0.131820 1.834150 -0.211620 
#    z 0.245040 -0.211620 2.145730 
# 
# From -- ./inp_files/333005.got.cif
#   From: 2010.05.17/outbox.cif.g08.bks.cpg/sg2_167_cif.got.tgz:333005.got - 2010.06.03 11:33:40.
