data_PCOD9060691
_publ_section_title
;
Structure prediction by ZEFSAII (Michael W. Deem and Ramdas Pophale) SiO2 
 PCOD9060691
Probable space group: P -1
;
_chemical_formula_sum "Si O2"
_cell_formula_units_Z 16
_cell_length_a 18.113388
_cell_length_b 5.887894
_cell_length_c 24.694706
_cell_angle_alpha 118.759209
_cell_angle_beta 19.091529
_cell_angle_gamma 109.687518
_cell_volume 688.518306
_symmetry_space_group_name_H-M "P -1"
_symmetry_group_IT_number 2
_symmetry_cell_setting 'triclinic'
loop_
_space_group_symop_operation_xyz
x,y,z
-x,-y,-z
loop_
_atom_site_type_symbol
_atom_site_label
_atom_site_fract_x
_atom_site_fract_y
_atom_site_fract_z
Si Si1 0.937206 0.813638 0.671651
Si Si2 0.498848 0.403566 0.051861
Si Si3 0.211907 0.873557 0.383633
Si Si4 0.830731 0.965959 0.035119
Si Si5 0.100319 0.567225 0.718316
Si Si6 0.710431 0.636957 0.548400
Si Si7 0.666005 0.995190 0.435565
Si Si8 0.802429 0.790759 0.148990
O O1 0.733811 0.681867 0.792019
O O2 0.089991 0.769309 0.505219
O O3 0.134519 0.657586 0.563105
O O4 0.760059 0.136866 0.846967
O O5 0.440675 0.639952 0.165709
O O6 0.500000 0.500000 0.000000
O O7 0.266609 0.122557 0.401677
O O8 0.000000 0.000000 0.500000
O O9 0.797082 0.791694 0.088599
O O10 0.585027 0.258128 0.240982
O O11 0.858514 0.802106 0.941115
O O12 0.085588 0.994593 0.878537
O O13 0.152044 0.382852 0.606545
O O14 0.214527 0.790976 0.643049
O O15 0.193544 0.326430 0.674391
O O16 0.467781 0.140090 0.635857
O O17 0.500000 0.000000 0.500000
O O18 0.000000 0.500000 0.000000
#
# Coordination Sequence:
#
# PCOD9060691 Si02
#       8
#     2   2   2   2   2   2   2   2
#     4  11  25  44  77 105 145 193 246 310 384 463
#     4  11  23  45  76 110 138 184 258 311 375 460
#     4  12  25  47  75 107 147 193 252 310 381 457
#     4  11  26  46  70 108 151 196 253 315 385 453
#     4  12  28  49  73 115 155 203 257 323 392 458
#     4  12  28  47  72 107 159 196 249 317 393 455
#     4  12  24  47  81 108 150 200 262 320 383 458
#     4  11  23  43  76 106 144 197 261 315 374 464
#
# _framework density 23.238308
#
# number of rings (size 3 to 8) (size 9 to 14) (size 15 to 20)
#    0.000    0.500    5.000    2.250    3.500    4.000 
#    0.000    0.000    0.000    0.000    0.000    0.000 
#    0.000    0.000    0.000    0.000    0.000    0.000 
#
# Total GULP energy -89292.105947 kJ/mol
# GULP energy per Si atom -5580.756622 kJ/mol
# Density = 2.318542 g / cm^3
# Si number density = 23.238308 Si / 1000 Ang^3
#
#
#
# Elastic Constant Matrix: (Units=GPa)
#
#
# Indices 1 2 3 4 5 6 
#
# 1 123.9734 37.4629 58.4763 5.7736 21.9463 -6.7400
# 2 37.4629 112.7287 50.1997 1.7721 2.8914 -16.9733
# 3 58.4763 50.1997 141.3403 16.8060 29.6299 -11.1068
# 4 5.7736 1.7721 16.8060 43.6978 7.3043 -5.0123
# 5 21.9463 2.8914 29.6299 7.3043 46.2291 10.5920
# 6 -6.7400 -16.9733 -11.1068 -5.0123 10.5920 45.9525
#
#
#
# Elastic Compliance Matrix: (Units=1/GPa)
#
#
# Indices 1 2 3 4 5 6 
#
# 1 0.010704 -0.002002 -0.003008 0.000484 -0.003316 0.000921
# 2 -0.002002 0.011465 -0.003506 0.001201 0.001639 0.002847
# 3 -0.003008 -0.003506 0.011197 -0.002610 -0.005568 0.001969
# 4 0.000484 0.001201 -0.002610 0.024711 -0.003301 0.003340
# 5 -0.003316 0.001639 -0.005568 -0.003301 0.029094 -0.008293
# 6 0.000921 0.002847 0.001969 0.003340 -0.008293 0.025700
#
#
# Mechanical properties :
#
#
# Convention : Reuss Voigt Hill
#
# Bulk Modulus (GPa) = 61.21834 74.48004 67.84919
# Shear Modulus (GPa) = 36.94162 42.63610 39.78886
#
# Velocity S-wave (km/s) = 3.99141 4.28803 4.14237
# Velocity P-wave (km/s) = 6.90237 7.52571 7.22077
#
# Compressibility (1/GPa) = 0.01633497
#
# Stress axis : x y z
#
# Youngs Moduli (GPa) = 93.41918 87.21888 89.30770
#
# Poissons Ratio (x) = 0.17461 0.26861
# Poissons Ratio (y) = 0.18702 0.31315
# Poissons Ratio (z) = 0.28097 0.30583
#
# Static dielectric constant tensor:
#      x y z
#    x 1.995660 0.070980 -0.001720 
#    y 0.070980 1.993200 -0.026440 
#    z -0.001720 -0.026440 1.866810 
# 
# From -- ./inp_files/612697.got.cif
#   From: 2010.05.17/outbox.cif.g08.bks.cpg/sg2_307_cif.got.tgz:612697.got - 2010.06.03 11:33:40.
