data_PCOD9060853
_publ_section_title
;
Structure prediction by ZEFSAII (Michael W. Deem and Ramdas Pophale) SiO2 
 PCOD9060853
Probable space group: P -1
;
_chemical_formula_sum "Si O2"
_cell_formula_units_Z 14
_cell_length_a 9.883667
_cell_length_b 9.632873
_cell_length_c 22.452279
_cell_angle_alpha 135.906340
_cell_angle_beta 152.415168
_cell_angle_gamma 44.116653
_cell_volume 666.456306
_symmetry_space_group_name_H-M "P -1"
_symmetry_group_IT_number 2
_symmetry_cell_setting 'triclinic'
loop_
_space_group_symop_operation_xyz
x,y,z
-x,-y,-z
loop_
_atom_site_type_symbol
_atom_site_label
_atom_site_fract_x
_atom_site_fract_y
_atom_site_fract_z
Si Si1 0.334386 0.031970 0.767130
Si Si2 0.290879 0.530154 0.710657
Si Si3 0.354159 0.119017 0.039430
Si Si4 0.150778 0.103300 0.389540
Si Si5 0.268465 0.890748 0.249571
Si Si6 0.497121 0.783100 0.636582
Si Si7 0.008973 0.398350 0.675510
O O1 0.540717 0.014209 0.900747
O O2 0.473355 0.864341 0.719547
O O3 0.029688 0.980110 0.655939
O O4 0.235385 0.250853 0.763354
O O5 0.514282 0.680661 0.841006
O O6 0.473271 0.307428 0.690539
O O7 0.987758 0.652653 0.596157
O O8 0.190233 0.494926 0.727517
O O9 0.992450 0.173159 0.909502
O O10 0.500000 0.000000 0.000000
O O11 0.500000 0.000000 0.500000
O O12 0.094703 0.013991 0.275701
O O13 0.422285 0.041433 0.319052
O O14 0.763632 0.577159 0.668084
O O15 0.187612 0.733959 0.477881
#
# Coordination Sequence:
#
# PCOD9060853 Si02
#       7
#     2   2   2   2   2   2   2
#     4  11  24  42  69 102 131 178 232 278 330 406
#     4  11  24  43  71  98 128 187 221 274 346 397
#     4  11  23  49  67  94 142 179 229 282 333 396
#     4  11  25  43  67 103 137 176 226 279 337 405
#     4  12  23  46  71  93 140 184 222 279 341 395
#     4  11  24  42  70 101 139 176 220 284 341 401
#     4  11  23  44  69 100 140 176 224 276 351 395
#
# _framework density 21.006627000000002
#
# number of rings (size 3 to 8) (size 9 to 14) (size 15 to 20)
#    0.000    0.857    5.714    1.714    4.000    3.429 
#    2.571    1.429    0.000    0.000    0.000    0.000 
#    0.000    0.000    0.000    0.000    0.000    0.000 
#
# Total GULP energy -78259.718980 kJ/mol
# GULP energy per Si atom -5589.979927 kJ/mol
# Density = 2.095882 g / cm^3
# Si number density = 21.006627 Si / 1000 Ang^3
#
#
#
# Elastic Constant Matrix: (Units=GPa)
#
#
# Indices 1 2 3 4 5 6 
#
# 1 65.4415 25.6130 20.0874 3.6208 -7.1872 3.9058
# 2 25.6130 132.8723 43.9003 -23.3699 -6.9382 1.8919
# 3 20.0874 43.9003 78.5098 -21.5617 -2.6270 7.3629
# 4 3.6208 -23.3699 -21.5617 31.1041 -0.4499 -3.0840
# 5 -7.1872 -6.9382 -2.6270 -0.4499 32.8959 4.3223
# 6 3.9058 1.8919 7.3629 -3.0840 4.3223 46.5545
#
#
#
# Elastic Compliance Matrix: (Units=1/GPa)
#
#
# Indices 1 2 3 4 5 6 
#
# 1 0.019005 -0.003260 -0.005067 -0.008277 0.003144 -0.001501
# 2 -0.003260 0.010357 -0.003354 0.005919 0.001198 0.000664
# 3 -0.005067 -0.003354 0.019142 0.011169 0.000095 -0.001735
# 4 -0.008277 0.005919 0.011169 0.045476 0.000740 0.001631
# 5 0.003144 0.001198 0.000095 0.000740 0.031780 -0.003229
# 6 -0.001501 0.000664 -0.001735 0.001631 -0.003229 0.022261
#
#
# Mechanical properties :
#
#
# Convention : Reuss Voigt Hill
#
# Bulk Modulus (GPa) = 39.77257 50.66941 45.22099
# Shear Modulus (GPa) = 27.81434 34.59244 31.20339
#
# Velocity S-wave (km/s) = 3.64273 4.06241 3.85828
# Velocity P-wave (km/s) = 6.05534 6.79538 6.43601
#
# Compressibility (1/GPa) = 0.02514295
#
# Stress axis : x y z
#
# Youngs Moduli (GPa) = 52.61824 96.55720 52.24014
#
# Poissons Ratio (x) = 0.31473 0.26471
# Poissons Ratio (y) = 0.17151 0.17519
# Poissons Ratio (z) = 0.26663 0.32382
#
# Static dielectric constant tensor:
#      x y z
#    x 1.719150 -0.007820 -0.022080 
#    y -0.007820 1.750180 -0.017680 
#    z -0.022080 -0.017680 1.805140 
# 
# From -- ./inp_files/179606.got.cif
#   From: 2010.05.17/outbox.cif.g08.bks.cpg/sg2_90_cif.got.tgz:179606.got - 2010.06.03 11:33:40.
