data_PCOD9060570
_publ_section_title
;
Structure prediction by ZEFSAII (Michael W. Deem and Ramdas Pophale) SiO2 
 PCOD9060570
Probable space group: P -1
;
_chemical_formula_sum "Si O2"
_cell_formula_units_Z 16
_cell_length_a 20.613833
_cell_length_b 8.400774
_cell_length_c 17.886179
_cell_angle_alpha 45.136686
_cell_angle_beta 159.776012
_cell_angle_gamma 137.233164
_cell_volume 725.239320
_symmetry_space_group_name_H-M "P -1"
_symmetry_group_IT_number 2
_symmetry_cell_setting 'triclinic'
loop_
_space_group_symop_operation_xyz
x,y,z
-x,-y,-z
loop_
_atom_site_type_symbol
_atom_site_label
_atom_site_fract_x
_atom_site_fract_y
_atom_site_fract_z
Si Si1 0.332865 0.134480 0.286011
Si Si2 0.210391 0.469726 0.724170
Si Si3 0.323712 0.017506 0.033581
Si Si4 0.070393 0.970958 0.202441
Si Si5 0.295804 0.647082 0.598725
Si Si6 0.533667 0.022816 0.116637
Si Si7 0.023087 0.328226 0.146459
Si Si8 0.363668 0.433464 0.588305
O O1 0.227863 0.078875 0.271421
O O2 0.447371 0.407537 0.304503
O O3 0.500000 0.000000 0.500000
O O4 0.149247 0.056633 0.055872
O O5 0.251322 0.473352 0.678521
O O6 0.359435 0.706373 0.839222
O O7 0.000000 0.500000 0.500000
O O8 0.235191 0.237308 0.864859
O O9 0.535711 0.121649 0.267171
O O10 0.348641 0.955903 0.994694
O O11 0.184135 0.803069 0.997673
O O12 0.104395 0.136424 0.256369
O O13 0.106842 0.726892 0.345662
O O14 0.369437 0.541883 0.640966
O O15 0.649154 0.838677 0.326607
O O16 0.500000 0.000000 0.000000
O O17 0.174253 0.453645 0.332165
O O18 0.000000 0.500000 0.000000
#
# Coordination Sequence:
#
# PCOD9060570 Si02
#       8
#     2   2   2   2   2   2   2   2
#     4  11  24  46  70  99 134 190 235 290 335 422
#     4  11  23  44  70  98 136 184 236 283 349 432
#     4  11  24  46  70  98 145 191 233 285 351 426
#     4  11  25  44  71  97 138 185 246 271 349 422
#     4  11  23  43  73 101 133 188 237 282 349 431
#     4  11  24  43  69 105 136 178 230 293 366 411
#     4  12  28  43  66 104 144 184 235 293 352 407
#     4  12  25  42  67 102 144 174 235 294 358 401
#
# _framework density 22.061684
#
# number of rings (size 3 to 8) (size 9 to 14) (size 15 to 20)
#    0.000    0.750    1.250    7.500    5.250    2.500 
#    0.000    2.500    0.000    0.000    0.000    0.000 
#    0.000    0.000    0.000    0.000    0.000    0.000 
#
# Total GULP energy -89550.981324 kJ/mol
# GULP energy per Si atom -5596.936333 kJ/mol
# Density = 2.201147 g / cm^3
# Si number density = 22.061684 Si / 1000 Ang^3
#
#
#
# Elastic Constant Matrix: (Units=GPa)
#
#
# Indices 1 2 3 4 5 6 
#
# 1 118.7838 32.6935 35.2453 15.2470 -10.2601 11.0348
# 2 32.6935 62.3830 22.5598 -8.5595 -7.8855 27.6309
# 3 35.2453 22.5598 113.4031 -5.3972 -1.1486 15.9423
# 4 15.2470 -8.5595 -5.3972 35.8266 1.4389 4.8444
# 5 -10.2601 -7.8855 -1.1486 1.4389 38.7012 -1.2101
# 6 11.0348 27.6309 15.9423 4.8444 -1.2101 36.7955
#
#
#
# Elastic Compliance Matrix: (Units=1/GPa)
#
#
# Indices 1 2 3 4 5 6 
#
# 1 0.012620 -0.008798 -0.003343 -0.008797 0.001953 0.005493
# 2 -0.008798 0.034117 0.000212 0.015171 0.003281 -0.024962
# 3 -0.003343 0.000212 0.010579 0.003674 -0.000799 -0.004250
# 4 -0.008797 0.015171 0.003674 0.037955 -0.001024 -0.015376
# 5 0.001953 0.003281 -0.000799 -0.001024 0.026987 -0.001681
# 6 0.005493 -0.024962 -0.004250 -0.015376 -0.001681 0.048085
#
#
# Mechanical properties :
#
#
# Convention : Reuss Voigt Hill
#
# Bulk Modulus (GPa) = 29.88891 52.84080 41.36485
# Shear Modulus (GPa) = 24.34828 35.86941 30.10885
#
# Velocity S-wave (km/s) = 3.32572 4.03658 3.69827
# Velocity P-wave (km/s) = 5.32208 6.76230 6.08495
#
# Compressibility (1/GPa) = 0.03345723
#
# Stress axis : x y z
#
# Youngs Moduli (GPa) = 79.24092 29.31109 94.52492
#
# Poissons Ratio (x) = 0.25788 0.31601
# Poissons Ratio (y) = 0.69716 -0.02002
# Poissons Ratio (z) = 0.26491 -0.00621
#
# Static dielectric constant tensor:
#      x y z
#    x 1.816970 -0.018860 0.019370 
#    y -0.018860 1.820870 -0.030310 
#    z 0.019370 -0.030310 1.829240 
# 
# From -- ./inp_files/577564.got.cif
#   From: 2010.05.17/outbox.cif.g08.bks.cpg/sg2_289_cif.got.tgz:577564.got - 2010.06.03 11:33:40.
