data_PCOD9060848
_publ_section_title
;
Structure prediction by ZEFSAII (Michael W. Deem and Ramdas Pophale) SiO2 
 PCOD9060848
Probable space group: P -1
;
_chemical_formula_sum "Si O2"
_cell_formula_units_Z 16
_cell_length_a 6.459325
_cell_length_b 6.784839
_cell_length_c 22.234950
_cell_angle_alpha 109.011251
_cell_angle_beta 49.832838
_cell_angle_gamma 110.371541
_cell_volume 691.069885
_symmetry_space_group_name_H-M "P -1"
_symmetry_group_IT_number 2
_symmetry_cell_setting 'triclinic'
loop_
_space_group_symop_operation_xyz
x,y,z
-x,-y,-z
loop_
_atom_site_type_symbol
_atom_site_label
_atom_site_fract_x
_atom_site_fract_y
_atom_site_fract_z
Si Si1 0.916982 0.918111 0.375469
Si Si2 0.241470 0.374093 0.735619
Si Si3 0.444220 0.737959 0.230557
Si Si4 0.767233 0.664053 0.489828
Si Si5 0.871467 0.043711 0.117220
Si Si6 0.200119 0.719531 0.967443
Si Si7 0.211737 0.372721 0.162614
Si Si8 0.798819 0.637744 0.621378
O O1 0.212536 0.849122 0.312028
O O2 0.758720 0.767803 0.338422
O O3 0.791930 0.861891 0.459303
O O4 0.987034 0.164969 0.371815
O O5 0.312920 0.250949 0.767083
O O6 0.495255 0.571249 0.698958
O O7 0.951271 0.442980 0.809143
O O8 0.587677 0.873914 0.161211
O O9 0.317446 0.489985 0.216838
O O10 0.500000 0.500000 0.500000
O O11 0.749536 0.700795 0.567720
O O12 0.040380 0.558077 0.423601
O O13 0.830501 0.212881 0.089967
O O14 0.983090 0.167788 0.169444
O O15 0.099482 0.909632 0.040276
O O16 0.506092 0.681374 0.921306
O O17 0.000000 0.500000 0.000000
#
# Coordination Sequence:
#
# PCOD9060848 Si02
#       8
#     2   2   2   2   2   2   2   2
#     4  11  24  43  68  99 131 181 224 270 341 392
#     4  11  24  44  67  99 135 177 226 276 332 401
#     4  11  24  45  66  99 138 173 227 278 323 406
#     4  11  23  44  68  99 135 171 228 276 331 399
#     4  11  25  45  71  99 132 181 222 271 345 388
#     4  11  24  48  70 100 139 171 224 281 327 401
#     4  11  24  42  71  98 132 177 222 274 332 395
#     4  11  24  43  69  94 136 175 219 283 333 392
#
# _framework density 23.152505000000001
#
# number of rings (size 3 to 8) (size 9 to 14) (size 15 to 20)
#    0.000    1.000    3.750    2.250    0.000    5.000 
#    0.000    0.000    0.000    0.000    0.000    0.000 
#    0.000    0.000    0.000    0.000    0.000    0.000 
#
# Total GULP energy -89279.737799 kJ/mol
# GULP energy per Si atom -5579.983612 kJ/mol
# Density = 2.309981 g / cm^3
# Si number density = 23.152505 Si / 1000 Ang^3
#
#
#
# Elastic Constant Matrix: (Units=GPa)
#
#
# Indices 1 2 3 4 5 6 
#
# 1 90.8198 23.3178 14.6868 -11.2018 -3.8213 3.9299
# 2 23.3178 101.2731 23.5592 -22.2172 12.1379 10.1122
# 3 14.6868 23.5592 49.3961 -10.1485 -9.9846 -7.3496
# 4 -11.2018 -22.2172 -10.1485 28.9475 2.7347 -1.3783
# 5 -3.8213 12.1379 -9.9846 2.7347 33.3775 -4.9490
# 6 3.9299 10.1122 -7.3496 -1.3783 -4.9490 23.7294
#
#
#
# Elastic Compliance Matrix: (Units=1/GPa)
#
#
# Indices 1 2 3 4 5 6 
#
# 1 0.012241 -0.001615 -0.002471 0.002471 0.000781 -0.001798
# 2 -0.001615 0.017420 -0.010102 0.009768 -0.012159 -0.012253
# 3 -0.002471 -0.010102 0.031985 0.001898 0.015466 0.017956
# 4 0.002471 0.009768 0.001898 0.044166 -0.006739 -0.002824
# 5 0.000781 -0.012159 0.015466 -0.006739 0.042361 0.018286
# 6 -0.001798 -0.012253 0.017956 -0.002824 0.018286 0.056872
#
#
# Mechanical properties :
#
#
# Convention : Reuss Voigt Hill
#
# Bulk Modulus (GPa) = 30.05808 40.51297 35.28552
# Shear Modulus (GPa) = 20.44888 29.20591 24.82740
#
# Velocity S-wave (km/s) = 2.97514 3.55555 3.27822
# Velocity P-wave (km/s) = 4.98124 5.86449 5.44082
#
# Compressibility (1/GPa) = 0.03326893
#
# Stress axis : x y z
#
# Youngs Moduli (GPa) = 81.69523 57.40517 31.26456
#
# Poissons Ratio (x) = 0.09274 0.07725
# Poissons Ratio (y) = 0.13198 0.31584
# Poissons Ratio (z) = 0.20186 0.57991
#
# Static dielectric constant tensor:
#      x y z
#    x 1.872940 0.005380 0.031170 
#    y 0.005380 1.898950 0.023580 
#    z 0.031170 0.023580 1.887810 
# 
# From -- ./inp_files/603311.got.cif
#   From: 2010.05.17/outbox.cif.g08.bks.cpg/sg2_302_cif.got.tgz:603311.got - 2010.06.03 11:33:40.
