data_PCOD9060363
_publ_section_title
;
Structure prediction by ZEFSAII (Michael W. Deem and Ramdas Pophale) SiO2 
 PCOD9060363
Probable space group: P -1
;
_chemical_formula_sum "Si O2"
_cell_formula_units_Z 15
_cell_length_a 7.397579
_cell_length_b 14.103990
_cell_length_c 22.214671
_cell_angle_alpha 160.337825
_cell_angle_beta 101.051717
_cell_angle_gamma 75.540597
_cell_volume 748.425985
_symmetry_space_group_name_H-M "P -1"
_symmetry_group_IT_number 2
_symmetry_cell_setting 'triclinic'
loop_
_space_group_symop_operation_xyz
x,y,z
-x,-y,-z
loop_
_atom_site_type_symbol
_atom_site_label
_atom_site_fract_x
_atom_site_fract_y
_atom_site_fract_z
Si Si1 0.893701 0.242785 0.216652
Si Si2 0.717984 0.133242 0.017092
Si Si3 0.641260 0.750510 0.324682
Si Si4 0.421951 0.829613 0.759242
Si Si5 0.636146 0.172513 0.382303
Si Si6 0.950558 0.883351 0.571514
Si Si7 0.000000 0.000000 0.500000
Si Si8 0.568183 0.235037 0.801636
O O1 0.773899 0.211340 0.249136
O O2 0.905384 0.569873 0.397074
O O3 0.783489 0.113338 0.078656
O O4 0.105946 0.057398 0.121485
O O5 0.528664 0.029060 0.925186
O O6 0.692647 0.464380 0.195965
O O7 0.824664 0.863805 0.385457
O O8 0.533322 0.680817 0.217495
O O9 0.500000 0.000000 0.500000
O O10 0.559802 0.515909 0.580972
O O11 0.386255 0.934753 0.751302
O O12 0.848136 0.107484 0.381210
O O13 0.507656 0.031774 0.334430
O O14 0.953425 0.923190 0.523307
O O15 0.788268 0.126311 0.736554
O O16 0.500000 0.500000 0.000000
#
# Coordination Sequence:
#
# PCOD9060363 Si02
#       8
#     2   2   2   2   2   2   1   2
#     4  11  23  43  70 101 136 176 223 292 347 404
#     4  11  24  42  67 106 133 172 233 287 343 409
#     4  12  25  45  72 101 141 185 233 286 352 415
#     4  11  24  43  68 100 137 180 221 283 341 418
#     4  11  25  43  69  97 135 184 232 270 352 410
#     4  12  24  47  73 100 139 184 230 292 348 412
#     4  12  24  44  76 102 134 184 234 284 350 416
#     4  12  26  46  69 100 144 187 233 286 343 421
#
# _framework density 20.042061
#
# number of rings (size 3 to 8) (size 9 to 14) (size 15 to 20)
#    0.000    0.533    6.667    1.200    0.000    4.267 
#    2.400    0.000    0.000    0.000    0.000    0.000 
#    0.000    0.000    0.000    0.000    0.000    0.000 
#
# Total GULP energy -83588.153022 kJ/mol
# GULP energy per Si atom -5572.543535 kJ/mol
# Density = 1.999644 g / cm^3
# Si number density = 20.042061 Si / 1000 Ang^3
#
#
#
# Elastic Constant Matrix: (Units=GPa)
#
#
# Indices 1 2 3 4 5 6 
#
# 1 97.7364 26.4730 22.9032 10.0691 -3.7123 1.9446
# 2 26.4730 67.8477 -2.9352 -3.3077 -13.1276 -4.0112
# 3 22.9032 -2.9352 74.9318 1.9550 -8.5829 -4.0336
# 4 10.0691 -3.3077 1.9550 28.3681 -1.1233 7.1042
# 5 -3.7123 -13.1276 -8.5829 -1.1233 33.5442 3.8918
# 6 1.9446 -4.0112 -4.0336 7.1042 3.8918 32.4091
#
#
#
# Elastic Compliance Matrix: (Units=1/GPa)
#
#
# Indices 1 2 3 4 5 6 
#
# 1 0.013398 -0.006128 -0.004490 -0.005057 -0.002146 -0.000755
# 2 -0.006128 0.019038 0.003458 0.004126 0.007641 0.001333
# 3 -0.004490 0.003458 0.015469 0.000630 0.004612 0.001931
# 4 -0.005057 0.004126 0.000630 0.039682 0.003499 -0.008226
# 5 -0.002146 0.007641 0.004612 0.003499 0.034236 -0.003230
# 6 -0.000755 0.001333 0.001931 -0.008226 -0.003230 0.033497
#
#
# Mechanical properties :
#
#
# Convention : Reuss Voigt Hill
#
# Bulk Modulus (GPa) = 29.77504 37.04421 33.40962
# Shear Modulus (GPa) = 27.64949 31.80262 29.72606
#
# Velocity S-wave (km/s) = 3.71829 3.98778 3.85539
# Velocity P-wave (km/s) = 5.77259 6.30290 6.04356
#
# Compressibility (1/GPa) = 0.03358518
#
# Stress axis : x y z
#
# Youngs Moduli (GPa) = 74.63735 52.52657 64.64554
#
# Poissons Ratio (x) = 0.32190 0.29024
# Poissons Ratio (y) = 0.45741 -0.22356
# Poissons Ratio (z) = 0.33511 -0.18165
#
# Static dielectric constant tensor:
#      x y z
#    x 1.688040 0.010200 -0.006380 
#    y 0.010200 1.693510 -0.015460 
#    z -0.006380 -0.015460 1.719090 
# 
# From -- ./inp_files/393360.got.cif
#   From: 2010.05.17/outbox.cif.g08.bks.cpg/sg2_197_cif.got.tgz:393360.got - 2010.06.03 11:33:40.
