data_PCOD9060189
_publ_section_title
;
Structure prediction by ZEFSAII (Michael W. Deem and Ramdas Pophale) SiO2 
 PCOD9060189
Probable space group: P -1
;
_chemical_formula_sum "Si O2"
_cell_formula_units_Z 16
_cell_length_a 21.891748
_cell_length_b 7.036160
_cell_length_c 4.965888
_cell_angle_alpha 68.837147
_cell_angle_beta 101.997330
_cell_angle_gamma 92.611261
_cell_volume 697.381875
_symmetry_space_group_name_H-M "P -1"
_symmetry_group_IT_number 2
_symmetry_cell_setting 'triclinic'
loop_
_space_group_symop_operation_xyz
x,y,z
-x,-y,-z
loop_
_atom_site_type_symbol
_atom_site_label
_atom_site_fract_x
_atom_site_fract_y
_atom_site_fract_z
Si Si1 0.321091 0.296537 0.756402
Si Si2 0.236927 0.683720 0.560012
Si Si3 0.938771 0.886455 0.398771
Si Si4 0.466221 0.872854 0.766974
Si Si5 0.670121 0.969810 0.572677
Si Si6 0.060679 0.391160 0.974597
Si Si7 0.543859 0.573861 0.265571
Si Si8 0.846155 0.260659 0.049092
O O1 0.271231 0.464697 0.724362
O O2 0.382554 0.400052 0.638062
O O3 0.295525 0.167462 0.552095
O O4 0.340858 0.157737 0.101286
O O5 0.288010 0.839856 0.424359
O O6 0.209968 0.756210 0.783485
O O7 0.181490 0.680805 0.295253
O O8 0.887966 0.054951 0.171671
O O9 0.045867 0.268531 0.752558
O O10 0.914230 0.765828 0.695624
O O11 0.000000 0.000000 0.500000
O O12 0.395320 0.956957 0.660632
O O13 0.456746 0.627872 0.821019
O O14 0.500000 0.000000 0.500000
O O15 0.518747 0.809320 0.070371
O O16 0.110315 0.563672 0.887085
O O17 0.000000 0.500000 0.000000
O O18 0.500000 0.500000 0.500000
#
# Coordination Sequence:
#
# PCOD9060189 Si02
#       8
#     2   2   2   2   2   2   2   2
#     4  12  27  47  72 103 140 192 242 299 364 444
#     4  12  28  50  70 104 147 192 246 301 356 436
#     4  12  26  45  77 113 152 191 247 296 367 438
#     4  11  23  43  67 105 135 179 239 300 368 444
#     4  12  27  46  76 100 143 189 242 299 371 430
#     4  12  26  45  77 113 152 193 238 301 368 428
#     4  11  25  40  70 103 143 182 236 303 377 437
#     4  12  28  47  77 106 146 194 246 300 361 430
#
# _framework density 22.942952999999999
#
# number of rings (size 3 to 8) (size 9 to 14) (size 15 to 20)
#    0.000    0.250    3.750    4.500    5.250    8.000 
#    0.000    0.000    0.000    0.000    0.000    0.000 
#    0.000    0.000    0.000    0.000    0.000    0.000 
#
# Total GULP energy -89464.651182 kJ/mol
# GULP energy per Si atom -5591.540699 kJ/mol
# Density = 2.289073 g / cm^3
# Si number density = 22.942953 Si / 1000 Ang^3
#
#
#
# Elastic Constant Matrix: (Units=GPa)
#
#
# Indices 1 2 3 4 5 6 
#
# 1 70.3508 -11.7399 9.0193 -22.6247 -5.6700 -7.7698
# 2 -11.7399 133.0460 15.4032 20.5344 10.7521 5.3774
# 3 9.0193 15.4032 106.9342 -4.4970 -0.6875 -3.6637
# 4 -22.6247 20.5344 -4.4970 52.8387 -2.1886 0.3388
# 5 -5.6700 10.7521 -0.6875 -2.1886 32.7100 -0.7999
# 6 -7.7698 5.3774 -3.6637 0.3388 -0.7999 37.1694
#
#
#
# Elastic Compliance Matrix: (Units=1/GPa)
#
#
# Indices 1 2 3 4 5 6 
#
# 1 0.017441 0.000072 -0.001023 0.007478 0.003565 0.003543
# 2 0.000072 0.008543 -0.001453 -0.003532 -0.003097 -0.001399
# 3 -0.001023 -0.001453 0.009725 0.000973 0.000593 0.000959
# 4 0.007478 -0.003532 0.000973 0.023740 0.004116 0.002042
# 5 0.003565 -0.003097 0.000593 0.004116 0.032542 0.001915
# 6 0.003543 -0.001399 0.000959 0.002042 0.001915 0.027964
#
#
# Mechanical properties :
#
#
# Convention : Reuss Voigt Hill
#
# Bulk Modulus (GPa) = 32.36123 37.29957 34.83040
# Shear Modulus (GPa) = 37.01980 44.38684 40.70332
#
# Velocity S-wave (km/s) = 4.02127 4.40325 4.21659
# Velocity P-wave (km/s) = 5.97466 6.49186 6.23862
#
# Compressibility (1/GPa) = 0.03090118
#
# Stress axis : x y z
#
# Youngs Moduli (GPa) = 57.33558 117.05927 102.83135
#
# Poissons Ratio (x) = -0.00842 0.10516
# Poissons Ratio (y) = -0.00412 0.14941
# Poissons Ratio (z) = 0.05863 0.17008
#
# Static dielectric constant tensor:
#      x y z
#    x 1.887140 0.039320 0.057990 
#    y 0.039320 2.043340 0.097620 
#    z 0.057990 0.097620 1.902440 
# 
# From -- ./inp_files/122137.got.cif
#   From: 2010.05.17/outbox.cif.g08.bks.cpg/sg2_62_cif.got.tgz:122137.got - 2010.06.03 11:33:40.
