data_PCOD9060924
_publ_section_title
;
Structure prediction by ZEFSAII (Michael W. Deem and Ramdas Pophale) SiO2 
 PCOD9060924
Probable space group: P -1
;
_chemical_formula_sum "Si O2"
_cell_formula_units_Z 16
_cell_length_a 16.128364
_cell_length_b 19.911445
_cell_length_c 9.291019
_cell_angle_alpha 44.870935
_cell_angle_beta 54.570220
_cell_angle_gamma 19.748761
_cell_volume 661.864281
_symmetry_space_group_name_H-M "P -1"
_symmetry_group_IT_number 2
_symmetry_cell_setting 'triclinic'
loop_
_space_group_symop_operation_xyz
x,y,z
-x,-y,-z
loop_
_atom_site_type_symbol
_atom_site_label
_atom_site_fract_x
_atom_site_fract_y
_atom_site_fract_z
Si Si1 0.303784 0.636210 0.693042
Si Si2 0.309190 0.868759 0.934686
Si Si3 0.130057 0.055252 0.144786
Si Si4 0.690132 0.630695 0.305426
Si Si5 0.789904 0.333582 0.584357
Si Si6 0.548008 0.941085 0.873021
Si Si7 0.501450 0.899107 0.565703
Si Si8 0.951041 0.408827 0.691254
O O1 0.521447 0.531209 0.632674
O O2 0.209406 0.704989 0.519551
O O3 0.059326 0.850579 0.720957
O O4 0.465525 0.399827 0.924246
O O5 0.379654 0.917258 0.750963
O O6 0.041068 0.078149 0.803677
O O7 0.259217 0.901335 0.105258
O O8 0.373479 0.886682 0.249093
O O9 0.955302 0.294253 0.900687
O O10 0.799359 0.439399 0.420335
O O11 0.826358 0.530125 0.474814
O O12 0.715833 0.699469 0.070751
O O13 0.646714 0.943220 0.673706
O O14 0.256021 0.173718 0.751175
O O15 0.500000 0.000000 0.000000
O O16 0.782141 0.614102 0.664598
O O17 0.500000 0.000000 0.500000
#
# Coordination Sequence:
#
# PCOD9060924 Si02
#       8
#     2   2   2   2   2   2   2   2
#     4  11  26  48  71 110 140 190 240 293 362 424
#     4  12  25  49  70 106 145 186 241 298 356 425
#     4  11  24  44  76  97 143 189 230 291 357 425
#     4  11  23  44  71 105 143 186 237 294 354 422
#     4  11  26  46  74 105 146 183 238 302 356 428
#     4  11  25  43  71 103 138 189 243 288 355 427
#     4  12  26  43  69 104 142 188 235 293 354 422
#     4  11  23  44  70 101 143 187 236 296 351 421
#
# _framework density 24.174142
#
# number of rings (size 3 to 8) (size 9 to 14) (size 15 to 20)
#    0.000    0.750    5.000    2.250    1.750    1.000 
#    0.000    1.250    0.000    0.000    0.000    0.000 
#    0.000    0.000    0.000    0.000    0.000    0.000 
#
# Total GULP energy -89607.041213 kJ/mol
# GULP energy per Si atom -5600.440076 kJ/mol
# Density = 2.411912 g / cm^3
# Si number density = 24.174142 Si / 1000 Ang^3
#
#
#
# Elastic Constant Matrix: (Units=GPa)
#
#
# Indices 1 2 3 4 5 6 
#
# 1 71.7973 26.0750 44.3321 -2.6095 6.2473 -5.0806
# 2 26.0750 103.3026 47.3266 17.4285 5.6851 -8.1631
# 3 44.3321 47.3266 139.7236 -1.8431 3.2785 -17.6088
# 4 -2.6095 17.4285 -1.8431 40.0583 -6.7750 -6.6794
# 5 6.2473 5.6851 3.2785 -6.7750 62.0984 -9.8566
# 6 -5.0806 -8.1631 -17.6088 -6.6794 -9.8566 33.0122
#
#
#
# Elastic Compliance Matrix: (Units=1/GPa)
#
#
# Indices 1 2 3 4 5 6 
#
# 1 0.017995 -0.002603 -0.004832 0.001808 -0.001190 -0.000441
# 2 -0.002603 0.013197 -0.003815 -0.006522 -0.001611 -0.000973
# 3 -0.004832 -0.003815 0.010615 0.002896 0.001380 0.004973
# 4 0.001808 -0.006522 0.002896 0.030151 0.004780 0.007738
# 5 -0.001190 -0.001611 0.001380 0.004780 0.017843 0.006449
# 6 -0.000441 -0.000973 0.004973 0.007738 0.006449 0.036127
#
#
# Mechanical properties :
#
#
# Convention : Reuss Voigt Hill
#
# Bulk Modulus (GPa) = 51.79321 61.14341 56.46831
# Shear Modulus (GPa) = 32.28669 40.17310 36.22989
#
# Velocity S-wave (km/s) = 3.65853 4.08097 3.87551
# Velocity P-wave (km/s) = 6.27041 6.89591 6.59058
#
# Compressibility (1/GPa) = 0.01930755
#
# Stress axis : x y z
#
# Youngs Moduli (GPa) = 55.57167 75.77386 94.20859
#
# Poissons Ratio (x) = 0.19723 0.45518
# Poissons Ratio (y) = 0.14465 0.35941
# Poissons Ratio (z) = 0.26850 0.28908
#
# Static dielectric constant tensor:
#      x y z
#    x 1.944260 -0.005830 -0.045420 
#    y -0.005830 1.940650 0.012200 
#    z -0.045420 0.012200 1.949080 
# 
# From -- ./inp_files/337581.got.cif
#   From: 2010.05.17/outbox.cif.g08.bks.cpg/sg2_169_cif.got.tgz:337581.got - 2010.06.03 11:33:40.
