data_PCOD9060580
_publ_section_title
;
Structure prediction by ZEFSAII (Michael W. Deem and Ramdas Pophale) SiO2 
 PCOD9060580
Probable space group: P -1
;
_chemical_formula_sum "Si O2"
_cell_formula_units_Z 12
_cell_length_a 8.706861
_cell_length_b 9.138066
_cell_length_c 8.947109
_cell_angle_alpha 112.463031
_cell_angle_beta 50.727652
_cell_angle_gamma 101.552604
_cell_volume 508.413826
_symmetry_space_group_name_H-M "P -1"
_symmetry_group_IT_number 2
_symmetry_cell_setting 'triclinic'
loop_
_space_group_symop_operation_xyz
x,y,z
-x,-y,-z
loop_
_atom_site_type_symbol
_atom_site_label
_atom_site_fract_x
_atom_site_fract_y
_atom_site_fract_z
Si Si1 0.706539 0.675192 0.525459
Si Si2 0.337557 0.446449 0.965345
Si Si3 0.386309 0.685913 0.490385
Si Si4 0.267557 0.044202 0.153788
Si Si5 0.969101 0.776809 0.859256
Si Si6 0.079105 0.732500 0.119397
O O1 0.504597 0.731006 0.583813
O O2 0.670942 0.497857 0.532474
O O3 0.760953 0.798614 0.666833
O O4 0.885110 0.673546 0.296388
O O5 0.153309 0.380706 0.141947
O O6 0.250119 0.592180 0.975468
O O7 0.500000 0.500000 0.000000
O O8 0.454385 0.313246 0.740394
O O9 0.175134 0.780449 0.643493
O O10 0.183729 0.088900 0.058507
O O11 0.153624 0.890502 0.212005
O O12 0.500000 0.000000 0.000000
O O13 0.025794 0.771167 0.996150
#
# Coordination Sequence:
#
# PCOD9060580 Si02
#       6
#     2   2   2   2   2   2
#     4  11  23  44  72 102 141 183 229 289 341 416
#     4  12  25  43  74 106 140 179 235 291 338 413
#     4  11  23  43  73 105 137 181 234 284 350 397
#     4  12  27  47  68 101 146 185 230 284 352 415
#     4  12  25  46  73 103 138 184 235 287 341 414
#     4  12  24  47  70 105 142 184 231 284 349 412
#
# _framework density 23.602817999999999
#
# number of rings (size 3 to 8) (size 9 to 14) (size 15 to 20)
#    0.000    0.333    3.333    7.500    2.333    1.333 
#    3.000    1.667    0.000    0.000    0.000    0.000 
#    0.000    0.000    0.000    0.000    0.000    0.000 
#
# Total GULP energy -67172.641308 kJ/mol
# GULP energy per Si atom -5597.720109 kJ/mol
# Density = 2.354910 g / cm^3
# Si number density = 23.602818 Si / 1000 Ang^3
#
#
#
# Elastic Constant Matrix: (Units=GPa)
#
#
# Indices 1 2 3 4 5 6 
#
# 1 147.3234 29.4547 40.9758 3.2837 -26.7782 -6.7510
# 2 29.4547 67.4226 2.9553 1.8352 -10.2215 7.9938
# 3 40.9758 2.9553 81.1777 -7.3556 -14.5493 -13.8557
# 4 3.2837 1.8352 -7.3556 20.1318 8.9973 -0.3656
# 5 -26.7782 -10.2215 -14.5493 8.9973 36.3276 5.0120
# 6 -6.7510 7.9938 -13.8557 -0.3656 5.0120 50.6584
#
#
#
# Elastic Compliance Matrix: (Units=1/GPa)
#
#
# Indices 1 2 3 4 5 6 
#
# 1 0.009802 -0.003023 -0.004262 -0.005587 0.006054 -0.000022
# 2 -0.003023 0.017195 0.000821 -0.002645 0.004051 -0.003312
# 3 -0.004262 0.000821 0.015838 0.005796 0.001510 0.003527
# 4 -0.005587 -0.002645 0.005796 0.061123 -0.018162 0.003496
# 5 0.006054 0.004051 0.001510 -0.018162 0.038699 -0.003379
# 6 -0.000022 -0.003312 0.003527 0.003496 -0.003379 0.021584
#
#
# Mechanical properties :
#
#
# Convention : Reuss Voigt Hill
#
# Bulk Modulus (GPa) = 33.43756 49.18837 41.31297
# Shear Modulus (GPa) = 26.71831 36.25942 31.48886
#
# Velocity S-wave (km/s) = 3.36817 3.92373 3.65652
# Velocity P-wave (km/s) = 5.41512 6.43528 5.94712
#
# Compressibility (1/GPa) = 0.02990648
#
# Stress axis : x y z
#
# Youngs Moduli (GPa) = 102.02452 58.15617 63.13896
#
# Poissons Ratio (x) = 0.17579 0.26912
# Poissons Ratio (y) = 0.30838 -0.05183
# Poissons Ratio (z) = 0.43486 -0.04774
#
# Static dielectric constant tensor:
#      x y z
#    x 1.869910 0.000970 0.015470 
#    y 0.000970 1.904870 0.010510 
#    z 0.015470 0.010510 1.915060 
# 
# From -- ./inp_files/149036.got.cif
#   From: 2010.05.17/outbox.cif.g08.bks.cpg/sg2_75_cif.got.tgz:149036.got - 2010.06.03 11:33:40.
