data_PCOD9060202
_publ_section_title
;
Structure prediction by ZEFSAII (Michael W. Deem and Ramdas Pophale) SiO2 
 PCOD9060202
Probable space group: P -1
;
_chemical_formula_sum "Si O2"
_cell_formula_units_Z 14
_cell_length_a 9.180934
_cell_length_b 5.174730
_cell_length_c 19.149327
_cell_angle_alpha 114.125611
_cell_angle_beta 120.010429
_cell_angle_gamma 53.652718
_cell_volume 626.240969
_symmetry_space_group_name_H-M "P -1"
_symmetry_group_IT_number 2
_symmetry_cell_setting 'triclinic'
loop_
_space_group_symop_operation_xyz
x,y,z
-x,-y,-z
loop_
_atom_site_type_symbol
_atom_site_label
_atom_site_fract_x
_atom_site_fract_y
_atom_site_fract_z
Si Si1 0.398033 0.780275 0.393202
Si Si2 0.616570 0.167991 0.839779
Si Si3 0.121573 0.227985 0.261958
Si Si4 0.621497 0.092253 0.324489
Si Si5 0.504009 0.085831 0.090405
Si Si6 0.784260 0.800098 0.479321
Si Si7 0.869975 0.961474 0.244077
O O1 0.435582 0.438997 0.334070
O O2 0.616325 0.713270 0.450233
O O3 0.295751 0.057539 0.340806
O O4 0.265883 0.912877 0.444818
O O5 0.576956 0.531438 0.875775
O O6 0.803150 0.949601 0.813735
O O7 0.448034 0.140298 0.753953
O O8 0.612058 0.030275 0.899669
O O9 0.026257 0.609455 0.270339
O O10 0.965186 0.143668 0.247888
O O11 0.737588 0.940066 0.405729
O O12 0.747681 0.150259 0.303516
O O13 0.723153 0.921586 0.152996
O O14 0.500000 0.000000 0.000000
O O15 0.000000 0.500000 0.500000
#
# Coordination Sequence:
#
# PCOD9060202 Si02
#       7
#     2   2   2   2   2   2   2
#     4  11  25  42  67  96 142 185 236 299 357 404
#     4  11  23  43  73  97 139 187 225 285 352 408
#     4  12  23  44  66 104 137 179 238 289 338 411
#     4  11  23  43  67  95 135 188 238 288 344 420
#     4  11  24  46  71 104 141 182 228 283 354 425
#     4  11  25  43  65  98 140 185 239 294 361 417
#     4  11  25  39  73 101 133 179 239 280 342 425
#
# _framework density 22.355613000000002
#
# number of rings (size 3 to 8) (size 9 to 14) (size 15 to 20)
#    0.000    0.857    1.429    6.857    4.000    0.571 
#    0.000    4.286    0.000    0.000    0.000    0.000 
#    0.000    0.000    0.000    0.000    0.000    0.000 
#
# Total GULP energy -78408.533714 kJ/mol
# GULP energy per Si atom -5600.609551 kJ/mol
# Density = 2.230473 g / cm^3
# Si number density = 22.355613 Si / 1000 Ang^3
#
#
#
# Elastic Constant Matrix: (Units=GPa)
#
#
# Indices 1 2 3 4 5 6 
#
# 1 124.6747 31.9608 24.6328 -15.0439 -28.8294 -21.3063
# 2 31.9608 131.7975 49.9244 1.8377 -12.0351 -12.9286
# 3 24.6328 49.9244 112.7984 -9.7921 -39.4515 -18.7853
# 4 -15.0439 1.8377 -9.7921 23.7700 4.9269 -8.6303
# 5 -28.8294 -12.0351 -39.4515 4.9269 41.9014 1.4470
# 6 -21.3063 -12.9286 -18.7853 -8.6303 1.4470 38.6172
#
#
#
# Elastic Compliance Matrix: (Units=1/GPa)
#
#
# Indices 1 2 3 4 5 6 
#
# 1 0.014434 -0.003652 0.006123 0.013806 0.012597 0.012333
# 2 -0.003652 0.010261 -0.006391 -0.005755 -0.004810 -0.002794
# 3 0.006123 -0.006391 0.020770 0.013779 0.019840 0.013678
# 4 0.013806 -0.005755 0.013779 0.063872 0.012404 0.026203
# 5 0.012597 -0.004810 0.019840 0.012404 0.047821 0.015972
# 6 0.012333 -0.002794 0.013678 0.026203 0.015972 0.043675
#
#
# Mechanical properties :
#
#
# Convention : Reuss Voigt Hill
#
# Bulk Modulus (GPa) = 26.57865 64.70074 45.63970
# Shear Modulus (GPa) = 22.60247 38.37456 30.48851
#
# Velocity S-wave (km/s) = 3.18314 4.14762 3.69697
# Velocity P-wave (km/s) = 5.04229 7.20704 6.21957
#
# Compressibility (1/GPa) = 0.03762418
#
# Stress axis : x y z
#
# Youngs Moduli (GPa) = 69.28159 97.45809 48.14594
#
# Poissons Ratio (x) = 0.35590 -0.29478
# Poissons Ratio (y) = 0.25300 0.30771
# Poissons Ratio (z) = -0.42418 0.62286
#
# Static dielectric constant tensor:
#      x y z
#    x 1.892600 -0.003360 0.040670 
#    y -0.003360 1.806890 0.007840 
#    z 0.040670 0.007840 1.828050 
# 
# From -- ./inp_files/112181.got.cif
#   From: 2010.05.17/outbox.cif.g08.bks.cpg/sg2_57_cif.got.tgz:112181.got - 2010.06.03 11:33:40.
