data_PCOD9060232
_publ_section_title
;
Structure prediction by ZEFSAII (Michael W. Deem and Ramdas Pophale) SiO2 
 PCOD9060232
Probable space group: P -1
;
_chemical_formula_sum "Si O2"
_cell_formula_units_Z 16
_cell_length_a 5.228518
_cell_length_b 15.639755
_cell_length_c 25.835916
_cell_angle_alpha 17.942616
_cell_angle_beta 72.066749
_cell_angle_gamma 74.110808
_cell_volume 617.894973
_symmetry_space_group_name_H-M "P -1"
_symmetry_group_IT_number 2
_symmetry_cell_setting 'triclinic'
loop_
_space_group_symop_operation_xyz
x,y,z
-x,-y,-z
loop_
_atom_site_type_symbol
_atom_site_label
_atom_site_fract_x
_atom_site_fract_y
_atom_site_fract_z
Si Si1 0.125585 0.856623 0.908192
Si Si2 0.329619 0.819924 0.560382
Si Si3 0.708190 0.306528 0.841399
Si Si4 0.757459 0.077533 0.610928
Si Si5 0.560106 0.599465 0.381508
Si Si6 0.269763 0.892637 0.149765
Si Si7 0.838013 0.196409 0.183237
Si Si8 0.812135 0.615233 0.758199
O O1 0.110706 0.907383 0.819082
O O2 0.278396 0.107313 0.785804
O O3 0.245682 0.567288 0.082237
O O4 0.839878 0.857051 0.954421
O O5 0.525281 0.567468 0.689930
O O6 0.203661 0.839355 0.498996
O O7 0.107838 0.763862 0.651113
O O8 0.401291 0.153066 0.371000
O O9 0.865267 0.232414 0.822254
O O10 0.844489 0.410587 0.825608
O O11 0.547432 0.023641 0.033443
O O12 0.700064 0.353320 0.487017
O O13 0.485559 0.866776 0.754067
O O14 0.015157 0.960889 0.689564
O O15 0.500000 0.500000 0.500000
O O16 0.313946 0.661600 0.323214
O O17 0.000000 0.500000 0.000000
#
# Coordination Sequence:
#
# PCOD9060232 Si02
#       8
#     2   2   2   2   2   2   2   2
#     4  12  26  45  74 107 149 195 254 312 382 454
#     4  11  25  45  70 104 148 190 253 306 377 448
#     4  11  23  43  68 102 144 190 247 304 377 450
#     4  12  28  49  78 114 148 201 256 311 384 449
#     4  12  25  45  70 103 150 189 250 311 374 444
#     4  11  25  41  69 104 142 191 247 310 378 445
#     4  12  29  53  79 110 153 202 256 315 379 453
#     4  11  25  44  69 106 142 197 246 310 374 452
#
# _framework density 25.894366999999999
#
# number of rings (size 3 to 8) (size 9 to 14) (size 15 to 20)
#    0.000    0.500    5.000    2.250    5.250    2.500 
#    0.000    0.000    0.000    0.000    0.000    0.000 
#    0.000    0.000    0.000    0.000    0.000    0.000 
#
# Total GULP energy -89402.087590 kJ/mol
# GULP energy per Si atom -5587.630474 kJ/mol
# Density = 2.583543 g / cm^3
# Si number density = 25.894367 Si / 1000 Ang^3
#
#
#
# Elastic Constant Matrix: (Units=GPa)
#
#
# Indices 1 2 3 4 5 6 
#
# 1 68.8703 24.2001 9.1453 7.6093 0.2576 16.4436
# 2 24.2001 156.6718 12.0865 7.9301 -8.1262 4.0113
# 3 9.1453 12.0865 105.7344 8.1792 1.4419 -4.1653
# 4 7.6093 7.9301 8.1792 49.4252 4.4611 5.3143
# 5 0.2576 -8.1262 1.4419 4.4611 34.2866 -3.8926
# 6 16.4436 4.0113 -4.1653 5.3143 -3.8926 32.8721
#
#
#
# Elastic Compliance Matrix: (Units=1/GPa)
#
#
# Indices 1 2 3 4 5 6 
#
# 1 0.017798 -0.002434 -0.001509 -0.001015 -0.001516 -0.008812
# 2 -0.002434 0.006923 -0.000511 -0.000893 0.001873 0.000674
# 3 -0.001509 -0.000511 0.009859 -0.001561 -0.000059 0.002312
# 4 -0.001015 -0.000893 -0.001561 0.021461 -0.003322 -0.003444
# 5 -0.001516 0.001873 -0.000059 -0.003322 0.030587 0.004681
# 6 -0.008812 0.000674 0.002312 -0.003444 0.004681 0.036151
#
#
# Mechanical properties :
#
#
# Convention : Reuss Voigt Hill
#
# Bulk Modulus (GPa) = 38.95292 46.90450 42.92871
# Shear Modulus (GPa) = 35.65202 42.37308 39.01255
#
# Velocity S-wave (km/s) = 3.71459 4.04961 3.88571
# Velocity P-wave (km/s) = 5.78560 6.32605 6.06185
#
# Compressibility (1/GPa) = 0.02567201
#
# Stress axis : x y z
#
# Youngs Moduli (GPa) = 56.18697 144.44013 101.42853
#
# Poissons Ratio (x) = 0.35161 0.15306
# Poissons Ratio (y) = 0.13677 0.05180
# Poissons Ratio (z) = 0.08479 0.07377
#
# Static dielectric constant tensor:
#      x y z
#    x 2.377530 0.028210 -0.018080 
#    y 0.028210 2.021760 -0.062180 
#    z -0.018080 -0.062180 2.115830 
# 
# From -- ./inp_files/69611.got.cif
#   From: 2010.05.17/outbox.cif.g08.bks.cpg/sg2_35_cif.got.tgz:69611.got - 2010.06.03 11:33:40.
