data_PCOD9060436
_publ_section_title
;
Structure prediction by ZEFSAII (Michael W. Deem and Ramdas Pophale) SiO2 
 PCOD9060436
Probable space group: P -1
;
_chemical_formula_sum "Si O2"
_cell_formula_units_Z 13
_cell_length_a 9.134821
_cell_length_b 9.734346
_cell_length_c 9.227485
_cell_angle_alpha 57.281748
_cell_angle_beta 61.219273
_cell_angle_gamma 48.266910
_cell_volume 505.401816
_symmetry_space_group_name_H-M "P -1"
_symmetry_group_IT_number 2
_symmetry_cell_setting 'triclinic'
loop_
_space_group_symop_operation_xyz
x,y,z
-x,-y,-z
loop_
_atom_site_type_symbol
_atom_site_label
_atom_site_fract_x
_atom_site_fract_y
_atom_site_fract_z
Si Si1 0.710279 0.467085 0.382171
Si Si2 0.239526 0.985332 0.595792
Si Si3 0.365156 0.377803 0.262911
Si Si4 0.092629 0.333249 0.697411
Si Si5 0.919931 0.945061 0.926607
Si Si6 0.497523 0.325318 0.913786
Si Si7 0.000000 0.000000 0.500000
O O1 0.500000 0.500000 0.500000
O O2 0.767219 0.589390 0.383309
O O3 0.675130 0.556639 0.187494
O O4 0.866460 0.239115 0.459096
O O5 0.459340 0.812064 0.630535
O O6 0.208598 0.003585 0.430183
O O7 0.065072 0.933583 0.734613
O O8 0.174718 0.162018 0.635247
O O9 0.413173 0.542522 0.171774
O O10 0.130267 0.488229 0.334562
O O11 0.408103 0.310768 0.114190
O O12 0.070145 0.242824 0.911131
O O13 0.693335 0.114735 0.902703
O O14 0.000000 0.000000 0.000000
#
# Coordination Sequence:
#
# PCOD9060436 Si02
#       7
#     2   2   2   2   2   2   1
#     4  12  30  51  68  99 150 194 238 293 347 419
#     4  11  22  45  74 108 147 184 232 288 360 429
#     4  11  20  40  75 107 137 179 233 291 352 415
#     4  11  25  44  74 110 139 184 237 296 354 418
#     4  10  17  38  70 110 140 172 227 292 359 417
#     4  11  20  41  74 106 140 184 225 290 360 414
#     4  12  28  48  72  98 144 204 230 282 354 430
#
# _framework density 25.722110000000001
#
# number of rings (size 3 to 8) (size 9 to 14) (size 15 to 20)
#    0.000    0.923    7.692    1.846    0.000    3.077 
#    0.000    1.538    0.000    0.000    0.000    0.000 
#    0.000    0.000    0.000    0.000    0.000    0.000 
#
# Total GULP energy -72628.828687 kJ/mol
# GULP energy per Si atom -5586.832976 kJ/mol
# Density = 2.566357 g / cm^3
# Si number density = 25.722110 Si / 1000 Ang^3
#
#
#
# Elastic Constant Matrix: (Units=GPa)
#
#
# Indices 1 2 3 4 5 6 
#
# 1 166.7617 88.6981 50.3348 -14.2548 -1.1019 -6.0444
# 2 88.6981 172.5893 53.4623 -17.5348 -8.7118 -27.4757
# 3 50.3348 53.4623 72.0696 -20.1213 5.1494 -11.7237
# 4 -14.2548 -17.5348 -20.1213 42.5878 -5.0508 8.9463
# 5 -1.1019 -8.7118 5.1494 -5.0508 46.4554 -11.7298
# 6 -6.0444 -27.4757 -11.7237 8.9463 -11.7298 56.4108
#
#
#
# Elastic Compliance Matrix: (Units=1/GPa)
#
#
# Indices 1 2 3 4 5 6 
#
# 1 0.009098 -0.003816 -0.003774 0.000001 -0.000531 -0.001779
# 2 -0.003816 0.009910 -0.004141 0.000360 0.003324 0.004191
# 3 -0.003774 -0.004141 0.021771 0.006927 -0.002398 0.000506
# 4 0.000001 0.000360 0.006927 0.027610 0.001693 -0.002412
# 5 -0.000531 0.003324 -0.002398 0.001693 0.024050 0.005796
# 6 -0.001779 0.004191 0.000506 -0.002412 0.005796 0.021271
#
#
# Mechanical properties :
#
#
# Convention : Reuss Voigt Hill
#
# Bulk Modulus (GPa) = 57.75147 88.49013 73.12080
# Shear Modulus (GPa) = 34.97876 43.68583 39.33229
#
# Velocity S-wave (km/s) = 3.69164 4.12561 3.91464
# Velocity P-wave (km/s) = 6.37744 7.56117 6.99439
#
# Compressibility (1/GPa) = 0.01731558
#
# Stress axis : x y z
#
# Youngs Moduli (GPa) = 109.91776 100.91052 45.93288
#
# Poissons Ratio (x) = 0.38510 0.17335
# Poissons Ratio (y) = 0.41948 0.19021
# Poissons Ratio (z) = 0.41484 0.41787
#
# Static dielectric constant tensor:
#      x y z
#    x 1.868130 -0.047200 -0.245780 
#    y -0.047200 1.932130 -0.063440 
#    z -0.245780 -0.063440 1.845400 
# 
# From -- ./inp_files/375548.got.cif
#   From: 2010.05.17/outbox.cif.g08.bks.cpg/sg2_188_cif.got.tgz:375548.got - 2010.06.03 11:33:40.
