data_PCOD9060252
_publ_section_title
;
Structure prediction by ZEFSAII (Michael W. Deem and Ramdas Pophale) SiO2 
 PCOD9060252
Probable space group: P -1
;
_chemical_formula_sum "Si O2"
_cell_formula_units_Z 14
_cell_length_a 21.112116
_cell_length_b 9.385608
_cell_length_c 11.152567
_cell_angle_alpha 59.085584
_cell_angle_beta 148.274855
_cell_angle_gamma 142.680371
_cell_volume 605.878646
_symmetry_space_group_name_H-M "P -1"
_symmetry_group_IT_number 2
_symmetry_cell_setting 'triclinic'
loop_
_space_group_symop_operation_xyz
x,y,z
-x,-y,-z
loop_
_atom_site_type_symbol
_atom_site_label
_atom_site_fract_x
_atom_site_fract_y
_atom_site_fract_z
Si Si1 0.330040 0.935542 0.209245
Si Si2 0.066845 0.649956 0.263710
Si Si3 0.162053 0.145843 0.594554
Si Si4 0.673130 0.311055 0.173417
Si Si5 0.318155 0.187688 0.287242
Si Si6 0.909827 0.734931 0.165987
Si Si7 0.489096 0.700353 0.861803
O O1 0.500000 0.000000 0.500000
O O2 0.350667 0.128887 0.236894
O O3 0.400703 0.033188 0.143392
O O4 0.105419 0.620011 0.979988
O O5 0.961874 0.671116 0.170049
O O6 0.161392 0.608119 0.517737
O O7 0.236463 0.944029 0.341736
O O8 0.268695 0.416360 0.581703
O O9 0.346096 0.259069 0.904351
O O10 0.000000 0.000000 0.500000
O O11 0.085261 0.943359 0.454787
O O12 0.743646 0.472437 0.095829
O O13 0.567714 0.326139 0.082973
O O14 0.500000 0.000000 0.000000
O O15 0.500000 0.500000 0.500000
O O16 0.150441 0.145472 0.020349
#
# Coordination Sequence:
#
# PCOD9060252 Si02
#       7
#     2   2   2   2   2   2   2
#     4  12  27  47  72 102 147 195 248 302 370 444
#     4  12  27  48  72 106 150 196 242 306 377 435
#     4  11  23  43  68 107 141 185 234 303 359 428
#     4  12  24  44  72 106 148 189 239 301 373 441
#     4  12  28  47  73 104 143 193 251 305 362 439
#     4  12  25  43  75 102 144 186 250 296 364 428
#     4  11  25  41  71 103 145 182 242 293 363 428
#
# _framework density 23.106938
#
# number of rings (size 3 to 8) (size 9 to 14) (size 15 to 20)
#    0.000    0.286    1.429    7.286    8.000    0.000 
#    0.000    0.000    0.000    0.000    0.000    0.000 
#    0.000    0.000    0.000    0.000    0.000    0.000 
#
# Total GULP energy -78109.647662 kJ/mol
# GULP energy per Si atom -5579.260547 kJ/mol
# Density = 2.305435 g / cm^3
# Si number density = 23.106938 Si / 1000 Ang^3
#
#
#
# Elastic Constant Matrix: (Units=GPa)
#
#
# Indices 1 2 3 4 5 6 
#
# 1 101.0339 8.5375 23.4169 8.6159 14.0572 -18.2364
# 2 8.5375 76.8823 21.9170 27.4341 -3.6696 -5.0923
# 3 23.4169 21.9170 98.7823 6.8151 8.5858 -17.8387
# 4 8.6159 27.4341 6.8151 57.5781 -12.2035 -0.0606
# 5 14.0572 -3.6696 8.5858 -12.2035 34.9861 4.6704
# 6 -18.2364 -5.0923 -17.8387 -0.0606 4.6704 56.7329
#
#
#
# Elastic Compliance Matrix: (Units=1/GPa)
#
#
# Indices 1 2 3 4 5 6 
#
# 1 0.012017 0.000099 -0.001438 -0.002946 -0.006015 0.003911
# 2 0.000099 0.016613 -0.003054 -0.007629 -0.000286 0.000578
# 3 -0.001438 -0.003054 0.012061 -0.000454 -0.003305 0.003328
# 4 -0.002946 -0.007629 -0.000454 0.023400 0.008989 -0.002489
# 5 -0.006015 -0.000286 -0.003305 0.008989 0.035707 -0.005928
# 6 0.003911 0.000578 0.003328 -0.002489 -0.005928 0.020467
#
#
# Mechanical properties :
#
#
# Convention : Reuss Voigt Hill
#
# Bulk Modulus (GPa) = 31.34343 42.71568 37.02955
# Shear Modulus (GPa) = 35.79416 44.71458 40.25437
#
# Velocity S-wave (km/s) = 3.94009 4.40377 4.17836
# Velocity P-wave (km/s) = 5.85602 6.66211 6.27203
#
# Compressibility (1/GPa) = 0.03190461
#
# Stress axis : x y z
#
# Youngs Moduli (GPa) = 83.21780 60.19218 82.90970
#
# Poissons Ratio (x) = -0.00594 0.11924
# Poissons Ratio (y) = -0.00821 0.25319
# Poissons Ratio (z) = 0.11968 0.18382
#
# Static dielectric constant tensor:
#      x y z
#    x 1.817520 0.183770 -0.003560 
#    y 0.183770 2.260820 -0.004480 
#    z -0.003560 -0.004480 1.909290 
# 
# From -- ./inp_files/410055.got.cif
#   From: 2010.05.17/outbox.cif.g08.bks.cpg/sg2_206_cif.got.tgz:410055.got - 2010.06.03 11:33:40.
