data_PCOD9060799
_publ_section_title
;
Structure prediction by ZEFSAII (Michael W. Deem and Ramdas Pophale) SiO2 
 PCOD9060799
Probable space group: P -1
;
_chemical_formula_sum "Si O2"
_cell_formula_units_Z 16
_cell_length_a 12.786206
_cell_length_b 17.851016
_cell_length_c 8.367845
_cell_angle_alpha 58.821478
_cell_angle_beta 111.180219
_cell_angle_gamma 154.289167
_cell_volume 679.862254
_symmetry_space_group_name_H-M "P -1"
_symmetry_group_IT_number 2
_symmetry_cell_setting 'triclinic'
loop_
_space_group_symop_operation_xyz
x,y,z
-x,-y,-z
loop_
_atom_site_type_symbol
_atom_site_label
_atom_site_fract_x
_atom_site_fract_y
_atom_site_fract_z
Si Si1 0.527866 0.612249 0.978110
Si Si2 0.179440 0.962935 0.336261
Si Si3 0.603018 0.961023 0.333288
Si Si4 0.175424 0.603961 0.240257
Si Si5 0.986860 0.662195 0.054307
Si Si6 0.940263 0.951788 0.334098
Si Si7 0.462387 0.264296 0.877308
Si Si8 0.187468 0.788457 0.376066
O O1 0.811953 0.836833 0.847097
O O2 0.304198 0.517237 0.893452
O O3 0.500000 0.500000 0.000000
O O4 0.497355 0.614049 0.147385
O O5 0.127656 0.827202 0.413351
O O6 0.359981 0.083334 0.457719
O O7 0.942152 0.853156 0.383439
O O8 0.306640 0.097157 0.104314
O O9 0.406580 0.793776 0.273902
O O10 0.475979 0.959553 0.339212
O O11 0.868410 0.172145 0.169240
O O12 0.049155 0.605188 0.108319
O O13 0.292485 0.620084 0.157466
O O14 0.972689 0.407439 0.444606
O O15 0.110913 0.762487 0.184802
O O16 0.000000 0.000000 0.500000
O O17 0.699139 0.832602 0.264668
#
# Coordination Sequence:
#
# PCOD9060799 Si02
#       8
#     2   2   2   2   2   2   2   2
#     4  11  28  45  72 106 139 184 237 289 345 417
#     4  11  24  43  70  99 138 183 235 286 350 419
#     4  11  23  44  68 100 140 189 231 280 359 413
#     4  11  25  44  72 103 142 182 238 291 347 415
#     4  11  25  44  73 100 145 186 231 288 353 412
#     4  11  27  48  75  99 138 190 232 289 353 419
#     4  11  26  48  72 101 144 186 230 288 356 416
#     4  11  25  40  70 105 140 184 232 296 340 421
#
# _framework density 23.534182000000001
#
# number of rings (size 3 to 8) (size 9 to 14) (size 15 to 20)
#    0.000    1.000    0.000    7.125   17.500    0.500 
#    0.000    1.250    0.000    0.000    0.000    0.000 
#    0.000    0.000    0.000    0.000    0.000    0.000 
#
# Total GULP energy -89495.435092 kJ/mol
# GULP energy per Si atom -5593.464693 kJ/mol
# Density = 2.348062 g / cm^3
# Si number density = 23.534182 Si / 1000 Ang^3
#
#
#
# Elastic Constant Matrix: (Units=GPa)
#
#
# Indices 1 2 3 4 5 6 
#
# 1 166.6062 33.6505 14.5685 3.0094 3.4546 -4.5282
# 2 33.6505 62.4835 19.6582 15.1274 15.5079 2.0561
# 3 14.5685 19.6582 79.8120 15.7388 0.2774 -5.4633
# 4 3.0094 15.1274 15.7388 45.7422 0.1116 10.7511
# 5 3.4546 15.5079 0.2774 0.1116 31.7663 5.9589
# 6 -4.5282 2.0561 -5.4633 10.7511 5.9589 37.9078
#
#
#
# Elastic Compliance Matrix: (Units=1/GPa)
#
#
# Indices 1 2 3 4 5 6 
#
# 1 0.006835 -0.004080 -0.000387 0.000902 0.001146 0.000546
# 2 -0.004080 0.023723 -0.003663 -0.006607 -0.011336 0.001354
# 3 -0.000387 -0.003663 0.014638 -0.004601 0.001082 0.003397
# 4 0.000902 -0.006607 -0.004601 0.027621 0.004716 -0.008772
# 5 0.001146 -0.011336 0.001082 0.004716 0.038066 -0.006414
# 6 0.000546 0.001354 0.003397 -0.008772 -0.006414 0.030357
#
#
# Mechanical properties :
#
#
# Convention : Reuss Voigt Hill
#
# Bulk Modulus (GPa) = 34.55997 49.40623 41.98310
# Shear Modulus (GPa) = 29.91400 39.15156 34.53278
#
# Velocity S-wave (km/s) = 3.56910 4.08315 3.83475
# Velocity P-wave (km/s) = 5.63041 6.57788 6.12250
#
# Compressibility (1/GPa) = 0.02893521
#
# Stress axis : x y z
#
# Youngs Moduli (GPa) = 146.30897 42.15400 68.31315
#
# Poissons Ratio (x) = 0.17198 0.02645
# Poissons Ratio (y) = 0.59692 0.25025
# Poissons Ratio (z) = 0.05664 0.15442
#
# Static dielectric constant tensor:
#      x y z
#    x 1.940440 -0.052710 0.022450 
#    y -0.052710 1.906520 0.014400 
#    z 0.022450 0.014400 1.896300 
# 
# From -- ./inp_files/279109.got.cif
#   From: 2010.05.17/outbox.cif.g08.bks.cpg/sg2_140_cif.got.tgz:279109.got - 2010.06.03 11:33:40.
