data_PCOD9060193
_publ_section_title
;
Structure prediction by ZEFSAII (Michael W. Deem and Ramdas Pophale) SiO2 
 PCOD9060193
Probable space group: P -1
;
_chemical_formula_sum "Si O2"
_cell_formula_units_Z 16
_cell_length_a 9.172094
_cell_length_b 26.436692
_cell_length_c 11.590385
_cell_angle_alpha 147.184418
_cell_angle_beta 141.287033
_cell_angle_gamma 28.748956
_cell_volume 722.303106
_symmetry_space_group_name_H-M "P -1"
_symmetry_group_IT_number 2
_symmetry_cell_setting 'triclinic'
loop_
_space_group_symop_operation_xyz
x,y,z
-x,-y,-z
loop_
_atom_site_type_symbol
_atom_site_label
_atom_site_fract_x
_atom_site_fract_y
_atom_site_fract_z
Si Si1 0.797730 0.037712 0.333480
Si Si2 0.905173 0.840820 0.856090
Si Si3 0.184560 0.301029 0.049207
Si Si4 0.882156 0.135140 0.205234
Si Si5 0.870742 0.212819 0.587245
Si Si6 0.205208 0.571548 0.539165
Si Si7 0.378625 0.492322 0.743846
Si Si8 0.082259 0.502227 0.923587
O O1 0.453233 0.091739 0.248308
O O2 0.783604 0.140057 0.455648
O O3 0.000000 0.000000 0.500000
O O4 0.938761 0.921851 0.114108
O O5 0.035522 0.828083 0.786108
O O6 0.086964 0.704300 0.754548
O O7 0.108038 0.213448 0.806935
O O8 0.515354 0.224953 0.162574
O O9 0.917297 0.408982 0.173746
O O10 0.157052 0.365594 0.035485
O O11 0.006135 0.150539 0.426666
O O12 0.000000 0.000000 0.000000
O O13 0.579814 0.356636 0.661187
O O14 0.500000 0.500000 0.500000
O O15 0.292097 0.496134 0.565399
O O16 0.943241 0.585380 0.333641
O O17 0.598568 0.526035 0.941755
O O18 0.000000 0.500000 0.000000
#
# Coordination Sequence:
#
# PCOD9060193 Si02
#       8
#     2   2   2   2   2   2   2   2
#     4  11  28  50  76 102 143 190 244 298 361 420
#     4  11  28  48  72 110 140 190 246 290 358 437
#     4  11  28  44  74 108 144 188 243 295 367 428
#     4  12  27  49  72 100 147 191 247 295 346 428
#     4  11  25  48  75 104 142 187 240 299 358 428
#     4  12  25  44  73 106 148 188 227 296 369 420
#     4  11  26  45  74 111 143 183 243 296 367 434
#     4  11  23  43  67 106 148 183 233 292 360 435
#
# _framework density 22.151364000000001
#
# number of rings (size 3 to 8) (size 9 to 14) (size 15 to 20)
#    0.000    0.750    2.500    3.750   10.500    2.500 
#    0.000    0.000    0.000    0.000    0.000    0.000 
#    0.000    0.000    0.000    0.000    0.000    0.000 
#
# Total GULP energy -89659.874987 kJ/mol
# GULP energy per Si atom -5603.742187 kJ/mol
# Density = 2.210095 g / cm^3
# Si number density = 22.151364 Si / 1000 Ang^3
#
#
#
# Elastic Constant Matrix: (Units=GPa)
#
#
# Indices 1 2 3 4 5 6 
#
# 1 114.3320 41.3561 63.6104 -5.4477 1.6188 6.1300
# 2 41.3561 64.5297 30.1822 5.9453 1.5730 5.4527
# 3 63.6104 30.1822 144.3688 -0.9253 5.5165 -0.3334
# 4 -5.4477 5.9453 -0.9253 37.4039 8.9939 -6.0920
# 5 1.6188 1.5730 5.5165 8.9939 38.0513 1.5478
# 6 6.1300 5.4527 -0.3334 -6.0920 1.5478 29.0502
#
#
#
# Elastic Compliance Matrix: (Units=1/GPa)
#
#
# Indices 1 2 3 4 5 6 
#
# 1 0.014113 -0.007007 -0.004727 0.002942 -0.000277 -0.001085
# 2 -0.007007 0.021462 -0.001482 -0.005327 0.001037 -0.003739
# 3 -0.004727 -0.001482 0.009372 0.000323 -0.001234 0.001517
# 4 0.002942 -0.005327 0.000323 0.031030 -0.007583 0.007294
# 5 -0.000277 0.001037 -0.001234 -0.007583 0.028353 -0.003251
# 6 -0.001085 -0.003739 0.001517 0.007294 -0.003251 0.037074
#
#
# Mechanical properties :
#
#
# Convention : Reuss Voigt Hill
#
# Bulk Modulus (GPa) = 54.00705 65.94754 59.97729
# Shear Modulus (GPa) = 28.73474 33.43987 31.08731
#
# Velocity S-wave (km/s) = 3.60557 3.88958 3.75027
# Velocity P-wave (km/s) = 6.46277 7.07162 6.77404
#
# Compressibility (1/GPa) = 0.01851610
#
# Stress axis : x y z
#
# Youngs Moduli (GPa) = 70.85750 46.59447 106.70255
#
# Poissons Ratio (x) = 0.32647 0.50433
# Poissons Ratio (y) = 0.49647 0.15814
# Poissons Ratio (z) = 0.33491 0.06906
#
# Static dielectric constant tensor:
#      x y z
#    x 1.817100 0.024560 0.022080 
#    y 0.024560 1.808710 0.005300 
#    z 0.022080 0.005300 1.829220 
# 
# From -- ./inp_files/272323.got.cif
#   From: 2010.05.17/outbox.cif.g08.bks.cpg/sg2_137_cif.got.tgz:272323.got - 2010.06.03 11:33:40.
