data_PCOD9060729
_publ_section_title
;
Structure prediction by ZEFSAII (Michael W. Deem and Ramdas Pophale) SiO2 
 PCOD9060729
Probable space group: P -1
;
_chemical_formula_sum "Si O2"
_cell_formula_units_Z 14
_cell_length_a 5.346542
_cell_length_b 7.996326
_cell_length_c 18.543348
_cell_angle_alpha 69.741157
_cell_angle_beta 120.096721
_cell_angle_gamma 120.832271
_cell_volume 584.693529
_symmetry_space_group_name_H-M "P -1"
_symmetry_group_IT_number 2
_symmetry_cell_setting 'triclinic'
loop_
_space_group_symop_operation_xyz
x,y,z
-x,-y,-z
loop_
_atom_site_type_symbol
_atom_site_label
_atom_site_fract_x
_atom_site_fract_y
_atom_site_fract_z
Si Si1 0.189550 0.976920 0.599455
Si Si2 0.505101 0.336391 0.689579
Si Si3 0.245016 0.196488 0.158717
Si Si4 0.096645 0.818936 0.024375
Si Si5 0.369985 0.250092 0.333804
Si Si6 0.287335 0.181351 0.834403
Si Si7 0.831488 0.508795 0.157859
O O1 0.417552 0.190452 0.632097
O O2 0.595878 0.136839 0.374432
O O3 0.000000 0.000000 0.500000
O O4 0.926624 0.859870 0.639718
O O5 0.435341 0.527990 0.642857
O O6 0.318873 0.207259 0.750215
O O7 0.871965 0.432599 0.754232
O O8 0.259698 0.262400 0.233632
O O9 0.593799 0.281742 0.160707
O O10 0.070252 0.960738 0.174380
O O11 0.024369 0.247563 0.063854
O O12 0.466738 0.893237 0.084738
O O13 0.935282 0.628426 0.081148
O O14 0.000000 0.000000 0.000000
O O15 0.382194 0.392923 0.850747
#
# Coordination Sequence:
#
# PCOD9060729 Si02
#       7
#     2   2   2   2   2   2   2
#     4  12  29  52  82 118 155 195 247 318 394 470
#     4  11  26  48  77 109 157 192 255 311 379 459
#     4  12  23  43  69 101 142 195 259 302 371 446
#     4  11  25  40  63  97 148 201 253 315 375 431
#     4  12  27  48  81 116 150 204 255 307 390 464
#     4  11  23  44  65 101 147 196 250 317 369 439
#     4  11  24  44  66 103 145 205 251 312 374 439
#
# _framework density 23.944165999999999
#
# number of rings (size 3 to 8) (size 9 to 14) (size 15 to 20)
#    0.000    0.571    4.286    3.000    2.000    2.857 
#    0.000    0.000    0.000    0.000    0.000    0.000 
#    0.000    0.000    0.000    0.000    0.000    0.000 
#
# Total GULP energy -78357.007079 kJ/mol
# GULP energy per Si atom -5596.929077 kJ/mol
# Density = 2.388967 g / cm^3
# Si number density = 23.944166 Si / 1000 Ang^3
#
#
#
# Elastic Constant Matrix: (Units=GPa)
#
#
# Indices 1 2 3 4 5 6 
#
# 1 106.7797 64.8932 29.0105 -15.2716 11.4577 0.2702
# 2 64.8932 155.8566 63.3193 -1.0949 13.4974 7.2004
# 3 29.0105 63.3193 105.8478 1.1906 -3.0130 -0.0521
# 4 -15.2716 -1.0949 1.1906 11.7636 7.7908 -5.6023
# 5 11.4577 13.4974 -3.0130 7.7908 23.5772 -12.8225
# 6 0.2702 7.2004 -0.0521 -5.6023 -12.8225 62.8853
#
#
#
# Elastic Compliance Matrix: (Units=1/GPa)
#
#
# Indices 1 2 3 4 5 6 
#
# 1 0.022686 -0.005407 -0.004152 0.044729 -0.023384 -0.000265
# 2 -0.005407 0.011391 -0.005434 -0.003419 -0.004862 -0.002582
# 3 -0.004152 -0.005434 0.014376 -0.015024 0.012998 0.001964
# 4 0.044729 -0.003419 -0.015024 0.203123 -0.088713 0.000194
# 5 -0.023384 -0.004862 0.012998 -0.088713 0.094028 0.011937
# 6 -0.000265 -0.002582 0.001964 0.000194 0.011937 0.018652
#
#
# Mechanical properties :
#
#
# Convention : Reuss Voigt Hill
#
# Bulk Modulus (GPa) = 54.14873 75.88114 65.01493
# Shear Modulus (GPa) = 12.48756 33.72928 23.10842
#
# Velocity S-wave (km/s) = 2.28618 3.75729 3.10997
# Velocity P-wave (km/s) = 5.44357 7.11215 6.33305
#
# Compressibility (1/GPa) = 0.01846765
#
# Stress axis : x y z
#
# Youngs Moduli (GPa) = 44.07933 87.78521 69.56092
#
# Poissons Ratio (x) = 0.47470 0.28881
# Poissons Ratio (y) = 0.23836 0.37797
# Poissons Ratio (z) = 0.18301 0.47699
#
# Static dielectric constant tensor:
#      x y z
#    x 1.967820 -0.017950 0.005830 
#    y -0.017950 1.964060 -0.016140 
#    z 0.005830 -0.016140 1.867240 
# 
# From -- ./inp_files/547993.got.cif
#   From: 2010.05.17/outbox.cif.g08.bks.cpg/sg2_274_cif.got.tgz:547993.got - 2010.06.03 11:33:40.
