data_PCOD9060867
_publ_section_title
;
Structure prediction by ZEFSAII (Michael W. Deem and Ramdas Pophale) SiO2 
 PCOD9060867
Probable space group: P -1
;
_chemical_formula_sum "Si O2"
_cell_formula_units_Z 14
_cell_length_a 5.087559
_cell_length_b 23.576914
_cell_length_c 21.579503
_cell_angle_alpha 12.128578
_cell_angle_beta 76.027955
_cell_angle_gamma 77.040445
_cell_volume 526.872671
_symmetry_space_group_name_H-M "P -1"
_symmetry_group_IT_number 2
_symmetry_cell_setting 'triclinic'
loop_
_space_group_symop_operation_xyz
x,y,z
-x,-y,-z
loop_
_atom_site_type_symbol
_atom_site_label
_atom_site_fract_x
_atom_site_fract_y
_atom_site_fract_z
Si Si1 0.209589 0.857912 0.686323
Si Si2 0.720916 0.677649 0.682509
Si Si3 0.441914 0.672974 0.258991
Si Si4 0.196379 0.321528 0.887256
Si Si5 0.236742 0.999687 0.343057
Si Si6 0.190149 0.175291 0.753628
Si Si7 0.117079 0.190382 0.593109
O O1 0.001895 0.864903 0.749969
O O2 0.500000 0.000000 0.500000
O O3 0.000000 0.000000 0.500000
O O4 0.307554 0.555775 0.015702
O O5 0.490029 0.890723 0.481928
O O6 0.684705 0.653008 0.635920
O O7 0.040164 0.759420 0.583327
O O8 0.500000 0.500000 0.500000
O O9 0.645243 0.656802 0.208371
O O10 0.190939 0.486390 0.442828
O O11 0.445146 0.984496 0.946434
O O12 0.132108 0.616345 0.597861
O O13 0.338499 0.179646 0.087497
O O14 0.946374 0.107725 0.112922
O O15 0.164727 0.167839 0.688158
O O16 0.000000 0.000000 0.000000
#
# Coordination Sequence:
#
# PCOD9060867 Si02
#       7
#     2   2   2   2   2   2   2
#     4  12  26  46  72 108 144 190 246 310 376 456
#     4  11  25  46  71 105 145 194 246 308 377 451
#     4  12  24  41  64  98 138 190 244 309 374 444
#     4  11  23  44  69 102 141 189 245 312 373 448
#     4  11  25  46  71 105 145 194 246 308 377 451
#     4  12  24  41  64  98 138 190 244 309 374 444
#     4  11  23  44  69 102 141 189 245 312 373 448
#
# _framework density 26.571887
#
# number of rings (size 3 to 8) (size 9 to 14) (size 15 to 20)
#    0.000    0.571    1.429    6.857    0.000    5.714 
#    2.571    0.000    0.000    0.000    0.000    0.000 
#    0.000    0.000    0.000    0.000    0.000    0.000 
#
# Total GULP energy -77947.662335 kJ/mol
# GULP energy per Si atom -5567.690167 kJ/mol
# Density = 2.651141 g / cm^3
# Si number density = 26.571887 Si / 1000 Ang^3
#
#
#
# Elastic Constant Matrix: (Units=GPa)
#
#
# Indices 1 2 3 4 5 6 
#
# 1 103.8022 13.6977 45.7548 9.4646 20.4550 -15.1803
# 2 13.6977 121.7999 20.7615 13.5582 4.8330 -6.7057
# 3 45.7548 20.7615 128.5274 40.3925 22.3168 4.4642
# 4 9.4646 13.5582 40.3925 49.9437 5.0479 7.3306
# 5 20.4550 4.8330 22.3168 5.0479 45.3047 1.0807
# 6 -15.1803 -6.7057 4.4642 7.3306 1.0807 49.4449
#
#
#
# Elastic Compliance Matrix: (Units=1/GPa)
#
#
# Indices 1 2 3 4 5 6 
#
# 1 0.012871 -0.000434 -0.004272 0.000903 -0.003862 0.004229
# 2 -0.000434 0.008670 -0.000649 -0.001928 -0.000228 0.001392
# 3 -0.004272 -0.000649 0.012805 -0.008866 -0.003294 -0.001169
# 4 0.000903 -0.001928 -0.008866 0.027922 0.001134 -0.003348
# 5 -0.003862 -0.000228 -0.003294 0.001134 0.025376 -0.001642
# 6 0.004229 0.001392 -0.001169 -0.003348 -0.001642 0.022350
#
#
# Mechanical properties :
#
#
# Convention : Reuss Voigt Hill
#
# Bulk Modulus (GPa) = 42.30814 57.17306 49.74060
# Shear Modulus (GPa) = 38.88563 47.19968 43.04266
#
# Velocity S-wave (km/s) = 3.82961 4.21919 4.02911
# Velocity P-wave (km/s) = 5.95913 6.73042 6.35648
#
# Compressibility (1/GPa) = 0.02363612
#
# Stress axis : x y z
#
# Youngs Moduli (GPa) = 77.69261 115.34201 78.09489
#
# Poissons Ratio (x) = 0.05003 0.33364
# Poissons Ratio (y) = 0.03370 0.05068
# Poissons Ratio (z) = 0.33192 0.07486
#
# Static dielectric constant tensor:
#      x y z
#    x 2.255330 0.173250 -0.141550 
#    y 0.173250 2.555280 -0.200500 
#    z -0.141550 -0.200500 2.318450 
# 
# From -- ./inp_files/10203.got.cif
#   From: 2010.05.17/outbox.cif.g08.bks.cpg/sg2_6_cif.got.tgz:10203.got - 2010.06.03 11:33:40.
