data_PCOD9060756
_publ_section_title
;
Structure prediction by ZEFSAII (Michael W. Deem and Ramdas Pophale) SiO2 
 PCOD9060756
Probable space group: P -1
;
_chemical_formula_sum "Si O2"
_cell_formula_units_Z 16
_cell_length_a 17.669691
_cell_length_b 20.066187
_cell_length_c 21.569088
_cell_angle_alpha 161.449048
_cell_angle_beta 28.347385
_cell_angle_gamma 160.102101
_cell_volume 823.514572
_symmetry_space_group_name_H-M "P -1"
_symmetry_group_IT_number 2
_symmetry_cell_setting 'triclinic'
loop_
_space_group_symop_operation_xyz
x,y,z
-x,-y,-z
loop_
_atom_site_type_symbol
_atom_site_label
_atom_site_fract_x
_atom_site_fract_y
_atom_site_fract_z
Si Si1 0.960898 0.530848 0.245382
Si Si2 0.781856 0.325932 0.459889
Si Si3 0.440531 0.631635 0.113693
Si Si4 0.041917 0.178426 0.802748
Si Si5 0.161329 0.112163 0.540810
Si Si6 0.384787 0.272666 0.727014
Si Si7 0.069211 0.605706 0.380024
Si Si8 0.397948 0.493780 0.504317
O O1 0.410578 0.324120 0.523824
O O2 0.016897 0.571978 0.314534
O O3 0.093622 0.837680 0.384164
O O4 0.005481 0.355033 0.023477
O O5 0.621172 0.378471 0.635135
O O6 0.000000 0.500000 0.500000
O O7 0.867021 0.413094 0.404276
O O8 0.625651 0.981832 0.282047
O O9 0.218919 0.536740 0.216120
O O10 0.500000 0.500000 0.000000
O O11 0.409723 0.493273 0.947987
O O12 0.121796 0.269636 0.754734
O O13 0.238075 0.222166 0.731258
O O14 0.807860 0.836301 0.663993
O O15 0.000000 0.000000 0.500000
O O16 0.705763 0.375195 0.290291
O O17 0.227840 0.948857 0.584950
O O18 0.500000 0.500000 0.500000
#
# Coordination Sequence:
#
# PCOD9060756 Si02
#       8
#     2   2   2   2   2   2   2   2
#     4  11  24  43  67  98 135 173 229 273 331 397
#     4  11  26  44  68 100 131 176 226 273 341 402
#     4  11  24  43  70  96 134 172 222 273 333 400
#     4  11  24  43  66  99 132 176 227 272 335 395
#     4  11  23  46  68  94 137 175 219 279 337 394
#     4  11  23  44  66  95 135 174 218 278 335 392
#     4  11  23  44  66  95 134 174 219 279 329 396
#     4  11  23  45  67  95 134 174 218 278 334 392
#
# _framework density 19.428920999999999
#
# number of rings (size 3 to 8) (size 9 to 14) (size 15 to 20)
#    0.000    1.000    6.250    1.500    1.750    7.000 
#    2.250    0.000    0.000    0.000    0.000    0.000 
#    0.000    0.000    0.000    0.000    0.000    0.000 
#
# Total GULP energy -89295.871880 kJ/mol
# GULP energy per Si atom -5580.991993 kJ/mol
# Density = 1.938470 g / cm^3
# Si number density = 19.428921 Si / 1000 Ang^3
#
#
#
# Elastic Constant Matrix: (Units=GPa)
#
#
# Indices 1 2 3 4 5 6 
#
# 1 65.6714 8.6627 2.5914 4.9896 7.5301 6.7012
# 2 8.6627 124.5292 24.2472 -19.3554 2.9244 -6.0773
# 3 2.5914 24.2472 97.9419 -14.6463 7.2939 6.5649
# 4 4.9896 -19.3554 -14.6463 23.9713 5.7479 2.7256
# 5 7.5301 2.9244 7.2939 5.7479 31.0945 -4.8461
# 6 6.7012 -6.0773 6.5649 2.7256 -4.8461 41.0343
#
#
#
# Elastic Compliance Matrix: (Units=1/GPa)
#
#
# Indices 1 2 3 4 5 6 
#
# 1 0.016477 -0.001773 -0.000069 -0.003681 -0.003614 -0.003125
# 2 -0.001773 0.009667 -0.001178 0.007657 -0.001427 0.001232
# 3 -0.000069 -0.001178 0.012280 0.008072 -0.004748 -0.003225
# 4 -0.003681 0.007657 0.008072 0.057290 -0.013077 -0.004906
# 5 -0.003614 -0.001427 -0.004748 -0.013077 0.037707 0.006460
# 6 -0.003125 0.001232 -0.003225 -0.004906 0.006460 0.026667
#
#
# Mechanical properties :
#
#
# Convention : Reuss Voigt Hill
#
# Bulk Modulus (GPa) = 30.87834 39.90502 35.39168
# Shear Modulus (GPa) = 28.26111 36.06278 32.16195
#
# Velocity S-wave (km/s) = 3.81805 4.31297 4.07303
# Velocity P-wave (km/s) = 5.94677 6.73690 6.35413
#
# Compressibility (1/GPa) = 0.03238516
#
# Stress axis : x y z
#
# Youngs Moduli (GPa) = 60.69160 103.44953 81.43148
#
# Poissons Ratio (x) = 0.18337 0.00563
# Poissons Ratio (y) = 0.10758 0.09589
# Poissons Ratio (z) = 0.00419 0.12182
#
# Static dielectric constant tensor:
#      x y z
#    x 1.742990 0.008270 0.034560 
#    y 0.008270 1.662690 -0.015630 
#    z 0.034560 -0.015630 1.690850 
# 
# From -- ./inp_files/600519.got.cif
#   From: 2010.05.17/outbox.cif.g08.bks.cpg/sg2_301_cif.got.tgz:600519.got - 2010.06.03 11:33:40.
