data_PCOD9060409
_publ_section_title
;
Structure prediction by ZEFSAII (Michael W. Deem and Ramdas Pophale) SiO2 
 PCOD9060409
Probable space group: P -1
;
_chemical_formula_sum "Si O2"
_cell_formula_units_Z 16
_cell_length_a 9.094337
_cell_length_b 14.336297
_cell_length_c 7.981410
_cell_angle_alpha 93.577837
_cell_angle_beta 116.988680
_cell_angle_gamma 45.578628
_cell_volume 606.685408
_symmetry_space_group_name_H-M "P -1"
_symmetry_group_IT_number 2
_symmetry_cell_setting 'triclinic'
loop_
_space_group_symop_operation_xyz
x,y,z
-x,-y,-z
loop_
_atom_site_type_symbol
_atom_site_label
_atom_site_fract_x
_atom_site_fract_y
_atom_site_fract_z
Si Si1 0.682006 0.038294 0.130577
Si Si2 0.775661 0.705224 0.281200
Si Si3 0.424127 0.784644 0.627363
Si Si4 0.595152 0.584559 0.189243
Si Si5 0.210551 0.156600 0.396254
Si Si6 0.293895 0.668240 0.711542
Si Si7 0.197264 0.239207 0.052178
Si Si8 0.847367 0.132491 0.813782
O O1 0.004312 0.816216 0.626918
O O2 0.942470 0.894003 0.175896
O O3 0.513707 0.154473 0.911298
O O4 0.735869 0.100169 0.292804
O O5 0.911942 0.688609 0.179985
O O6 0.789361 0.587625 0.286875
O O7 0.790546 0.755384 0.466383
O O8 0.392055 0.687902 0.612280
O O9 0.697632 0.708281 0.805768
O O10 0.311066 0.860240 0.400671
O O11 0.694798 0.447813 0.309198
O O12 0.352514 0.719891 0.180407
O O13 0.492513 0.608347 0.953559
O O14 0.094531 0.231348 0.160715
O O15 0.500000 0.000000 0.500000
O O16 0.530384 0.927962 0.871614
O O17 0.000000 0.000000 0.000000
#
# Coordination Sequence:
#
# PCOD9060409 Si02
#       8
#     2   2   2   2   2   2   2   2
#     4   8  19  33  65  93 125 164 223 271 325 395
#     4   9  20  44  66  92 133 180 220 274 330 427
#     4   9  20  39  66  95 136 168 227 282 336 394
#     4  11  23  43  70  94 138 177 236 275 338 404
#     4  12  27  41  69  99 141 176 225 285 358 400
#     4  11  25  44  64 102 137 177 221 298 333 391
#     4   8  20  41  65  96 129 180 216 272 345 410
#     4  12  19  31  64 103 119 167 227 284 323 392
#
# _framework density 26.372810999999999
#
# number of rings (size 3 to 8) (size 9 to 14) (size 15 to 20)
#    1.500    0.250    3.750    1.125    3.500    2.500 
#    2.250    0.625    0.000    0.000    0.000    0.000 
#    0.000    0.000    0.000    0.000    0.000    0.000 
#
# Total GULP energy -89309.544210 kJ/mol
# GULP energy per Si atom -5581.846513 kJ/mol
# Density = 2.631279 g / cm^3
# Si number density = 26.372811 Si / 1000 Ang^3
#
#
#
# Elastic Constant Matrix: (Units=GPa)
#
#
# Indices 1 2 3 4 5 6 
#
# 1 64.4414 10.0669 10.3951 -8.9660 -8.3607 10.1849
# 2 10.0669 102.8949 51.5692 -4.2033 -2.8643 17.1147
# 3 10.3951 51.5692 108.6784 22.6756 -0.7075 2.1615
# 4 -8.9660 -4.2033 22.6756 35.4060 -3.2033 4.1264
# 5 -8.3607 -2.8643 -0.7075 -3.2033 35.8305 -4.4500
# 6 10.1849 17.1147 2.1615 4.1264 -4.4500 33.4017
#
#
#
# Elastic Compliance Matrix: (Units=1/GPa)
#
#
# Indices 1 2 3 4 5 6 
#
# 1 0.018896 0.002113 -0.004556 0.009181 0.004428 -0.007094
# 2 0.002113 0.016545 -0.009964 0.010115 0.001337 -0.009548
# 3 -0.004556 -0.009964 0.017207 -0.014336 -0.001945 0.006893
# 4 0.009181 0.010115 -0.014336 0.042767 0.005042 -0.011666
# 5 0.004428 0.001337 -0.001945 0.005042 0.029638 0.001416
# 6 -0.007094 -0.009548 0.006893 -0.011666 0.001416 0.038178
#
#
# Mechanical properties :
#
#
# Convention : Reuss Voigt Hill
#
# Bulk Modulus (GPa) = 35.92913 46.67525 41.30219
# Shear Modulus (GPa) = 25.33938 34.52652 29.93295
#
# Velocity S-wave (km/s) = 3.10306 3.62217 3.37262
# Velocity P-wave (km/s) = 5.14702 5.93550 5.55527
#
# Compressibility (1/GPa) = 0.02783257
#
# Stress axis : x y z
#
# Youngs Moduli (GPa) = 52.92188 60.44296 58.11628
#
# Poissons Ratio (x) = -0.12769 0.26475
# Poissons Ratio (y) = -0.11181 0.57910
# Poissons Ratio (z) = 0.24109 0.60228
#
# Static dielectric constant tensor:
#      x y z
#    x 2.143060 0.066750 0.003830 
#    y 0.066750 2.116230 0.011250 
#    z 0.003830 0.011250 2.098300 
# 
# From -- ./inp_files/311513.got.cif
#   From: 2010.05.17/outbox.cif.g08.bks.cpg/sg2_156_cif.got.tgz:311513.got - 2010.06.03 11:33:40.
