data_PCOD9060528
_publ_section_title
;
Structure prediction by ZEFSAII (Michael W. Deem and Ramdas Pophale) SiO2 
 PCOD9060528
Probable space group: P -1
;
_chemical_formula_sum "Si O2"
_cell_formula_units_Z 16
_cell_length_a 8.900782
_cell_length_b 14.319295
_cell_length_c 11.258372
_cell_angle_alpha 132.868818
_cell_angle_beta 137.755830
_cell_angle_gamma 67.325650
_cell_volume 686.402845
_symmetry_space_group_name_H-M "P -1"
_symmetry_group_IT_number 2
_symmetry_cell_setting 'triclinic'
loop_
_space_group_symop_operation_xyz
x,y,z
-x,-y,-z
loop_
_atom_site_type_symbol
_atom_site_label
_atom_site_fract_x
_atom_site_fract_y
_atom_site_fract_z
Si Si1 0.546217 0.154442 0.777934
Si Si2 0.114439 0.521884 0.337030
Si Si3 0.773682 0.043364 0.204611
Si Si4 0.335074 0.339212 0.444749
Si Si5 0.845224 0.099315 0.701197
Si Si6 0.875684 0.264823 0.266553
Si Si7 0.411850 0.597430 0.118577
Si Si8 0.736943 0.242815 0.550390
O O1 0.752645 0.112419 0.790915
O O2 0.471873 0.255912 0.732164
O O3 0.340609 0.028184 0.568831
O O4 0.649558 0.231086 0.022456
O O5 0.281594 0.427588 0.382974
O O6 0.118326 0.614728 0.535942
O O7 0.177894 0.618824 0.346398
O O8 0.858989 0.435555 0.092402
O O9 0.867903 0.137156 0.230443
O O10 0.819370 0.136097 0.427059
O O11 0.905898 0.928734 0.185685
O O12 0.500000 0.000000 0.000000
O O13 0.512402 0.417465 0.715371
O O14 0.460621 0.226543 0.380608
O O15 0.096640 0.294245 0.336710
O O16 0.824322 0.221774 0.714248
O O17 0.500000 0.500000 0.000000
#
# Coordination Sequence:
#
# PCOD9060528 Si02
#       8
#     2   2   2   2   2   2   2   2
#     4  11  24  43  75 106 138 186 241 304 349 408
#     4  11  25  46  68 107 146 185 239 295 363 428
#     4  11  26  45  67 102 142 190 233 292 365 422
#     4  12  23  44  71 104 141 185 245 292 353 426
#     4  11  25  47  70 105 143 185 247 292 351 433
#     4  11  23  43  72 104 141 185 239 295 354 423
#     4  12  23  42  73 105 141 183 233 298 359 417
#     4  11  26  46  67 100 144 189 234 297 359 426
#
# _framework density 23.309926000000001
#
# number of rings (size 3 to 8) (size 9 to 14) (size 15 to 20)
#    0.000    0.750    3.750    3.375    5.250    1.000 
#    4.500    0.000    0.000    0.000    0.000    0.000 
#    0.000    0.000    0.000    0.000    0.000    0.000 
#
# Total GULP energy -89573.348803 kJ/mol
# GULP energy per Si atom -5598.334300 kJ/mol
# Density = 2.325687 g / cm^3
# Si number density = 23.309926 Si / 1000 Ang^3
#
#
#
# Elastic Constant Matrix: (Units=GPa)
#
#
# Indices 1 2 3 4 5 6 
#
# 1 87.3730 40.1554 16.9820 -1.0844 12.9015 2.6344
# 2 40.1554 125.7888 25.8886 -17.2683 8.7487 -6.8342
# 3 16.9820 25.8886 108.3286 -17.3219 -5.4857 5.8913
# 4 -1.0844 -17.2683 -17.3219 32.1565 -2.5216 3.9126
# 5 12.9015 8.7487 -5.4857 -2.5216 23.4835 -7.8104
# 6 2.6344 -6.8342 5.8913 3.9126 -7.8104 43.6241
#
#
#
# Elastic Compliance Matrix: (Units=1/GPa)
#
#
# Indices 1 2 3 4 5 6 
#
# 1 0.015164 -0.004414 -0.002149 -0.003368 -0.008387 -0.002517
# 2 -0.004414 0.010356 -0.001176 0.004539 -0.000717 0.001512
# 3 -0.002149 -0.001176 0.011061 0.005755 0.004395 -0.001277
# 4 -0.003368 0.004539 0.005755 0.037178 0.004713 -0.002353
# 5 -0.008387 -0.000717 0.004395 0.004713 0.051873 0.008665
# 6 -0.002517 0.001512 -0.001277 -0.002353 0.008665 0.025247
#
#
# Mechanical properties :
#
#
# Convention : Reuss Voigt Hill
#
# Bulk Modulus (GPa) = 47.38436 54.17138 50.77787
# Shear Modulus (GPa) = 28.83660 35.75045 32.29353
#
# Velocity S-wave (km/s) = 3.52105 3.92050 3.72613
# Velocity P-wave (km/s) = 6.07474 6.61693 6.35163
#
# Compressibility (1/GPa) = 0.02110401
#
# Stress axis : x y z
#
# Youngs Moduli (GPa) = 65.94530 96.56092 90.40612
#
# Poissons Ratio (x) = 0.42626 0.19425
# Poissons Ratio (y) = 0.29111 0.10629
# Poissons Ratio (z) = 0.14169 0.11353
#
# Static dielectric constant tensor:
#      x y z
#    x 1.893820 0.001240 -0.013260 
#    y 0.001240 1.863390 0.004770 
#    z -0.013260 0.004770 1.866290 
# 
# From -- ./inp_files/399717.got.cif
#   From: 2010.05.17/outbox.cif.g08.bks.cpg/sg2_200_cif.got.tgz:399717.got - 2010.06.03 11:33:40.
