data_PCOD9060626
_publ_section_title
;
Structure prediction by ZEFSAII (Michael W. Deem and Ramdas Pophale) SiO2 
 PCOD9060626
Probable space group: P -1
;
_chemical_formula_sum "Si O2"
_cell_formula_units_Z 12
_cell_length_a 9.116700
_cell_length_b 11.576480
_cell_length_c 15.504239
_cell_angle_alpha 27.446189
_cell_angle_beta 138.280730
_cell_angle_gamma 129.068655
_cell_volume 499.140653
_symmetry_space_group_name_H-M "P -1"
_symmetry_group_IT_number 2
_symmetry_cell_setting 'triclinic'
loop_
_space_group_symop_operation_xyz
x,y,z
-x,-y,-z
loop_
_atom_site_type_symbol
_atom_site_label
_atom_site_fract_x
_atom_site_fract_y
_atom_site_fract_z
Si Si1 0.377467 0.045328 0.007085
Si Si2 0.647920 0.770332 0.465709
Si Si3 0.052560 0.551957 0.674709
Si Si4 0.539139 0.134702 0.337980
Si Si5 0.707674 0.484001 0.433191
Si Si6 0.102567 0.095427 0.098222
O O1 0.339739 0.351819 0.781719
O O2 0.150758 0.918222 0.981396
O O3 0.500000 0.000000 0.000000
O O4 0.517269 0.934847 0.223540
O O5 0.504486 0.542552 0.581080
O O6 0.887661 0.660890 0.607942
O O7 0.640297 0.945608 0.431516
O O8 0.278267 0.675082 0.695707
O O9 0.898644 0.607122 0.487191
O O10 0.090190 0.248004 0.901922
O O11 0.288120 0.242705 0.130102
O O12 0.500000 0.000000 0.500000
O O13 0.792728 0.190931 0.654789
#
# Coordination Sequence:
#
# PCOD9060626 Si02
#       6
#     2   2   2   2   2   2
#     4  12  23  42  76 110 139 183 236 296 359 408
#     4  11  25  47  73 107 143 181 238 295 351 420
#     4  12  22  46  74 102 146 188 229 294 355 421
#     4  11  27  48  69 101 146 192 238 287 352 423
#     4  11  23  43  74 106 144 179 237 298 347 419
#     4  11  25  45  69 105 142 186 236 293 352 417
#
# _framework density 24.041318
#
# number of rings (size 3 to 8) (size 9 to 14) (size 15 to 20)
#    0.000    0.667    3.333    4.500    2.333    1.333 
#    6.000    0.833    0.000    0.000    0.000    0.000 
#    0.000    0.000    0.000    0.000    0.000    0.000 
#
# Total GULP energy -67086.750851 kJ/mol
# GULP energy per Si atom -5590.562571 kJ/mol
# Density = 2.398660 g / cm^3
# Si number density = 24.041318 Si / 1000 Ang^3
#
#
#
# Elastic Constant Matrix: (Units=GPa)
#
#
# Indices 1 2 3 4 5 6 
#
# 1 158.0172 76.2761 61.5688 -1.6269 -11.9161 31.1383
# 2 76.2761 151.0765 47.1988 1.4666 -2.8804 27.7522
# 3 61.5688 47.1988 154.4878 -9.5200 -25.6583 17.7098
# 4 -1.6269 1.4666 -9.5200 36.4481 5.0094 0.3776
# 5 -11.9161 -2.8804 -25.6583 5.0094 56.3804 -1.8308
# 6 31.1383 27.7522 17.7098 0.3776 -1.8308 63.4902
#
#
#
# Elastic Compliance Matrix: (Units=1/GPa)
#
#
# Indices 1 2 3 4 5 6 
#
# 1 0.009497 -0.003621 -0.002290 -0.000101 0.000711 -0.002415
# 2 -0.003621 0.009207 -0.001348 -0.000740 -0.000904 -0.001894
# 3 -0.002290 -0.001348 0.008492 0.001745 0.003138 -0.000576
# 4 -0.000101 -0.000740 0.001745 0.028165 -0.001778 -0.000332
# 5 0.000711 -0.000904 0.003138 -0.001778 0.019418 -0.000258
# 6 -0.002415 -0.001894 -0.000576 -0.000332 -0.000258 0.017918
#
#
# Mechanical properties :
#
#
# Convention : Reuss Voigt Hill
#
# Bulk Modulus (GPa) = 78.88311 92.62989 85.75650
# Shear Modulus (GPa) = 44.86621 49.83293 47.34957
#
# Velocity S-wave (km/s) = 4.32465 4.55774 4.44273
# Velocity P-wave (km/s) = 7.60392 8.14312 7.87814
#
# Compressibility (1/GPa) = 0.01267698
#
# Stress axis : x y z
#
# Youngs Moduli (GPa) = 105.29453 108.61785 117.75349
#
# Poissons Ratio (x) = 0.39335 0.26964
# Poissons Ratio (y) = 0.38131 0.15876
# Poissons Ratio (z) = 0.24111 0.14644
#
# Static dielectric constant tensor:
#      x y z
#    x 2.030580 -0.083010 0.080250 
#    y -0.083010 1.974190 -0.048530 
#    z 0.080250 -0.048530 2.011920 
# 
# From -- ./inp_files/499823.got.cif
#   From: 2010.05.17/outbox.cif.g08.bks.cpg/sg2_250_cif.got.tgz:499823.got - 2010.06.03 11:33:40.
