data_PCOD9060982
_publ_section_title
;
Structure prediction by ZEFSAII (Michael W. Deem and Ramdas Pophale) SiO2 
 PCOD9060982
Probable space group: P -1
;
_chemical_formula_sum "Si O2"
_cell_formula_units_Z 16
_cell_length_a 8.212784
_cell_length_b 11.419745
_cell_length_c 10.697173
_cell_angle_alpha 57.304719
_cell_angle_beta 58.902077
_cell_angle_gamma 86.981779
_cell_volume 686.374973
_symmetry_space_group_name_H-M "P -1"
_symmetry_group_IT_number 2
_symmetry_cell_setting 'triclinic'
loop_
_space_group_symop_operation_xyz
x,y,z
-x,-y,-z
loop_
_atom_site_type_symbol
_atom_site_label
_atom_site_fract_x
_atom_site_fract_y
_atom_site_fract_z
Si Si1 0.886618 0.108975 0.933432
Si Si2 0.853081 0.367819 0.476637
Si Si3 0.545995 0.811905 0.536592
Si Si4 0.829848 0.295354 0.084457
Si Si5 0.469665 0.933488 0.230022
Si Si6 0.110647 0.379179 0.143757
Si Si7 0.198634 0.370583 0.517886
Si Si8 0.221895 0.110591 0.353795
O O1 0.843433 0.207319 0.006175
O O2 0.669369 0.009607 0.028262
O O3 0.040870 0.221003 0.717281
O O4 0.000000 0.000000 0.000000
O O5 0.690979 0.215805 0.668969
O O6 0.774047 0.501104 0.466642
O O7 0.906295 0.353036 0.320607
O O8 0.072034 0.405249 0.433300
O O9 0.344920 0.794907 0.702774
O O10 0.545598 0.887392 0.360326
O O11 0.597796 0.661677 0.576695
O O12 0.712415 0.889620 0.528347
O O13 0.037211 0.337814 0.055220
O O14 0.784806 0.447322 0.986867
O O15 0.358642 0.049388 0.245109
O O16 0.221107 0.270437 0.217504
O O17 0.000000 0.000000 0.500000
#
# Coordination Sequence:
#
# PCOD9060982 Si02
#       8
#     2   2   2   2   2   2   2   2
#     4  12  26  44  69 103 144 181 220 291 348 406
#     4  11  23  47  70  97 137 187 230 279 343 417
#     4  12  23  43  72  99 133 184 233 278 339 411
#     4  11  25  45  71 102 137 176 237 283 339 408
#     4  12  25  42  70 103 136 179 233 282 340 414
#     4  11  23  44  71 100 137 180 229 290 337 403
#     4  11  25  46  72  94 141 187 228 279 350 412
#     4  12  23  39  69 101 134 176 227 283 339 403
#
# _framework density 23.310873000000001
#
# number of rings (size 3 to 8) (size 9 to 14) (size 15 to 20)
#    0.000    0.500    7.500    0.375    1.750    2.500 
#    9.000    0.000    0.000    0.000    0.000    0.000 
#    0.000    0.000    0.000    0.000    0.000    0.000 
#
# Total GULP energy -89536.105171 kJ/mol
# GULP energy per Si atom -5596.006573 kJ/mol
# Density = 2.325782 g / cm^3
# Si number density = 23.310873 Si / 1000 Ang^3
#
#
#
# Elastic Constant Matrix: (Units=GPa)
#
#
# Indices 1 2 3 4 5 6 
#
# 1 71.9940 25.0453 -7.7115 -7.1456 2.2602 -6.0899
# 2 25.0453 91.8081 -6.9024 -16.5734 -14.0150 -23.0561
# 3 -7.7115 -6.9024 53.5182 -7.9943 0.0924 -5.5605
# 4 -7.1456 -16.5734 -7.9943 32.6691 -10.9065 -2.4336
# 5 2.2602 -14.0150 0.0924 -10.9065 25.6377 -1.5256
# 6 -6.0899 -23.0561 -5.5605 -2.4336 -1.5256 38.8888
#
#
#
# Elastic Compliance Matrix: (Units=1/GPa)
#
#
# Indices 1 2 3 4 5 6 
#
# 1 0.015878 -0.004959 0.001604 -0.000072 -0.004170 -0.000392
# 2 -0.004959 0.025508 0.007928 0.023639 0.025478 0.017959
# 3 0.001604 0.007928 0.023054 0.014323 0.010772 0.009567
# 4 -0.000072 0.023639 0.014323 0.061091 0.040142 0.021450
# 5 -0.004170 0.025478 0.010772 0.040142 0.071606 0.021313
# 6 -0.000392 0.017959 0.009567 0.021450 0.021313 0.039846
#
#
# Mechanical properties :
#
#
# Convention : Reuss Voigt Hill
#
# Bulk Modulus (GPa) = 13.58959 26.46480 20.02719
# Shear Modulus (GPa) = 19.81258 33.23171 26.52215
#
# Velocity S-wave (km/s) = 2.91852 3.77979 3.37673
# Velocity P-wave (km/s) = 4.14721 5.51604 4.87986
#
# Compressibility (1/GPa) = 0.07358576
#
# Stress axis : x y z
#
# Youngs Moduli (GPa) = 62.98198 39.20354 43.37687
#
# Poissons Ratio (x) = 0.19441 -0.06957
# Poissons Ratio (y) = 0.31232 -0.34390
# Poissons Ratio (z) = -0.10102 -0.31082
#
# Static dielectric constant tensor:
#      x y z
#    x 1.927950 0.027240 0.008540 
#    y 0.027240 1.866210 -0.025140 
#    z 0.008540 -0.025140 1.889080 
# 
# From -- ./inp_files/392320.got.cif
#   From: 2010.05.17/outbox.cif.g08.bks.cpg/sg2_197_cif.got.tgz:392320.got - 2010.06.03 11:33:40.
