data_PCOD9060253
_publ_section_title
;
Structure prediction by ZEFSAII (Michael W. Deem and Ramdas Pophale) SiO2 
 PCOD9060253
Probable space group: P -1
;
_chemical_formula_sum "Si O2"
_cell_formula_units_Z 14
_cell_length_a 14.626000
_cell_length_b 11.612344
_cell_length_c 11.472754
_cell_angle_alpha 119.938098
_cell_angle_beta 61.354661
_cell_angle_gamma 162.283122
_cell_volume 513.790467
_symmetry_space_group_name_H-M "P -1"
_symmetry_group_IT_number 2
_symmetry_cell_setting 'triclinic'
loop_
_space_group_symop_operation_xyz
x,y,z
-x,-y,-z
loop_
_atom_site_type_symbol
_atom_site_label
_atom_site_fract_x
_atom_site_fract_y
_atom_site_fract_z
Si Si1 0.650860 0.083470 0.596539
Si Si2 0.953840 0.208722 0.367074
Si Si3 0.933492 0.936053 0.648149
Si Si4 0.380939 0.355035 0.867198
Si Si5 0.900721 0.596310 0.113297
Si Si6 0.845012 0.352218 0.241171
Si Si7 0.457527 0.721517 0.023635
O O1 0.692284 0.990425 0.466804
O O2 0.789390 0.371522 0.584683
O O3 0.856659 0.328171 0.711399
O O4 0.307262 0.703785 0.634072
O O5 0.991063 0.116988 0.368703
O O6 0.873699 0.059410 0.211398
O O7 0.620544 0.604661 0.741703
O O8 0.000000 0.000000 0.500000
O O9 0.134770 0.305492 0.748545
O O10 0.243375 0.339075 0.938695
O O11 0.500000 0.500000 0.000000
O O12 0.890624 0.461997 0.140170
O O13 0.671316 0.324188 0.008951
O O14 0.232046 0.976668 0.051731
O O15 0.570699 0.918959 0.175752
#
# Coordination Sequence:
#
# PCOD9060253 Si02
#       7
#     2   2   2   2   2   2   2
#     4  11  28  43  74 105 143 201 249 308 372 445
#     4  11  26  48  70 107 148 194 254 309 372 452
#     4  11  26  46  75 109 151 199 247 311 377 450
#     4  11  26  46  75 109 151 199 247 311 377 450
#     4  11  23  43  68 109 146 196 248 303 374 445
#     4  12  24  46  72 105 150 195 252 305 374 445
#     4  11  23  43  68 109 146 196 248 303 374 445
#
# _framework density 27.248462
#
# number of rings (size 3 to 8) (size 9 to 14) (size 15 to 20)
#    0.000    0.857    1.429    4.286    8.000    4.571 
#    0.000    0.000    0.000    0.000    0.000    0.000 
#    0.000    0.000    0.000    0.000    0.000    0.000 
#
# Total GULP energy -78211.217662 kJ/mol
# GULP energy per Si atom -5586.515547 kJ/mol
# Density = 2.718644 g / cm^3
# Si number density = 27.248462 Si / 1000 Ang^3
#
#
#
# Elastic Constant Matrix: (Units=GPa)
#
#
# Indices 1 2 3 4 5 6 
#
# 1 171.2668 28.4425 56.8641 1.3023 9.9969 -6.3215
# 2 28.4425 47.8507 32.1875 11.3923 5.1995 0.0733
# 3 56.8641 32.1875 178.7957 17.0666 -13.0234 6.7486
# 4 1.3023 11.3923 17.0666 60.8792 4.1628 -7.1122
# 5 9.9969 5.1995 -13.0234 4.1628 66.0159 10.0646
# 6 -6.3215 0.0733 6.7486 -7.1122 10.0646 34.8591
#
#
#
# Elastic Compliance Matrix: (Units=1/GPa)
#
#
# Indices 1 2 3 4 5 6 
#
# 1 0.007226 -0.003027 -0.002111 0.001417 -0.001746 0.002519
# 2 -0.003027 0.026189 -0.003544 -0.003711 -0.002057 -0.000081
# 3 -0.002111 -0.003544 0.007385 -0.001885 0.002624 -0.002947
# 4 0.001417 -0.003711 -0.001885 0.018356 -0.002216 0.005015
# 5 -0.001746 -0.002057 0.002624 -0.002216 0.017182 -0.006233
# 6 0.002519 -0.000081 -0.002947 0.005015 -0.006233 0.032537
#
#
# Mechanical properties :
#
#
# Convention : Reuss Voigt Hill
#
# Bulk Modulus (GPa) = 42.67036 70.32239 56.49637
# Shear Modulus (GPa) = 37.29885 51.04544 44.17215
#
# Velocity S-wave (km/s) = 3.70380 4.33290 4.03064
# Velocity P-wave (km/s) = 5.82963 7.13413 6.51462
#
# Compressibility (1/GPa) = 0.02343547
#
# Stress axis : x y z
#
# Youngs Moduli (GPa) = 138.37965 38.18377 135.41434
#
# Poissons Ratio (x) = 0.11559 0.28584
# Poissons Ratio (y) = 0.41889 0.47997
# Poissons Ratio (z) = 0.29210 0.13534
#
# Static dielectric constant tensor:
#      x y z
#    x 2.148720 -0.095440 0.017850 
#    y -0.095440 2.302210 -0.004000 
#    z 0.017850 -0.004000 2.248970 
# 
# From -- ./inp_files/362652.got.cif
#   From: 2010.05.17/outbox.cif.g08.bks.cpg/sg2_182_cif.got.tgz:362652.got - 2010.06.03 11:33:40.
