data_PCOD9060040
_publ_section_title
;
Structure prediction by ZEFSAII (Michael W. Deem and Ramdas Pophale) SiO2 
 PCOD9060040
Probable space group: P -1
;
_chemical_formula_sum "Si O2"
_cell_formula_units_Z 14
_cell_length_a 6.522441
_cell_length_b 10.429132
_cell_length_c 10.838278
_cell_angle_alpha 114.348380
_cell_angle_beta 78.137561
_cell_angle_gamma 116.123265
_cell_volume 602.808198
_symmetry_space_group_name_H-M "P -1"
_symmetry_group_IT_number 2
_symmetry_cell_setting 'triclinic'
loop_
_space_group_symop_operation_xyz
x,y,z
-x,-y,-z
loop_
_atom_site_type_symbol
_atom_site_label
_atom_site_fract_x
_atom_site_fract_y
_atom_site_fract_z
Si Si1 0.588681 0.878521 0.385891
Si Si2 0.046073 0.865940 0.867524
Si Si3 0.095682 0.122521 0.383753
Si Si4 0.559236 0.017601 0.781755
Si Si5 0.395896 0.398631 0.594175
Si Si6 0.338728 0.493293 0.900368
Si Si7 0.914650 0.279572 0.972285
O O1 0.487883 0.861371 0.253271
O O2 0.503528 0.718484 0.404300
O O3 0.500000 0.000000 0.500000
O O4 0.863079 0.976000 0.384448
O O5 0.977357 0.720300 0.907607
O O6 0.925454 0.834328 0.738088
O O7 0.312798 0.914461 0.822962
O O8 0.000000 0.000000 0.000000
O O9 0.152686 0.270002 0.523466
O O10 0.310570 0.073968 0.339120
O O11 0.734143 0.109939 0.901428
O O12 0.500000 0.500000 0.500000
O O13 0.412642 0.503942 0.752881
O O14 0.224229 0.614450 0.979970
O O15 0.500000 0.500000 0.000000
O O16 0.123174 0.328890 0.871285
#
# Coordination Sequence:
#
# PCOD9060040 Si02
#       7
#     2   2   2   2   2   2   2
#     4  11  24  44  74 104 140 190 244 297 365 443
#     4  11  25  40  72 112 141 182 237 311 361 425
#     4  11  25  45  73 108 147 191 244 304 371 437
#     4  11  23  42  74 105 141 180 251 302 361 432
#     4  12  28  46  74 106 150 194 236 308 375 435
#     4  11  28  49  72  97 148 196 245 293 365 452
#     4  11  25  44  73 104 138 195 245 296 366 431
#
# _framework density 23.224633000000001
#
# number of rings (size 3 to 8) (size 9 to 14) (size 15 to 20)
#    0.000    0.857    2.857    2.571   10.000    0.000 
#    0.000    1.429    0.000    0.000    0.000    0.000 
#    0.000    0.000    0.000    0.000    0.000    0.000 
#
# Total GULP energy -78148.726494 kJ/mol
# GULP energy per Si atom -5582.051892 kJ/mol
# Density = 2.317177 g / cm^3
# Si number density = 23.224633 Si / 1000 Ang^3
#
#
#
# Elastic Constant Matrix: (Units=GPa)
#
#
# Indices 1 2 3 4 5 6 
#
# 1 90.4201 22.7089 31.1341 -11.0044 3.9651 12.3021
# 2 22.7089 79.2228 18.5092 -30.5192 5.3890 -1.9040
# 3 31.1341 18.5092 121.4114 -15.3318 19.5992 9.7232
# 4 -11.0044 -30.5192 -15.3318 50.1685 -6.5583 10.6821
# 5 3.9651 5.3890 19.5992 -6.5583 45.9961 -11.1829
# 6 12.3021 -1.9040 9.7232 10.6821 -11.1829 20.7434
#
#
#
# Elastic Compliance Matrix: (Units=1/GPa)
#
#
# Indices 1 2 3 4 5 6 
#
# 1 0.014212 -0.002637 -0.001612 0.002996 -0.002419 -0.010761
# 2 -0.002637 0.017437 -0.000360 0.010329 -0.000773 -0.002403
# 3 -0.001612 -0.000360 0.011008 0.004036 -0.006294 -0.009709
# 4 0.002996 0.010329 0.004036 0.032151 -0.003787 -0.021318
# 5 -0.002419 -0.000773 -0.006294 -0.003787 0.029582 0.022212
# 6 -0.010761 -0.002403 -0.009709 -0.021318 0.022212 0.081873
#
#
# Mechanical properties :
#
#
# Convention : Reuss Voigt Hill
#
# Bulk Modulus (GPa) = 29.90629 48.41764 39.16197
# Shear Modulus (GPa) = 24.19808 37.96174 31.07991
#
# Velocity S-wave (km/s) = 3.23137 4.04734 3.66215
# Velocity P-wave (km/s) = 5.17951 6.53713 5.89751
#
# Compressibility (1/GPa) = 0.03343778
#
# Stress axis : x y z
#
# Youngs Moduli (GPa) = 70.36510 57.34991 90.84360
#
# Poissons Ratio (x) = 0.15125 0.14642
# Poissons Ratio (y) = 0.18557 0.03273
# Poissons Ratio (z) = 0.11341 0.02066
#
# Static dielectric constant tensor:
#      x y z
#    x 1.858330 -0.012320 0.021210 
#    y -0.012320 1.882250 -0.025330 
#    z 0.021210 -0.025330 1.983700 
# 
# From -- ./inp_files/363308.got.cif
#   From: 2010.05.17/outbox.cif.g08.bks.cpg/sg2_182_cif.got.tgz:363308.got - 2010.06.03 11:33:40.
