data_PCOD9060184
_publ_section_title
;
Structure prediction by ZEFSAII (Michael W. Deem and Ramdas Pophale) SiO2 
 PCOD9060184
Probable space group: P -1
;
_chemical_formula_sum "Si O2"
_cell_formula_units_Z 14
_cell_length_a 32.693709
_cell_length_b 16.281282
_cell_length_c 13.029479
_cell_angle_alpha 153.638969
_cell_angle_beta 161.020285
_cell_angle_gamma 16.730232
_cell_volume 645.912768
_symmetry_space_group_name_H-M "P -1"
_symmetry_group_IT_number 2
_symmetry_cell_setting 'triclinic'
loop_
_space_group_symop_operation_xyz
x,y,z
-x,-y,-z
loop_
_atom_site_type_symbol
_atom_site_label
_atom_site_fract_x
_atom_site_fract_y
_atom_site_fract_z
Si Si1 0.368141 0.332070 0.650337
Si Si2 0.243840 0.606473 0.266987
Si Si3 0.670552 0.865510 0.176891
Si Si4 0.854366 0.967551 0.848497
Si Si5 0.537059 0.188379 0.677122
Si Si6 0.943753 0.853842 0.174315
Si Si7 0.500369 0.387692 0.224107
O O1 0.464633 0.320505 0.767145
O O2 0.146398 0.525132 0.313688
O O3 0.475803 0.020755 0.585136
O O4 0.386677 0.445229 0.917430
O O5 0.393491 0.421944 0.510470
O O6 0.320158 0.685550 0.465737
O O7 0.255206 0.400339 0.001773
O O8 0.031386 0.873000 0.108415
O O9 0.828736 0.798956 0.544144
O O10 0.578361 0.119927 0.166378
O O11 0.500000 0.000000 0.000000
O O12 0.655777 0.308061 0.747549
O O13 0.896967 0.890185 0.983367
O O14 0.755532 0.002456 0.958053
O O15 0.000000 0.000000 0.500000
#
# Coordination Sequence:
#
# PCOD9060184 Si02
#       7
#     2   2   2   2   2   2   2
#     4  11  24  41  69 103 139 182 236 278 347 416
#     4  12  25  47  72 104 144 182 235 289 346 417
#     4  12  26  52  74  98 144 185 231 295 349 414
#     4  12  26  45  72 106 139 186 234 287 350 412
#     4  11  23  43  67 102 143 187 223 286 347 411
#     4  12  23  41  66 100 139 178 227 282 344 408
#     4  12  26  47  75 104 137 187 234 289 351 412
#
# _framework density 21.674752000000002
#
# number of rings (size 3 to 8) (size 9 to 14) (size 15 to 20)
#    0.000    0.286    7.143    1.286    2.000    1.714 
#    2.571    0.000    0.000    0.000    0.000    0.000 
#    0.000    0.000    0.000    0.000    0.000    0.000 
#
# Total GULP energy -78388.763212 kJ/mol
# GULP energy per Si atom -5599.197372 kJ/mol
# Density = 2.162542 g / cm^3
# Si number density = 21.674752 Si / 1000 Ang^3
#
#
#
# Elastic Constant Matrix: (Units=GPa)
#
#
# Indices 1 2 3 4 5 6 
#
# 1 137.0642 32.2104 62.6017 -6.7269 24.4980 -6.7504
# 2 32.2104 25.8435 12.8362 5.0413 7.9414 1.4402
# 3 62.6017 12.8362 108.6170 -8.2360 8.0653 -2.7066
# 4 -6.7269 5.0413 -8.2360 35.1008 -12.1190 11.8367
# 5 24.4980 7.9414 8.0653 -12.1190 55.2276 -6.8830
# 6 -6.7504 1.4402 -2.7066 11.8367 -6.8830 34.9444
#
#
#
# Elastic Compliance Matrix: (Units=1/GPa)
#
#
# Indices 1 2 3 4 5 6 
#
# 1 0.014017 -0.014083 -0.006036 0.001791 -0.002709 0.001680
# 2 -0.014083 0.060270 0.000404 -0.012464 -0.005466 -0.002028
# 3 -0.006036 0.000404 0.012714 0.002450 0.001201 -0.000791
# 4 0.001791 -0.012464 0.002450 0.037197 0.007548 -0.010064
# 5 -0.002709 -0.005466 0.001201 0.007548 0.021766 0.001525
# 6 0.001680 -0.002028 -0.000791 -0.010064 0.001525 0.032673
#
#
# Mechanical properties :
#
#
# Convention : Reuss Voigt Hill
#
# Bulk Modulus (GPa) = 21.02025 54.09126 37.55575
# Shear Modulus (GPa) = 21.37455 35.97964 28.67710
#
# Velocity S-wave (km/s) = 3.14371 4.07870 3.64134
# Velocity P-wave (km/s) = 4.78501 6.86958 5.91977
#
# Compressibility (1/GPa) = 0.04757317
#
# Stress axis : x y z
#
# Youngs Moduli (GPa) = 71.34313 16.59198 78.65142
#
# Poissons Ratio (x) = 0.23366 0.47470
# Poissons Ratio (y) = 1.00471 -0.03180
# Poissons Ratio (z) = 0.43059 -0.00671
#
# Static dielectric constant tensor:
#      x y z
#    x 1.774500 -0.003080 -0.014840 
#    y -0.003080 1.823320 -0.001410 
#    z -0.014840 -0.001410 1.776320 
# 
# From -- ./inp_files/458419.got.cif
#   From: 2010.05.17/outbox.cif.g08.bks.cpg/sg2_230_cif.got.tgz:458419.got - 2010.06.03 11:33:40.
