data_PCOD9060417
_publ_section_title
;
Structure prediction by ZEFSAII (Michael W. Deem and Ramdas Pophale) SiO2 
 PCOD9060417
Probable space group: P -1
;
_chemical_formula_sum "Si O2"
_cell_formula_units_Z 16
_cell_length_a 9.060078
_cell_length_b 17.079673
_cell_length_c 12.449130
_cell_angle_alpha 25.871698
_cell_angle_beta 77.950661
_cell_angle_gamma 62.956308
_cell_volume 641.550097
_symmetry_space_group_name_H-M "P -1"
_symmetry_group_IT_number 2
_symmetry_cell_setting 'triclinic'
loop_
_space_group_symop_operation_xyz
x,y,z
-x,-y,-z
loop_
_atom_site_type_symbol
_atom_site_label
_atom_site_fract_x
_atom_site_fract_y
_atom_site_fract_z
Si Si1 0.840803 0.063331 0.098201
Si Si2 0.360954 0.133386 0.022135
Si Si3 0.750736 0.159240 0.603436
Si Si4 0.823433 0.494321 0.562664
Si Si5 0.831635 0.642080 0.003474
Si Si6 0.516404 0.348824 0.966932
Si Si7 0.209120 0.281355 0.498407
Si Si8 0.785467 0.087738 0.436608
O O1 0.842933 0.882297 0.248640
O O2 0.830465 0.278833 0.796417
O O3 0.663105 0.165658 0.081393
O O4 0.043737 0.907666 0.321467
O O5 0.255818 0.036439 0.111885
O O6 0.561576 0.910233 0.314299
O O7 0.361334 0.280906 0.747433
O O8 0.234347 0.305028 0.926590
O O9 0.580096 0.404144 0.373455
O O10 0.724162 0.165061 0.472534
O O11 0.811837 0.538576 0.637493
O O12 0.000000 0.500000 0.500000
O O13 0.670544 0.629198 0.996483
O O14 0.059860 0.425971 0.244015
O O15 0.795074 0.867199 0.686198
O O16 0.644937 0.284655 0.130808
O O17 0.000000 0.000000 0.500000
#
# Coordination Sequence:
#
# PCOD9060417 Si02
#       8
#     2   2   2   2   2   2   2   2
#     4  12  25  45  71 101 138 179 230 279 332 408
#     4  11  24  45  68  97 136 180 224 279 342 397
#     4  11  23  43  70  97 134 182 223 278 343 398
#     4  12  24  45  69 101 142 176 224 287 337 398
#     4  11  24  45  67  95 138 175 220 283 334 400
#     4  12  24  45  66  99 136 175 227 279 337 401
#     4  12  25  45  71 100 135 183 230 274 342 401
#     4  11  24  42  70 100 134 175 225 279 339 405
#
# _framework density 24.939596000000002
#
# number of rings (size 3 to 8) (size 9 to 14) (size 15 to 20)
#    0.000    0.500    6.250    2.625    1.750    1.000 
#    2.250    1.250    0.000    0.000    0.000    0.000 
#    0.000    0.000    0.000    0.000    0.000    0.000 
#
# Total GULP energy -89434.981726 kJ/mol
# GULP energy per Si atom -5589.686358 kJ/mol
# Density = 2.488283 g / cm^3
# Si number density = 24.939596 Si / 1000 Ang^3
#
#
#
# Elastic Constant Matrix: (Units=GPa)
#
#
# Indices 1 2 3 4 5 6 
#
# 1 83.3008 3.5176 12.0709 -18.1651 -3.4029 -21.4293
# 2 3.5176 29.1706 5.7330 -3.2230 9.2846 -8.0447
# 3 12.0709 5.7330 80.0852 -15.6741 8.7094 -9.0281
# 4 -18.1651 -3.2230 -15.6741 22.8440 -7.0886 -1.8807
# 5 -3.4029 9.2846 8.7094 -7.0886 58.2970 -11.2742
# 6 -21.4293 -8.0447 -9.0281 -1.8807 -11.2742 24.5151
#
#
#
# Elastic Compliance Matrix: (Units=1/GPa)
#
#
# Indices 1 2 3 4 5 6 
#
# 1 0.027461 0.005539 0.004464 0.031855 0.010660 0.034812
# 2 0.005539 0.040296 0.000840 0.011852 -0.001152 0.018753
# 3 0.004464 0.000840 0.016126 0.016400 0.002098 0.012340
# 4 0.031855 0.011852 0.016400 0.092385 0.019133 0.053661
# 5 0.010660 -0.001152 0.002098 0.019133 0.024295 0.022354
# 6 0.034812 0.018753 0.012340 0.053661 0.022354 0.096317
#
#
# Mechanical properties :
#
#
# Convention : Reuss Voigt Hill
#
# Bulk Modulus (GPa) = 9.47252 26.13330 17.80291
# Shear Modulus (GPa) = 16.10895 32.54690 24.32793
#
# Velocity S-wave (km/s) = 2.54425 3.61644 3.12665
# Velocity P-wave (km/s) = 3.52667 5.28579 4.49316
#
# Compressibility (1/GPa) = 0.10556849
#
# Stress axis : x y z
#
# Youngs Moduli (GPa) = 36.41468 24.81628 62.01003
#
# Poissons Ratio (x) = -0.13745 -0.27682
# Poissons Ratio (y) = -0.20168 -0.05206
# Poissons Ratio (z) = -0.16256 -0.02084
#
# Static dielectric constant tensor:
#      x y z
#    x 2.001430 0.001330 -0.033200 
#    y 0.001330 1.967240 -0.022600 
#    z -0.033200 -0.022600 1.980760 
# 
# From -- ./inp_files/187040.got.cif
#   From: 2010.05.17/outbox.cif.g08.bks.cpg/sg2_94_cif.got.tgz:187040.got - 2010.06.03 11:33:40.
