data_PCOD9060332
_publ_section_title
;
Structure prediction by ZEFSAII (Michael W. Deem and Ramdas Pophale) SiO2 
 PCOD9060332
Probable space group: P -1
;
_chemical_formula_sum "Si O2"
_cell_formula_units_Z 16
_cell_length_a 8.743153
_cell_length_b 11.879094
_cell_length_c 18.808851
_cell_angle_alpha 150.104664
_cell_angle_beta 127.025770
_cell_angle_gamma 52.132374
_cell_volume 756.369607
_symmetry_space_group_name_H-M "P -1"
_symmetry_group_IT_number 2
_symmetry_cell_setting 'triclinic'
loop_
_space_group_symop_operation_xyz
x,y,z
-x,-y,-z
loop_
_atom_site_type_symbol
_atom_site_label
_atom_site_fract_x
_atom_site_fract_y
_atom_site_fract_z
Si Si1 0.264034 0.567637 0.696489
Si Si2 0.917796 0.959450 0.770534
Si Si3 0.231804 0.755365 0.531848
Si Si4 0.344824 0.210423 0.282208
Si Si5 0.552812 0.086719 0.985144
Si Si6 0.689427 0.323346 0.649461
Si Si7 0.132296 0.359152 0.021582
Si Si8 0.815255 0.919605 0.564472
O O1 0.467439 0.476838 0.660649
O O2 0.211677 0.340865 0.590035
O O3 0.091372 0.723492 0.686677
O O4 0.310836 0.735826 0.863251
O O5 0.780130 0.923491 0.777024
O O6 0.796205 0.988724 0.679458
O O7 0.023391 0.172095 0.921942
O O8 0.255579 0.485719 0.412346
O O9 0.431068 0.826822 0.649039
O O10 0.216822 0.759867 0.444989
O O11 0.039855 0.909725 0.598965
O O12 0.350563 0.115943 0.151912
O O13 0.340958 0.224778 0.973211
O O14 0.500000 0.000000 0.000000
O O15 0.810395 0.474874 0.811304
O O16 0.680569 0.104429 0.576667
O O17 0.000000 0.500000 0.000000
#
# Coordination Sequence:
#
# PCOD9060332 Si02
#       8
#     2   2   2   2   2   2   2   2
#     4  11  24  40  68 100 130 171 223 271 330 388
#     4  12  24  42  70  99 135 174 224 277 327 394
#     4  11  25  41  67  98 135 176 225 270 331 394
#     4  11  25  42  67 103 132 170 227 280 326 387
#     4  11  23  43  69  96 131 175 218 275 331 394
#     4  11  25  43  69  97 136 176 220 271 333 396
#     4  11  23  44  70  96 131 178 218 267 340 399
#     4  12  24  44  68  96 138 176 220 273 334 394
#
# _framework density 21.153680000000001
#
# number of rings (size 3 to 8) (size 9 to 14) (size 15 to 20)
#    0.000    0.750    3.750    4.125    3.500    1.500 
#    0.000    0.625    0.000    0.000    0.000    0.000 
#    0.000    0.000    0.000    0.000    0.000    0.000 
#
# Total GULP energy -89558.432361 kJ/mol
# GULP energy per Si atom -5597.402023 kJ/mol
# Density = 2.110553 g / cm^3
# Si number density = 21.153680 Si / 1000 Ang^3
#
#
#
# Elastic Constant Matrix: (Units=GPa)
#
#
# Indices 1 2 3 4 5 6 
#
# 1 80.5062 12.9054 21.9345 -2.8286 0.7585 20.6299
# 2 12.9054 65.5871 -8.0042 4.8346 -1.0824 14.3272
# 3 21.9345 -8.0042 88.3632 4.9848 16.1643 22.8229
# 4 -2.8286 4.8346 4.9848 27.6376 9.3079 2.6996
# 5 0.7585 -1.0824 16.1643 9.3079 41.9558 5.7411
# 6 20.6299 14.3272 22.8229 2.6996 5.7411 34.8176
#
#
#
# Elastic Compliance Matrix: (Units=1/GPa)
#
#
# Indices 1 2 3 4 5 6 
#
# 1 0.015296 -0.001974 -0.002507 0.002711 0.000992 -0.006981
# 2 -0.001974 0.018525 0.004638 -0.003640 0.000813 -0.009345
# 3 -0.002507 0.004638 0.015789 -0.001523 -0.004218 -0.009960
# 4 0.002711 -0.003640 -0.001523 0.040275 -0.008375 -0.000852
# 5 0.000992 0.000813 -0.004218 -0.008375 0.027602 -0.002060
# 6 -0.006981 -0.009345 -0.009960 -0.000852 -0.002060 0.043637
#
#
# Mechanical properties :
#
#
# Convention : Reuss Voigt Hill
#
# Bulk Modulus (GPa) = 20.03040 32.01422 26.02231
# Shear Modulus (GPa) = 28.17682 34.72361 31.45021
#
# Velocity S-wave (km/s) = 3.65362 4.05593 3.86002
# Velocity P-wave (km/s) = 5.22381 6.09106 5.67403
#
# Compressibility (1/GPa) = 0.04992413
#
# Stress axis : x y z
#
# Youngs Moduli (GPa) = 65.37779 53.98228 63.33436
#
# Poissons Ratio (x) = 0.10657 0.15878
# Poissons Ratio (y) = 0.12906 -0.29377
# Poissons Ratio (z) = 0.16390 -0.25039
#
# Static dielectric constant tensor:
#      x y z
#    x 1.743700 -0.018360 0.020960 
#    y -0.018360 1.778810 0.004020 
#    z 0.020960 0.004020 1.766050 
# 
# From -- ./inp_files/223865.got.cif
#   From: 2010.05.17/outbox.cif.g08.bks.cpg/sg2_112_cif.got.tgz:223865.got - 2010.06.03 11:33:40.
