data_PCOD9060533
_publ_section_title
;
Structure prediction by ZEFSAII (Michael W. Deem and Ramdas Pophale) SiO2 
 PCOD9060533
Probable space group: P -1
;
_chemical_formula_sum "Si O2"
_cell_formula_units_Z 12
_cell_length_a 9.210708
_cell_length_b 7.574014
_cell_length_c 16.267640
_cell_angle_alpha 120.184508
_cell_angle_beta 39.751610
_cell_angle_gamma 90.283607
_cell_volume 453.829299
_symmetry_space_group_name_H-M "P -1"
_symmetry_group_IT_number 2
_symmetry_cell_setting 'triclinic'
loop_
_space_group_symop_operation_xyz
x,y,z
-x,-y,-z
loop_
_atom_site_type_symbol
_atom_site_label
_atom_site_fract_x
_atom_site_fract_y
_atom_site_fract_z
Si Si1 0.372243 0.627476 0.995937
Si Si2 0.611847 0.663535 0.510188
Si Si3 0.159816 0.363738 0.764364
Si Si4 0.659015 0.034193 0.134444
Si Si5 0.877184 0.807222 0.710911
Si Si6 0.457866 0.577468 0.292892
O O1 0.050647 0.701423 0.141882
O O2 0.500000 0.500000 0.000000
O O3 0.604477 0.407456 0.772482
O O4 0.301906 0.910110 0.092979
O O5 0.500000 0.500000 0.500000
O O6 0.641521 0.764915 0.436242
O O7 0.948373 0.442944 0.357964
O O8 0.401157 0.895291 0.726362
O O9 0.366615 0.324683 0.738648
O O10 0.913964 0.702603 0.931440
O O11 0.651734 0.844737 0.751529
O O12 0.694132 0.242202 0.133073
O O13 0.159027 0.735480 0.518580
#
# Coordination Sequence:
#
# PCOD9060533 Si02
#       6
#     2   2   2   2   2   2
#     4  12  28  44  65  99 138 181 221 262 334 401
#     4  11  23  43  72 105 126 167 229 276 332 385
#     4  12  25  44  68 101 134 175 219 276 329 395
#     4  11  24  42  73  99 133 170 222 282 328 383
#     4  11  25  45  69  99 135 175 219 277 328 392
#     4  11  25  44  68  97 133 174 225 275 329 384
#
# _framework density 26.441658
#
# number of rings (size 3 to 8) (size 9 to 14) (size 15 to 20)
#    0.000    0.667    5.000    4.000    7.000    4.000 
#    0.000    0.000    0.000    0.000    0.000    0.000 
#    0.000    0.000    0.000    0.000    0.000    0.000 
#
# Total GULP energy -67377.711530 kJ/mol
# GULP energy per Si atom -5614.809294 kJ/mol
# Density = 2.638148 g / cm^3
# Si number density = 26.441658 Si / 1000 Ang^3
#
#
#
# Elastic Constant Matrix: (Units=GPa)
#
#
# Indices 1 2 3 4 5 6 
#
# 1 161.2549 32.4703 48.7759 -11.7202 27.1601 12.5212
# 2 32.4703 82.3243 3.8700 -3.0095 15.7152 9.2181
# 3 48.7759 3.8700 100.8037 -5.6510 32.5133 -2.8494
# 4 -11.7202 -3.0095 -5.6510 42.1701 -8.9343 10.7201
# 5 27.1601 15.7152 32.5133 -8.9343 53.5535 -8.1799
# 6 12.5212 9.2181 -2.8494 10.7201 -8.1799 55.0007
#
#
#
# Elastic Compliance Matrix: (Units=1/GPa)
#
#
# Indices 1 2 3 4 5 6 
#
# 1 0.008293 -0.002521 -0.003416 0.001935 -0.001410 -0.002229
# 2 -0.002521 0.014174 0.002059 0.000255 -0.004456 -0.002407
# 3 -0.003416 0.002059 0.013835 -0.000545 -0.007337 0.000164
# 4 0.001935 0.000255 -0.000545 0.026115 0.002840 -0.005179
# 5 -0.001410 -0.004456 -0.007337 0.002840 0.026241 0.004037
# 6 -0.002229 -0.002407 0.000164 -0.005179 0.004037 0.020711
#
#
# Mechanical properties :
#
#
# Convention : Reuss Voigt Hill
#
# Bulk Modulus (GPa) = 35.02997 57.17948 46.10472
# Shear Modulus (GPa) = 39.48216 47.42933 43.45574
#
# Velocity S-wave (km/s) = 3.86836 4.23985 4.05836
# Velocity P-wave (km/s) = 5.76447 6.75575 6.27970
#
# Compressibility (1/GPa) = 0.02854699
#
# Stress axis : x y z
#
# Youngs Moduli (GPa) = 120.57644 70.55101 72.28245
#
# Poissons Ratio (x) = 0.17786 0.24691
# Poissons Ratio (y) = 0.30397 -0.14884
# Poissons Ratio (z) = 0.41187 -0.14528
#
# Static dielectric constant tensor:
#      x y z
#    x 2.028670 -0.019380 -0.048980 
#    y -0.019380 2.052950 0.028800 
#    z -0.048980 0.028800 2.061400 
# 
# From -- ./inp_files/284066.got.cif
#   From: 2010.05.17/outbox.cif.g08.bks.cpg/sg2_143_cif.got.tgz:284066.got - 2010.06.03 11:33:40.
