data_PCOD9060529
_publ_section_title
;
Structure prediction by ZEFSAII (Michael W. Deem and Ramdas Pophale) SiO2 
 PCOD9060529
Probable space group: P -1
;
_chemical_formula_sum "Si O2"
_cell_formula_units_Z 16
_cell_length_a 10.052153
_cell_length_b 17.676019
_cell_length_c 11.405366
_cell_angle_alpha 31.068262
_cell_angle_beta 54.147415
_cell_angle_gamma 41.516090
_cell_volume 683.955058
_symmetry_space_group_name_H-M "P -1"
_symmetry_group_IT_number 2
_symmetry_cell_setting 'triclinic'
loop_
_space_group_symop_operation_xyz
x,y,z
-x,-y,-z
loop_
_atom_site_type_symbol
_atom_site_label
_atom_site_fract_x
_atom_site_fract_y
_atom_site_fract_z
Si Si1 0.081591 0.898962 0.471330
Si Si2 0.280757 0.032341 0.064530
Si Si3 0.265948 0.983543 0.673878
Si Si4 0.319006 0.813819 0.122776
Si Si5 0.357407 0.250608 0.356256
Si Si6 0.744880 0.467628 0.418684
Si Si7 0.028712 0.544702 0.295656
Si Si8 0.830817 0.466227 0.113367
O O1 0.094708 0.721564 0.730552
O O2 0.273299 0.895306 0.336758
O O3 0.000000 0.000000 0.500000
O O4 0.934659 0.981339 0.323973
O O5 0.247319 0.986958 0.010378
O O6 0.089645 0.236645 0.930821
O O7 0.500000 0.000000 0.000000
O O8 0.410234 0.917731 0.569546
O O9 0.239351 0.163267 0.497686
O O10 0.338373 0.859921 0.918068
O O11 0.519553 0.652846 0.304468
O O12 0.204118 0.717643 0.307221
O O13 0.257668 0.386066 0.339741
O O14 0.328485 0.381006 0.094033
O O15 0.895944 0.512284 0.323141
O O16 0.750675 0.455080 0.293085
O O17 0.000000 0.500000 0.500000
O O18 0.000000 0.500000 0.000000
#
# Coordination Sequence:
#
# PCOD9060529 Si02
#       8
#     2   2   2   2   2   2   2   2
#     4  12  28  46  71 111 150 195 243 303 377 444
#     4  12  27  48  72 107 150 195 244 306 376 439
#     4  11  25  46  76 109 144 190 252 308 360 442
#     4  11  24  45  74 105 142 190 252 303 362 444
#     4  11  24  45  75 110 141 192 246 304 367 437
#     4  11  23  43  72 104 141 191 244 299 363 434
#     4  12  26  44  68 108 150 193 236 304 372 436
#     4  12  21  44  75 103 141 187 245 296 364 434
#
# _framework density 23.393350999999999
#
# number of rings (size 3 to 8) (size 9 to 14) (size 15 to 20)
#    0.000    0.500    6.250    1.500    1.750    3.500 
#    0.000    2.500    0.000    0.000    0.000    0.000 
#    0.000    0.000    0.000    0.000    0.000    0.000 
#
# Total GULP energy -89211.496380 kJ/mol
# GULP energy per Si atom -5575.718524 kJ/mol
# Density = 2.334011 g / cm^3
# Si number density = 23.393351 Si / 1000 Ang^3
#
#
#
# Elastic Constant Matrix: (Units=GPa)
#
#
# Indices 1 2 3 4 5 6 
#
# 1 36.5724 10.6933 30.7448 -7.4135 -13.2955 -1.3081
# 2 10.6933 152.2581 55.4826 -7.6294 -14.4148 17.4386
# 3 30.7448 55.4826 118.5348 -4.5721 -16.2969 20.2813
# 4 -7.4135 -7.6294 -4.5721 45.2830 10.4075 -7.9523
# 5 -13.2955 -14.4148 -16.2969 10.4075 37.7683 4.4022
# 6 -1.3081 17.4386 20.2813 -7.9523 4.4022 31.4934
#
#
#
# Elastic Compliance Matrix: (Units=1/GPa)
#
#
# Indices 1 2 3 4 5 6 
#
# 1 0.040671 0.001278 -0.011416 0.005567 0.007330 0.008714
# 2 0.001278 0.008256 -0.003421 0.000261 0.002353 -0.002578
# 3 -0.011416 -0.003421 0.014921 -0.003321 0.003132 -0.009465
# 4 0.005567 0.000261 -0.003321 0.026231 -0.007760 0.009933
# 5 0.007330 0.002353 0.003132 -0.007760 0.034589 -0.009810
# 6 0.008714 -0.002578 -0.009465 0.009933 -0.009810 0.043517
#
#
# Mechanical properties :
#
#
# Convention : Reuss Voigt Hill
#
# Bulk Modulus (GPa) = 27.22575 55.68961 41.45768
# Shear Modulus (GPa) = 24.09123 36.93859 30.51491
#
# Velocity S-wave (km/s) = 3.21258 3.97800 3.61560
# Velocity P-wave (km/s) = 5.04226 6.70498 5.93216
#
# Compressibility (1/GPa) = 0.03672994
#
# Stress axis : x y z
#
# Youngs Moduli (GPa) = 24.58772 121.12639 67.02162
#
# Poissons Ratio (x) = -0.15484 0.76511
# Poissons Ratio (y) = -0.03143 0.22929
# Poissons Ratio (z) = 0.28069 0.41439
#
# Static dielectric constant tensor:
#      x y z
#    x 1.879990 -0.090910 -0.025100 
#    y -0.090910 2.065470 -0.102340 
#    z -0.025100 -0.102340 1.879580 
# 
# From -- ./inp_files/436332.got.cif
#   From: 2010.05.17/outbox.cif.g08.bks.cpg/sg2_219_cif.got.tgz:436332.got - 2010.06.03 11:33:40.
