data_PCOD9060325
_publ_section_title
;
Structure prediction by ZEFSAII (Michael W. Deem and Ramdas Pophale) SiO2 
 PCOD9060325
Probable space group: P -1
;
_chemical_formula_sum "Si O2"
_cell_formula_units_Z 16
_cell_length_a 5.836142
_cell_length_b 13.994246
_cell_length_c 11.411835
_cell_angle_alpha 83.473285
_cell_angle_beta 76.257024
_cell_angle_gamma 126.658873
_cell_volume 686.123188
_symmetry_space_group_name_H-M "P -1"
_symmetry_group_IT_number 2
_symmetry_cell_setting 'triclinic'
loop_
_space_group_symop_operation_xyz
x,y,z
-x,-y,-z
loop_
_atom_site_type_symbol
_atom_site_label
_atom_site_fract_x
_atom_site_fract_y
_atom_site_fract_z
Si Si1 0.166683 0.568085 0.592066
Si Si2 0.746468 0.181658 0.431062
Si Si3 0.171686 0.511319 0.858821
Si Si4 0.826896 0.738697 0.427556
Si Si5 0.098004 0.745060 0.163336
Si Si6 0.191759 0.149708 0.947970
Si Si7 0.822822 0.778908 0.802838
Si Si8 0.896881 0.973378 0.382943
O O1 0.234635 0.699263 0.574566
O O2 0.045304 0.511620 0.745182
O O3 0.499339 0.610576 0.520624
O O4 0.000000 0.500000 0.500000
O O5 0.440471 0.069783 0.553766
O O6 0.011084 0.208792 0.475451
O O7 0.857963 0.186313 0.285879
O O8 0.523426 0.642921 0.810515
O O9 0.114468 0.382746 0.870040
O O10 0.000000 0.500000 0.000000
O O11 0.839052 0.851023 0.361378
O O12 0.992466 0.716809 0.315673
O O13 0.451302 0.796464 0.117059
O O14 0.000366 0.825837 0.115852
O O15 0.199983 0.212447 0.058311
O O16 0.000000 0.000000 0.000000
O O17 0.862482 0.898520 0.733575
O O18 0.000000 0.000000 0.500000
#
# Coordination Sequence:
#
# PCOD9060325 Si02
#       8
#     2   2   2   2   2   2   2   2
#     4  11  26  45  75 110 154 202 265 324 395 476
#     4  11  24  42  73 110 143 192 256 330 393 466
#     4  12  27  51  74 111 160 213 263 323 396 476
#     4  11  25  45  74 108 149 197 257 331 400 460
#     4  12  30  50  80 112 160 206 266 327 394 471
#     4  12  30  54  79 116 154 213 265 327 394 478
#     4  12  25  46  76 107 152 203 258 319 398 476
#     4  11  23  43  69 111 148 187 254 329 398 465
#
# _framework density 23.319427999999998
#
# number of rings (size 3 to 8) (size 9 to 14) (size 15 to 20)
#    0.000    0.500    3.750    3.000   10.500    2.500 
#    0.000    0.000    0.000    0.000    0.000    0.000 
#    0.000    0.000    0.000    0.000    0.000    0.000 
#
# Total GULP energy -89186.273570 kJ/mol
# GULP energy per Si atom -5574.142098 kJ/mol
# Density = 2.326635 g / cm^3
# Si number density = 23.319428 Si / 1000 Ang^3
#
#
#
# Elastic Constant Matrix: (Units=GPa)
#
#
# Indices 1 2 3 4 5 6 
#
# 1 76.7537 20.8532 36.3678 -11.4548 -8.1461 -0.7730
# 2 20.8532 99.2618 34.2683 -6.4554 -16.7685 -6.8124
# 3 36.3678 34.2683 153.7532 13.8273 -22.0902 0.3061
# 4 -11.4548 -6.4554 13.8273 48.7656 -6.3713 -3.2205
# 5 -8.1461 -16.7685 -22.0902 -6.3713 39.4127 -1.1512
# 6 -0.7730 -6.8124 0.3061 -3.2205 -1.1512 52.2498
#
#
#
# Elastic Compliance Matrix: (Units=1/GPa)
#
#
# Indices 1 2 3 4 5 6 
#
# 1 0.016066 -0.001523 -0.003695 0.004828 0.001393 0.000389
# 2 -0.001523 0.012056 -0.001952 0.002456 0.004170 0.001804
# 3 -0.003695 -0.001952 0.008481 -0.003221 0.002624 -0.000500
# 4 0.004828 0.002456 -0.003221 0.023543 0.004100 0.001952
# 5 0.001393 0.004170 0.002624 0.004100 0.029610 0.001454
# 6 0.000389 0.001804 -0.000500 0.001952 0.001454 0.019535
#
#
# Mechanical properties :
#
#
# Convention : Reuss Voigt Hill
#
# Bulk Modulus (GPa) = 44.92124 56.97192 50.94658
# Shear Modulus (GPa) = 38.15232 43.97091 41.06162
#
# Velocity S-wave (km/s) = 4.04923 4.34705 4.20078
# Velocity P-wave (km/s) = 6.41615 7.04840 6.73969
#
# Compressibility (1/GPa) = 0.02226119
#
# Stress axis : x y z
#
# Youngs Moduli (GPa) = 62.24409 82.94411 117.91455
#
# Poissons Ratio (x) = 0.12636 0.43574
# Poissons Ratio (y) = 0.09482 0.23017
# Poissons Ratio (z) = 0.23001 0.16191
#
# Static dielectric constant tensor:
#      x y z
#    x 2.038180 -0.119110 -0.000290 
#    y -0.119110 1.903550 0.018640 
#    z -0.000290 0.018640 1.892710 
# 
# From -- ./inp_files/367773.got.cif
#   From: 2010.05.17/outbox.cif.g08.bks.cpg/sg2_184_cif.got.tgz:367773.got - 2010.06.03 11:33:40.
