data_PCOD9060826
_publ_section_title
;
Structure prediction by ZEFSAII (Michael W. Deem and Ramdas Pophale) SiO2 
 PCOD9060826
Probable space group: P -1
;
_chemical_formula_sum "Si O2"
_cell_formula_units_Z 14
_cell_length_a 26.316582
_cell_length_b 5.294363
_cell_length_c 14.932711
_cell_angle_alpha 102.648199
_cell_angle_beta 160.926464
_cell_angle_gamma 87.802832
_cell_volume 563.056733
_symmetry_space_group_name_H-M "P -1"
_symmetry_group_IT_number 2
_symmetry_cell_setting 'triclinic'
loop_
_space_group_symop_operation_xyz
x,y,z
-x,-y,-z
loop_
_atom_site_type_symbol
_atom_site_label
_atom_site_fract_x
_atom_site_fract_y
_atom_site_fract_z
Si Si1 0.816203 0.810266 0.737807
Si Si2 0.132282 0.748647 0.998486
Si Si3 0.118196 0.178070 0.528638
Si Si4 0.532306 0.243899 0.497622
Si Si5 0.302476 0.889677 0.913817
Si Si6 0.096678 0.781944 0.309926
Si Si7 0.412068 0.819832 0.748648
O O1 0.652121 0.535292 0.389713
O O2 0.895639 0.675389 0.932033
O O3 0.769334 0.005795 0.739384
O O4 0.000000 0.000000 0.000000
O O5 0.078939 0.880952 0.835334
O O6 0.941772 0.484032 0.705445
O O7 0.257472 0.622090 0.169522
O O8 0.176954 0.088667 0.525593
O O9 0.224752 0.529904 0.763142
O O10 0.152447 0.976665 0.640793
O O11 0.500000 0.500000 0.500000
O O12 0.500000 0.000000 0.500000
O O13 0.400514 0.068341 0.181000
O O14 0.454558 0.019298 0.098739
O O15 0.221341 0.809403 0.436927
O O16 0.500000 0.000000 0.000000
#
# Coordination Sequence:
#
# PCOD9060826 Si02
#       7
#     2   2   2   2   2   2   2
#     4  11  25  39  70 108 156 209 261 299 375 472
#     4  11  25  49  78 106 155 204 259 316 381 465
#     4  11  24  47  76 111 157 205 244 304 389 462
#     4  12  31  54  81 110 143 197 270 333 392 446
#     4  12  27  48  77 113 162 196 254 323 387 443
#     4  11  23  44  68 111 158 209 253 294 377 481
#     4  12  24  41  69 115 160 205 248 304 375 459
#
# _framework density 24.864279
#
# number of rings (size 3 to 8) (size 9 to 14) (size 15 to 20)
#    0.000    0.571    4.286    2.143   12.000    0.571 
#    0.000    4.286    0.000    0.000    0.000    0.000 
#    0.000    0.000    0.000    0.000    0.000    0.000 
#
# Total GULP energy -78308.193229 kJ/mol
# GULP energy per Si atom -5593.442374 kJ/mol
# Density = 2.480769 g / cm^3
# Si number density = 24.864279 Si / 1000 Ang^3
#
#
#
# Elastic Constant Matrix: (Units=GPa)
#
#
# Indices 1 2 3 4 5 6 
#
# 1 98.6384 49.6849 45.1378 0.4434 -29.7408 -20.5653
# 2 49.6849 173.0307 55.9672 5.0367 -20.4243 -29.4223
# 3 45.1378 55.9672 106.5483 8.5228 -32.5023 -21.1736
# 4 0.4434 5.0367 8.5228 57.0686 -10.7993 -7.7939
# 5 -29.7408 -20.4243 -32.5023 -10.7993 44.3955 4.1173
# 6 -20.5653 -29.4223 -21.1736 -7.7939 4.1173 54.1114
#
#
#
# Elastic Compliance Matrix: (Units=1/GPa)
#
#
# Indices 1 2 3 4 5 6 
#
# 1 0.015441 -0.002182 -0.002540 0.002387 0.007742 0.003443
# 2 -0.002182 0.007647 -0.002670 0.000035 -0.000103 0.002297
# 3 -0.002540 -0.002670 0.014729 -0.000137 0.007565 0.002751
# 4 0.002387 0.000035 -0.000137 0.019063 0.005858 0.003173
# 5 0.007742 -0.000103 0.007565 0.005858 0.034248 0.004084
# 6 0.003443 0.002297 0.002751 0.003173 0.004084 0.022260
#
#
# Mechanical properties :
#
#
# Convention : Reuss Voigt Hill
#
# Bulk Modulus (GPa) = 43.41835 75.53301 59.47568
# Shear Modulus (GPa) = 36.80477 46.27691 41.54084
#
# Velocity S-wave (km/s) = 3.85155 4.31882 4.09186
# Velocity P-wave (km/s) = 6.10567 7.43732 6.80415
#
# Compressibility (1/GPa) = 0.02303174
#
# Stress axis : x y z
#
# Youngs Moduli (GPa) = 64.76250 130.77098 67.89129
#
# Poissons Ratio (x) = 0.28540 0.17246
# Poissons Ratio (y) = 0.14134 0.18128
# Poissons Ratio (z) = 0.16451 0.34917
#
# Static dielectric constant tensor:
#      x y z
#    x 1.963340 0.078050 -0.005140 
#    y 0.078050 2.109930 -0.074330 
#    z -0.005140 -0.074330 2.076250 
# 
# From -- ./inp_files/543618.got.cif
#   From: 2010.05.17/outbox.cif.g08.bks.cpg/sg2_272_cif.got.tgz:543618.got - 2010.06.03 11:33:40.
