data_PCOD9060928
_publ_section_title
;
Structure prediction by ZEFSAII (Michael W. Deem and Ramdas Pophale) SiO2 
 PCOD9060928
Probable space group: P -1
;
_chemical_formula_sum "Si O2"
_cell_formula_units_Z 14
_cell_length_a 6.924814
_cell_length_b 5.754939
_cell_length_c 16.034877
_cell_angle_alpha 107.566360
_cell_angle_beta 61.523328
_cell_angle_gamma 76.205188
_cell_volume 476.526024
_symmetry_space_group_name_H-M "P -1"
_symmetry_group_IT_number 2
_symmetry_cell_setting 'triclinic'
loop_
_space_group_symop_operation_xyz
x,y,z
-x,-y,-z
loop_
_atom_site_type_symbol
_atom_site_label
_atom_site_fract_x
_atom_site_fract_y
_atom_site_fract_z
Si Si1 0.647771 0.152275 0.585739
Si Si2 0.385626 0.255299 0.875432
Si Si3 0.770935 0.647952 0.623413
Si Si4 0.775418 0.627613 0.890043
Si Si5 0.280954 0.806071 0.898733
Si Si6 0.064415 0.128660 0.242371
Si Si7 0.163187 0.132065 0.649254
O O1 0.650648 0.440431 0.631692
O O2 0.384871 0.208928 0.607732
O O3 0.661168 0.954714 0.638966
O O4 0.851211 0.971384 0.453238
O O5 0.308446 0.500383 0.852943
O O6 0.337717 0.992267 0.840331
O O7 0.674304 0.134492 0.820881
O O8 0.252989 0.381030 0.005761
O O9 0.888684 0.651565 0.688848
O O10 0.000000 0.500000 0.500000
O O11 0.502321 0.750860 0.916079
O O12 0.903641 0.814558 0.853069
O O13 0.963722 0.348946 0.777016
O O14 0.000000 0.000000 0.000000
O O15 0.821018 0.128973 0.328997
#
# Coordination Sequence:
#
# PCOD9060928 Si02
#       7
#     2   2   2   2   2   2   2
#     4  11  28  47  73 110 145 191 242 320 351 448
#     4  11  25  47  72 101 147 195 242 298 365 436
#     4  12  25  47  74 106 150 188 243 300 391 425
#     4  11  25  46  73 103 147 198 247 298 368 438
#     4  11  23  44  70 102 141 188 238 304 361 427
#     4  11  24  43  78 105 145 198 245 299 370 450
#     4  11  25  46  76 104 145 191 258 294 370 428
#
# _framework density 29.379297000000001
#
# number of rings (size 3 to 8) (size 9 to 14) (size 15 to 20)
#    0.000    0.857    2.857    3.857    6.000    1.143 
#   12.857    0.000    0.000    0.000    0.000    0.000 
#    0.000    0.000    0.000    0.000    0.000    0.000 
#
# Total GULP energy -78268.487457 kJ/mol
# GULP energy per Si atom -5590.606247 kJ/mol
# Density = 2.931243 g / cm^3
# Si number density = 29.379297 Si / 1000 Ang^3
#
#
#
# Elastic Constant Matrix: (Units=GPa)
#
#
# Indices 1 2 3 4 5 6 
#
# 1 109.0093 79.6313 46.0624 -19.1863 10.8492 32.9309
# 2 79.6313 230.7944 49.4381 -6.0300 -0.6860 45.0659
# 3 46.0624 49.4381 165.5434 -8.3610 19.9916 17.4291
# 4 -19.1863 -6.0300 -8.3610 54.7278 7.3456 -12.4357
# 5 10.8492 -0.6860 19.9916 7.3456 56.6052 -11.6298
# 6 32.9309 45.0659 17.4291 -12.4357 -11.6298 64.9600
#
#
#
# Elastic Compliance Matrix: (Units=1/GPa)
#
#
# Indices 1 2 3 4 5 6 
#
# 1 0.015271 -0.003894 -0.001967 0.004126 -0.003716 -0.004388
# 2 -0.003894 0.006241 -0.000704 -0.001412 0.000782 -0.002297
# 3 -0.001967 -0.000704 0.007194 0.000476 -0.002395 -0.000782
# 4 0.004126 -0.001412 0.000476 0.020548 -0.003207 0.002120
# 5 -0.003716 0.000782 -0.002395 -0.003207 0.020692 0.005075
# 6 -0.004388 -0.002297 -0.000782 0.002120 0.005075 0.020736
#
#
# Mechanical properties :
#
#
# Convention : Reuss Voigt Hill
#
# Bulk Modulus (GPa) = 64.20455 95.06786 79.63621
# Shear Modulus (GPa) = 45.86943 57.27295 51.57119
#
# Velocity S-wave (km/s) = 3.95560 4.42003 4.19424
# Velocity P-wave (km/s) = 6.53938 7.64708 7.11482
#
# Compressibility (1/GPa) = 0.01557522
#
# Stress axis : x y z
#
# Youngs Moduli (GPa) = 65.48434 160.22349 139.00640
#
# Poissons Ratio (x) = 0.62392 0.27343
# Poissons Ratio (y) = 0.25500 0.09790
# Poissons Ratio (z) = 0.12881 0.11284
#
# Static dielectric constant tensor:
#      x y z
#    x 2.344840 0.030960 0.025830 
#    y 0.030960 2.557670 0.046700 
#    z 0.025830 0.046700 2.408270 
# 
# From -- ./inp_files/552041.got.cif
#   From: 2010.05.17/outbox.cif.g08.bks.cpg/sg2_277_cif.got.tgz:552041.got - 2010.06.03 11:33:40.
