data_PCOD9060385
_publ_section_title
;
Structure prediction by ZEFSAII (Michael W. Deem and Ramdas Pophale) SiO2 
 PCOD9060385
Probable space group: P -1
;
_chemical_formula_sum "Si O2"
_cell_formula_units_Z 16
_cell_length_a 11.725223
_cell_length_b 12.259792
_cell_length_c 14.764766
_cell_angle_alpha 19.951811
_cell_angle_beta 78.608297
_cell_angle_gamma 79.047934
_cell_volume 709.904874
_symmetry_space_group_name_H-M "P -1"
_symmetry_group_IT_number 2
_symmetry_cell_setting 'triclinic'
loop_
_space_group_symop_operation_xyz
x,y,z
-x,-y,-z
loop_
_atom_site_type_symbol
_atom_site_label
_atom_site_fract_x
_atom_site_fract_y
_atom_site_fract_z
Si Si1 0.600899 0.364447 0.654221
Si Si2 0.393943 0.327575 0.848133
Si Si3 0.689237 0.360411 0.048220
Si Si4 0.157151 0.590226 0.688454
Si Si5 0.126318 0.348410 0.086226
Si Si6 0.210736 0.245062 0.574797
Si Si7 0.488960 0.626184 0.778023
Si Si8 0.946706 0.217981 0.917996
O O1 0.500000 0.500000 0.500000
O O2 0.520913 0.297317 0.806425
O O3 0.702372 0.594537 0.491482
O O4 0.646778 0.038270 0.856642
O O5 0.280916 0.508695 0.684320
O O6 0.425374 0.525191 0.776987
O O7 0.599729 0.473204 0.051944
O O8 0.717127 0.987031 0.323301
O O9 0.803543 0.533683 0.928222
O O10 0.616190 0.464671 0.890590
O O11 0.052033 0.391864 0.816948
O O12 0.130217 0.965164 0.387963
O O13 0.168784 0.483728 0.876014
O O14 0.000000 0.500000 0.000000
O O15 0.139325 0.517038 0.319985
O O16 0.124011 0.008587 0.825806
O O17 0.500000 0.000000 0.500000
O O18 0.000000 0.000000 0.000000
#
# Coordination Sequence:
#
# PCOD9060385 Si02
#       8
#     2   2   2   2   2   2   2   2
#     4  11  27  45  75 105 147 191 238 307 364 431
#     4  11  25  45  72 109 144 191 244 298 365 439
#     4  11  25  42  70 105 145 193 231 300 361 433
#     4  12  26  47  75 103 147 189 244 299 360 433
#     4  12  26  46  71 107 143 191 242 297 362 428
#     4  12  28  48  77 107 148 188 249 296 368 435
#     4  11  23  43  70 104 148 186 241 289 364 436
#     4  12  28  50  75 107 142 196 246 306 360 428
#
# _framework density 22.538231
#
# number of rings (size 3 to 8) (size 9 to 14) (size 15 to 20)
#    0.000    0.500    1.250    6.000   10.500    2.000 
#    0.000    0.000    0.000    0.000    0.000    0.000 
#    0.000    0.000    0.000    0.000    0.000    0.000 
#
# Total GULP energy -89415.800182 kJ/mol
# GULP energy per Si atom -5588.487511 kJ/mol
# Density = 2.248693 g / cm^3
# Si number density = 22.538231 Si / 1000 Ang^3
#
#
#
# Elastic Constant Matrix: (Units=GPa)
#
#
# Indices 1 2 3 4 5 6 
#
# 1 171.7583 17.9827 59.6737 -27.9842 3.7865 27.9669
# 2 17.9827 52.4707 29.6285 -23.8846 -5.1469 14.8678
# 3 59.6737 29.6285 140.9256 -26.0066 11.1844 5.1655
# 4 -27.9842 -23.8846 -26.0066 48.1806 -3.2134 -7.9464
# 5 3.7865 -5.1469 11.1844 -3.2134 38.3219 -15.5415
# 6 27.9669 14.8678 5.1655 -7.9464 -15.5415 42.2671
#
#
#
# Elastic Compliance Matrix: (Units=1/GPa)
#
#
# Indices 1 2 3 4 5 6 
#
# 1 0.008090 0.001597 -0.002878 0.002878 -0.001810 -0.005687
# 2 0.001597 0.028788 -0.004535 0.011752 0.003060 -0.007294
# 3 -0.002878 -0.004535 0.009651 0.001421 -0.002319 0.001735
# 4 0.002878 0.011752 0.001421 0.029363 0.003598 0.000632
# 5 -0.001810 0.003060 -0.002319 0.003598 0.033026 0.013225
# 6 -0.005687 -0.007294 0.001735 0.000632 0.013225 0.034757
#
#
# Mechanical properties :
#
#
# Convention : Reuss Voigt Hill
#
# Bulk Modulus (GPa) = 28.65724 64.41382 46.53553
# Shear Modulus (GPa) = 29.95070 42.94524 36.44797
#
# Velocity S-wave (km/s) = 3.64934 4.36987 4.02576
# Velocity P-wave (km/s) = 5.52263 7.35546 6.50393
#
# Compressibility (1/GPa) = 0.03489520
#
# Stress axis : x y z
#
# Youngs Moduli (GPa) = 123.61438 34.73630 103.61899
#
# Poissons Ratio (x) = -0.05546 0.29821
# Poissons Ratio (y) = -0.19736 0.46995
# Poissons Ratio (z) = 0.35576 0.15754
#
# Static dielectric constant tensor:
#      x y z
#    x 1.866780 -0.098180 -0.034750 
#    y -0.098180 2.138340 0.201710 
#    z -0.034750 0.201710 1.898210 
# 
# From -- ./inp_files/124258.got.cif
#   From: 2010.05.17/outbox.cif.g08.bks.cpg/sg2_63_cif.got.tgz:124258.got - 2010.06.03 11:33:40.
