data_PCOD9060155
_publ_section_title
;
Structure prediction by ZEFSAII (Michael W. Deem and Ramdas Pophale) SiO2 
 PCOD9060155
Probable space group: P -1
;
_chemical_formula_sum "Si O2"
_cell_formula_units_Z 12
_cell_length_a 14.685431
_cell_length_b 6.919128
_cell_length_c 8.968800
_cell_angle_alpha 140.881656
_cell_angle_beta 107.359948
_cell_angle_gamma 75.436863
_cell_volume 548.483816
_symmetry_space_group_name_H-M "P -1"
_symmetry_group_IT_number 2
_symmetry_cell_setting 'triclinic'
loop_
_space_group_symop_operation_xyz
x,y,z
-x,-y,-z
loop_
_atom_site_type_symbol
_atom_site_label
_atom_site_fract_x
_atom_site_fract_y
_atom_site_fract_z
Si Si1 0.909088 0.344844 0.787299
Si Si2 0.213578 0.086798 0.335402
Si Si3 0.217070 0.097472 0.006435
Si Si4 0.592745 0.867938 0.051528
Si Si5 0.915348 0.340759 0.444980
Si Si6 0.406592 0.871104 0.454800
O O1 0.870604 0.082408 0.719776
O O2 0.937044 0.273987 0.587544
O O3 0.811442 0.548736 0.829766
O O4 0.000000 0.500000 0.000000
O O5 0.232440 0.980787 0.111685
O O6 0.310689 0.033982 0.439936
O O7 0.175970 0.431949 0.493013
O O8 0.883359 0.037048 0.170481
O O9 0.309691 0.021119 0.909283
O O10 0.589366 0.015544 0.303472
O O11 0.594551 0.495271 0.804426
O O12 0.500000 0.000000 0.000000
O O13 0.000000 0.500000 0.500000
O O14 0.500000 0.000000 0.500000
#
# Coordination Sequence:
#
# PCOD9060155 Si02
#       6
#     2   2   2   2   2   2
#     4  11  23  43  66  96 138 180 235 292 352 422
#     4  11  25  43  68 100 139 182 238 291 353 423
#     4  11  25  43  68  99 140 181 236 293 354 418
#     4  12  27  47  75 106 147 185 236 297 356 425
#     4  11  25  41  66 101 137 187 236 295 353 416
#     4  12  27  47  75 108 143 189 236 292 361 425
#
# _framework density 21.878494
#
# number of rings (size 3 to 8) (size 9 to 14) (size 15 to 20)
#    0.000    0.667    1.667    5.000    7.000    8.000 
#    0.000    0.000    0.000    0.000    0.000    0.000 
#    0.000    0.000    0.000    0.000    0.000    0.000 
#
# Total GULP energy -66973.234264 kJ/mol
# GULP energy per Si atom -5581.102855 kJ/mol
# Density = 2.182870 g / cm^3
# Si number density = 21.878494 Si / 1000 Ang^3
#
#
#
# Elastic Constant Matrix: (Units=GPa)
#
#
# Indices 1 2 3 4 5 6 
#
# 1 142.3403 58.3577 26.3364 -9.0430 4.4417 6.6942
# 2 58.3577 160.6608 59.4367 -24.3309 -2.2502 -6.9194
# 3 26.3364 59.4367 88.3726 -23.4346 2.7541 3.9573
# 4 -9.0430 -24.3309 -23.4346 53.9844 2.2064 -1.2007
# 5 4.4417 -2.2502 2.7541 2.2064 35.9144 -1.1604
# 6 6.6942 -6.9194 3.9573 -1.2007 -1.1604 64.9382
#
#
#
# Elastic Compliance Matrix: (Units=1/GPa)
#
#
# Indices 1 2 3 4 5 6 
#
# 1 0.008415 -0.002976 -0.000441 -0.000100 -0.001225 -0.001181
# 2 -0.002976 0.009576 -0.005270 0.001513 0.001334 0.001700
# 3 -0.000441 -0.005270 0.016361 0.004697 -0.001866 -0.001460
# 4 -0.000100 0.001513 0.004697 0.021297 -0.001553 0.000251
# 5 -0.001225 0.001334 -0.001866 -0.001553 0.028345 0.000860
# 6 -0.001181 0.001700 -0.001460 0.000251 0.000860 0.015811
#
#
# Mechanical properties :
#
#
# Convention : Reuss Voigt Hill
#
# Bulk Modulus (GPa) = 58.90608 75.51504 67.21056
# Shear Modulus (GPa) = 40.70344 47.45026 44.07685
#
# Velocity S-wave (km/s) = 4.31795 4.66210 4.49332
# Velocity P-wave (km/s) = 7.20016 7.97313 7.59648
#
# Compressibility (1/GPa) = 0.01697618
#
# Stress axis : x y z
#
# Youngs Moduli (GPa) = 118.83763 104.42567 61.12193
#
# Poissons Ratio (x) = 0.31082 0.02697
# Poissons Ratio (y) = 0.35372 0.32212
# Poissons Ratio (z) = 0.05243 0.55034
#
# Static dielectric constant tensor:
#      x y z
#    x 1.768370 0.008830 -0.049400 
#    y 0.008830 1.690800 0.034500 
#    z -0.049400 0.034500 1.943170 
# 
# From -- ./inp_files/289348.got.cif
#   From: 2010.05.17/outbox.cif.g08.bks.cpg/sg2_145_cif.got.tgz:289348.got - 2010.06.03 11:33:40.
