data_PCOD9060485
_publ_section_title
;
Structure prediction by ZEFSAII (Michael W. Deem and Ramdas Pophale) SiO2 
 PCOD9060485
Probable space group: P -1
;
_chemical_formula_sum "Si O2"
_cell_formula_units_Z 16
_cell_length_a 7.242712
_cell_length_b 21.221588
_cell_length_c 9.800886
_cell_angle_alpha 40.104747
_cell_angle_beta 57.936326
_cell_angle_gamma 40.306695
_cell_volume 622.752533
_symmetry_space_group_name_H-M "P -1"
_symmetry_group_IT_number 2
_symmetry_cell_setting 'triclinic'
loop_
_space_group_symop_operation_xyz
x,y,z
-x,-y,-z
loop_
_atom_site_type_symbol
_atom_site_label
_atom_site_fract_x
_atom_site_fract_y
_atom_site_fract_z
Si Si1 0.250414 0.365987 0.699052
Si Si2 0.176403 0.997610 0.155922
Si Si3 0.554550 0.574363 0.253014
Si Si4 0.143970 0.171740 0.107644
Si Si5 0.118103 0.777147 0.265639
Si Si6 0.655617 0.757034 0.538688
Si Si7 0.258691 0.965117 0.558119
Si Si8 0.502860 0.593546 0.937559
O O1 0.230794 0.413120 0.782536
O O2 0.586770 0.290574 0.654440
O O3 0.000000 0.500000 0.500000
O O4 0.217158 0.260200 0.891144
O O5 0.220290 0.076908 0.110319
O O6 0.883492 0.024136 0.262815
O O7 0.108026 0.068245 0.920706
O O8 0.442836 0.852516 0.340076
O O9 0.252921 0.719478 0.156435
O O10 0.052555 0.269331 0.550923
O O11 0.617028 0.532948 0.143132
O O12 0.818771 0.274050 0.122373
O O13 0.296482 0.068930 0.343130
O O14 0.500000 0.500000 0.500000
O O15 0.526742 0.828946 0.616562
O O16 0.663685 0.638674 0.735956
O O17 0.000000 0.000000 0.500000
O O18 0.500000 0.500000 0.000000
#
# Coordination Sequence:
#
# PCOD9060485 Si02
#       8
#     2   2   2   2   2   2   2   2
#     4  10  23  40  71  94 143 199 257 302 355 445
#     4  10  17  38  73  96 148 193 244 291 383 461
#     4  10  23  46  70  98 146 201 247 289 374 450
#     4  10  17  39  66 103 127 189 250 286 365 443
#     4  10  22  37  67 104 142 193 247 306 367 444
#     4  10  19  39  65 113 148 192 233 303 388 438
#     4   8  15  32  69  92 138 184 237 286 366 451
#     4  12  23  42  76 111 150 189 247 309 372 450
#
# _framework density 25.692391000000001
#
# number of rings (size 3 to 8) (size 9 to 14) (size 15 to 20)
#    0.750    1.500    5.000    1.125    0.000    1.000 
#    2.250    6.250    0.000    0.000    0.000    0.000 
#    0.000    0.000    0.000    2.000    0.000    0.000 
#
# Total GULP energy -89324.429672 kJ/mol
# GULP energy per Si atom -5582.776855 kJ/mol
# Density = 2.563391 g / cm^3
# Si number density = 25.692391 Si / 1000 Ang^3
#
#
#
# Elastic Constant Matrix: (Units=GPa)
#
#
# Indices 1 2 3 4 5 6 
#
# 1 132.0972 63.0628 84.5761 10.7718 -32.2732 -14.4299
# 2 63.0628 92.4037 29.9605 1.3507 -3.1571 -10.9416
# 3 84.5761 29.9605 193.3209 4.1684 -27.2988 -5.7055
# 4 10.7718 1.3507 4.1684 21.4760 -4.9011 1.4199
# 5 -32.2732 -3.1571 -27.2988 -4.9011 53.9961 1.3690
# 6 -14.4299 -10.9416 -5.7055 1.4199 1.3690 59.8675
#
#
#
# Elastic Compliance Matrix: (Units=1/GPa)
#
#
# Indices 1 2 3 4 5 6 
#
# 1 0.018171 -0.010151 -0.005193 -0.005992 0.007047 0.002011
# 2 -0.010151 0.017301 0.001124 0.002757 -0.004259 0.000854
# 3 -0.005193 0.001124 0.007344 0.001318 0.000805 -0.000396
# 4 -0.005992 0.002757 0.001318 0.049687 0.001808 -0.002035
# 5 0.007047 -0.004259 0.000805 0.001808 0.023043 0.000427
# 6 0.002011 0.000854 -0.000396 -0.002035 0.000427 0.017345
#
#
# Mechanical properties :
#
#
# Convention : Reuss Voigt Hill
#
# Bulk Modulus (GPa) = 69.55960 85.89118 77.72539
# Shear Modulus (GPa) = 30.09846 43.08275 36.59061
#
# Velocity S-wave (km/s) = 3.42642 4.09940 3.77793
# Velocity P-wave (km/s) = 6.54115 7.47730 7.02483
#
# Compressibility (1/GPa) = 0.01437616
#
# Stress axis : x y z
#
# Youngs Moduli (GPa) = 55.03316 57.80113 136.16888
#
# Poissons Ratio (x) = 0.58674 0.70709
# Poissons Ratio (y) = 0.55864 -0.15307
# Poissons Ratio (z) = 0.28577 -0.06498
#
# Static dielectric constant tensor:
#      x y z
#    x 2.079670 -0.002670 0.060500 
#    y -0.002670 2.103880 -0.015090 
#    z 0.060500 -0.015090 2.184600 
# 
# From -- ./inp_files/406887.got.cif
#   From: 2010.05.17/outbox.cif.g08.bks.cpg/sg2_204_cif.got.tgz:406887.got - 2010.06.03 11:33:40.
