data_PCOD9060646
_publ_section_title
;
Structure prediction by ZEFSAII (Michael W. Deem and Ramdas Pophale) SiO2 
 PCOD9060646
Probable space group: P -1
;
_chemical_formula_sum "Si O2"
_cell_formula_units_Z 12
_cell_length_a 9.557698
_cell_length_b 11.501660
_cell_length_c 25.248444
_cell_angle_alpha 21.300379
_cell_angle_beta 35.616990
_cell_angle_gamma 43.688986
_cell_volume 579.393872
_symmetry_space_group_name_H-M "P -1"
_symmetry_group_IT_number 2
_symmetry_cell_setting 'triclinic'
loop_
_space_group_symop_operation_xyz
x,y,z
-x,-y,-z
loop_
_atom_site_type_symbol
_atom_site_label
_atom_site_fract_x
_atom_site_fract_y
_atom_site_fract_z
Si Si1 0.985047 0.081641 0.868658
Si Si2 0.500753 0.925016 0.144507
Si Si3 0.522833 0.135356 0.163152
Si Si4 0.923925 0.173881 0.501671
Si Si5 0.237376 0.357733 0.969547
Si Si6 0.602735 0.720709 0.619201
O O1 0.213756 0.971537 0.001013
O O2 0.083081 0.455878 0.669185
O O3 0.204534 0.889101 0.893352
O O4 0.843303 0.935175 0.922307
O O5 0.410394 0.589779 0.283822
O O6 0.464557 0.912626 0.223424
O O7 0.367123 0.206367 0.042064
O O8 0.332522 0.004303 0.322471
O O9 0.500000 0.500000 0.000000
O O10 0.128923 0.172491 0.484711
O O11 0.000000 0.000000 0.500000
O O12 0.427651 0.610553 0.770176
O O13 0.000000 0.500000 0.000000
O O14 0.500000 0.000000 0.500000
#
# Coordination Sequence:
#
# PCOD9060646 Si02
#       6
#     2   2   2   2   2   2
#     4  11  23  47  67  97 134 182 224 270 342 398
#     4  11  23  47  70  98 136 175 224 282 332 401
#     4  12  28  42  69 104 135 177 228 276 335 401
#     4  12  27  46  68  96 142 178 222 279 338 401
#     4  11  23  43  74  96 136 178 220 278 334 403
#     4  11  26  44  69 103 132 177 227 277 337 388
#
# _framework density 20.711300000000001
#
# number of rings (size 3 to 8) (size 9 to 14) (size 15 to 20)
#    0.000    0.667    3.333    4.000   11.667    2.000 
#    0.000    0.000    0.000    0.000    0.000    0.000 
#    0.000    0.000    0.000    0.000    0.000    0.000 
#
# Total GULP energy -67187.203664 kJ/mol
# GULP energy per Si atom -5598.933639 kJ/mol
# Density = 2.066416 g / cm^3
# Si number density = 20.711300 Si / 1000 Ang^3
#
#
#
# Elastic Constant Matrix: (Units=GPa)
#
#
# Indices 1 2 3 4 5 6 
#
# 1 85.9543 10.8672 6.5313 1.5992 5.2533 -20.4535
# 2 10.8672 95.7390 24.6270 18.7292 -0.0969 -11.1451
# 3 6.5313 24.6270 68.4160 -10.8357 4.8783 -13.6310
# 4 1.5992 18.7292 -10.8357 34.8939 -6.5270 7.4652
# 5 5.2533 -0.0969 4.8783 -6.5270 26.5427 -0.5564
# 6 -20.4535 -11.1451 -13.6310 7.4652 -0.5564 49.7694
#
#
#
# Elastic Compliance Matrix: (Units=1/GPa)
#
#
# Indices 1 2 3 4 5 6 
#
# 1 0.013257 -0.000384 -0.000142 -0.002215 -0.003026 0.005622
# 2 -0.000384 0.014480 -0.006164 -0.010540 -0.001268 0.002963
# 3 -0.000142 -0.006164 0.018753 0.008370 -0.001332 0.002427
# 4 -0.002215 -0.010540 0.008370 0.040096 0.008577 -0.006896
# 5 -0.003026 -0.001268 -0.001332 0.008577 0.040566 -0.002725
# 6 0.005622 0.002963 0.002427 -0.006896 -0.002725 0.024735
#
#
# Mechanical properties :
#
#
# Convention : Reuss Voigt Hill
#
# Bulk Modulus (GPa) = 30.20234 37.12893 33.66564
# Shear Modulus (GPa) = 28.36019 36.11346 32.23682
#
# Velocity S-wave (km/s) = 3.70443 4.18024 3.94951
# Velocity P-wave (km/s) = 5.73684 6.42379 6.09001
#
# Compressibility (1/GPa) = 0.03311002
#
# Stress axis : x y z
#
# Youngs Moduli (GPa) = 75.43031 69.06241 53.32490
#
# Poissons Ratio (x) = 0.02649 0.00760
# Poissons Ratio (y) = 0.02893 0.32869
# Poissons Ratio (z) = 0.01075 0.42569
#
# Static dielectric constant tensor:
#      x y z
#    x 1.725120 0.012980 -0.012910 
#    y 0.012980 1.730140 -0.009670 
#    z -0.012910 -0.009670 1.712700 
# 
# From -- ./inp_files/234984.got.cif
#   From: 2010.05.17/outbox.cif.g08.bks.cpg/sg2_118_cif.got.tgz:234984.got - 2010.06.03 11:33:40.
