data_PCOD9060404
_publ_section_title
;
Structure prediction by ZEFSAII (Michael W. Deem and Ramdas Pophale) SiO2 
 PCOD9060404
Probable space group: P -1
;
_chemical_formula_sum "Si O2"
_cell_formula_units_Z 12
_cell_length_a 8.345083
_cell_length_b 5.136209
_cell_length_c 12.812991
_cell_angle_alpha 119.408953
_cell_angle_beta 107.611681
_cell_angle_gamma 89.882994
_cell_volume 448.840191
_symmetry_space_group_name_H-M "P -1"
_symmetry_group_IT_number 2
_symmetry_cell_setting 'triclinic'
loop_
_space_group_symop_operation_xyz
x,y,z
-x,-y,-z
loop_
_atom_site_type_symbol
_atom_site_label
_atom_site_fract_x
_atom_site_fract_y
_atom_site_fract_z
Si Si1 0.141462 0.026984 0.676134
Si Si2 0.834813 0.620807 0.793004
Si Si3 0.601448 0.975485 0.910032
Si Si4 0.861328 0.528683 0.066982
Si Si5 0.668304 0.498402 0.357621
Si Si6 0.238536 0.062474 0.374187
O O1 0.165225 0.156578 0.825317
O O2 0.258749 0.275454 0.676838
O O3 0.195214 0.701043 0.613889
O O4 0.940196 0.991894 0.607360
O O5 0.801171 0.784260 0.711576
O O6 0.033402 0.601104 0.842651
O O7 0.731692 0.276478 0.706871
O O8 0.000000 0.500000 0.000000
O O9 0.766426 0.809753 0.909601
O O10 0.480668 0.764367 0.764201
O O11 0.684385 0.316652 0.963268
O O12 0.500000 0.000000 0.000000
O O13 0.629129 0.712780 0.486347
#
# Coordination Sequence:
#
# PCOD9060404 Si02
#       6
#     2   2   2   2   2   2
#     4  11  23  43  70 109 144 189 243 297 363 431
#     4  11  26  48  76 105 141 197 246 298 356 437
#     4  12  27  46  73 110 154 187 240 306 371 429
#     4  11  25  47  77 104 149 198 247 291 359 449
#     4  12  26  44  72 110 148 188 234 312 367 422
#     4  11  24  47  76 102 144 192 252 290 361 438
#
# _framework density 26.735571
#
# number of rings (size 3 to 8) (size 9 to 14) (size 15 to 20)
#    0.000    0.667    1.667    6.500    2.333    4.667 
#    0.000    0.000    0.000    0.000    0.000    0.000 
#    0.000    0.000    0.000    0.000    0.000    0.000 
#
# Total GULP energy -67260.698766 kJ/mol
# GULP energy per Si atom -5605.058231 kJ/mol
# Density = 2.667472 g / cm^3
# Si number density = 26.735571 Si / 1000 Ang^3
#
#
#
# Elastic Constant Matrix: (Units=GPa)
#
#
# Indices 1 2 3 4 5 6 
#
# 1 55.6054 11.6852 8.9650 0.3203 -10.4852 5.8697
# 2 11.6852 142.7587 51.7582 8.1331 -13.5739 14.4355
# 3 8.9650 51.7582 142.9495 44.8266 -10.3337 17.5529
# 4 0.3203 8.1331 44.8266 54.8410 -0.0201 -5.5310
# 5 -10.4852 -13.5739 -10.3337 -0.0201 45.0430 5.5909
# 6 5.8697 14.4355 17.5529 -5.5310 5.5909 55.1087
#
#
#
# Elastic Compliance Matrix: (Units=1/GPa)
#
#
# Indices 1 2 3 4 5 6 
#
# 1 0.019276 -0.000814 -0.000352 0.000079 0.004430 -0.002169
# 2 -0.000814 0.008414 -0.003081 0.001154 0.001789 -0.001202
# 3 -0.000352 -0.003081 0.011809 -0.009607 0.002204 -0.004105
# 4 0.000079 0.001154 -0.009607 0.026486 -0.002529 0.005664
# 5 0.004430 0.001789 0.002204 -0.002529 0.024824 -0.004415
# 6 -0.002169 -0.001202 -0.004105 0.005664 -0.004415 0.021016
#
#
# Mechanical properties :
#
#
# Convention : Reuss Voigt Hill
#
# Bulk Modulus (GPa) = 32.25297 54.01451 43.13374
# Shear Modulus (GPa) = 38.26946 48.92554 43.59750
#
# Velocity S-wave (km/s) = 3.78750 4.28247 4.04256
# Velocity P-wave (km/s) = 5.58719 6.68579 6.16103
#
# Compressibility (1/GPa) = 0.03100490
#
# Stress axis : x y z
#
# Youngs Moduli (GPa) = 51.87897 118.84632 84.68253
#
# Poissons Ratio (x) = 0.09674 0.02983
# Poissons Ratio (y) = 0.04223 0.26088
# Poissons Ratio (z) = 0.01828 0.36612
#
# Static dielectric constant tensor:
#      x y z
#    x 2.096920 0.012430 0.051100 
#    y 0.012430 2.153520 -0.068800 
#    z 0.051100 -0.068800 2.155630 
# 
# From -- ./inp_files/83722.got.cif
#   From: 2010.05.17/outbox.cif.g08.bks.cpg/sg2_42_cif.got.tgz:83722.got - 2010.06.03 11:33:40.
