data_PCOD9060941
_publ_section_title
;
Structure prediction by ZEFSAII (Michael W. Deem and Ramdas Pophale) SiO2 
 PCOD9060941
Probable space group: P -1
;
_chemical_formula_sum "Si O2"
_cell_formula_units_Z 14
_cell_length_a 12.491759
_cell_length_b 8.936008
_cell_length_c 14.741834
_cell_angle_alpha 51.051278
_cell_angle_beta 28.150545
_cell_angle_gamma 62.729146
_cell_volume 582.724804
_symmetry_space_group_name_H-M "P -1"
_symmetry_group_IT_number 2
_symmetry_cell_setting 'triclinic'
loop_
_space_group_symop_operation_xyz
x,y,z
-x,-y,-z
loop_
_atom_site_type_symbol
_atom_site_label
_atom_site_fract_x
_atom_site_fract_y
_atom_site_fract_z
Si Si1 0.792401 0.227286 0.053377
Si Si2 0.422029 0.512076 0.767566
Si Si3 0.766743 0.497580 0.279484
Si Si4 0.107493 0.223547 0.488373
Si Si5 0.073425 0.469487 0.594851
Si Si6 0.352960 0.090979 0.004897
Si Si7 0.426997 0.929459 0.347770
O O1 0.029369 0.322176 0.898976
O O2 0.866457 0.324990 0.861714
O O3 0.603740 0.308580 0.219742
O O4 0.648858 0.000505 0.224811
O O5 0.243174 0.490007 0.826647
O O6 0.686430 0.523182 0.534275
O O7 0.351309 0.309795 0.954589
O O8 0.500000 0.500000 0.500000
O O9 0.760558 0.272257 0.402179
O O10 0.146579 0.391438 0.473397
O O11 0.309439 0.115671 0.355342
O O12 0.002474 0.327467 0.444380
O O13 0.904280 0.050362 0.749709
O O14 0.467837 0.105278 0.814543
O O15 0.500000 0.000000 0.000000
#
# Coordination Sequence:
#
# PCOD9060941 Si02
#       7
#     2   2   2   2   2   2   2
#     4  12  26  46  77 105 138 198 239 291 365 424
#     4  12  25  49  71 103 149 185 237 301 362 416
#     4  12  26  50  72 104 149 185 241 307 353 416
#     4  11  25  43  70 108 146 181 239 294 350 433
#     4  11  23  44  70 105 146 183 232 299 353 423
#     4  12  25  43  71 107 145 187 233 295 362 422
#     4  12  27  48  75 109 141 194 243 288 358 434
#
# _framework density 24.025061999999998
#
# number of rings (size 3 to 8) (size 9 to 14) (size 15 to 20)
#    0.000    0.286    7.143    1.286    2.000    2.286 
#    2.571    0.000    0.000    0.000    0.000    0.000 
#    0.000    0.000    0.000    0.000    0.000    0.000 
#
# Total GULP energy -78168.898704 kJ/mol
# GULP energy per Si atom -5583.492765 kJ/mol
# Density = 2.397038 g / cm^3
# Si number density = 24.025062 Si / 1000 Ang^3
#
#
#
# Elastic Constant Matrix: (Units=GPa)
#
#
# Indices 1 2 3 4 5 6 
#
# 1 87.2702 13.8139 9.9104 2.5904 -13.4380 8.2157
# 2 13.8139 73.2414 4.4228 3.7889 -12.0957 0.8809
# 3 9.9104 4.4228 75.8395 5.2410 -22.2365 -4.4737
# 4 2.5904 3.7889 5.2410 28.6064 -1.9091 -4.6373
# 5 -13.4380 -12.0957 -22.2365 -1.9091 37.5476 -3.2886
# 6 8.2157 0.8809 -4.4737 -4.6373 -3.2886 34.2287
#
#
#
# Elastic Compliance Matrix: (Units=1/GPa)
#
#
# Indices 1 2 3 4 5 6 
#
# 1 0.012612 -0.001712 -0.000697 -0.001042 0.003242 -0.002904
# 2 -0.001712 0.014762 0.000841 -0.001588 0.004592 0.000367
# 3 -0.000697 0.000841 0.016447 -0.001914 0.009926 0.002990
# 4 -0.001042 -0.001588 -0.001914 0.036442 0.000273 0.005004
# 5 0.003242 0.004592 0.009926 0.000273 0.035502 0.003849
# 6 -0.002904 0.000367 0.002990 0.005004 0.003849 0.031341
#
#
# Mechanical properties :
#
#
# Convention : Reuss Voigt Hill
#
# Bulk Modulus (GPa) = 24.58002 32.51615 28.54809
# Shear Modulus (GPa) = 30.52414 33.95681 32.24048
#
# Velocity S-wave (km/s) = 3.56829 3.76359 3.66724
# Velocity P-wave (km/s) = 5.21825 5.69647 5.46260
#
# Compressibility (1/GPa) = 0.04068344
#
# Stress axis : x y z
#
# Youngs Moduli (GPa) = 79.28696 67.74255 60.80215
#
# Poissons Ratio (x) = 0.11600 0.04238
# Poissons Ratio (y) = 0.13577 -0.05111
# Poissons Ratio (z) = 0.05526 -0.05695
#
# Static dielectric constant tensor:
#      x y z
#    x 2.025560 -0.004330 -0.040670 
#    y -0.004330 1.927320 -0.000750 
#    z -0.040670 -0.000750 1.918470 
# 
# From -- ./inp_files/224132.got.cif
#   From: 2010.05.17/outbox.cif.g08.bks.cpg/sg2_113_cif.got.tgz:224132.got - 2010.06.03 11:33:40.
