data_PCOD9060469
_publ_section_title
;
Structure prediction by ZEFSAII (Michael W. Deem and Ramdas Pophale) SiO2 
 PCOD9060469
Probable space group: P -1
;
_chemical_formula_sum "Si O2"
_cell_formula_units_Z 12
_cell_length_a 13.390271
_cell_length_b 11.849991
_cell_length_c 5.018470
_cell_angle_alpha 51.252635
_cell_angle_beta 101.374944
_cell_angle_gamma 126.142298
_cell_volume 482.484902
_symmetry_space_group_name_H-M "P -1"
_symmetry_group_IT_number 2
_symmetry_cell_setting 'triclinic'
loop_
_space_group_symop_operation_xyz
x,y,z
-x,-y,-z
loop_
_atom_site_type_symbol
_atom_site_label
_atom_site_fract_x
_atom_site_fract_y
_atom_site_fract_z
Si Si1 0.134659 0.409352 0.196366
Si Si2 0.858285 0.088213 0.672180
Si Si3 0.210814 0.148566 0.495519
Si Si4 0.488592 0.355267 0.509957
Si Si5 0.721233 0.375970 0.533458
Si Si6 0.605472 0.015643 0.712229
O O1 0.170534 0.271146 0.392070
O O2 0.989581 0.286314 0.404330
O O3 0.262941 0.917735 0.459527
O O4 0.161037 0.504048 0.785866
O O5 0.851743 0.946370 0.677779
O O6 0.836800 0.008923 0.075565
O O7 0.366034 0.273168 0.378116
O O8 0.500000 0.500000 0.500000
O O9 0.770545 0.437595 0.765591
O O10 0.452534 0.182606 0.916300
O O11 0.621850 0.421248 0.351482
O O12 0.649328 0.164934 0.743516
O O13 0.500000 0.000000 0.500000
#
# Coordination Sequence:
#
# PCOD9060469 Si02
#       6
#     2   2   2   2   2   2
#     4  12  25  43  72 104 147 187 238 291 356 431
#     4  11  25  45  71 104 141 194 236 291 359 424
#     4  11  23  43  71 104 144 181 243 301 353 411
#     4  11  24  46  75 106 139 186 247 295 354 422
#     4  12  26  44  71 107 149 186 233 295 361 426
#     4  11  26  48  73 105 149 189 237 298 364 424
#
# _framework density 24.871241999999999
#
# number of rings (size 3 to 8) (size 9 to 14) (size 15 to 20)
#    0.000    0.667    1.667    5.500    2.333    7.333 
#    0.000    0.000    0.000    0.000    0.000    0.000 
#    0.000    0.000    0.000    0.000    0.000    0.000 
#
# Total GULP energy -67350.220036 kJ/mol
# GULP energy per Si atom -5612.518336 kJ/mol
# Density = 2.481463 g / cm^3
# Si number density = 24.871242 Si / 1000 Ang^3
#
#
#
# Elastic Constant Matrix: (Units=GPa)
#
#
# Indices 1 2 3 4 5 6 
#
# 1 104.5141 26.6460 28.1221 -17.2778 -6.7022 -1.0705
# 2 26.6460 129.9323 2.1213 -22.9569 -0.0170 -21.4115
# 3 28.1221 2.1213 67.5745 -12.1032 4.2236 -8.3727
# 4 -17.2778 -22.9569 -12.1032 39.2151 -5.4046 1.5602
# 5 -6.7022 -0.0170 4.2236 -5.4046 44.8197 -8.4018
# 6 -1.0705 -21.4115 -8.3727 1.5602 -8.4018 40.7394
#
#
#
# Elastic Compliance Matrix: (Units=1/GPa)
#
#
# Indices 1 2 3 4 5 6 
#
# 1 0.011996 -0.002082 -0.004708 0.002991 0.002339 -0.001379
# 2 -0.002082 0.010007 0.002176 0.005555 0.001224 0.005692
# 3 -0.004708 0.002176 0.018094 0.004465 -0.001054 0.004350
# 4 0.002991 0.005555 0.004465 0.031932 0.004560 0.003633
# 5 0.002339 0.001224 -0.001054 0.004560 0.024310 0.005327
# 6 -0.001379 0.005692 0.004350 0.003633 0.005327 0.029355
#
#
# Mechanical properties :
#
#
# Convention : Reuss Voigt Hill
#
# Bulk Modulus (GPa) = 32.39469 46.19997 39.29733
# Shear Modulus (GPa) = 34.43233 41.29696 37.86465
#
# Velocity S-wave (km/s) = 3.72482 4.07926 3.90606
# Velocity P-wave (km/s) = 5.61714 6.38773 6.01479
#
# Compressibility (1/GPa) = 0.03086926
#
# Stress axis : x y z
#
# Youngs Moduli (GPa) = 83.36121 99.92729 55.26599
#
# Poissons Ratio (x) = 0.20802 0.26021
# Poissons Ratio (y) = 0.17353 -0.12025
# Poissons Ratio (z) = 0.39249 -0.21743
#
# Static dielectric constant tensor:
#      x y z
#    x 1.996040 -0.012230 -0.052770 
#    y -0.012230 1.899810 -0.012540 
#    z -0.052770 -0.012540 1.976510 
# 
# From -- ./inp_files/41767.got.cif
#   From: 2010.05.17/outbox.cif.g08.bks.cpg/sg2_21_cif.got.tgz:41767.got - 2010.06.03 11:33:40.
