data_PCOD9060890
_publ_section_title
;
Structure prediction by ZEFSAII (Michael W. Deem and Ramdas Pophale) SiO2 
 PCOD9060890
Probable space group: P -1
;
_chemical_formula_sum "Si O2"
_cell_formula_units_Z 14
_cell_length_a 9.466257
_cell_length_b 14.904249
_cell_length_c 16.413473
_cell_angle_alpha 26.116397
_cell_angle_beta 132.431259
_cell_angle_gamma 114.643155
_cell_volume 612.232802
_symmetry_space_group_name_H-M "P -1"
_symmetry_group_IT_number 2
_symmetry_cell_setting 'triclinic'
loop_
_space_group_symop_operation_xyz
x,y,z
-x,-y,-z
loop_
_atom_site_type_symbol
_atom_site_label
_atom_site_fract_x
_atom_site_fract_y
_atom_site_fract_z
Si Si1 0.466662 0.227874 0.751495
Si Si2 0.976304 0.610065 0.217414
Si Si3 0.464629 0.997664 0.767910
Si Si4 0.411228 0.535561 0.143942
Si Si5 0.148797 0.762213 0.552118
Si Si6 0.039010 0.742214 0.703810
Si Si7 0.809528 0.304801 0.913908
O O1 0.220145 0.498665 0.451128
O O2 0.464237 0.147000 0.723888
O O3 0.675406 0.246703 0.843798
O O4 0.500000 0.000000 0.000000
O O5 0.965068 0.373274 0.416060
O O6 0.027780 0.647708 0.114295
O O7 0.723471 0.852359 0.947456
O O8 0.221679 0.183392 0.472541
O O9 0.437062 0.769834 0.963537
O O10 0.632402 0.327208 0.347147
O O11 0.381949 0.494988 0.259617
O O12 0.194408 0.574668 0.976344
O O13 0.186498 0.669748 0.735758
O O14 0.973857 0.059181 0.234005
O O15 0.000000 0.000000 0.500000
#
# Coordination Sequence:
#
# PCOD9060890 Si02
#       7
#     2   2   2   2   2   2   2
#     4  12  21  42  66  88 128 164 207 257 308 365
#     4  11  25  40  65  94 126 164 208 252 315 368
#     4  10  21  39  64  94 124 167 205 255 307 368
#     4  10  21  37  68  94 122 167 211 251 311 369
#     4  11  21  42  65  92 126 167 203 256 313 365
#     4  10  17  39  70  90 123 166 208 253 308 366
#     4  12  24  42  62  97 126 161 211 259 303 373
#
# _framework density 22.867117
#
# number of rings (size 3 to 8) (size 9 to 14) (size 15 to 20)
#    0.000    1.143    7.143    0.857    0.000    3.429 
#    0.000    1.429    0.000    0.000    0.000    0.000 
#    0.000    0.000    0.000    0.000    0.000    0.000 
#
# Total GULP energy -78079.969962 kJ/mol
# GULP energy per Si atom -5577.140712 kJ/mol
# Density = 2.281507 g / cm^3
# Si number density = 22.867117 Si / 1000 Ang^3
#
#
#
# Elastic Constant Matrix: (Units=GPa)
#
#
# Indices 1 2 3 4 5 6 
#
# 1 153.8437 39.8308 63.7089 1.9591 25.4490 -13.5164
# 2 39.8308 83.0681 25.8238 16.4601 13.0173 -12.4629
# 3 63.7089 25.8238 66.3531 12.0036 10.5275 -8.0364
# 4 1.9591 16.4601 12.0036 29.2827 -8.3294 -3.6880
# 5 25.4490 13.0173 10.5275 -8.3294 31.9036 -10.7801
# 6 -13.5164 -12.4629 -8.0364 -3.6880 -10.7801 30.5594
#
#
#
# Elastic Compliance Matrix: (Units=1/GPa)
#
#
# Indices 1 2 3 4 5 6 
#
# 1 0.012324 -0.002639 -0.010849 0.004080 -0.003893 0.000641
# 2 -0.002639 0.017031 -0.000861 -0.010718 -0.006720 0.001888
# 3 -0.010849 -0.000861 0.028409 -0.011453 -0.003454 -0.000279
# 4 0.004080 -0.010718 -0.011453 0.051622 0.021112 0.008099
# 5 -0.003893 -0.006720 -0.003454 0.021112 0.048693 0.014354
# 6 0.000641 0.001888 -0.000279 0.008099 0.014354 0.039744
#
#
# Mechanical properties :
#
#
# Convention : Reuss Voigt Hill
#
# Bulk Modulus (GPa) = 34.40330 62.44354 48.42342
# Shear Modulus (GPa) = 21.16759 29.94256 25.55508
#
# Velocity S-wave (km/s) = 3.04580 3.62251 3.34660
# Velocity P-wave (km/s) = 5.23896 6.69800 6.01290
#
# Compressibility (1/GPa) = 0.02906698
#
# Stress axis : x y z
#
# Youngs Moduli (GPa) = 81.14035 58.71481 35.20070
#
# Poissons Ratio (x) = 0.15495 0.38189
# Poissons Ratio (y) = 0.21413 0.03030
# Poissons Ratio (z) = 0.88029 0.05054
#
# Static dielectric constant tensor:
#      x y z
#    x 1.881470 -0.005270 -0.004330 
#    y -0.005270 1.876860 0.020160 
#    z -0.004330 0.020160 1.982340 
# 
# From -- ./inp_files/342405.got.cif
#   From: 2010.05.17/outbox.cif.g08.bks.cpg/sg2_172_cif.got.tgz:342405.got - 2010.06.03 11:33:40.
