data_PCOD9060368
_publ_section_title
;
Structure prediction by ZEFSAII (Michael W. Deem and Ramdas Pophale) SiO2 
 PCOD9060368
Probable space group: P -1
;
_chemical_formula_sum "Si O2"
_cell_formula_units_Z 16
_cell_length_a 14.058841
_cell_length_b 16.307045
_cell_length_c 6.751221
_cell_angle_alpha 49.941688
_cell_angle_beta 117.602780
_cell_angle_gamma 142.207980
_cell_volume 722.565702
_symmetry_space_group_name_H-M "P -1"
_symmetry_group_IT_number 2
_symmetry_cell_setting 'triclinic'
loop_
_space_group_symop_operation_xyz
x,y,z
-x,-y,-z
loop_
_atom_site_type_symbol
_atom_site_label
_atom_site_fract_x
_atom_site_fract_y
_atom_site_fract_z
Si Si1 0.789974 0.506314 0.241527
Si Si2 0.523197 0.371931 0.505472
Si Si3 0.090487 0.801291 0.266513
Si Si4 0.603432 0.046371 0.216760
Si Si5 0.324397 0.785907 0.617910
Si Si6 0.214238 0.011974 0.691567
Si Si7 0.985645 0.899446 0.310616
Si Si8 0.313785 0.410860 0.309648
O O1 0.650083 0.426918 0.383602
O O2 0.766475 0.380691 0.293751
O O3 0.951018 0.627136 0.324248
O O4 0.782456 0.596667 0.936074
O O5 0.376006 0.186712 0.631972
O O6 0.448879 0.436446 0.303351
O O7 0.606160 0.447476 0.681443
O O8 0.237719 0.832273 0.397666
O O9 0.033886 0.823362 0.369794
O O10 0.128245 0.917028 0.956798
O O11 0.491926 0.905919 0.485661
O O12 0.738585 0.065754 0.246882
O O13 0.659568 0.191639 0.164948
O O14 0.500000 0.000000 0.000000
O O15 0.105126 0.998980 0.455077
O O16 0.808065 0.754569 0.437033
O O17 0.000000 0.000000 0.000000
#
# Coordination Sequence:
#
# PCOD9060368 Si02
#       8
#     2   2   2   2   2   2   2   2
#     4  12  25  44  72 100 142 185 231 288 353 414
#     4  11  26  44  72 102 141 180 238 285 353 412
#     4  12  25  46  70 102 145 180 237 289 348 420
#     4  11  23  43  70 101 145 181 233 290 342 416
#     4  11  25  42  68 107 138 184 232 285 351 414
#     4  12  25  45  75 105 136 193 230 288 355 415
#     4  12  27  47  73 104 141 185 237 292 353 420
#     4  11  26  48  68 104 139 187 232 292 347 423
#
# _framework density 22.143317
#
# number of rings (size 3 to 8) (size 9 to 14) (size 15 to 20)
#    0.000    0.500    6.250    1.500    3.500    4.000 
#    0.000    1.250    0.000    0.000    0.000    0.000 
#    0.000    0.000    0.000    0.000    0.000    0.000 
#
# Total GULP energy -89534.679221 kJ/mol
# GULP energy per Si atom -5595.917451 kJ/mol
# Density = 2.209292 g / cm^3
# Si number density = 22.143317 Si / 1000 Ang^3
#
#
#
# Elastic Constant Matrix: (Units=GPa)
#
#
# Indices 1 2 3 4 5 6 
#
# 1 74.4362 20.9784 23.3910 16.4958 -7.8062 -7.5396
# 2 20.9784 152.0704 30.2075 12.6121 -15.6433 1.8464
# 3 23.3910 30.2075 56.0155 16.5884 -3.5262 5.2518
# 4 16.4958 12.6121 16.5884 33.5599 5.0983 0.7538
# 5 -7.8062 -15.6433 -3.5262 5.0983 30.0824 4.6945
# 6 -7.5396 1.8464 5.2518 0.7538 4.6945 40.3445
#
#
#
# Elastic Compliance Matrix: (Units=1/GPa)
#
#
# Indices 1 2 3 4 5 6 
#
# 1 0.017450 -0.000441 -0.005168 -0.006583 0.004250 0.003582
# 2 -0.000441 0.007834 -0.003244 -0.001712 0.003939 -0.000445
# 3 -0.005168 -0.003244 0.024862 -0.008743 0.002012 -0.004124
# 4 -0.006583 -0.001712 -0.008743 0.039568 -0.010401 0.000457
# 5 0.004250 0.003939 0.002012 -0.010401 0.039015 -0.003993
# 6 0.003582 -0.000445 -0.004124 0.000457 -0.003993 0.026469
#
#
# Mechanical properties :
#
#
# Convention : Reuss Voigt Hill
#
# Bulk Modulus (GPa) = 30.82555 47.96399 39.39477
# Shear Modulus (GPa) = 27.21596 34.66038 30.93817
#
# Velocity S-wave (km/s) = 3.50963 3.96065 3.74194
# Velocity P-wave (km/s) = 5.51131 6.52866 6.04143
#
# Compressibility (1/GPa) = 0.03244063
#
# Stress axis : x y z
#
# Youngs Moduli (GPa) = 57.30666 127.65500 40.22239
#
# Poissons Ratio (x) = 0.05631 0.20786
# Poissons Ratio (y) = 0.02528 0.13046
# Poissons Ratio (z) = 0.29615 0.41405
#
# Static dielectric constant tensor:
#      x y z
#    x 1.784950 -0.028180 0.009580 
#    y -0.028180 1.813600 0.009520 
#    z 0.009580 0.009520 1.797350 
# 
# From -- ./inp_files/97606.got.cif
#   From: 2010.05.17/outbox.cif.g08.bks.cpg/sg2_49_cif.got.tgz:97606.got - 2010.06.03 11:33:40.
