data_PCOD9060205
_publ_section_title
;
Structure prediction by ZEFSAII (Michael W. Deem and Ramdas Pophale) SiO2 
 PCOD9060205
Probable space group: P -1
;
_chemical_formula_sum "Si O2"
_cell_formula_units_Z 16
_cell_length_a 21.574551
_cell_length_b 18.292302
_cell_length_c 9.059541
_cell_angle_alpha 35.534861
_cell_angle_beta 152.190329
_cell_angle_gamma 153.687421
_cell_volume 735.593143
_symmetry_space_group_name_H-M "P -1"
_symmetry_group_IT_number 2
_symmetry_cell_setting 'triclinic'
loop_
_space_group_symop_operation_xyz
x,y,z
-x,-y,-z
loop_
_atom_site_type_symbol
_atom_site_label
_atom_site_fract_x
_atom_site_fract_y
_atom_site_fract_z
Si Si1 0.663037 0.166811 0.644955
Si Si2 0.604836 0.504571 0.345677
Si Si3 0.192264 0.969289 0.647875
Si Si4 0.172893 0.521165 0.358326
Si Si5 0.078031 0.179303 0.421321
Si Si6 0.006983 0.222776 0.727328
Si Si7 0.067159 0.680745 0.303580
Si Si8 0.627436 0.672681 0.575905
O O1 0.673877 0.307459 0.516756
O O2 0.790272 0.255027 0.627252
O O3 0.500000 0.000000 0.500000
O O4 0.725212 0.111752 0.996971
O O5 0.741958 0.488490 0.592034
O O6 0.715755 0.688531 0.343804
O O7 0.474615 0.372026 0.411479
O O8 0.500000 0.500000 0.000000
O O9 0.328963 0.161968 0.665153
O O10 0.018346 0.865772 0.551365
O O11 0.127907 0.938624 0.393543
O O12 0.100400 0.373977 0.560950
O O13 0.000000 0.500000 0.000000
O O14 0.000000 0.000000 0.500000
O O15 0.043171 0.277679 0.080860
O O16 0.900877 0.232171 0.614690
O O17 0.174986 0.257548 0.096248
O O18 0.000000 0.500000 0.500000
O O19 0.500000 0.500000 0.500000
#
# Coordination Sequence:
#
# PCOD9060205 Si02
#       8
#     2   2   2   2   2   2   2   2
#     4  11  26  44  68 101 141 178 229 295 348 406
#     4  12  25  44  72 103 135 185 229 289 353 406
#     4  11  24  45  66  96 137 182 229 279 343 418
#     4  12  23  46  73  99 137 186 233 277 348 424
#     4  11  23  43  67  96 134 181 233 278 343 423
#     4  12  23  44  72  99 135 183 233 282 338 424
#     4  11  24  41  71 101 133 186 237 281 346 426
#     4  12  27  44  68 106 143 175 227 298 350 403
#
# _framework density 21.751152999999999
#
# number of rings (size 3 to 8) (size 9 to 14) (size 15 to 20)
#    0.000    0.500    5.000    3.375    1.750    5.000 
#    0.000    1.250    0.000    0.000    0.000    0.000 
#    0.000    0.000    0.000    0.000    0.000    0.000 
#
# Total GULP energy -89244.487036 kJ/mol
# GULP energy per Si atom -5577.780440 kJ/mol
# Density = 2.170165 g / cm^3
# Si number density = 21.751153 Si / 1000 Ang^3
#
#
#
# Elastic Constant Matrix: (Units=GPa)
#
#
# Indices 1 2 3 4 5 6 
#
# 1 123.2806 19.5859 18.4435 -0.9224 -7.3875 -10.9121
# 2 19.5859 151.4445 36.8598 0.5842 -12.6006 -17.3102
# 3 18.4435 36.8598 49.1794 -8.3508 -3.8788 -1.0906
# 4 -0.9224 0.5842 -8.3508 32.2040 -0.0539 -9.7417
# 5 -7.3875 -12.6006 -3.8788 -0.0539 25.3908 -0.7208
# 6 -10.9121 -17.3102 -1.0906 -9.7417 -0.7208 44.2263
#
#
#
# Elastic Compliance Matrix: (Units=1/GPa)
#
#
# Indices 1 2 3 4 5 6 
#
# 1 0.008900 0.000044 -0.003130 0.000110 0.002196 0.002196
# 2 0.000044 0.008818 -0.006425 -0.000860 0.003495 0.003171
# 3 -0.003130 -0.006425 0.027462 0.006813 0.000079 -0.001108
# 4 0.000110 -0.000860 0.006813 0.035143 0.000937 0.007615
# 5 0.002196 0.003495 0.000079 0.000937 0.041851 0.002800
# 6 0.002196 0.003171 -0.001108 0.007615 0.002800 0.026090
#
#
# Mechanical properties :
#
#
# Convention : Reuss Voigt Hill
#
# Bulk Modulus (GPa) = 38.23118 52.63143 45.43130
# Shear Modulus (GPa) = 28.40833 36.96525 32.68679
#
# Velocity S-wave (km/s) = 3.61787 4.12693 3.88075
# Velocity P-wave (km/s) = 5.92172 6.85261 6.40410
#
# Compressibility (1/GPa) = 0.02615666
#
# Stress axis : x y z
#
# Youngs Moduli (GPa) = 112.36444 113.40573 36.41407
#
# Poissons Ratio (x) = -0.00500 0.11398
# Poissons Ratio (y) = -0.00496 0.23398
# Poissons Ratio (z) = 0.35170 0.72869
#
# Static dielectric constant tensor:
#      x y z
#    x 1.825470 -0.031240 0.055590 
#    y -0.031240 1.875210 0.195860 
#    z 0.055590 0.195860 1.980630 
# 
# From -- ./inp_files/348290.got.cif
#   From: 2010.05.17/outbox.cif.g08.bks.cpg/sg2_175_cif.got.tgz:348290.got - 2010.06.03 11:33:40.
