data_PCOD9060963
_publ_section_title
;
Structure prediction by ZEFSAII (Michael W. Deem and Ramdas Pophale) SiO2 
 PCOD9060963
Probable space group: P -1
;
_chemical_formula_sum "Si O2"
_cell_formula_units_Z 16
_cell_length_a 12.153896
_cell_length_b 8.639370
_cell_length_c 11.378654
_cell_angle_alpha 112.349128
_cell_angle_beta 87.536391
_cell_angle_gamma 46.172446
_cell_volume 708.237025
_symmetry_space_group_name_H-M "P -1"
_symmetry_group_IT_number 2
_symmetry_cell_setting 'triclinic'
loop_
_space_group_symop_operation_xyz
x,y,z
-x,-y,-z
loop_
_atom_site_type_symbol
_atom_site_label
_atom_site_fract_x
_atom_site_fract_y
_atom_site_fract_z
Si Si1 0.775214 0.531569 0.823855
Si Si2 0.425693 0.440209 0.346590
Si Si3 0.914202 0.071502 0.368225
Si Si4 0.943580 0.392865 0.416157
Si Si5 0.725443 0.584068 0.109613
Si Si6 0.063492 0.296401 0.117537
Si Si7 0.536142 0.888475 0.595947
Si Si8 0.251258 0.770264 0.833649
O O1 0.639045 0.625085 0.762143
O O2 0.820341 0.674361 0.868061
O O3 0.718955 0.549011 0.963049
O O4 0.953107 0.229355 0.700701
O O5 0.257328 0.725917 0.487906
O O6 0.520247 0.228837 0.387413
O O7 0.556776 0.410054 0.268440
O O8 0.005380 0.146730 0.398698
O O9 0.856618 0.130132 0.251613
O O10 0.739848 0.630422 0.512831
O O11 0.000000 0.500000 0.500000
O O12 0.996772 0.332977 0.261159
O O13 0.753772 0.386047 0.129265
O O14 0.890071 0.511624 0.108718
O O15 0.554537 0.874979 0.245311
O O16 0.172485 0.018906 0.977846
O O17 0.500000 0.000000 0.500000
#
# Coordination Sequence:
#
# PCOD9060963 Si02
#       8
#     2   2   2   2   2   2   2   2
#     4  12  27  43  71 102 142 183 230 284 349 406
#     4  11  27  46  66 105 140 178 228 291 346 403
#     4  11  23  46  69  99 137 181 232 280 344 414
#     4  11  24  43  71 102 139 179 225 288 348 404
#     4  12  24  43  70 102 136 184 236 278 341 411
#     4  12  23  43  69 102 137 179 234 283 338 410
#     4  11  23  44  70  97 137 176 229 280 339 411
#     4  12  25  44  74 100 138 182 234 288 334 412
#
# _framework density 22.591308000000001
#
# number of rings (size 3 to 8) (size 9 to 14) (size 15 to 20)
#    0.000    0.500    3.750    5.250    1.750    5.500 
#    0.000    0.000    0.000    0.000    0.000    0.000 
#    0.000    0.000    0.000    0.000    0.000    0.000 
#
# Total GULP energy -89590.361372 kJ/mol
# GULP energy per Si atom -5599.397586 kJ/mol
# Density = 2.253989 g / cm^3
# Si number density = 22.591308 Si / 1000 Ang^3
#
#
#
# Elastic Constant Matrix: (Units=GPa)
#
#
# Indices 1 2 3 4 5 6 
#
# 1 103.1142 10.7718 21.9055 -10.6699 11.6075 15.4767
# 2 10.7718 58.2012 30.7293 -4.9226 2.2438 4.1162
# 3 21.9055 30.7293 156.6143 -5.3412 5.9474 5.6338
# 4 -10.6699 -4.9226 -5.3412 45.1423 6.2023 6.5441
# 5 11.6075 2.2438 5.9474 6.2023 34.8968 -2.8161
# 6 15.4767 4.1162 5.6338 6.5441 -2.8161 13.5821
#
#
#
# Elastic Compliance Matrix: (Units=1/GPa)
#
#
# Indices 1 2 3 4 5 6 
#
# 1 0.014843 0.000168 -0.000750 0.007726 -0.007971 -0.022028
# 2 0.000168 0.019782 -0.003500 0.002976 -0.001788 -0.006539
# 3 -0.000750 -0.003500 0.007299 0.000685 -0.001024 -0.001654
# 4 0.007726 0.002976 0.000685 0.029621 -0.010273 -0.026392
# 5 -0.007971 -0.001788 -0.001024 -0.010273 0.035222 0.022302
# 6 -0.022028 -0.006539 -0.001654 -0.026392 0.022302 0.118736
#
#
# Mechanical properties :
#
#
# Convention : Reuss Voigt Hill
#
# Bulk Modulus (GPa) = 29.62279 49.41589 39.51934
# Shear Modulus (GPa) = 20.41469 35.69244 28.05357
#
# Velocity S-wave (km/s) = 3.00934 3.97913 3.52772
# Velocity P-wave (km/s) = 5.02153 6.55993 5.84159
#
# Compressibility (1/GPa) = 0.03375780
#
# Stress axis : x y z
#
# Youngs Moduli (GPa) = 67.37194 50.55122 137.01216
#
# Poissons Ratio (x) = -0.00848 0.10281
# Poissons Ratio (y) = -0.01130 0.47958
# Poissons Ratio (z) = 0.05055 0.17694
#
# Static dielectric constant tensor:
#      x y z
#    x 1.852370 0.010420 0.017730 
#    y 0.010420 1.840510 -0.028260 
#    z 0.017730 -0.028260 1.811140 
# 
# From -- ./inp_files/185072.got.cif
#   From: 2010.05.17/outbox.cif.g08.bks.cpg/sg2_93_cif.got.tgz:185072.got - 2010.06.03 11:33:40.
