data_PCOD9060209
_publ_section_title
;
Structure prediction by ZEFSAII (Michael W. Deem and Ramdas Pophale) SiO2 
 PCOD9060209
Probable space group: P -1
;
_chemical_formula_sum "Si O2"
_cell_formula_units_Z 12
_cell_length_a 8.391837
_cell_length_b 11.142084
_cell_length_c 6.915970
_cell_angle_alpha 109.967947
_cell_angle_beta 85.968333
_cell_angle_gamma 114.702126
_cell_volume 550.180589
_symmetry_space_group_name_H-M "P -1"
_symmetry_group_IT_number 2
_symmetry_cell_setting 'triclinic'
loop_
_space_group_symop_operation_xyz
x,y,z
-x,-y,-z
loop_
_atom_site_type_symbol
_atom_site_label
_atom_site_fract_x
_atom_site_fract_y
_atom_site_fract_z
Si Si1 0.330238 0.025948 0.591008
Si Si2 0.322735 0.868294 0.864019
Si Si3 0.563307 0.522264 0.724122
Si Si4 0.177662 0.615936 0.449755
Si Si5 0.101653 0.800826 0.227075
Si Si6 0.302605 0.290218 0.868244
O O1 0.376131 0.186266 0.712097
O O2 0.500000 0.000000 0.500000
O O3 0.253635 0.947493 0.756248
O O4 0.190836 0.956147 0.397224
O O5 0.303992 0.733005 0.659405
O O6 0.206378 0.803308 0.025472
O O7 0.500000 0.000000 0.000000
O O8 0.500000 0.500000 0.500000
O O9 0.713000 0.464024 0.693872
O O10 0.394685 0.433237 0.819205
O O11 0.644240 0.677055 0.894651
O O12 0.125237 0.698672 0.331060
O O13 0.000000 0.500000 0.500000
O O14 0.902969 0.764963 0.173638
#
# Coordination Sequence:
#
# PCOD9060209 Si02
#       6
#     2   2   2   2   2   2
#     4  11  23  43  67  98 132 176 225 276 341 405
#     4  11  24  39  70 100 131 180 228 276 338 400
#     4  11  26  42  66  96 137 179 224 280 334 406
#     4  11  25  45  70  99 136 182 230 278 341 409
#     4  11  24  43  69 101 138 173 230 281 337 405
#     4  11  25  43  65  99 136 177 224 280 340 398
#
# _framework density 21.811022000000001
#
# number of rings (size 3 to 8) (size 9 to 14) (size 15 to 20)
#    0.000    1.000    1.667    4.500    2.333    6.000 
#    0.000    0.000    0.000    0.000    0.000    0.000 
#    0.000    0.000    0.000    0.000    0.000    0.000 
#
# Total GULP energy -67019.245753 kJ/mol
# GULP energy per Si atom -5584.937146 kJ/mol
# Density = 2.176138 g / cm^3
# Si number density = 21.811022 Si / 1000 Ang^3
#
#
#
# Elastic Constant Matrix: (Units=GPa)
#
#
# Indices 1 2 3 4 5 6 
#
# 1 96.1188 27.9371 45.0052 16.5783 -2.4567 22.4339
# 2 27.9371 65.4840 40.0893 10.9242 -3.8767 17.4043
# 3 45.0052 40.0893 160.1052 12.7425 10.4834 9.0566
# 4 16.5783 10.9242 12.7425 50.0435 2.3649 -1.4723
# 5 -2.4567 -3.8767 10.4834 2.3649 31.3551 0.7836
# 6 22.4339 17.4043 9.0566 -1.4723 0.7836 34.2066
#
#
#
# Elastic Compliance Matrix: (Units=1/GPa)
#
#
# Indices 1 2 3 4 5 6 
#
# 1 0.015137 -0.001279 -0.003279 -0.004281 0.002663 -0.008654
# 2 -0.001279 0.022060 -0.004644 -0.003709 0.004695 -0.009424
# 3 -0.003279 -0.004644 0.008424 0.000201 -0.003722 0.002377
# 4 -0.004281 -0.003709 0.000201 0.022454 -0.002696 0.005670
# 5 0.002663 0.004695 -0.003722 -0.002696 0.034231 -0.004050
# 6 -0.008654 -0.009424 0.002377 0.005670 -0.004050 0.039412
#
#
# Mechanical properties :
#
#
# Convention : Reuss Voigt Hill
#
# Bulk Modulus (GPa) = 36.73931 60.86347 48.80139
# Shear Modulus (GPa) = 29.55211 37.03279 33.29245
#
# Velocity S-wave (km/s) = 3.68491 4.12502 3.91116
# Velocity P-wave (km/s) = 5.91487 7.11711 6.54366
#
# Compressibility (1/GPa) = 0.02721880
#
# Stress axis : x y z
#
# Youngs Moduli (GPa) = 66.06340 45.33006 118.71388
#
# Poissons Ratio (x) = 0.05796 0.38926
# Poissons Ratio (y) = 0.08446 0.55126
# Poissons Ratio (z) = 0.21662 0.21049
#
# Static dielectric constant tensor:
#      x y z
#    x 1.782160 -0.004800 0.006150 
#    y -0.004800 1.845670 0.054880 
#    z 0.006150 0.054880 1.851530 
# 
# From -- ./inp_files/28686.got.cif
#   From: 2010.05.17/outbox.cif.g08.bks.cpg/sg2_15_cif.got.tgz:28686.got - 2010.06.03 11:33:40.
