data_PCOD9060838
_publ_section_title
;
Structure prediction by ZEFSAII (Michael W. Deem and Ramdas Pophale) SiO2 
 PCOD9060838
Probable space group: P -1
;
_chemical_formula_sum "Si O2"
_cell_formula_units_Z 16
_cell_length_a 17.511067
_cell_length_b 8.853263
_cell_length_c 17.218600
_cell_angle_alpha 148.697035
_cell_angle_beta 146.763201
_cell_angle_gamma 46.331827
_cell_volume 757.428623
_symmetry_space_group_name_H-M "P -1"
_symmetry_group_IT_number 2
_symmetry_cell_setting 'triclinic'
loop_
_space_group_symop_operation_xyz
x,y,z
-x,-y,-z
loop_
_atom_site_type_symbol
_atom_site_label
_atom_site_fract_x
_atom_site_fract_y
_atom_site_fract_z
Si Si1 0.609880 0.279996 0.230365
Si Si2 0.495036 0.984223 0.713994
Si Si3 0.146628 0.406944 0.993380
Si Si4 0.843966 0.896059 0.297078
Si Si5 0.003627 0.951049 0.150097
Si Si6 0.530609 0.473477 0.640430
Si Si7 0.781562 0.371197 0.129021
Si Si8 0.245522 0.341734 0.613038
O O1 0.541960 0.503151 0.327998
O O2 0.659495 0.431898 0.259418
O O3 0.744765 0.157831 0.330760
O O4 0.500000 0.000000 0.000000
O O5 0.495682 0.754958 0.684079
O O6 0.515119 0.806043 0.573262
O O7 0.349532 0.127405 0.646570
O O8 0.625549 0.220821 0.938089
O O9 0.155843 0.222817 0.842549
O O10 0.071253 0.208172 0.908912
O O11 0.061877 0.691917 0.036129
O O12 0.302878 0.507783 0.198498
O O13 0.786677 0.633601 0.188362
O O14 0.000000 0.000000 0.500000
O O15 0.132815 0.164006 0.384914
O O16 0.889371 0.136651 0.094667
O O17 0.825423 0.494747 0.305607
#
# Coordination Sequence:
#
# PCOD9060838 Si02
#       8
#     2   2   2   2   2   2   2   2
#     4  12  24  42  70  95 133 176 213 268 331 382
#     4  11  24  41  67  99 129 169 218 265 325 382
#     4  11  23  45  69  93 136 172 217 266 327 392
#     4  12  26  44  67  99 132 173 218 272 326 384
#     4  11  24  43  70  95 127 178 216 266 330 386
#     4  11  23  44  68  97 135 170 217 268 324 393
#     4  12  24  42  65  98 134 167 219 274 318 385
#     4  12  24  42  68 100 131 169 221 268 323 392
#
# _framework density 21.124102000000001
#
# number of rings (size 3 to 8) (size 9 to 14) (size 15 to 20)
#    0.000    0.500    3.750    5.250    0.000    3.000 
#    0.000    0.000    0.000    0.000    0.000    0.000 
#    0.000    0.000    0.000    0.000    0.000    0.000 
#
# Total GULP energy -89609.060321 kJ/mol
# GULP energy per Si atom -5600.566270 kJ/mol
# Density = 2.107602 g / cm^3
# Si number density = 21.124102 Si / 1000 Ang^3
#
#
#
# Elastic Constant Matrix: (Units=GPa)
#
#
# Indices 1 2 3 4 5 6 
#
# 1 63.9259 6.7580 -13.6116 9.9305 -3.7254 -4.4643
# 2 6.7580 79.6065 -29.5387 -0.4849 8.4329 -10.3349
# 3 -13.6116 -29.5387 49.2795 -4.5537 1.0095 -5.3614
# 4 9.9305 -0.4849 -4.5537 30.9916 -5.2942 2.6330
# 5 -3.7254 8.4329 1.0095 -5.2942 22.7100 -3.8850
# 6 -4.4643 -10.3349 -5.3614 2.6330 -3.8850 26.9650
#
#
#
# Elastic Compliance Matrix: (Units=1/GPa)
#
#
# Indices 1 2 3 4 5 6 
#
# 1 0.018007 0.001000 0.005640 -0.005021 0.002064 0.005273
# 2 0.001000 0.019046 0.012817 0.000076 -0.005894 0.009157
# 3 0.005640 0.012817 0.030974 0.001475 -0.002910 0.011441
# 4 -0.005021 0.000076 0.001475 0.035518 0.006851 -0.002990
# 5 0.002064 -0.005894 -0.002910 0.006851 0.048952 0.003888
# 6 0.005273 0.009157 0.011441 -0.002990 0.003888 0.044595
#
#
# Mechanical properties :
#
#
# Convention : Reuss Voigt Hill
#
# Bulk Modulus (GPa) = 9.35098 13.33639 11.34369
# Shear Modulus (GPa) = 25.79650 31.41361 28.60506
#
# Velocity S-wave (km/s) = 3.49834 3.86047 3.68386
# Velocity P-wave (km/s) = 4.55567 5.11841 4.84522
#
# Compressibility (1/GPa) = 0.10694062
#
# Stress axis : x y z
#
# Youngs Moduli (GPa) = 55.53412 52.50358 32.28563
#
# Poissons Ratio (x) = -0.05249 -0.18211
# Poissons Ratio (y) = -0.05552 -0.41380
# Poissons Ratio (z) = -0.31324 -0.67292
#
# Static dielectric constant tensor:
#      x y z
#    x 1.719810 -0.022320 0.008580 
#    y -0.022320 1.755100 0.007460 
#    z 0.008580 0.007460 1.711860 
# 
# From -- ./inp_files/186771.got.cif
#   From: 2010.05.17/outbox.cif.g08.bks.cpg/sg2_94_cif.got.tgz:186771.got - 2010.06.03 11:33:40.
