data_PCOD9060167
_publ_section_title
;
Structure prediction by ZEFSAII (Michael W. Deem and Ramdas Pophale) SiO2 
 PCOD9060167
Probable space group: P -1
;
_chemical_formula_sum "Si O2"
_cell_formula_units_Z 16
_cell_length_a 6.917071
_cell_length_b 15.640574
_cell_length_c 11.175574
_cell_angle_alpha 58.148684
_cell_angle_beta 81.803318
_cell_angle_gamma 48.479675
_cell_volume 726.959213
_symmetry_space_group_name_H-M "P -1"
_symmetry_group_IT_number 2
_symmetry_cell_setting 'triclinic'
loop_
_space_group_symop_operation_xyz
x,y,z
-x,-y,-z
loop_
_atom_site_type_symbol
_atom_site_label
_atom_site_fract_x
_atom_site_fract_y
_atom_site_fract_z
Si Si1 0.688178 0.841837 0.332871
Si Si2 0.675744 0.097464 0.462737
Si Si3 0.154673 0.842336 0.975449
Si Si4 0.521599 0.380649 0.238514
Si Si5 0.364855 0.825000 0.217490
Si Si6 0.696144 0.361389 0.502948
Si Si7 0.084866 0.673437 0.960621
Si Si8 0.535754 0.104636 0.217961
O O1 0.445343 0.904067 0.403134
O O2 0.629185 0.792213 0.261149
O O3 0.989321 0.717372 0.451181
O O4 0.655181 0.973587 0.219186
O O5 0.535815 0.256196 0.342324
O O6 0.601174 0.057074 0.384600
O O7 0.000000 0.000000 0.500000
O O8 0.094176 0.752137 0.007299
O O9 0.316194 0.844228 0.858373
O O10 0.341674 0.783671 0.119803
O O11 0.874639 0.005496 0.890077
O O12 0.595936 0.399622 0.347224
O O13 0.741405 0.343150 0.151944
O O14 0.232455 0.521819 0.109537
O O15 0.317265 0.750220 0.368707
O O16 0.500000 0.500000 0.500000
O O17 0.780090 0.769560 0.872551
#
# Coordination Sequence:
#
# PCOD9060167 Si02
#       8
#     2   2   2   2   2   2   2   2
#     4  12  24  43  71 103 133 175 232 275 336 410
#     4  12  23  43  74 104 140 172 220 285 342 404
#     4  11  23  43  67 100 137 174 225 282 334 398
#     4  11  24  45  69  96 139 177 219 281 341 402
#     4  11  24  43  68  96 137 180 228 279 332 401
#     4  12  26  47  68  97 139 184 225 280 338 398
#     4  11  24  45  68 100 135 175 222 279 345 401
#     4  12  23  41  72 102 129 177 223 276 344 400
#
# _framework density 22.009485999999999
#
# number of rings (size 3 to 8) (size 9 to 14) (size 15 to 20)
#    0.000    0.500    5.000    4.125    0.000    3.500 
#    4.500    0.000    0.000    0.000    0.000    0.000 
#    0.000    0.000    0.000    0.000    0.000    0.000 
#
# Total GULP energy -89536.550544 kJ/mol
# GULP energy per Si atom -5596.034409 kJ/mol
# Density = 2.195939 g / cm^3
# Si number density = 22.009486 Si / 1000 Ang^3
#
#
#
# Elastic Constant Matrix: (Units=GPa)
#
#
# Indices 1 2 3 4 5 6 
#
# 1 74.6525 14.6740 12.9134 -9.1325 21.8534 4.4116
# 2 14.6740 64.4530 7.9867 -1.5218 10.5097 4.3943
# 3 12.9134 7.9867 78.0298 2.7786 16.5699 4.6965
# 4 -9.1325 -1.5218 2.7786 38.5348 11.4107 7.2380
# 5 21.8534 10.5097 16.5699 11.4107 39.9862 -2.9359
# 6 4.4116 4.3943 4.6965 7.2380 -2.9359 35.1863
#
#
#
# Elastic Compliance Matrix: (Units=1/GPa)
#
#
# Indices 1 2 3 4 5 6 
#
# 1 0.018936 -0.001625 -0.000268 0.009193 -0.012808 -0.005095
# 2 -0.001625 0.016839 -0.000501 0.002015 -0.004095 -0.002589
# 3 -0.000268 -0.000501 0.014340 0.001203 -0.006197 -0.002582
# 4 0.009193 0.002015 0.001203 0.035002 -0.016787 -0.010165
# 5 -0.012808 -0.004095 -0.006197 -0.016787 0.041165 0.009832
# 6 -0.005095 -0.002589 -0.002582 -0.010165 0.009832 0.032638
#
#
# Mechanical properties :
#
#
# Convention : Reuss Voigt Hill
#
# Bulk Modulus (GPa) = 22.06210 32.03149 27.04680
# Shear Modulus (GPa) = 27.96133 34.84552 31.40342
#
# Velocity S-wave (km/s) = 3.56816 3.98327 3.78142
# Velocity P-wave (km/s) = 5.19821 5.97832 5.60186
#
# Compressibility (1/GPa) = 0.04532660
#
# Stress axis : x y z
#
# Youngs Moduli (GPa) = 52.80857 59.38577 69.73600
#
# Poissons Ratio (x) = 0.09650 0.01871
# Poissons Ratio (y) = 0.08582 0.03493
# Poissons Ratio (z) = 0.01417 0.02975
#
# Static dielectric constant tensor:
#      x y z
#    x 1.782390 0.011260 0.001390 
#    y 0.011260 1.830870 0.041310 
#    z 0.001390 0.041310 1.812100 
# 
# From -- ./inp_files/94883.got.cif
#   From: 2010.05.17/outbox.cif.g08.bks.cpg/sg2_48_cif.got.tgz:94883.got - 2010.06.03 11:33:40.
