data_PCOD9060666
_publ_section_title
;
Structure prediction by ZEFSAII (Michael W. Deem and Ramdas Pophale) SiO2 
 PCOD9060666
Probable space group: P -1
;
_chemical_formula_sum "Si O2"
_cell_formula_units_Z 16
_cell_length_a 13.858609
_cell_length_b 5.589754
_cell_length_c 22.683503
_cell_angle_alpha 103.920151
_cell_angle_beta 22.768439
_cell_angle_gamma 105.033153
_cell_volume 656.773166
_symmetry_space_group_name_H-M "P -1"
_symmetry_group_IT_number 2
_symmetry_cell_setting 'triclinic'
loop_
_space_group_symop_operation_xyz
x,y,z
-x,-y,-z
loop_
_atom_site_type_symbol
_atom_site_label
_atom_site_fract_x
_atom_site_fract_y
_atom_site_fract_z
Si Si1 0.213912 0.385691 0.150633
Si Si2 0.561219 0.513079 0.135439
Si Si3 0.878575 0.201568 0.864526
Si Si4 0.060346 0.820963 0.900482
Si Si5 0.211455 0.835064 0.393344
Si Si6 0.520773 0.294233 0.275131
Si Si7 0.155743 0.615682 0.539461
Si Si8 0.619623 0.898426 0.366243
O O1 0.092130 0.594020 0.192340
O O2 0.086373 0.381050 0.285382
O O3 0.174992 0.095089 0.135448
O O4 0.500000 0.500000 0.000000
O O5 0.313373 0.653997 0.276327
O O6 0.536776 0.424715 0.211315
O O7 0.637626 0.285058 0.040539
O O8 0.809763 0.703936 0.003943
O O9 0.142951 0.236840 0.752271
O O10 0.225753 0.629946 0.828684
O O11 0.242383 0.929577 0.752280
O O12 0.000000 0.000000 0.000000
O O13 0.124572 0.709310 0.496160
O O14 0.464177 0.005674 0.278176
O O15 0.000000 0.000000 0.500000
O O16 0.273704 0.356991 0.451877
O O17 0.381822 0.768800 0.457233
O O18 0.500000 0.000000 0.500000
#
# Coordination Sequence:
#
# PCOD9060666 Si02
#       8
#     2   2   2   2   2   2   2   2
#     4  12  30  54  81 115 160 218 277 330 399 485
#     4  11  25  44  74 117 152 203 269 334 410 481
#     4  12  28  51  80 120 160 214 268 337 406 485
#     4  12  21  43  76 114 160 209 263 336 411 493
#     4  11  26  49  78 111 154 208 270 335 399 484
#     4  11  23  43  75 105 154 202 261 325 408 478
#     4  11  26  49  76 114 154 214 264 336 411 484
#     4  12  25  46  79 118 166 208 272 338 417 493
#
# _framework density 24.361529999999998
#
# number of rings (size 3 to 8) (size 9 to 14) (size 15 to 20)
#    0.000    0.500    3.750    3.750    5.250    4.500 
#    0.000    0.000    0.000    0.000    0.000    0.000 
#    0.000    0.000    0.000    0.000    0.000    0.000 
#
# Total GULP energy -89397.556462 kJ/mol
# GULP energy per Si atom -5587.347279 kJ/mol
# Density = 2.430608 g / cm^3
# Si number density = 24.361530 Si / 1000 Ang^3
#
#
#
# Elastic Constant Matrix: (Units=GPa)
#
#
# Indices 1 2 3 4 5 6 
#
# 1 74.9738 41.4554 49.1613 17.9288 2.0948 10.9306
# 2 41.4554 114.9711 56.8032 5.6672 7.7856 17.4491
# 3 49.1613 56.8032 184.9991 13.8354 12.5351 5.2131
# 4 17.9288 5.6672 13.8354 51.3618 0.7063 -10.0259
# 5 2.0948 7.7856 12.5351 0.7063 49.7388 3.3946
# 6 10.9306 17.4491 5.2131 -10.0259 3.3946 42.3541
#
#
#
# Elastic Compliance Matrix: (Units=1/GPa)
#
#
# Indices 1 2 3 4 5 6 
#
# 1 0.020404 -0.004727 -0.003428 -0.006581 0.001148 -0.004546
# 2 -0.004727 0.012105 -0.002329 0.000302 -0.000885 -0.003338
# 3 -0.003428 -0.002329 0.007113 -0.000245 -0.001350 0.001019
# 4 -0.006581 0.000302 -0.000245 0.023200 -0.000525 0.007138
# 5 0.001148 -0.000885 -0.001350 -0.000525 0.020648 -0.001545
# 6 -0.004546 -0.003338 0.001019 0.007138 -0.001545 0.027847
#
#
# Mechanical properties :
#
#
# Convention : Reuss Voigt Hill
#
# Bulk Modulus (GPa) = 53.61153 74.42043 64.01598
# Shear Modulus (GPa) = 36.10059 43.85922 39.97990
#
# Velocity S-wave (km/s) = 3.85368 4.24765 4.05545
# Velocity P-wave (km/s) = 6.46959 7.39401 6.94719
#
# Compressibility (1/GPa) = 0.01865270
#
# Stress axis : x y z
#
# Youngs Moduli (GPa) = 49.01027 82.61382 140.59421
#
# Poissons Ratio (x) = 0.39049 0.48201
# Poissons Ratio (y) = 0.23165 0.32747
# Poissons Ratio (z) = 0.16802 0.19242
#
# Static dielectric constant tensor:
#      x y z
#    x 2.004060 0.049720 -0.001300 
#    y 0.049720 2.014920 0.040150 
#    z -0.001300 0.040150 1.954330 
# 
# From -- ./inp_files/611297.got.cif
#   From: 2010.05.17/outbox.cif.g08.bks.cpg/sg2_306_cif.got.tgz:611297.got - 2010.06.03 11:33:40.
