data_PCOD9060078
_publ_section_title
;
Structure prediction by ZEFSAII (Michael W. Deem and Ramdas Pophale) SiO2 
 PCOD9060078
Probable space group: P -1
;
_chemical_formula_sum "Si O2"
_cell_formula_units_Z 16
_cell_length_a 9.061047
_cell_length_b 13.713958
_cell_length_c 8.611033
_cell_angle_alpha 89.543070
_cell_angle_beta 111.885161
_cell_angle_gamma 134.205693
_cell_volume 658.745184
_symmetry_space_group_name_H-M "P -1"
_symmetry_group_IT_number 2
_symmetry_cell_setting 'triclinic'
loop_
_space_group_symop_operation_xyz
x,y,z
-x,-y,-z
loop_
_atom_site_type_symbol
_atom_site_label
_atom_site_fract_x
_atom_site_fract_y
_atom_site_fract_z
Si Si1 0.461138 0.096126 0.516568
Si Si2 0.631215 0.677579 0.207761
Si Si3 0.893891 0.295190 0.129642
Si Si4 0.265775 0.325213 0.412519
Si Si5 0.045494 0.561207 0.344287
Si Si6 0.401624 0.117792 0.847261
Si Si7 0.161511 0.367322 0.929106
Si Si8 0.894268 0.926146 0.793630
O O1 0.695137 0.269264 0.568332
O O2 0.412622 0.082082 0.680009
O O3 0.247364 0.049697 0.338966
O O4 0.500000 0.000000 0.500000
O O5 0.742095 0.727856 0.421050
O O6 0.528388 0.736253 0.133726
O O7 0.812647 0.723189 0.146579
O O8 0.407993 0.501686 0.113824
O O9 0.034446 0.285766 0.294640
O O10 0.004032 0.451735 0.211691
O O11 0.606829 0.164059 0.033678
O O12 0.958152 0.291988 0.978714
O O13 0.500000 0.500000 0.500000
O O14 0.277161 0.246952 0.286586
O O15 0.000000 0.500000 0.500000
O O16 0.869873 0.567105 0.219872
O O17 0.129339 0.997032 0.794619
O O18 0.000000 0.000000 0.000000
#
# Coordination Sequence:
#
# PCOD9060078 Si02
#       8
#     2   2   2   2   2   2   2   2
#     4  12  29  52  83 112 157 214 269 323 406 492
#     4  11  24  44  75 111 150 209 256 322 400 469
#     4  12  25  46  79 116 159 202 263 331 403 471
#     4  12  26  49  81 114 159 201 264 336 402 466
#     4  12  26  46  78 122 158 200 266 343 394 472
#     4  12  27  51  78 108 160 208 264 319 403 485
#     4  11  23  42  75 115 153 203 264 322 398 475
#     4  12  32  52  78 115 161 211 267 332 407 483
#
# _framework density 24.288602000000001
#
# number of rings (size 3 to 8) (size 9 to 14) (size 15 to 20)
#    0.000    0.250    5.000    3.000    7.000    1.500 
#    0.000    0.000    0.000    0.000    0.000    0.000 
#    0.000    0.000    0.000    0.000    0.000    0.000 
#
# Total GULP energy -89665.247620 kJ/mol
# GULP energy per Si atom -5604.077976 kJ/mol
# Density = 2.423332 g / cm^3
# Si number density = 24.288602 Si / 1000 Ang^3
#
#
#
# Elastic Constant Matrix: (Units=GPa)
#
#
# Indices 1 2 3 4 5 6 
#
# 1 152.5907 36.1664 66.1913 15.2637 6.5612 -10.8577
# 2 36.1664 84.9396 41.7017 23.0665 3.5702 4.5786
# 3 66.1913 41.7017 161.7941 14.7721 21.7867 -2.1776
# 4 15.2637 23.0665 14.7721 32.5979 -7.7777 -10.2719
# 5 6.5612 3.5702 21.7867 -7.7777 67.8035 -3.4247
# 6 -10.8577 4.5786 -2.1776 -10.2719 -3.4247 36.2703
#
#
#
# Elastic Compliance Matrix: (Units=1/GPa)
#
#
# Indices 1 2 3 4 5 6 
#
# 1 0.008553 -0.002354 -0.002895 -0.000096 0.000351 0.002690
# 2 -0.002354 0.017950 -0.002303 -0.013210 -0.001847 -0.007024
# 3 -0.002895 -0.002303 0.008446 -0.001699 -0.002547 -0.000791
# 4 -0.000096 -0.013210 -0.001699 0.047583 0.007503 0.015721
# 5 0.000351 -0.001847 -0.002547 0.007503 0.016687 0.003886
# 6 0.002690 -0.007024 -0.000791 0.015721 0.003886 0.034034
#
#
# Mechanical properties :
#
#
# Convention : Reuss Voigt Hill
#
# Bulk Modulus (GPa) = 50.39122 76.38260 63.38691
# Shear Modulus (GPa) = 32.26382 44.35200 38.30791
#
# Velocity S-wave (km/s) = 3.64861 4.27786 3.97570
# Velocity P-wave (km/s) = 6.20820 7.47772 6.87234
#
# Compressibility (1/GPa) = 0.01984473
#
# Stress axis : x y z
#
# Youngs Moduli (GPa) = 116.91765 55.71111 118.39873
#
# Poissons Ratio (x) = 0.13117 0.34272
# Poissons Ratio (y) = 0.27527 0.27267
# Poissons Ratio (z) = 0.33843 0.12830
#
# Static dielectric constant tensor:
#      x y z
#    x 1.945980 0.001590 -0.004090 
#    y 0.001590 2.070420 0.044010 
#    z -0.004090 0.044010 1.918580 
# 
# From -- ./inp_files/207924.got.cif
#   From: 2010.05.17/outbox.cif.g08.bks.cpg/sg2_104_cif.got.tgz:207924.got - 2010.06.03 11:33:40.
