data_PCOD9060305
_publ_section_title
;
Structure prediction by ZEFSAII (Michael W. Deem and Ramdas Pophale) SiO2 
 PCOD9060305
Probable space group: P -1
;
_chemical_formula_sum "Si O2"
_cell_formula_units_Z 12
_cell_length_a 17.100651
_cell_length_b 14.947004
_cell_length_c 7.351187
_cell_angle_alpha 114.021710
_cell_angle_beta 118.510251
_cell_angle_gamma 16.122650
_cell_volume 448.197354
_symmetry_space_group_name_H-M "P -1"
_symmetry_group_IT_number 2
_symmetry_cell_setting 'triclinic'
loop_
_space_group_symop_operation_xyz
x,y,z
-x,-y,-z
loop_
_atom_site_type_symbol
_atom_site_label
_atom_site_fract_x
_atom_site_fract_y
_atom_site_fract_z
Si Si1 0.949628 0.438512 0.932755
Si Si2 0.853134 0.228735 0.671323
Si Si3 0.566334 0.153407 0.861166
Si Si4 0.440207 0.832466 0.560268
Si Si5 0.916072 0.477042 0.366060
Si Si6 0.488248 0.431985 0.086782
O O1 0.655825 0.697798 0.738908
O O2 0.000000 0.500000 0.000000
O O3 0.961636 0.407202 0.142011
O O4 0.249859 0.060116 0.923770
O O5 0.602322 0.567662 0.604328
O O6 0.307105 0.660322 0.249560
O O7 0.000000 0.000000 0.500000
O O8 0.157598 0.966865 0.841777
O O9 0.593848 0.155798 0.683043
O O10 0.421807 0.197761 0.710499
O O11 0.342286 0.478287 0.937494
O O12 0.098177 0.228966 0.521203
O O13 0.000000 0.500000 0.500000
O O14 0.500000 0.500000 0.000000
#
# Coordination Sequence:
#
# PCOD9060305 Si02
#       6
#     2   2   2   2   2   2
#     4  11  23  43  69 103 147 195 253 323 394 470
#     4  12  27  50  79 115 156 210 267 328 401 474
#     4  11  25  44  72 105 153 196 258 323 394 466
#     4  11  25  44  72 106 152 197 260 322 392 471
#     4  11  25  43  71 110 148 201 256 322 396 469
#     4  12  27  50  79 113 160 207 265 334 398 471
#
# _framework density 26.773918999999999
#
# number of rings (size 3 to 8) (size 9 to 14) (size 15 to 20)
#    0.000    0.667    1.667    5.000    4.667    8.000 
#    3.000    0.000    0.000    0.000    0.000    0.000 
#    0.000    0.000    0.000    0.000    0.000    0.000 
#
# Total GULP energy -66879.764196 kJ/mol
# GULP energy per Si atom -5573.313683 kJ/mol
# Density = 2.671298 g / cm^3
# Si number density = 26.773919 Si / 1000 Ang^3
#
#
#
# Elastic Constant Matrix: (Units=GPa)
#
#
# Indices 1 2 3 4 5 6 
#
# 1 146.8303 68.8757 21.9593 15.0018 -19.2770 10.4246
# 2 68.8757 8.8463 26.7018 -115.2607 -23.9608 37.0685
# 3 21.9593 26.7018 104.7935 -11.9307 -15.3592 9.0350
# 4 15.0018 -115.2607 -11.9307 -56.9631 -11.4930 33.8544
# 5 -19.2770 -23.9608 -15.3592 -11.4930 45.3604 7.2050
# 6 10.4246 37.0685 9.0350 33.8544 7.2050 44.3495
#
#
#
# Elastic Compliance Matrix: (Units=1/GPa)
#
#
# Indices 1 2 3 4 5 6 
#
# 1 0.008040 -0.001666 -0.000111 0.002832 0.003731 -0.003242
# 2 -0.001666 0.005320 -0.002454 -0.008521 -0.001392 0.003176
# 3 -0.000111 -0.002454 0.010878 0.001182 0.002878 -0.001508
# 4 0.002832 -0.008521 0.001182 0.003232 -0.002745 0.004195
# 5 0.003731 -0.001392 0.002878 -0.002745 0.023496 -0.002022
# 6 -0.003242 0.003176 -0.001508 0.004195 -0.002022 0.018090
#
#
# Mechanical properties :
#
#
# Convention : Reuss Voigt Hill
#
# Bulk Modulus (GPa) = 63.39691 55.06042 59.22866
# Shear Modulus (GPa) = 60.40376 16.07825 38.24100
#
# Velocity S-wave (km/s) = 4.75496 2.45321 3.78338
# Velocity P-wave (km/s) = 7.34004 5.35106 6.42301
#
# Compressibility (1/GPa) = 0.01577364
#
# Stress axis : x y z
#
# Youngs Moduli (GPa) = 124.38534 187.96757 91.93088
#
# Poissons Ratio (x) = 0.31318 0.01023
# Poissons Ratio (y) = 0.20724 0.22564
# Poissons Ratio (z) = 0.01384 0.46136
#
# Static dielectric constant tensor:
#      x y z
#    x 1.880210 0.172920 0.058850 
#    y 0.172920 2.247750 0.164940 
#    z 0.058850 0.164940 2.456590 
# 
# From -- ./inp_files/3713.got.cif
#   From: 2010.05.17/outbox.cif.g08.bks.cpg/sg2_2_cif.got.tgz:3713.got - 2010.06.03 11:33:40.
