data_PCOD9060179
_publ_section_title
;
Structure prediction by ZEFSAII (Michael W. Deem and Ramdas Pophale) SiO2 
 PCOD9060179
Probable space group: P -1
;
_chemical_formula_sum "Si O2"
_cell_formula_units_Z 16
_cell_length_a 22.708460
_cell_length_b 8.606105
_cell_length_c 5.092754
_cell_angle_alpha 87.211395
_cell_angle_beta 87.099080
_cell_angle_gamma 41.413019
_cell_volume 657.432888
_symmetry_space_group_name_H-M "P -1"
_symmetry_group_IT_number 2
_symmetry_cell_setting 'triclinic'
loop_
_space_group_symop_operation_xyz
x,y,z
-x,-y,-z
loop_
_atom_site_type_symbol
_atom_site_label
_atom_site_fract_x
_atom_site_fract_y
_atom_site_fract_z
Si Si1 0.709667 0.420527 0.997691
Si Si2 0.058141 0.968149 0.270239
Si Si3 0.709181 0.113505 0.734122
Si Si4 0.023448 0.617508 0.102177
Si Si5 0.437730 0.106025 0.754379
Si Si6 0.177639 0.511164 0.006178
Si Si7 0.151714 0.986523 0.590689
Si Si8 0.311657 0.061295 0.733422
O O1 0.634597 0.613821 0.211532
O O2 0.788107 0.174814 0.159580
O O3 0.742373 0.533371 0.905011
O O4 0.677623 0.352943 0.800999
O O5 0.007198 0.212438 0.143400
O O6 0.096809 0.794503 0.030436
O O7 0.145700 0.850221 0.416001
O O8 0.000000 0.000000 0.500000
O O9 0.670667 0.080040 0.513249
O O10 0.805038 0.964205 0.595002
O O11 0.699895 0.030143 0.006168
O O12 0.000000 0.500000 0.000000
O O13 0.123765 0.474179 0.157737
O O14 0.949789 0.783516 0.328439
O O15 0.388700 0.036156 0.754597
O O16 0.500000 0.000000 0.500000
O O17 0.500000 0.000000 0.000000
O O18 0.220461 0.347376 0.751092
#
# Coordination Sequence:
#
# PCOD9060179 Si02
#       8
#     2   2   2   2   2   2   2   2
#     4  11  25  46  79 106 145 199 243 303 376 451
#     4  12  24  41  66  99 139 201 268 321 370 439
#     4  12  24  46  72 111 150 191 245 300 371 444
#     4  12  26  42  62 103 151 203 262 324 377 425
#     4  11  27  52  82 115 151 189 242 299 370 461
#     4  11  23  43  67 101 144 199 256 308 373 442
#     4  12  23  41  73  98 148 193 258 300 368 430
#     4  11  27  47  75 112 149 192 238 309 375 445
#
# _framework density 24.337088000000001
#
# number of rings (size 3 to 8) (size 9 to 14) (size 15 to 20)
#    0.000    0.500    5.000    2.625    3.500    4.500 
#    0.000    3.750    0.000    0.000    0.000    0.000 
#    0.000    0.000    0.000    0.000    0.000    0.000 
#
# Total GULP energy -89189.587626 kJ/mol
# GULP energy per Si atom -5574.349227 kJ/mol
# Density = 2.428170 g / cm^3
# Si number density = 24.337088 Si / 1000 Ang^3
#
#
#
# Elastic Constant Matrix: (Units=GPa)
#
#
# Indices 1 2 3 4 5 6 
#
# 1 202.6406 62.7934 78.3844 22.4021 2.7826 26.7490
# 2 62.7934 51.6221 37.0354 22.4214 2.3347 14.2679
# 3 78.3844 37.0354 154.0028 18.9949 11.6731 13.9171
# 4 22.4021 22.4214 18.9949 42.2018 9.2046 -1.6305
# 5 2.7826 2.3347 11.6731 9.2046 56.4227 9.7385
# 6 26.7490 14.2679 13.9171 -1.6305 9.7385 38.5847
#
#
#
# Elastic Compliance Matrix: (Units=1/GPa)
#
#
# Indices 1 2 3 4 5 6 
#
# 1 0.008713 -0.008776 -0.002287 0.000849 0.000629 -0.002093
# 2 -0.008776 0.042641 -0.002938 -0.017947 0.003998 -0.010392
# 3 -0.002287 -0.002938 0.008576 -0.000785 -0.001394 -0.000102
# 4 0.000849 -0.017947 -0.000785 0.034907 -0.006460 0.009437
# 5 0.000629 0.003998 -0.001394 -0.006460 0.020033 -0.006741
# 6 -0.002093 -0.010392 -0.000102 0.009437 -0.006741 0.033348
#
#
# Mechanical properties :
#
#
# Convention : Reuss Voigt Hill
#
# Bulk Modulus (GPa) = 31.32153 84.96574 58.14363
# Shear Modulus (GPa) = 26.75757 42.77866 34.76811
#
# Velocity S-wave (km/s) = 3.31940 4.19711 3.78379
# Velocity P-wave (km/s) = 5.25253 7.64692 6.55990
#
# Compressibility (1/GPa) = 0.03192692
#
# Stress axis : x y z
#
# Youngs Moduli (GPa) = 114.77165 23.45147 116.60557
#
# Poissons Ratio (x) = 0.20581 0.26673
# Poissons Ratio (y) = 1.00725 0.34259
# Poissons Ratio (z) = 0.26254 0.06890
#
# Static dielectric constant tensor:
#      x y z
#    x 1.692850 -0.380200 -0.231850 
#    y -0.380200 1.582380 -0.246280 
#    z -0.231850 -0.246280 1.912810 
# 
# From -- ./inp_files/116258.got.cif
#   From: 2010.05.17/outbox.cif.g08.bks.cpg/sg2_59_cif.got.tgz:116258.got - 2010.06.03 11:33:40.
