data_PCOD9060780
_publ_section_title
;
Structure prediction by ZEFSAII (Michael W. Deem and Ramdas Pophale) SiO2 
 PCOD9060780
Probable space group: P -1
;
_chemical_formula_sum "Si O2"
_cell_formula_units_Z 12
_cell_length_a 8.893512
_cell_length_b 6.860778
_cell_length_c 14.721308
_cell_angle_alpha 115.239576
_cell_angle_beta 77.197500
_cell_angle_gamma 55.297781
_cell_volume 521.735226
_symmetry_space_group_name_H-M "P -1"
_symmetry_group_IT_number 2
_symmetry_cell_setting 'triclinic'
loop_
_space_group_symop_operation_xyz
x,y,z
-x,-y,-z
loop_
_atom_site_type_symbol
_atom_site_label
_atom_site_fract_x
_atom_site_fract_y
_atom_site_fract_z
Si Si1 0.297610 0.308808 0.869786
Si Si2 0.909582 0.343608 0.708315
Si Si3 0.805756 0.795845 0.954704
Si Si4 0.427556 0.392992 0.358213
Si Si5 0.440020 0.553182 0.124720
Si Si6 0.463338 0.796457 0.496042
O O1 0.490907 0.283030 0.817791
O O2 0.058476 0.619551 0.913390
O O3 0.375701 0.989761 0.765928
O O4 0.250084 0.328450 0.987315
O O5 0.820836 0.660433 0.829097
O O6 0.786890 0.430343 0.645048
O O7 0.813100 0.256868 0.770191
O O8 0.187189 0.060701 0.607527
O O9 0.614821 0.183002 0.063587
O O10 0.511901 0.551359 0.370534
O O11 0.385347 0.403968 0.473333
O O12 0.500000 0.500000 0.000000
O O13 0.500000 0.000000 0.500000
#
# Coordination Sequence:
#
# PCOD9060780 Si02
#       6
#     2   2   2   2   2   2
#     4  11  23  44  71 103 149 191 227 291 357 420
#     4  12  24  47  73 104 145 180 239 294 344 429
#     4  11  23  44  67 109 149 183 237 285 346 439
#     4  11  25  49  72 102 140 181 246 297 345 426
#     4  12  24  41  69 109 149 189 228 278 361 428
#     4  11  28  53  72 100 136 188 243 301 359 408
#
# _framework density 23.000173
#
# number of rings (size 3 to 8) (size 9 to 14) (size 15 to 20)
#    0.000    0.667    5.000    2.500    2.333    0.667 
#   21.000    0.000    0.000    0.000    0.000    0.000 
#    0.000    0.000    0.000    0.000    0.000    0.000 
#
# Total GULP energy -67131.718506 kJ/mol
# GULP energy per Si atom -5594.309876 kJ/mol
# Density = 2.294782 g / cm^3
# Si number density = 23.000173 Si / 1000 Ang^3
#
#
#
# Elastic Constant Matrix: (Units=GPa)
#
#
# Indices 1 2 3 4 5 6 
#
# 1 131.7554 64.2241 57.8156 -7.1838 -3.1046 18.2369
# 2 64.2241 91.2067 22.8753 -12.4592 7.4840 1.4517
# 3 57.8156 22.8753 77.5347 9.6788 5.4197 3.1536
# 4 -7.1838 -12.4592 9.6788 37.0476 1.9945 11.6882
# 5 -3.1046 7.4840 5.4197 1.9945 53.2023 -5.0110
# 6 18.2369 1.4517 3.1536 11.6882 -5.0110 44.9837
#
#
#
# Elastic Compliance Matrix: (Units=1/GPa)
#
#
# Indices 1 2 3 4 5 6 
#
# 1 0.019001 -0.009695 -0.011912 0.005839 0.002736 -0.007768
# 2 -0.009695 0.018065 0.001629 0.003306 -0.003207 0.002017
# 3 -0.011912 0.001629 0.022392 -0.009165 -0.002360 0.005326
# 4 0.005839 0.003306 -0.009165 0.035236 -0.001563 -0.011161
# 5 0.002736 -0.003207 -0.002360 -0.001563 0.019874 0.001780
# 6 -0.007768 0.002017 0.005326 -0.011161 0.001780 0.028039
#
#
# Mechanical properties :
#
#
# Convention : Reuss Voigt Hill
#
# Bulk Modulus (GPa) = 51.27897 65.59186 58.43541
# Shear Modulus (GPa) = 26.44596 37.41884 31.93240
#
# Velocity S-wave (km/s) = 3.39457 4.03785 3.73011
# Velocity P-wave (km/s) = 6.14065 7.09358 6.63425
#
# Compressibility (1/GPa) = 0.01950117
#
# Stress axis : x y z
#
# Youngs Moduli (GPa) = 52.62870 55.35523 44.65870
#
# Poissons Ratio (x) = 0.53668 0.53199
# Poissons Ratio (y) = 0.51025 -0.07275
# Poissons Ratio (z) = 0.62693 -0.09018
#
# Static dielectric constant tensor:
#      x y z
#    x 1.877840 -0.009220 0.040260 
#    y -0.009220 1.867540 -0.036830 
#    z 0.040260 -0.036830 1.932680 
# 
# From -- ./inp_files/59995.got.cif
#   From: 2010.05.17/outbox.cif.g08.bks.cpg/sg2_30_cif.got.tgz:59995.got - 2010.06.03 11:33:40.
