data_PCOD9060070
_publ_section_title
;
Structure prediction by ZEFSAII (Michael W. Deem and Ramdas Pophale) SiO2 
 PCOD9060070
Probable space group: P -1
;
_chemical_formula_sum "Si O2"
_cell_formula_units_Z 13
_cell_length_a 8.555686
_cell_length_b 19.521884
_cell_length_c 6.498780
_cell_angle_alpha 113.668012
_cell_angle_beta 96.454141
_cell_angle_gamma 134.249886
_cell_volume 570.586361
_symmetry_space_group_name_H-M "P -1"
_symmetry_group_IT_number 2
_symmetry_cell_setting 'triclinic'
loop_
_space_group_symop_operation_xyz
x,y,z
-x,-y,-z
loop_
_atom_site_type_symbol
_atom_site_label
_atom_site_fract_x
_atom_site_fract_y
_atom_site_fract_z
Si Si1 0.676594 0.978580 0.365937
Si Si2 0.051692 0.805574 0.617952
Si Si3 0.857368 0.777929 0.971992
Si Si4 0.483262 0.405765 0.938948
Si Si5 0.000000 0.500000 0.000000
Si Si6 0.290824 0.128711 0.099427
Si Si7 0.718288 0.238512 0.633545
O O1 0.708841 0.051429 0.274238
O O2 0.416516 0.866285 0.338225
O O3 0.923679 0.095478 0.696339
O O4 0.698033 0.910241 0.161368
O O5 0.086505 0.738023 0.443740
O O6 0.027549 0.799626 0.851365
O O7 0.761900 0.722608 0.392085
O O8 0.685230 0.775323 0.831136
O O9 0.646321 0.648871 0.918153
O O10 0.747379 0.456679 0.004807
O O11 0.500000 0.500000 0.000000
O O12 0.848215 0.364157 0.892774
O O13 0.502084 0.182420 0.364059
O O14 0.000000 0.000000 0.000000
#
# Coordination Sequence:
#
# PCOD9060070 Si02
#       7
#     2   2   2   2   1   2   2
#     4  11  23  42  75 103 144 191 242 302 369 430
#     4  11  24  46  71 110 147 188 244 308 367 433
#     4  11  24  44  75 105 144 189 239 308 369 430
#     4  11  25  50  75 102 143 196 247 302 362 431
#     4  12  26  50  74 104 144 194 250 294 362 440
#     4  12  23  42  68 109 144 184 242 304 364 434
#     4  12  26  44  72 106 150 195 246 297 365 438
#
# _framework density 22.783579
#
# number of rings (size 3 to 8) (size 9 to 14) (size 15 to 20)
#    0.000    0.615    4.615    2.769    2.154    5.538 
#    2.769    3.846    0.000    0.000    0.000    0.000 
#    0.000    0.000    0.000    0.000    0.000    0.000 
#
# Total GULP energy -72382.611015 kJ/mol
# GULP energy per Si atom -5567.893155 kJ/mol
# Density = 2.273172 g / cm^3
# Si number density = 22.783579 Si / 1000 Ang^3
#
#
#
# Elastic Constant Matrix: (Units=GPa)
#
#
# Indices 1 2 3 4 5 6 
#
# 1 112.1338 71.8327 22.4488 -11.9528 -23.4118 -7.8642
# 2 71.8327 189.1160 47.9210 -12.4333 -12.8798 -7.8891
# 3 22.4488 47.9210 45.8740 -26.2479 -18.3287 5.1762
# 4 -11.9528 -12.4333 -26.2479 36.8349 0.5302 -8.1144
# 5 -23.4118 -12.8798 -18.3287 0.5302 44.0688 4.6507
# 6 -7.8642 -7.8891 5.1762 -8.1144 4.6507 36.5726
#
#
#
# Elastic Compliance Matrix: (Units=1/GPa)
#
#
# Indices 1 2 3 4 5 6 
#
# 1 0.013987 -0.005931 0.006884 0.007628 0.008322 0.001388
# 2 -0.005931 0.010881 -0.017386 -0.010043 -0.007317 0.002235
# 3 0.006884 -0.017386 0.078898 0.050776 0.031431 -0.006168
# 4 0.007628 -0.010043 0.050776 0.062896 0.021103 0.003559
# 5 0.008322 -0.007317 0.031431 0.021103 0.038260 -0.004420
# 6 0.001388 0.002235 -0.006168 0.003559 -0.004420 0.030348
#
#
# Mechanical properties :
#
#
# Convention : Reuss Voigt Hill
#
# Bulk Modulus (GPa) = 14.10416 70.16988 42.13702
# Shear Modulus (GPa) = 17.13688 37.15669 27.14679
#
# Velocity S-wave (km/s) = 2.74553 4.04276 3.45557
# Velocity P-wave (km/s) = 4.03169 7.25653 5.86991
#
# Compressibility (1/GPa) = 0.07090105
#
# Stress axis : x y z
#
# Youngs Moduli (GPa) = 71.49406 91.90646 12.67455
#
# Poissons Ratio (x) = 0.54510 -0.08725
# Poissons Ratio (y) = 0.42403 0.22036
# Poissons Ratio (z) = -0.49218 1.59786
#
# Static dielectric constant tensor:
#      x y z
#    x 1.856660 0.009620 -0.000240 
#    y 0.009620 1.854480 -0.022970 
#    z -0.000240 -0.022970 1.757890 
# 
# From -- ./inp_files/45442.got.cif
#   From: 2010.05.17/outbox.cif.g08.bks.cpg/sg2_23_cif.got.tgz:45442.got - 2010.06.03 11:33:40.
