data_PCOD9060233
_publ_section_title
;
Structure prediction by ZEFSAII (Michael W. Deem and Ramdas Pophale) SiO2 
 PCOD9060233
Probable space group: P -1
;
_chemical_formula_sum "Si O2"
_cell_formula_units_Z 14
_cell_length_a 8.731157
_cell_length_b 11.054772
_cell_length_c 10.623423
_cell_angle_alpha 75.381211
_cell_angle_beta 134.000347
_cell_angle_gamma 123.426967
_cell_volume 600.917443
_symmetry_space_group_name_H-M "P -1"
_symmetry_group_IT_number 2
_symmetry_cell_setting 'triclinic'
loop_
_space_group_symop_operation_xyz
x,y,z
-x,-y,-z
loop_
_atom_site_type_symbol
_atom_site_label
_atom_site_fract_x
_atom_site_fract_y
_atom_site_fract_z
Si Si1 0.089620 0.745935 0.096739
Si Si2 0.118910 0.118467 0.421858
Si Si3 0.572456 0.550720 0.734720
Si Si4 0.556128 0.649758 0.062151
Si Si5 0.329574 0.604521 0.376376
Si Si6 0.708544 0.177053 0.085945
Si Si7 0.056166 0.943262 0.176384
O O1 0.096746 0.619303 0.209298
O O2 0.230326 0.890190 0.229079
O O3 0.223280 0.773127 0.032764
O O4 0.800908 0.684280 0.907562
O O5 0.412869 0.248142 0.564987
O O6 0.938473 0.182351 0.287804
O O7 0.000000 0.000000 0.500000
O O8 0.114726 0.047417 0.301507
O O9 0.450914 0.402445 0.785605
O O10 0.375092 0.583871 0.552677
O O11 0.697644 0.525770 0.691009
O O12 0.824495 0.787606 0.137083
O O13 0.500000 0.500000 0.000000
O O14 0.383607 0.720739 0.933900
O O15 0.500000 0.000000 0.000000
O O16 0.000000 0.000000 0.000000
#
# Coordination Sequence:
#
# PCOD9060233 Si02
#       7
#     2   2   2   2   2   2   2
#     4  12  23  44  74 103 140 202 245 301 376 448
#     4  12  25  45  70 107 152 191 252 312 363 452
#     4  11  23  43  68 102 147 185 242 305 375 435
#     4  12  25  43  74 111 146 187 251 314 364 443
#     4  11  24  41  70 103 143 191 242 303 370 445
#     4  12  23  45  76 103 142 203 250 293 382 449
#     4  12  24  46  75 106 149 194 251 307 374 446
#
# _framework density 23.297711
#
# number of rings (size 3 to 8) (size 9 to 14) (size 15 to 20)
#    0.000    0.286    7.143    2.143    0.000    0.571 
#    2.571    0.714    0.000    0.000    0.000    0.000 
#    0.000    0.000    0.000    0.000    0.000    0.000 
#
# Total GULP energy -78116.333019 kJ/mol
# GULP energy per Si atom -5579.738073 kJ/mol
# Density = 2.324468 g / cm^3
# Si number density = 23.297711 Si / 1000 Ang^3
#
#
#
# Elastic Constant Matrix: (Units=GPa)
#
#
# Indices 1 2 3 4 5 6 
#
# 1 58.3124 25.3680 28.4568 0.5461 -10.1452 -21.6834
# 2 25.3680 134.0139 45.5617 -6.6392 -5.5935 7.5794
# 3 28.4568 45.5617 119.1807 -24.3362 -14.7790 -3.3629
# 4 0.5461 -6.6392 -24.3362 52.1388 -8.5598 0.8986
# 5 -10.1452 -5.5935 -14.7790 -8.5598 28.0689 0.8918
# 6 -21.6834 7.5794 -3.3629 0.8986 0.8918 48.6822
#
#
#
# Elastic Compliance Matrix: (Units=1/GPa)
#
#
# Indices 1 2 3 4 5 6 
#
# 1 0.026439 -0.004160 -0.004103 -0.002016 0.005569 0.012076
# 2 -0.004160 0.009364 -0.002868 -0.000224 -0.001105 -0.003485
# 3 -0.004103 -0.002868 0.012636 0.006682 0.006660 -0.000753
# 4 -0.002016 -0.000224 0.006682 0.023965 0.010086 -0.001028
# 5 0.005569 -0.001105 0.006660 0.010086 0.043934 0.002121
# 6 0.012076 -0.003485 -0.000753 -0.001028 0.002121 0.026391
#
#
# Mechanical properties :
#
#
# Convention : Reuss Voigt Hill
#
# Bulk Modulus (GPa) = 38.20047 56.69777 47.44912
# Shear Modulus (GPa) = 28.78267 39.91934 34.35100
#
# Velocity S-wave (km/s) = 3.51868 4.14387 3.84401
# Velocity P-wave (km/s) = 5.73937 6.87638 6.33344
#
# Compressibility (1/GPa) = 0.02617769
#
# Stress axis : x y z
#
# Youngs Moduli (GPa) = 37.82272 106.78959 79.14174
#
# Poissons Ratio (x) = 0.44428 0.32470
# Poissons Ratio (y) = 0.15735 0.22694
# Poissons Ratio (z) = 0.15518 0.30622
#
# Static dielectric constant tensor:
#      x y z
#    x 1.987320 -0.076070 -0.012830 
#    y -0.076070 2.008140 -0.001400 
#    z -0.012830 -0.001400 1.941020 
# 
# From -- ./inp_files/187125.got.cif
#   From: 2010.05.17/outbox.cif.g08.bks.cpg/sg2_94_cif.got.tgz:187125.got - 2010.06.03 11:33:40.
