data_PCOD9060898
_publ_section_title
;
Structure prediction by ZEFSAII (Michael W. Deem and Ramdas Pophale) SiO2 
 PCOD9060898
Probable space group: P -1
;
_chemical_formula_sum "Si O2"
_cell_formula_units_Z 12
_cell_length_a 7.093704
_cell_length_b 7.792573
_cell_length_c 8.765750
_cell_angle_alpha 96.869600
_cell_angle_beta 81.012847
_cell_angle_gamma 83.740050
_cell_volume 471.122622
_symmetry_space_group_name_H-M "P -1"
_symmetry_group_IT_number 2
_symmetry_cell_setting 'triclinic'
loop_
_space_group_symop_operation_xyz
x,y,z
-x,-y,-z
loop_
_atom_site_type_symbol
_atom_site_label
_atom_site_fract_x
_atom_site_fract_y
_atom_site_fract_z
Si Si1 0.715509 0.621395 0.117797
Si Si2 0.713837 0.443173 0.782844
Si Si3 0.195096 0.693395 0.709783
Si Si4 0.028260 0.200372 0.532212
Si Si5 0.370543 0.996547 0.864591
Si Si6 0.581539 0.753713 0.595097
O O1 0.481818 0.638346 0.163463
O O2 0.792179 0.486734 0.224461
O O3 0.756458 0.819145 0.123695
O O4 0.773931 0.526178 0.941491
O O5 0.880468 0.306517 0.676725
O O6 0.649770 0.604404 0.694188
O O7 0.014698 0.728286 0.627114
O O8 0.375118 0.700282 0.568958
O O9 0.236618 0.841384 0.842786
O O10 0.249088 0.224043 0.538201
O O11 0.000000 0.000000 0.500000
O O12 0.524659 0.939086 0.705107
O O13 0.500000 0.000000 0.000000
#
# Coordination Sequence:
#
# PCOD9060898 Si02
#       6
#     2   2   2   2   2   2
#     4  10  18  40  70  96 128 174 213 268 326 383
#     4  10  20  39  66  96 131 170 215 267 324 384
#     4   9  24  42  68  98 127 173 217 268 326 383
#     4  12  25  44  63  96 133 174 218 272 324 386
#     4  10  17  39  70  97 128 169 215 261 322 386
#     4   9  21  41  64  96 130 165 218 266 319 387
#
# _framework density 25.471074999999999
#
# number of rings (size 3 to 8) (size 9 to 14) (size 15 to 20)
#    1.000    1.000    1.667    2.500    0.000    3.333 
#    6.000    4.167    0.000    0.000    0.000    0.000 
#    0.000    0.000    0.000    0.000    0.000    0.000 
#
# Total GULP energy -67167.086064 kJ/mol
# GULP energy per Si atom -5597.257172 kJ/mol
# Density = 2.541310 g / cm^3
# Si number density = 25.471075 Si / 1000 Ang^3
#
#
#
# Elastic Constant Matrix: (Units=GPa)
#
#
# Indices 1 2 3 4 5 6 
#
# 1 84.8800 20.1861 21.6820 1.4003 -5.0149 10.7615
# 2 20.1861 191.3604 49.3759 20.1091 17.4382 9.3301
# 3 21.6820 49.3759 77.5082 22.6718 8.8093 3.6290
# 4 1.4003 20.1091 22.6718 36.2442 -3.0127 3.7934
# 5 -5.0149 17.4382 8.8093 -3.0127 43.2736 -0.2263
# 6 10.7615 9.3301 3.6290 3.7934 -0.2263 30.9071
#
#
#
# Elastic Compliance Matrix: (Units=1/GPa)
#
#
# Indices 1 2 3 4 5 6 
#
# 1 0.013797 -0.000699 -0.004549 0.003417 0.003021 -0.004456
# 2 -0.000699 0.006555 -0.003185 -0.001677 -0.002197 -0.001172
# 3 -0.004549 -0.003185 0.019786 -0.010929 -0.004024 0.001534
# 4 0.003417 -0.001677 -0.010929 0.036103 0.005790 -0.003789
# 5 0.003021 -0.002197 -0.004024 0.005790 0.025564 -0.000440
# 6 -0.004456 -0.001172 0.001534 -0.003789 -0.000440 0.034542
#
#
# Mechanical properties :
#
#
# Convention : Reuss Voigt Hill
#
# Bulk Modulus (GPa) = 42.96996 59.58183 51.27589
# Shear Modulus (GPa) = 31.06195 39.58530 35.32362
#
# Velocity S-wave (km/s) = 3.49592 3.94652 3.72803
# Velocity P-wave (km/s) = 5.76212 6.64902 6.22139
#
# Compressibility (1/GPa) = 0.02327207
#
# Stress axis : x y z
#
# Youngs Moduli (GPa) = 72.48211 152.55803 50.54199
#
# Poissons Ratio (x) = 0.10662 0.22989
# Poissons Ratio (y) = 0.05066 0.16098
# Poissons Ratio (z) = 0.32969 0.48590
#
# Static dielectric constant tensor:
#      x y z
#    x 2.045030 0.017820 -0.037480 
#    y 0.017820 1.954950 0.022740 
#    z -0.037480 0.022740 2.039780 
# 
# From -- ./inp_files/146103.got.cif
#   From: 2010.05.17/outbox.cif.g08.bks.cpg/sg2_74_cif.got.tgz:146103.got - 2010.06.03 11:33:40.
