data_PCOD9060994
_publ_section_title
;
Structure prediction by ZEFSAII (Michael W. Deem and Ramdas Pophale) SiO2 
 PCOD9060994
Probable space group: P -1
;
_chemical_formula_sum "Si O2"
_cell_formula_units_Z 13
_cell_length_a 11.270110
_cell_length_b 12.405503
_cell_length_c 14.878266
_cell_angle_alpha 148.953728
_cell_angle_beta 27.994626
_cell_angle_gamma 144.328680
_cell_volume 489.963207
_symmetry_space_group_name_H-M "P -1"
_symmetry_group_IT_number 2
_symmetry_cell_setting 'triclinic'
loop_
_space_group_symop_operation_xyz
x,y,z
-x,-y,-z
loop_
_atom_site_type_symbol
_atom_site_label
_atom_site_fract_x
_atom_site_fract_y
_atom_site_fract_z
Si Si1 0.821554 0.259571 0.938478
Si Si2 0.917591 0.211941 0.172212
Si Si3 0.634790 0.709509 0.606732
Si Si4 0.934520 0.139334 0.454359
Si Si5 0.686247 0.238018 0.531515
Si Si6 0.433965 0.952961 0.217267
Si Si7 0.500000 0.500000 0.000000
O O1 0.978324 0.081631 0.739894
O O2 0.672689 0.221187 0.913287
O O3 0.579410 0.221698 0.140770
O O4 0.000000 0.500000 0.000000
O O5 0.748660 0.279944 0.415509
O O6 0.719123 0.108967 0.150733
O O7 0.191593 0.378986 0.097326
O O8 0.000000 0.000000 0.000000
O O9 0.500000 0.500000 0.500000
O O10 0.729773 0.876931 0.583963
O O11 0.864633 0.686298 0.499443
O O12 0.657341 0.137948 0.687726
O O13 0.934878 0.202481 0.396457
O O14 0.500000 0.000000 0.500000
O O15 0.588492 0.417944 0.781653
#
# Coordination Sequence:
#
# PCOD9060994 Si02
#       7
#     2   2   2   2   2   2   1
#     4  11  24  45  72 107 147 195 250 311 389 463
#     4  12  27  50  79 115 159 204 266 327 391 472
#     4  11  24  41  66 103 140 185 243 308 382 449
#     4  11  23  45  73 102 146 192 246 318 379 452
#     4  12  26  52  76 117 156 206 265 326 392 467
#     4  11  23  44  71 103 143 194 244 315 384 450
#     4  12  28  52  82 110 158 220 262 318 406 466
#
# _framework density 26.532605
#
# number of rings (size 3 to 8) (size 9 to 14) (size 15 to 20)
#    0.000    0.615    3.077    6.000    6.462    0.000 
#    8.308    0.000    0.000    0.000    0.000    0.000 
#    0.000    0.000    0.000    0.000    0.000    0.000 
#
# Total GULP energy -72430.010816 kJ/mol
# GULP energy per Si atom -5571.539294 kJ/mol
# Density = 2.647222 g / cm^3
# Si number density = 26.532605 Si / 1000 Ang^3
#
#
#
# Elastic Constant Matrix: (Units=GPa)
#
#
# Indices 1 2 3 4 5 6 
#
# 1 134.3010 46.1080 15.7701 5.9413 18.9473 34.7618
# 2 46.1080 175.1265 30.5634 3.0880 6.6458 53.5377
# 3 15.7701 30.5634 139.3938 -5.1735 26.8014 13.2016
# 4 5.9413 3.0880 -5.1735 48.1748 5.7336 9.6450
# 5 18.9473 6.6458 26.8014 5.7336 38.2353 0.5102
# 6 34.7618 53.5377 13.2016 9.6450 0.5102 62.6833
#
#
#
# Elastic Compliance Matrix: (Units=1/GPa)
#
#
# Indices 1 2 3 4 5 6 
#
# 1 0.009607 -0.001044 0.000548 0.000449 -0.004969 -0.004580
# 2 -0.001044 0.008049 -0.000987 0.000776 -0.000223 -0.006205
# 3 0.000548 -0.000987 0.008816 0.002040 -0.006564 -0.001578
# 4 0.000449 0.000776 0.002040 0.022428 -0.005087 -0.004751
# 5 -0.004969 -0.000223 -0.006564 -0.005087 0.033955 0.004835
# 6 -0.004580 -0.006205 -0.001578 -0.004751 0.004835 0.024817
#
#
# Mechanical properties :
#
#
# Convention : Reuss Voigt Hill
#
# Bulk Modulus (GPa) = 42.54516 70.41159 56.47838
# Shear Modulus (GPa) = 42.20361 53.57733 47.89047
#
# Velocity S-wave (km/s) = 3.99260 4.49854 4.25310
# Velocity P-wave (km/s) = 6.10936 7.31969 6.74174
#
# Compressibility (1/GPa) = 0.02350443
#
# Stress axis : x y z
#
# Youngs Moduli (GPa) = 104.09368 124.23583 113.43505
#
# Poissons Ratio (x) = 0.12973 -0.06216
# Poissons Ratio (y) = 0.10869 0.11200
# Poissons Ratio (z) = -0.05704 0.12267
#
# Static dielectric constant tensor:
#      x y z
#    x 2.229590 -0.167270 -0.164110 
#    y -0.167270 2.266430 0.176320 
#    z -0.164110 0.176320 2.271250 
# 
# From -- ./inp_files/422927.got.cif
#   From: 2010.05.17/outbox.cif.g08.bks.cpg/sg2_212_cif.got.tgz:422927.got - 2010.06.03 11:33:40.
