data_PCOD9060727
_publ_section_title
;
Structure prediction by ZEFSAII (Michael W. Deem and Ramdas Pophale) SiO2 
 PCOD9060727
Probable space group: P -1
;
_chemical_formula_sum "Si O2"
_cell_formula_units_Z 13
_cell_length_a 18.920306
_cell_length_b 5.041262
_cell_length_c 7.304321
_cell_angle_alpha 136.292214
_cell_angle_beta 66.687126
_cell_angle_gamma 101.766604
_cell_volume 438.383855
_symmetry_space_group_name_H-M "P -1"
_symmetry_group_IT_number 2
_symmetry_cell_setting 'triclinic'
loop_
_space_group_symop_operation_xyz
x,y,z
-x,-y,-z
loop_
_atom_site_type_symbol
_atom_site_label
_atom_site_fract_x
_atom_site_fract_y
_atom_site_fract_z
Si Si1 0.000000 0.500000 0.500000
Si Si2 0.662397 0.123274 0.920591
Si Si3 0.822995 0.070188 0.301039
Si Si4 0.346998 0.752219 0.590926
Si Si5 0.000000 0.000000 0.500000
Si Si6 0.506664 0.449932 0.250652
Si Si7 0.170609 0.079806 0.377074
Si Si8 0.000000 0.000000 0.000000
O O1 0.174611 0.460326 0.438322
O O2 0.986036 0.508169 0.299028
O O3 0.648596 0.076252 0.126645
O O4 0.594664 0.456795 0.096750
O O5 0.660072 0.712528 0.618681
O O6 0.750100 0.205933 0.862010
O O7 0.735141 0.072563 0.321790
O O8 0.904551 0.113755 0.684275
O O9 0.901072 0.970671 0.051829
O O10 0.831198 0.831319 0.360852
O O11 0.431497 0.723878 0.388942
O O12 0.986814 0.054789 0.289234
O O13 0.500000 0.500000 0.500000
O O14 0.500000 0.000000 0.000000
#
# Coordination Sequence:
#
# PCOD9060727 Si02
#       8
#     1   2   2   2   1   2   2   1
#     4  12  28  44  72  92 132 168 228 260 336 376
#     4   9  19  36  61  92 127 166 212 262 320 381
#     4  11  25  42  68  95 135 170 222 267 328 385
#     4   9  19  36  61  92 127 166 212 262 320 381
#     4  12  22  46  68  98 130 176 216 274 322 390
#     4   8  14  30  57  88 122 162 206 258 314 378
#     4  11  23  44  65 100 130 175 217 272 323 390
#     4  12  26  48  66 100 128 178 214 276 320 392
#
# _framework density 29.654375999999999
#
# number of rings (size 3 to 8) (size 9 to 14) (size 15 to 20)
#    0.000    1.846    3.077    0.000    2.154    2.462 
#    2.769    0.769    0.000    0.000    0.000   32.308 
#    0.000    0.000    0.000    0.000    0.000    0.000 
#
# Total GULP energy -72373.819350 kJ/mol
# GULP energy per Si atom -5567.216873 kJ/mol
# Density = 2.958688 g / cm^3
# Si number density = 29.654376 Si / 1000 Ang^3
#
#
#
# Elastic Constant Matrix: (Units=GPa)
#
#
# Indices 1 2 3 4 5 6 
#
# 1 196.4860 25.7175 58.8120 1.5101 -66.5881 -16.6396
# 2 25.7175 177.7216 47.5361 2.8154 6.8677 -0.4123
# 3 58.8120 47.5361 155.7783 13.2984 -6.5213 1.8081
# 4 1.5101 2.8154 13.2984 55.2576 -0.6854 11.3409
# 5 -66.5881 6.8677 -6.5213 -0.6854 111.9453 0.6173
# 6 -16.6396 -0.4123 1.8081 11.3409 0.6173 21.5461
#
#
#
# Elastic Compliance Matrix: (Units=1/GPa)
#
#
# Indices 1 2 3 4 5 6 
#
# 1 0.008151 -0.000609 -0.002699 -0.000889 0.004686 0.006843
# 2 -0.000609 0.006201 -0.001708 0.000156 -0.000840 -0.000266
# 3 -0.002699 -0.001708 0.008057 -0.001372 -0.001028 -0.002042
# 4 -0.000889 0.000156 -0.001372 0.020799 -0.000427 -0.011504
# 5 0.004686 -0.000840 -0.001028 -0.000427 0.011689 0.003579
# 6 0.006843 -0.000266 -0.002042 -0.011504 0.003579 0.057816
#
#
# Mechanical properties :
#
#
# Convention : Reuss Voigt Hill
#
# Bulk Modulus (GPa) = 80.78613 88.23521 84.51067
# Shear Modulus (GPa) = 39.41012 64.27783 51.84398
#
# Velocity S-wave (km/s) = 3.64948 4.66076 4.18577
# Velocity P-wave (km/s) = 6.71267 7.66699 7.20565
#
# Compressibility (1/GPa) = 0.01237836
#
# Stress axis : x y z
#
# Youngs Moduli (GPa) = 122.68075 161.26391 124.11123
#
# Poissons Ratio (x) = 0.09816 0.33498
# Poissons Ratio (y) = 0.07468 0.21196
# Poissons Ratio (z) = 0.33112 0.27541
#
# Static dielectric constant tensor:
#      x y z
#    x 2.339270 -0.141800 0.266900 
#    y -0.141800 2.408320 -0.096360 
#    z 0.266900 -0.096360 1.998490 
# 
# From -- ./inp_files/103440.got.cif
#   From: 2010.05.17/outbox.cif.g08.bks.cpg/sg2_52_cif.got.tgz:103440.got - 2010.06.03 11:33:40.
