data_PCOD9060971
_publ_section_title
;
Structure prediction by ZEFSAII (Michael W. Deem and Ramdas Pophale) SiO2 
 PCOD9060971
Probable space group: P -1
;
_chemical_formula_sum "Si O2"
_cell_formula_units_Z 14
_cell_length_a 7.043214
_cell_length_b 7.253493
_cell_length_c 14.939061
_cell_angle_alpha 54.483247
_cell_angle_beta 62.797911
_cell_angle_gamma 59.755187
_cell_volume 521.754905
_symmetry_space_group_name_H-M "P -1"
_symmetry_group_IT_number 2
_symmetry_cell_setting 'triclinic'
loop_
_space_group_symop_operation_xyz
x,y,z
-x,-y,-z
loop_
_atom_site_type_symbol
_atom_site_label
_atom_site_fract_x
_atom_site_fract_y
_atom_site_fract_z
Si Si1 0.710818 0.664687 0.324350
Si Si2 0.503804 0.849717 0.694978
Si Si3 0.998102 0.654416 0.103535
Si Si4 0.936483 0.703650 0.531504
Si Si5 0.167187 0.171829 0.088942
Si Si6 0.754685 0.100369 0.685315
Si Si7 0.468947 0.588055 0.084488
O O1 0.781933 0.724030 0.194135
O O2 0.899084 0.428320 0.385195
O O3 0.453546 0.665371 0.366905
O O4 0.686839 0.889643 0.333385
O O5 0.436182 0.625020 0.804193
O O6 0.676100 0.791383 0.591843
O O7 0.659738 0.893726 0.729778
O O8 0.043174 0.395210 0.119065
O O9 0.199393 0.663180 0.122366
O O10 0.972093 0.816881 0.974850
O O11 0.025320 0.907310 0.414308
O O12 0.000000 0.500000 0.500000
O O13 0.214140 0.937599 0.205666
O O14 0.391713 0.229907 0.993475
O O15 0.500000 0.500000 0.000000
#
# Coordination Sequence:
#
# PCOD9060971 Si02
#       7
#     2   2   2   2   2   2   2
#     4  10  22  43  67  95 128 177 223 265 350 391
#     4  10  22  42  71  93 131 179 219 276 342 396
#     4  10  19  38  67  99 138 175 216 280 336 395
#     4  12  25  45  67  97 132 171 228 286 329 396
#     4  10  21  39  68 102 138 177 221 274 337 404
#     4  10  22  44  65  95 133 177 220 269 336 405
#     4  10  17  40  65  97 138 173 217 277 334 396
#
# _framework density 26.832521
#
# number of rings (size 3 to 8) (size 9 to 14) (size 15 to 20)
#    0.857    0.857    4.286    0.857    0.000    2.286 
#   10.286    7.857    0.000    0.000    0.000    0.000 
#    0.000    0.000    0.000    0.000    0.000    0.000 
#
# Total GULP energy -78312.699995 kJ/mol
# GULP energy per Si atom -5593.764285 kJ/mol
# Density = 2.677145 g / cm^3
# Si number density = 26.832521 Si / 1000 Ang^3
#
#
#
# Elastic Constant Matrix: (Units=GPa)
#
#
# Indices 1 2 3 4 5 6 
#
# 1 83.9716 27.4493 38.4977 0.4535 -0.6533 -5.0391
# 2 27.4493 126.7783 27.9951 10.9254 -10.4110 -3.2324
# 3 38.4977 27.9951 140.9145 2.0780 -9.9781 -9.1951
# 4 0.4535 10.9254 2.0780 44.6494 -11.1177 4.4949
# 5 -0.6533 -10.4110 -9.9781 -11.1177 50.7053 8.8172
# 6 -5.0391 -3.2324 -9.1951 4.4949 8.8172 9.0321
#
#
#
# Elastic Compliance Matrix: (Units=1/GPa)
#
#
# Indices 1 2 3 4 5 6 
#
# 1 0.014542 -0.002401 -0.003224 -0.000599 -0.002185 0.006402
# 2 -0.002401 0.008891 -0.000955 -0.001929 0.001042 0.000812
# 3 -0.003224 -0.000955 0.008641 -0.000825 0.000064 0.007004
# 4 -0.000599 -0.001929 -0.000825 0.027981 0.010015 -0.025565
# 5 -0.002185 0.001042 0.000064 0.010015 0.027845 -0.032948
# 6 0.006402 0.000812 0.007004 -0.025565 -0.032948 0.166597
#
#
# Mechanical properties :
#
#
# Convention : Reuss Voigt Hill
#
# Bulk Modulus (GPa) = 52.87222 59.94983 56.41102
# Shear Modulus (GPa) = 18.25068 38.05884 28.15476
#
# Velocity S-wave (km/s) = 2.61084 3.77023 3.24277
# Velocity P-wave (km/s) = 5.36991 6.42990 5.92366
#
# Compressibility (1/GPa) = 0.01891353
#
# Stress axis : x y z
#
# Youngs Moduli (GPa) = 68.76520 112.47142 115.73039
#
# Poissons Ratio (x) = 0.27007 0.37311
# Poissons Ratio (y) = 0.16512 0.11053
# Poissons Ratio (z) = 0.22170 0.10742
#
# Static dielectric constant tensor:
#      x y z
#    x 2.180720 -0.050890 -0.029230 
#    y -0.050890 2.249880 -0.068970 
#    z -0.029230 -0.068970 2.041100 
# 
# From -- ./inp_files/490365.got.cif
#   From: 2010.05.17/outbox.cif.g08.bks.cpg/sg2_246_cif.got.tgz:490365.got - 2010.06.03 11:33:40.
