data_PCOD9060972
_publ_section_title
;
Structure prediction by ZEFSAII (Michael W. Deem and Ramdas Pophale) SiO2 
 PCOD9060972
Probable space group: P -1
;
_chemical_formula_sum "Si O2"
_cell_formula_units_Z 14
_cell_length_a 17.248828
_cell_length_b 9.739343
_cell_length_c 11.963457
_cell_angle_alpha 44.408214
_cell_angle_beta 31.150656
_cell_angle_gamma 35.136941
_cell_volume 597.631904
_symmetry_space_group_name_H-M "P -1"
_symmetry_group_IT_number 2
_symmetry_cell_setting 'triclinic'
loop_
_space_group_symop_operation_xyz
x,y,z
-x,-y,-z
loop_
_atom_site_type_symbol
_atom_site_label
_atom_site_fract_x
_atom_site_fract_y
_atom_site_fract_z
Si Si1 0.932265 0.222820 0.870956
Si Si2 0.692580 0.650255 0.478211
Si Si3 0.045028 0.190651 0.364543
Si Si4 0.305534 0.228272 0.150489
Si Si5 0.378142 0.703565 0.940605
Si Si6 0.671500 0.904366 0.568605
Si Si7 0.715021 0.803658 0.129514
O O1 0.802243 0.496694 0.920776
O O2 0.127387 0.161517 0.630505
O O3 0.810587 0.230729 0.915367
O O4 0.000000 0.000000 0.000000
O O5 0.516963 0.641832 0.702020
O O6 0.651779 0.864904 0.484581
O O7 0.770463 0.643763 0.264744
O O8 0.848720 0.429482 0.484957
O O9 0.172794 0.142534 0.339496
O O10 0.148072 0.242212 0.111176
O O11 0.000000 0.000000 0.500000
O O12 0.328961 0.254400 0.238311
O O13 0.500000 0.000000 0.000000
O O14 0.335402 0.943215 0.910457
O O15 0.500000 0.500000 0.000000
O O16 0.478325 0.152886 0.691134
#
# Coordination Sequence:
#
# PCOD9060972 Si02
#       7
#     2   2   2   2   2   2   2
#     4  12  25  45  76 109 142 184 246 303 352 426
#     4  11  23  44  70  98 139 192 236 291 361 428
#     4  12  27  44  69 101 140 188 241 293 363 433
#     4  12  27  48  71 102 148 189 235 298 367 427
#     4  11  24  40  70 105 139 184 248 294 349 435
#     4  11  23  45  73 101 140 189 241 293 354 430
#     4  11  23  45  68 100 146 184 231 298 366 428
#
# _framework density 23.425791
#
# number of rings (size 3 to 8) (size 9 to 14) (size 15 to 20)
#    0.000    0.571    2.857    6.857    6.000    0.000 
#    0.000    0.714    0.000    0.000    0.000    0.000 
#    0.000    0.000    0.000    0.000    0.000    0.000 
#
# Total GULP energy -77968.802262 kJ/mol
# GULP energy per Si atom -5569.200162 kJ/mol
# Density = 2.337247 g / cm^3
# Si number density = 23.425791 Si / 1000 Ang^3
#
#
#
# Elastic Constant Matrix: (Units=GPa)
#
#
# Indices 1 2 3 4 5 6 
#
# 1 114.6092 25.1193 40.8376 -0.6944 -15.4664 -27.3925
# 2 25.1193 121.1578 36.9103 3.3237 -10.6733 -22.5475
# 3 40.8376 36.9103 113.7360 20.6282 0.8454 -14.7128
# 4 -0.6944 3.3237 20.6282 38.3542 -17.2809 -3.1534
# 5 -15.4664 -10.6733 0.8454 -17.2809 52.4321 7.5076
# 6 -27.3925 -22.5475 -14.7128 -3.1534 7.5076 37.2879
#
#
#
# Elastic Compliance Matrix: (Units=1/GPa)
#
#
# Indices 1 2 3 4 5 6 
#
# 1 0.012743 0.000435 -0.004811 0.005493 0.004698 0.007245
# 2 0.000435 0.010221 -0.003276 0.002338 0.002325 0.004937
# 3 -0.004811 -0.003276 0.013334 -0.009408 -0.005407 0.000040
# 4 0.005493 0.002338 -0.009408 0.037672 0.014374 0.002028
# 5 0.004698 0.002325 -0.005407 0.014374 0.025940 -0.001283
# 6 0.007245 0.004937 0.000040 0.002028 -0.001283 0.035571
#
#
# Mechanical properties :
#
#
# Convention : Reuss Voigt Hill
#
# Bulk Modulus (GPa) = 47.62926 61.69303 54.66115
# Shear Modulus (GPa) = 31.68916 42.05723 36.87319
#
# Velocity S-wave (km/s) = 3.68196 4.24174 3.97172
# Velocity P-wave (km/s) = 6.20096 7.09806 6.66462
#
# Compressibility (1/GPa) = 0.02099550
#
# Stress axis : x y z
#
# Youngs Moduli (GPa) = 78.47536 97.83820 74.99505
#
# Poissons Ratio (x) = -0.04256 0.36076
# Poissons Ratio (y) = -0.03414 0.24566
# Poissons Ratio (z) = 0.37751 0.32049
#
# Static dielectric constant tensor:
#      x y z
#    x 2.001610 0.028580 -0.021860 
#    y 0.028580 1.953820 -0.062000 
#    z -0.021860 -0.062000 2.023490 
# 
# From -- ./inp_files/465019.got.cif
#   From: 2010.05.17/outbox.cif.g08.bks.cpg/sg2_233_cif.got.tgz:465019.got - 2010.06.03 11:33:40.
