data_PCOD9060071
_publ_section_title
;
Structure prediction by ZEFSAII (Michael W. Deem and Ramdas Pophale) SiO2 
 PCOD9060071
Probable space group: P -1
;
_chemical_formula_sum "Si O2"
_cell_formula_units_Z 16
_cell_length_a 9.996641
_cell_length_b 5.691865
_cell_length_c 11.439622
_cell_angle_alpha 68.891165
_cell_angle_beta 82.102313
_cell_angle_gamma 93.701984
_cell_volume 596.873245
_symmetry_space_group_name_H-M "P -1"
_symmetry_group_IT_number 2
_symmetry_cell_setting 'triclinic'
loop_
_space_group_symop_operation_xyz
x,y,z
-x,-y,-z
loop_
_atom_site_type_symbol
_atom_site_label
_atom_site_fract_x
_atom_site_fract_y
_atom_site_fract_z
Si Si1 0.032022 0.011556 0.632457
Si Si2 0.241241 0.340808 0.832716
Si Si3 0.553798 0.258479 0.158284
Si Si4 0.232524 0.805783 0.321385
Si Si5 0.649453 0.711710 0.635813
Si Si6 0.316984 0.857763 0.050906
Si Si7 0.964442 0.484265 0.870169
Si Si8 0.652602 0.817500 0.373011
O O1 0.984217 0.749811 0.752713
O O2 0.192831 0.070990 0.628225
O O3 0.000000 0.000000 0.500000
O O4 0.930122 0.201129 0.660478
O O5 0.303122 0.568854 0.865756
O O6 0.316386 0.385145 0.691518
O O7 0.081108 0.325164 0.837914
O O8 0.273193 0.086641 0.937437
O O9 0.440842 0.381324 0.223999
O O10 0.571788 0.006511 0.275327
O O11 0.555606 0.220812 0.024994
O O12 0.265522 0.517131 0.371134
O O13 0.315286 0.924162 0.176137
O O14 0.278387 0.013361 0.379321
O O15 0.576195 0.747561 0.514985
O O16 0.188596 0.640122 0.103986
O O17 0.000000 0.500000 0.000000
#
# Coordination Sequence:
#
# PCOD9060071 Si02
#       8
#     2   2   2   2   2   2   2   2
#     4  12  25  46  78 112 159 193 253 318 396 463
#     4  11  23  42  75 106 147 192 256 314 384 444
#     4  11  26  49  74 110 144 201 258 318 368 443
#     4  12  29  50  74 112 152 207 244 310 385 460
#     4  12  30  49  77 107 157 205 259 303 376 461
#     4  11  25  44  74 108 150 196 256 313 385 453
#     4  12  21  43  76 112 153 196 250 321 386 461
#     4  11  25  47  74 110 144 199 249 320 379 452
#
# _framework density 26.806357999999999
#
# number of rings (size 3 to 8) (size 9 to 14) (size 15 to 20)
#    0.000    0.500    3.750    3.750    8.750    2.000 
#    0.000    0.000    0.000    0.000    0.000    0.000 
#    0.000    0.000    0.000    0.000    0.000    0.000 
#
# Total GULP energy -89587.740155 kJ/mol
# GULP energy per Si atom -5599.233760 kJ/mol
# Density = 2.674535 g / cm^3
# Si number density = 26.806358 Si / 1000 Ang^3
#
#
#
# Elastic Constant Matrix: (Units=GPa)
#
#
# Indices 1 2 3 4 5 6 
#
# 1 105.5464 29.8395 27.5116 5.6740 -8.7555 -9.8300
# 2 29.8395 105.0815 64.0937 23.2445 8.2035 -17.0487
# 3 27.5116 64.0937 197.5280 21.1438 5.6561 -6.9638
# 4 5.6740 23.2445 21.1438 43.6045 -3.0780 8.0318
# 5 -8.7555 8.2035 5.6561 -3.0780 50.2630 8.2490
# 6 -9.8300 -17.0487 -6.9638 8.0318 8.2490 45.3925
#
#
#
# Elastic Compliance Matrix: (Units=1/GPa)
#
#
# Indices 1 2 3 4 5 6 
#
# 1 0.010668 -0.002799 -0.000671 0.000473 0.002313 0.000652
# 2 -0.002799 0.015614 -0.003472 -0.007844 -0.004256 0.006887
# 3 -0.000671 -0.003472 0.006408 -0.001152 -0.000308 -0.000207
# 4 0.000473 -0.007844 -0.001152 0.029635 0.004807 -0.009138
# 5 0.002313 -0.004256 -0.000308 0.004807 0.022315 -0.006051
# 6 0.000652 0.006887 -0.000207 -0.009138 -0.006051 0.027443
#
#
# Mechanical properties :
#
#
# Convention : Reuss Voigt Hill
#
# Bulk Modulus (GPa) = 53.17987 72.33840 62.75914
# Shear Modulus (GPa) = 37.81132 46.96606 42.38869
#
# Velocity S-wave (km/s) = 3.75978 4.19029 3.98086
# Velocity P-wave (km/s) = 6.22331 7.10320 6.67776
#
# Compressibility (1/GPa) = 0.01880411
#
# Stress axis : x y z
#
# Youngs Moduli (GPa) = 93.73793 64.04527 156.06392
#
# Poissons Ratio (x) = 0.17927 0.10478
# Poissons Ratio (y) = 0.26239 0.54188
# Poissons Ratio (z) = 0.06294 0.22238
#
# Static dielectric constant tensor:
#      x y z
#    x 2.086540 0.041220 0.123440 
#    y 0.041220 1.995050 -0.334580 
#    z 0.123440 -0.334580 1.008250 
# 
# From -- ./inp_files/70762.got.cif
#   From: 2010.05.17/outbox.cif.g08.bks.cpg/sg2_36_cif.got.tgz:70762.got - 2010.06.03 11:33:40.
