data_PCOD9060991
_publ_section_title
;
Structure prediction by ZEFSAII (Michael W. Deem and Ramdas Pophale) SiO2 
 PCOD9060991
Probable space group: P -1
;
_chemical_formula_sum "Si O2"
_cell_formula_units_Z 15
_cell_length_a 8.798337
_cell_length_b 8.923771
_cell_length_c 12.332595
_cell_angle_alpha 53.615939
_cell_angle_beta 72.318769
_cell_angle_gamma 60.384467
_cell_volume 677.612880
_symmetry_space_group_name_H-M "P -1"
_symmetry_group_IT_number 2
_symmetry_cell_setting 'triclinic'
loop_
_space_group_symop_operation_xyz
x,y,z
-x,-y,-z
loop_
_atom_site_type_symbol
_atom_site_label
_atom_site_fract_x
_atom_site_fract_y
_atom_site_fract_z
Si Si1 0.372495 0.239954 0.908446
Si Si2 0.190899 0.344670 0.248036
Si Si3 0.354990 0.278733 0.640119
Si Si4 0.753204 0.022862 0.330424
Si Si5 0.000000 0.500000 0.000000
Si Si6 0.942215 0.317654 0.492249
Si Si7 0.476974 0.560094 0.854820
Si Si8 0.716388 0.105159 0.550988
O O1 0.326581 0.282572 0.772905
O O2 0.478371 0.375139 0.862383
O O3 0.194892 0.333236 0.978238
O O4 0.500000 0.000000 0.000000
O O5 0.090165 0.478240 0.110758
O O6 0.366475 0.370154 0.231434
O O7 0.070551 0.380397 0.364759
O O8 0.229075 0.110672 0.309396
O O9 0.346054 0.076704 0.679276
O O10 0.210853 0.473596 0.528692
O O11 0.544868 0.262732 0.577198
O O12 0.949921 0.851591 0.370504
O O13 0.711069 0.248621 0.201339
O O14 0.686409 0.061289 0.452160
O O15 0.857828 0.200274 0.484109
O O16 0.500000 0.500000 0.000000
#
# Coordination Sequence:
#
# PCOD9060991 Si02
#       8
#     2   2   2   2   1   2   2   2
#     4  12  27  49  75 110 147 191 251 308 366 441
#     4  11  23  44  71 102 137 189 246 290 362 443
#     4  12  23  45  65 110 148 183 245 309 360 434
#     4  11  24  44  71 100 146 192 240 296 371 437
#     4  12  24  48  80 102 148 198 236 308 374 432
#     4  11  25  42  70 107 145 187 246 302 360 440
#     4  12  25  46  75 103 139 196 245 299 370 444
#     4  11  24  44  71 102 144 196 243 294 374 434
#
# _framework density 22.136534000000001
#
# number of rings (size 3 to 8) (size 9 to 14) (size 15 to 20)
#    0.000    0.533    4.000    5.200    3.733    0.000 
#    2.400    0.667    0.000    0.000    0.000    0.000 
#    0.000    0.000    0.000    0.000    0.000    0.000 
#
# Total GULP energy -83590.430814 kJ/mol
# GULP energy per Si atom -5572.695388 kJ/mol
# Density = 2.208615 g / cm^3
# Si number density = 22.136534 Si / 1000 Ang^3
#
#
#
# Elastic Constant Matrix: (Units=GPa)
#
#
# Indices 1 2 3 4 5 6 
#
# 1 84.0885 43.5844 34.6915 -3.6559 0.8202 3.9525
# 2 43.5844 99.7936 27.8822 -22.5868 -8.3248 1.8893
# 3 34.6915 27.8822 74.3886 -10.8565 16.3243 2.8679
# 4 -3.6559 -22.5868 -10.8565 43.4483 -3.7427 7.4289
# 5 0.8202 -8.3248 16.3243 -3.7427 39.0489 -0.4266
# 6 3.9525 1.8893 2.8679 7.4289 -0.4266 58.0755
#
#
#
# Elastic Compliance Matrix: (Units=1/GPa)
#
#
# Indices 1 2 3 4 5 6 
#
# 1 0.017912 -0.006778 -0.006437 -0.003541 0.000528 -0.000224
# 2 -0.006778 0.015990 -0.002888 0.007639 0.005481 -0.000853
# 3 -0.006437 -0.002888 0.019766 0.002298 -0.008532 -0.000801
# 4 -0.003541 0.007639 0.002298 0.028189 0.003404 -0.003702
# 5 0.000528 0.005481 -0.008532 0.003404 0.030659 -0.000003
# 6 -0.000224 -0.000853 -0.000801 -0.003702 -0.000003 0.017775
#
#
# Mechanical properties :
#
#
# Convention : Reuss Voigt Hill
#
# Bulk Modulus (GPa) = 46.59155 52.28744 49.43949
# Shear Modulus (GPa) = 29.47225 38.25537 33.86381
#
# Velocity S-wave (km/s) = 3.65277 4.16162 3.91547
# Velocity P-wave (km/s) = 6.23565 6.83841 6.54397
#
# Compressibility (1/GPa) = 0.02146312
#
# Stress axis : x y z
#
# Youngs Moduli (GPa) = 55.82731 62.53937 50.59243
#
# Poissons Ratio (x) = 0.42388 0.32567
# Poissons Ratio (y) = 0.37839 0.14609
# Poissons Ratio (z) = 0.35937 0.18059
#
# Static dielectric constant tensor:
#      x y z
#    x 1.853950 -0.032050 -0.005810 
#    y -0.032050 1.814850 -0.040570 
#    z -0.005810 -0.040570 1.824070 
# 
# From -- ./inp_files/380975.got.cif
#   From: 2010.05.17/outbox.cif.g08.bks.cpg/sg2_191_cif.got.tgz:380975.got - 2010.06.03 11:33:40.
