data_PCOD9060907
_publ_section_title
;
Structure prediction by ZEFSAII (Michael W. Deem and Ramdas Pophale) SiO2 
 PCOD9060907
Probable space group: P -1
;
_chemical_formula_sum "Si O2"
_cell_formula_units_Z 16
_cell_length_a 8.204626
_cell_length_b 15.868097
_cell_length_c 11.623384
_cell_angle_alpha 38.843972
_cell_angle_beta 89.553415
_cell_angle_gamma 63.354724
_cell_volume 672.758224
_symmetry_space_group_name_H-M "P -1"
_symmetry_group_IT_number 2
_symmetry_cell_setting 'triclinic'
loop_
_space_group_symop_operation_xyz
x,y,z
-x,-y,-z
loop_
_atom_site_type_symbol
_atom_site_label
_atom_site_fract_x
_atom_site_fract_y
_atom_site_fract_z
Si Si1 0.723983 0.463601 0.526105
Si Si2 0.623526 0.544672 0.190228
Si Si3 0.406864 0.226113 0.651186
Si Si4 0.224552 0.482570 0.032838
Si Si5 0.356767 0.760271 0.559716
Si Si6 0.761673 0.836409 0.625914
Si Si7 0.178840 0.079655 0.855451
Si Si8 0.851889 0.042721 0.251554
O O1 0.500000 0.500000 0.500000
O O2 0.703288 0.548817 0.310483
O O3 0.734542 0.565864 0.518936
O O4 0.950477 0.241514 0.756570
O O5 0.663070 0.362481 0.385942
O O6 0.755406 0.520778 0.102504
O O7 0.357725 0.733971 0.972428
O O8 0.526582 0.193669 0.565990
O O9 0.260163 0.176154 0.700982
O O10 0.613719 0.088065 0.887622
O O11 0.470728 0.380970 0.190098
O O12 0.210421 0.335533 0.227709
O O13 0.003532 0.697901 0.844664
O O14 0.099027 0.946276 0.398363
O O15 0.787533 0.942089 0.424119
O O16 0.500000 0.000000 0.500000
O O17 0.133164 0.003509 0.833966
#
# Coordination Sequence:
#
# PCOD9060907 Si02
#       8
#     2   2   2   2   2   2   2   2
#     4  12  23  43  70  99 133 171 223 274 337 397
#     4  12  24  41  68  98 130 178 221 273 333 392
#     4  11  25  43  68  99 131 177 221 279 336 393
#     4  11  25  45  69  97 139 177 223 272 334 398
#     4  12  26  44  67  98 138 176 223 280 331 397
#     4  11  23  44  69  99 130 179 221 273 333 395
#     4  11  24  44  68  98 135 173 224 277 334 399
#     4  12  24  42  69  98 134 176 225 277 335 397
#
# _framework density 23.782688
#
# number of rings (size 3 to 8) (size 9 to 14) (size 15 to 20)
#    0.000    0.500    6.250    1.500    1.750    3.500 
#    0.000    0.000    0.000    0.000    0.000    0.000 
#    0.000    0.000    0.000    0.000    0.000    0.000 
#
# Total GULP energy -89498.999875 kJ/mol
# GULP energy per Si atom -5593.687492 kJ/mol
# Density = 2.372856 g / cm^3
# Si number density = 23.782688 Si / 1000 Ang^3
#
#
#
# Elastic Constant Matrix: (Units=GPa)
#
#
# Indices 1 2 3 4 5 6 
#
# 1 58.3989 27.0638 16.2354 -0.3048 6.2428 -20.7123
# 2 27.0638 81.1054 32.4039 -16.3082 11.0019 -28.2165
# 3 16.2354 32.4039 100.5527 -29.6862 19.2513 -16.3853
# 4 -0.3048 -16.3082 -29.6862 55.5704 -11.7131 2.2411
# 5 6.2428 11.0019 19.2513 -11.7131 46.9359 -3.4093
# 6 -20.7123 -28.2165 -16.3853 2.2411 -3.4093 29.9497
#
#
#
# Elastic Compliance Matrix: (Units=1/GPa)
#
#
# Indices 1 2 3 4 5 6 
#
# 1 0.023572 -0.003296 -0.001048 -0.002239 -0.001575 0.012611
# 2 -0.003296 0.020706 -0.002155 0.003982 -0.001405 0.015591
# 3 -0.001048 -0.002155 0.013826 0.005899 -0.003264 0.003996
# 4 -0.002239 0.003982 0.005899 0.022754 0.002918 0.004060
# 5 -0.001575 -0.001405 -0.003264 0.002918 0.023787 -0.001709
# 6 0.012611 0.015591 0.003996 0.004060 -0.001709 0.058488
#
#
# Mechanical properties :
#
#
# Convention : Reuss Voigt Hill
#
# Bulk Modulus (GPa) = 22.16997 43.49591 32.83294
# Shear Modulus (GPa) = 26.15510 37.44813 31.80162
#
# Velocity S-wave (km/s) = 3.31985 3.97242 3.66071
# Velocity P-wave (km/s) = 4.90279 6.27446 5.63055
#
# Compressibility (1/GPa) = 0.04510605
#
# Stress axis : x y z
#
# Youngs Moduli (GPa) = 42.42332 48.29505 72.32547
#
# Poissons Ratio (x) = 0.15917 0.07580
# Poissons Ratio (y) = 0.13982 0.15588
# Poissons Ratio (z) = 0.04446 0.10409
#
# Static dielectric constant tensor:
#      x y z
#    x 1.965260 0.002030 0.058730 
#    y 0.002030 1.900990 0.017660 
#    z 0.058730 0.017660 1.900670 
# 
# From -- ./inp_files/333228.got.cif
#   From: 2010.05.17/outbox.cif.g08.bks.cpg/sg2_167_cif.got.tgz:333228.got - 2010.06.03 11:33:40.
