data_PCOD9060492
_publ_section_title
;
Structure prediction by ZEFSAII (Michael W. Deem and Ramdas Pophale) SiO2 
 PCOD9060492
Probable space group: P -1
;
_chemical_formula_sum "Si O2"
_cell_formula_units_Z 16
_cell_length_a 23.178029
_cell_length_b 5.175514
_cell_length_c 6.106762
_cell_angle_alpha 78.611750
_cell_angle_beta 76.721809
_cell_angle_gamma 71.127894
_cell_volume 668.584607
_symmetry_space_group_name_H-M "P -1"
_symmetry_group_IT_number 2
_symmetry_cell_setting 'triclinic'
loop_
_space_group_symop_operation_xyz
x,y,z
-x,-y,-z
loop_
_atom_site_type_symbol
_atom_site_label
_atom_site_fract_x
_atom_site_fract_y
_atom_site_fract_z
Si Si1 0.060937 0.585818 0.990448
Si Si2 0.209536 0.648839 0.410370
Si Si3 0.867235 0.721713 0.654536
Si Si4 0.564927 0.548341 0.984237
Si Si5 0.708565 0.638497 0.236363
Si Si6 0.569520 0.790437 0.448609
Si Si7 0.032998 0.072857 0.664364
Si Si8 0.305804 0.803383 0.006736
O O1 0.111474 0.337201 0.101106
O O2 0.077885 0.785176 0.766985
O O3 0.029025 0.804946 0.164372
O O4 0.000000 0.500000 0.000000
O O5 0.166542 0.502284 0.341729
O O6 0.235125 0.465948 0.629643
O O7 0.174794 0.971439 0.406944
O O8 0.271909 0.657110 0.230306
O O9 0.928567 0.714731 0.459616
O O10 0.563378 0.671434 0.218037
O O11 0.621852 0.272362 0.990669
O O12 0.500000 0.500000 0.000000
O O13 0.576177 0.679739 0.717779
O O14 0.640404 0.806260 0.361089
O O15 0.701192 0.359390 0.181480
O O16 0.722638 0.869331 0.030205
O O17 0.500000 0.000000 0.500000
O O18 0.000000 0.000000 0.500000
#
# Coordination Sequence:
#
# PCOD9060492 Si02
#       8
#     2   2   2   2   2   2   2   2
#     4  11  25  44  73 104 143 187 230 301 371 434
#     4  12  27  49  67 106 144 194 245 302 360 454
#     4  12  27  45  75 106 144 188 247 296 364 452
#     4  11  23  43  71 114 152 199 258 326 394 467
#     4  11  25  48  73 100 144 199 244 310 380 441
#     4  11  23  43  71 114 150 199 258 322 396 468
#     4  11  24  46  71 105 146 185 234 298 372 434
#     4  11  25  48  73 101 147 196 248 310 377 450
#
# _framework density 23.931155
#
# number of rings (size 3 to 8) (size 9 to 14) (size 15 to 20)
#    0.000    0.750    2.500    4.125    3.500    5.000 
#    2.250    0.000    0.000    0.000    0.000    0.000 
#    0.000    0.000    0.000    0.000    0.000    0.000 
#
# Total GULP energy -89071.297001 kJ/mol
# GULP energy per Si atom -5566.956063 kJ/mol
# Density = 2.387669 g / cm^3
# Si number density = 23.931155 Si / 1000 Ang^3
#
#
#
# Elastic Constant Matrix: (Units=GPa)
#
#
# Indices 1 2 3 4 5 6 
#
# 1 91.8174 17.8517 4.8639 -5.2451 14.0842 -5.0257
# 2 17.8517 77.3592 33.6019 -14.7707 6.2285 -6.9223
# 3 4.8639 33.6019 106.0172 -12.1615 15.9857 -7.5244
# 4 -5.2451 -14.7707 -12.1615 40.0201 -5.1464 5.7755
# 5 14.0842 6.2285 15.9857 -5.1464 44.8817 -8.6608
# 6 -5.0257 -6.9223 -7.5244 5.7755 -8.6608 43.1400
#
#
#
# Elastic Compliance Matrix: (Units=1/GPa)
#
#
# Indices 1 2 3 4 5 6 
#
# 1 0.011973 -0.002790 0.000938 0.000311 -0.003602 0.000346
# 2 -0.002790 0.016427 -0.004656 0.004243 0.000958 0.001123
# 3 0.000938 -0.004656 0.011592 0.001404 -0.003522 0.000489
# 4 0.000311 0.004243 0.001404 0.027565 0.001506 -0.002426
# 5 -0.003602 0.000958 -0.003522 0.001506 0.025484 0.004034
# 6 0.000346 0.001123 0.000489 -0.002426 0.004034 0.024621
#
#
# Mechanical properties :
#
#
# Convention : Reuss Voigt Hill
#
# Bulk Modulus (GPa) = 37.07053 43.09209 40.08131
# Shear Modulus (GPa) = 35.79893 40.20012 37.99952
#
# Velocity S-wave (km/s) = 3.87190 4.10301 3.98913
# Velocity P-wave (km/s) = 5.95927 6.36334 6.16462
#
# Compressibility (1/GPa) = 0.02697560
#
# Stress axis : x y z
#
# Youngs Moduli (GPa) = 83.52001 60.87662 86.26692
#
# Poissons Ratio (x) = 0.16985 -0.08095
# Poissons Ratio (y) = 0.23303 0.40169
# Poissons Ratio (z) = -0.07838 0.28346
#
# Static dielectric constant tensor:
#      x y z
#    x 1.884490 0.041540 0.063910 
#    y 0.041540 2.118070 0.338450 
#    z 0.063910 0.338450 2.696850 
# 
# From -- ./inp_files/121446.got.cif
#   From: 2010.05.17/outbox.cif.g08.bks.cpg/sg2_61_cif.got.tgz:121446.got - 2010.06.03 11:33:40.
