data_PCOD9060677
_publ_section_title
;
Structure prediction by ZEFSAII (Michael W. Deem and Ramdas Pophale) SiO2 
 PCOD9060677
Probable space group: P -1
;
_chemical_formula_sum "Si O2"
_cell_formula_units_Z 15
_cell_length_a 9.808919
_cell_length_b 7.875133
_cell_length_c 14.753585
_cell_angle_alpha 66.208169
_cell_angle_beta 38.850239
_cell_angle_gamma 76.301207
_cell_volume 648.173986
_symmetry_space_group_name_H-M "P -1"
_symmetry_group_IT_number 2
_symmetry_cell_setting 'triclinic'
loop_
_space_group_symop_operation_xyz
x,y,z
-x,-y,-z
loop_
_atom_site_type_symbol
_atom_site_label
_atom_site_fract_x
_atom_site_fract_y
_atom_site_fract_z
Si Si1 0.919623 0.806194 0.132766
Si Si2 0.526214 0.561231 0.312080
Si Si3 0.902476 0.280763 0.465343
Si Si4 0.619037 0.231539 0.024705
Si Si5 0.359610 0.167136 0.548459
Si Si6 0.500000 0.000000 0.000000
Si Si7 0.041275 0.972867 0.335576
Si Si8 0.647016 0.487963 0.790773
O O1 0.767479 0.669071 0.175194
O O2 0.764852 0.836485 0.291151
O O3 0.136712 0.726959 0.074126
O O4 0.000000 0.000000 0.000000
O O5 0.335497 0.660642 0.436642
O O6 0.511309 0.360462 0.410190
O O7 0.446711 0.536094 0.255032
O O8 0.977350 0.166675 0.366090
O O9 0.092483 0.453934 0.349393
O O10 0.901706 0.147526 0.581720
O O11 0.464249 0.347947 0.137283
O O12 0.546500 0.015995 0.087782
O O13 0.589910 0.294823 0.919480
O O14 0.500000 0.000000 0.500000
O O15 0.169772 0.142456 0.576514
O O16 0.236468 0.008983 0.155448
#
# Coordination Sequence:
#
# PCOD9060677 Si02
#       8
#     2   2   2   2   2   1   2   2
#     4  12  30  49  73 105 153 203 247 303 377 458
#     4  12  27  48  78 107 152 200 250 316 375 441
#     4  11  23  43  75 110 141 183 249 305 365 436
#     4  11  26  45  73 106 150 185 246 300 380 443
#     4  12  27  49  74 108 151 199 252 306 380 452
#     4  12  22  44  70 104 144 182 236 308 360 422
#     4  11  24  41  75 108 142 190 241 307 368 437
#     4  11  24  45  75 111 139 189 247 313 364 441
#
# _framework density 23.141933000000002
#
# number of rings (size 3 to 8) (size 9 to 14) (size 15 to 20)
#    0.000    0.533    4.000    3.200    5.600    1.600 
#    0.000    0.000    0.000    0.000    0.000    0.000 
#    0.000    0.000    0.000    0.000    0.000    0.000 
#
# Total GULP energy -83850.478768 kJ/mol
# GULP energy per Si atom -5590.031918 kJ/mol
# Density = 2.308926 g / cm^3
# Si number density = 23.141933 Si / 1000 Ang^3
#
#
#
# Elastic Constant Matrix: (Units=GPa)
#
#
# Indices 1 2 3 4 5 6 
#
# 1 99.2154 30.7961 36.8675 -5.5318 -19.5207 12.5110
# 2 30.7961 85.7065 32.4603 9.5188 1.5145 -2.3674
# 3 36.8675 32.4603 106.7275 -11.6723 -13.2622 0.3082
# 4 -5.5318 9.5188 -11.6723 50.4952 6.5010 -4.4435
# 5 -19.5207 1.5145 -13.2622 6.5010 47.8283 -2.7660
# 6 12.5110 -2.3674 0.3082 -4.4435 -2.7660 38.9164
#
#
#
# Elastic Compliance Matrix: (Units=1/GPa)
#
#
# Indices 1 2 3 4 5 6 
#
# 1 0.013955 -0.004203 -0.002873 0.000674 0.004691 -0.004309
# 2 -0.004203 0.015165 -0.003906 -0.003729 -0.002674 0.001689
# 3 -0.002873 -0.003906 0.012126 0.003067 0.001959 0.001080
# 4 0.000674 -0.003729 0.003067 0.021661 -0.001591 0.001892
# 5 0.004691 -0.002674 0.001959 -0.001591 0.023656 -0.000187
# 6 -0.004309 0.001689 0.001080 0.001892 -0.000187 0.027378
#
#
# Mechanical properties :
#
#
# Convention : Reuss Voigt Hill
#
# Bulk Modulus (GPa) = 51.85987 54.65525 53.25756
# Shear Modulus (GPa) = 35.12893 40.21634 37.67263
#
# Velocity S-wave (km/s) = 3.90035 4.17323 4.03909
# Velocity P-wave (km/s) = 6.53772 6.84761 6.69446
#
# Compressibility (1/GPa) = 0.01928273
#
# Stress axis : x y z
#
# Youngs Moduli (GPa) = 71.65742 65.94061 82.46910
#
# Poissons Ratio (x) = 0.27714 0.23696
# Poissons Ratio (y) = 0.30117 0.32208
# Poissons Ratio (z) = 0.20589 0.25753
#
# Static dielectric constant tensor:
#      x y z
#    x 1.871420 -0.080480 0.035180 
#    y -0.080480 1.281640 0.196710 
#    z 0.035180 0.196710 1.769780 
# 
# From -- ./inp_files/217355.got.cif
#   From: 2010.05.17/outbox.cif.g08.bks.cpg/sg2_109_cif.got.tgz:217355.got - 2010.06.03 11:33:40.
