data_PCOD9060053
_publ_section_title
;
Structure prediction by ZEFSAII (Michael W. Deem and Ramdas Pophale) SiO2 
 PCOD9060053
Probable space group: P -1
;
_chemical_formula_sum "Si O2"
_cell_formula_units_Z 15
_cell_length_a 9.668609
_cell_length_b 7.677769
_cell_length_c 11.335816
_cell_angle_alpha 104.547678
_cell_angle_beta 41.613293
_cell_angle_gamma 108.106129
_cell_volume 530.928224
_symmetry_space_group_name_H-M "P -1"
_symmetry_group_IT_number 2
_symmetry_cell_setting 'triclinic'
loop_
_space_group_symop_operation_xyz
x,y,z
-x,-y,-z
loop_
_atom_site_type_symbol
_atom_site_label
_atom_site_fract_x
_atom_site_fract_y
_atom_site_fract_z
Si Si1 0.269063 0.662693 0.270486
Si Si2 0.000178 0.810380 0.903275
Si Si3 0.712084 0.940023 0.394950
Si Si4 0.881327 0.677650 0.380200
Si Si5 0.500000 0.000000 0.000000
Si Si6 0.764483 0.299346 0.046426
Si Si7 0.689799 0.741607 0.898322
Si Si8 0.500584 0.396468 0.666573
O O1 0.287654 0.450658 0.201455
O O2 0.369117 0.704374 0.340732
O O3 0.032471 0.682167 0.398564
O O4 0.437980 0.770550 0.083782
O O5 0.122682 0.707931 0.899664
O O6 0.776552 0.732724 0.973207
O O7 0.119291 0.883071 0.719216
O O8 0.000000 0.000000 0.000000
O O9 0.776220 0.855516 0.459992
O O10 0.681568 0.752122 0.303542
O O11 0.500000 0.000000 0.500000
O O12 0.051086 0.659245 0.164349
O O13 0.687021 0.504948 0.482194
O O14 0.381402 0.891361 0.931493
O O15 0.728569 0.914415 0.819384
O O16 0.614377 0.447444 0.179734
#
# Coordination Sequence:
#
# PCOD9060053 Si02
#       8
#     2   2   2   2   1   2   2   2
#     4  11  24  46  70 112 146 202 253 309 380 452
#     4  12  24  44  76 112 148 199 251 307 390 450
#     4  12  29  52  72 113 156 196 253 327 381 451
#     4  12  26  50  77 113 151 202 254 313 384 453
#     4  12  20  44  72 112 158 188 250 320 372 442
#     4  12  26  48  79 118 149 206 255 308 390 462
#     4  11  23  42  74 109 154 192 254 322 366 452
#     4  12  28  51  76 111 155 201 256 313 379 465
#
# _framework density 28.252410000000001
#
# number of rings (size 3 to 8) (size 9 to 14) (size 15 to 20)
#    0.000    0.267    5.333    3.200    3.733    0.533 
#    0.000    1.333    0.000    0.000    0.000    0.000 
#    0.000    0.000    0.000    0.000    0.000    0.000 
#
# Total GULP energy -83801.977260 kJ/mol
# GULP energy per Si atom -5586.798484 kJ/mol
# Density = 2.818811 g / cm^3
# Si number density = 28.252410 Si / 1000 Ang^3
#
#
#
# Elastic Constant Matrix: (Units=GPa)
#
#
# Indices 1 2 3 4 5 6 
#
# 1 239.7473 37.4180 21.2586 0.4058 -19.5875 -26.3907
# 2 37.4180 112.4553 34.6253 2.5564 -11.6463 -16.0004
# 3 21.2586 34.6253 93.2044 -7.3337 -12.9487 -10.5324
# 4 0.4058 2.5564 -7.3337 43.6663 -8.7291 1.8039
# 5 -19.5875 -11.6463 -12.9487 -8.7291 36.4001 5.1529
# 6 -26.3907 -16.0004 -10.5324 1.8039 5.1529 58.1623
#
#
#
# Elastic Compliance Matrix: (Units=1/GPa)
#
#
# Indices 1 2 3 4 5 6 
#
# 1 0.004693 -0.001077 -0.000191 0.000312 0.001959 0.001615
# 2 -0.001077 0.010706 -0.003460 -0.001048 0.001114 0.001764
# 3 -0.000191 -0.003460 0.012964 0.003153 0.004037 0.000854
# 4 0.000312 -0.001048 0.003153 0.024944 0.007074 -0.000976
# 5 0.001959 0.001114 0.004037 0.007074 0.032178 -0.001144
# 6 0.001615 0.001764 0.000854 -0.000976 -0.001144 0.018698
#
#
# Mechanical properties :
#
#
# Convention : Reuss Voigt Hill
#
# Bulk Modulus (GPa) = 52.89132 70.22344 61.55738
# Shear Modulus (GPa) = 41.68714 51.11941 46.40327
#
# Velocity S-wave (km/s) = 3.84542 4.25830 4.05712
# Velocity P-wave (km/s) = 6.20306 7.00622 6.61684
#
# Compressibility (1/GPa) = 0.01890669
#
# Stress axis : x y z
#
# Youngs Moduli (GPa) = 213.06123 93.40234 77.13958
#
# Poissons Ratio (x) = 0.10062 0.01473
# Poissons Ratio (y) = 0.22952 0.26691
# Poissons Ratio (z) = 0.04070 0.32318
#
# Static dielectric constant tensor:
#      x y z
#    x 1.854900 -0.269570 0.326430 
#    y -0.269570 2.245740 0.054530 
#    z 0.326430 0.054530 2.071910 
# 
# From -- ./inp_files/379814.got.cif
#   From: 2010.05.17/outbox.cif.g08.bks.cpg/sg2_190_cif.got.tgz:379814.got - 2010.06.03 11:33:40.
