data_PCOD9060629
_publ_section_title
;
Structure prediction by ZEFSAII (Michael W. Deem and Ramdas Pophale) SiO2 
 PCOD9060629
Probable space group: P -1
;
_chemical_formula_sum "Si O2"
_cell_formula_units_Z 15
_cell_length_a 18.888458
_cell_length_b 13.737604
_cell_length_c 11.762199
_cell_angle_alpha 44.785547
_cell_angle_beta 33.296075
_cell_angle_gamma 23.049717
_cell_volume 630.483081
_symmetry_space_group_name_H-M "P -1"
_symmetry_group_IT_number 2
_symmetry_cell_setting 'triclinic'
loop_
_space_group_symop_operation_xyz
x,y,z
-x,-y,-z
loop_
_atom_site_type_symbol
_atom_site_label
_atom_site_fract_x
_atom_site_fract_y
_atom_site_fract_z
Si Si1 0.418817 0.724094 0.962559
Si Si2 0.170394 0.433121 0.479359
Si Si3 0.924505 0.226900 0.081164
Si Si4 0.907748 0.709304 0.823455
Si Si5 0.688638 0.637513 0.239359
Si Si6 0.500000 0.500000 0.500000
Si Si7 0.240827 0.857981 0.336622
Si Si8 0.826353 0.863872 0.393414
O O1 0.601866 0.675651 0.718077
O O2 0.500000 0.500000 0.000000
O O3 0.404112 0.734974 0.109088
O O4 0.159966 0.994934 0.033449
O O5 0.228656 0.236924 0.503708
O O6 0.059528 0.499070 0.695709
O O7 0.982847 0.687207 0.441481
O O8 0.731617 0.500142 0.185178
O O9 0.763961 0.236740 0.292681
O O10 0.012439 0.202302 0.862228
O O11 0.082621 0.583033 0.800125
O O12 0.818664 0.935686 0.709701
O O13 0.698987 0.790200 0.066291
O O14 0.435942 0.837531 0.472513
O O15 0.365867 0.656659 0.430889
O O16 0.000000 0.000000 0.500000
#
# Coordination Sequence:
#
# PCOD9060629 Si02
#       8
#     2   2   2   2   2   1   2   2
#     4  12  26  47  75 103 149 198 249 311 377 449
#     4  11  25  45  70 109 152 194 241 311 375 451
#     4  12  26  49  71 110 144 193 253 307 378 450
#     4  11  23  43  74 106 145 191 244 305 377 446
#     4  11  24  44  76 109 143 193 240 313 381 448
#     4  12  28  46  80 100 152 200 252 316 372 446
#     4  12  24  48  71 106 148 194 252 304 367 452
#     4  11  26  46  71 110 152 189 249 310 376 452
#
# _framework density 23.791278999999999
#
# number of rings (size 3 to 8) (size 9 to 14) (size 15 to 20)
#    0.000    0.533    4.000    3.200    3.733    3.733 
#    0.000    2.000    0.000    0.000    0.000    0.000 
#    0.000    0.000    0.000    0.000    0.000    0.000 
#
# Total GULP energy -83815.309991 kJ/mol
# GULP energy per Si atom -5587.687333 kJ/mol
# Density = 2.373713 g / cm^3
# Si number density = 23.791279 Si / 1000 Ang^3
#
#
#
# Elastic Constant Matrix: (Units=GPa)
#
#
# Indices 1 2 3 4 5 6 
#
# 1 73.3321 17.4531 -1.3777 6.8918 13.4626 -3.3346
# 2 17.4531 51.1305 -4.1591 9.4433 0.4191 1.0941
# 3 -1.3777 -4.1591 108.5336 11.3569 26.4238 3.0368
# 4 6.8918 9.4433 11.3569 37.6557 0.8565 8.2430
# 5 13.4626 0.4191 26.4238 0.8565 25.7482 0.4228
# 6 -3.3346 1.0941 3.0368 8.2430 0.4228 39.6878
#
#
#
# Elastic Compliance Matrix: (Units=1/GPa)
#
#
# Indices 1 2 3 4 5 6 
#
# 1 0.017593 -0.005100 0.003330 -0.003132 -0.012464 0.002147
# 2 -0.005100 0.022280 0.000945 -0.004950 0.001501 -0.000103
# 3 0.003330 0.000945 0.013545 -0.004655 -0.015508 0.000349
# 4 -0.003132 -0.004950 -0.004655 0.031022 0.005567 -0.006273
# 5 -0.012464 0.001501 -0.015508 0.005567 0.061088 -0.001709
# 6 0.002147 -0.000103 0.000349 -0.006273 -0.001709 0.026674
#
#
# Mechanical properties :
#
#
# Convention : Reuss Voigt Hill
#
# Bulk Modulus (GPa) = 19.31713 28.53653 23.92683
# Shear Modulus (GPa) = 26.16323 35.35701 30.76012
#
# Velocity S-wave (km/s) = 3.31977 3.85922 3.59961
# Velocity P-wave (km/s) = 4.77823 5.64612 5.23021
#
# Compressibility (1/GPa) = 0.05176753
#
# Stress axis : x y z
#
# Youngs Moduli (GPa) = 56.84038 44.88415 73.82716
#
# Poissons Ratio (x) = 0.22890 -0.24585
# Poissons Ratio (y) = 0.28987 -0.06973
# Poissons Ratio (z) = -0.18928 -0.04239
#
# Static dielectric constant tensor:
#      x y z
#    x 1.628670 -0.056340 0.102280 
#    y -0.056340 1.872140 0.021070 
#    z 0.102280 0.021070 1.882200 
# 
# From -- ./inp_files/259772.got.cif
#   From: 2010.05.17/outbox.cif.g08.bks.cpg/sg2_130_cif.got.tgz:259772.got - 2010.06.03 11:33:40.
