data_PCOD9060990
_publ_section_title
;
Structure prediction by ZEFSAII (Michael W. Deem and Ramdas Pophale) SiO2 
 PCOD9060990
Probable space group: P -1
;
_chemical_formula_sum "Si O2"
_cell_formula_units_Z 10
_cell_length_a 9.426773
_cell_length_b 6.592672
_cell_length_c 8.467356
_cell_angle_alpha 98.001693
_cell_angle_beta 124.737358
_cell_angle_gamma 86.968762
_cell_volume 428.001876
_symmetry_space_group_name_H-M "P -1"
_symmetry_group_IT_number 2
_symmetry_cell_setting 'triclinic'
loop_
_space_group_symop_operation_xyz
x,y,z
-x,-y,-z
loop_
_atom_site_type_symbol
_atom_site_label
_atom_site_fract_x
_atom_site_fract_y
_atom_site_fract_z
Si Si1 0.228750 0.004155 0.995038
Si Si2 0.209541 0.611938 0.552828
Si Si3 0.835772 0.770205 0.349155
Si Si4 0.570092 0.019373 0.369960
Si Si5 0.062866 0.332408 0.146876
O O1 0.421812 0.939631 0.148083
O O2 0.183843 0.173830 0.117010
O O3 0.207837 0.117477 0.828029
O O4 0.096441 0.811943 0.909313
O O5 0.235515 0.464103 0.702085
O O6 0.371298 0.751738 0.618966
O O7 0.152725 0.463430 0.356634
O O8 0.041609 0.747888 0.491537
O O9 0.741690 0.892700 0.440101
O O10 0.500000 0.000000 0.500000
O O11 0.000000 0.500000 0.000000
#
# Coordination Sequence:
#
# PCOD9060990 Si02
#       5
#     2   2   2   2   2
#     4  11  26  43  72 102 139 179 226 285 341 403
#     4  11  26  45  74  99 135 186 230 278 337 413
#     4  11  26  46  70 102 139 182 230 278 342 407
#     4  12  27  46  69 103 141 178 226 290 342 398
#     4  11  23  44  71 102 136 182 227 275 343 410
#
# _framework density 23.364384000000001
#
# number of rings (size 3 to 8) (size 9 to 14) (size 15 to 20)
#    0.000    0.800    2.000    3.600   11.200    5.600 
#    0.000    0.000    0.000    0.000    0.000    0.000 
#    0.000    0.000    0.000    0.000    0.000    0.000 
#
# Total GULP energy -56015.942566 kJ/mol
# GULP energy per Si atom -5601.594257 kJ/mol
# Density = 2.331121 g / cm^3
# Si number density = 23.364384 Si / 1000 Ang^3
#
#
#
# Elastic Constant Matrix: (Units=GPa)
#
#
# Indices 1 2 3 4 5 6 
#
# 1 126.2557 56.9715 25.0941 4.5537 -23.7505 29.4029
# 2 56.9715 99.0224 35.7635 -19.6080 -4.2875 20.2304
# 3 25.0941 35.7635 77.2867 -13.5720 -18.6958 16.2032
# 4 4.5537 -19.6080 -13.5720 51.5469 8.5968 -19.8475
# 5 -23.7505 -4.2875 -18.6958 8.5968 30.3062 7.5064
# 6 29.4029 20.2304 16.2032 -19.8475 7.5064 53.2528
#
#
#
# Elastic Compliance Matrix: (Units=1/GPa)
#
#
# Indices 1 2 3 4 5 6 
#
# 1 0.027164 -0.016619 0.009178 -0.022079 0.037036 -0.024927
# 2 -0.016619 0.023184 -0.011212 0.016643 -0.024717 0.013467
# 3 0.009178 -0.011212 0.022960 -0.009089 0.026028 -0.014851
# 4 -0.022079 0.016643 -0.009089 0.043888 -0.040613 0.030716
# 5 0.037036 -0.024717 0.026028 -0.040613 0.097971 -0.047925
# 6 -0.024927 0.013467 -0.014851 0.030716 -0.047925 0.050147
#
#
# Mechanical properties :
#
#
# Convention : Reuss Voigt Hill
#
# Bulk Modulus (GPa) = 27.77601 59.80252 43.78927
# Shear Modulus (GPa) = 15.89212 39.33690 27.61451
#
# Velocity S-wave (km/s) = 2.61087 4.10765 3.44162
# Velocity P-wave (km/s) = 4.58288 6.93889 5.88010
#
# Compressibility (1/GPa) = 0.03600229
#
# Stress axis : x y z
#
# Youngs Moduli (GPa) = 36.81370 43.13377 43.55310
#
# Poissons Ratio (x) = 0.71685 -0.39974
# Poissons Ratio (y) = 0.61181 0.48832
# Poissons Ratio (z) = -0.33789 0.48362
#
# Static dielectric constant tensor:
#      x y z
#    x 1.889110 -0.021990 -0.032330 
#    y -0.021990 1.906180 -0.005910 
#    z -0.032330 -0.005910 1.861020 
# 
# From -- ./inp_files/15931.got.cif
#   From: 2010.05.17/outbox.cif.g08.bks.cpg/sg2_8_cif.got.tgz:15931.got - 2010.06.03 11:33:40.
