data_PCOD9060548
_publ_section_title
;
Structure prediction by ZEFSAII (Michael W. Deem and Ramdas Pophale) SiO2 
 PCOD9060548
Probable space group: P -1
;
_chemical_formula_sum "Si O2"
_cell_formula_units_Z 12
_cell_length_a 14.828573
_cell_length_b 7.230544
_cell_length_c 7.059454
_cell_angle_alpha 60.094450
_cell_angle_beta 127.169944
_cell_angle_gamma 129.064878
_cell_volume 459.726653
_symmetry_space_group_name_H-M "P -1"
_symmetry_group_IT_number 2
_symmetry_cell_setting 'triclinic'
loop_
_space_group_symop_operation_xyz
x,y,z
-x,-y,-z
loop_
_atom_site_type_symbol
_atom_site_label
_atom_site_fract_x
_atom_site_fract_y
_atom_site_fract_z
Si Si1 0.300529 0.291432 0.336032
Si Si2 0.979348 0.853215 0.824537
Si Si3 0.900974 0.435524 0.679172
Si Si4 0.623854 0.689446 0.169982
Si Si5 0.803737 0.596129 0.179967
Si Si6 0.357625 0.959814 0.286214
O O1 0.157768 0.160470 0.311779
O O2 0.331044 0.126413 0.317608
O O3 0.389347 0.353380 0.600987
O O4 0.288457 0.481941 0.080161
O O5 0.975576 0.716905 0.693820
O O6 0.088495 0.125458 0.850089
O O7 0.012077 0.688123 0.094856
O O8 0.858335 0.423470 0.413987
O O9 0.769429 0.297379 0.708357
O O10 0.728743 0.623896 0.251249
O O11 0.500000 0.500000 0.000000
O O12 0.647455 0.944367 0.980156
O O13 0.500000 0.000000 0.500000
#
# Coordination Sequence:
#
# PCOD9060548 Si02
#       6
#     2   2   2   2   2   2
#     4  11  25  45  74 104 140 193 236 293 363 420
#     4  11  23  44  71 108 149 187 238 282 360 427
#     4  11  23  43  72 108 145 193 229 294 354 418
#     4  11  24  47  74  99 144 188 237 297 355 418
#     4  11  23  44  71 106 150 185 232 294 351 420
#     4  11  26  48  70 105 145 182 248 299 349 423
#
# _framework density 26.102466
#
# number of rings (size 3 to 8) (size 9 to 14) (size 15 to 20)
#    0.000    1.000    5.000    2.000    0.000    4.000 
#    3.000    0.000    0.000    0.000    0.000    0.000 
#    0.000    0.000    0.000    0.000    0.000    0.000 
#
# Total GULP energy -67140.042631 kJ/mol
# GULP energy per Si atom -5595.003553 kJ/mol
# Density = 2.604306 g / cm^3
# Si number density = 26.102466 Si / 1000 Ang^3
#
#
#
# Elastic Constant Matrix: (Units=GPa)
#
#
# Indices 1 2 3 4 5 6 
#
# 1 94.5491 10.5424 30.5497 7.5478 14.1663 -11.6466
# 2 10.5424 77.0885 26.6658 4.3135 -0.4228 2.3240
# 3 30.5497 26.6658 229.8651 16.8045 -23.7752 -9.9584
# 4 7.5478 4.3135 16.8045 36.9532 -0.7377 -3.6324
# 5 14.1663 -0.4228 -23.7752 -0.7377 67.5024 13.2189
# 6 -11.6466 2.3240 -9.9584 -3.6324 13.2189 26.1063
#
#
#
# Elastic Compliance Matrix: (Units=1/GPa)
#
#
# Indices 1 2 3 4 5 6 
#
# 1 0.013012 -0.001400 -0.001657 -0.001091 -0.004821 0.007587
# 2 -0.001400 0.013792 -0.001422 -0.000938 0.000404 -0.002730
# 3 -0.001657 -0.001422 0.005083 -0.001764 0.002107 0.000014
# 4 -0.001091 -0.000938 -0.001764 0.028501 -0.000724 0.003256
# 5 -0.004821 0.000404 0.002107 -0.000724 0.018708 -0.010957
# 6 0.007587 -0.002730 0.000014 0.003256 -0.010957 0.047939
#
#
# Mechanical properties :
#
#
# Convention : Reuss Voigt Hill
#
# Bulk Modulus (GPa) = 43.61306 59.66871 51.64089
# Shear Modulus (GPa) = 34.80989 48.36203 41.58596
#
# Velocity S-wave (km/s) = 3.65579 4.30906 3.99580
# Velocity P-wave (km/s) = 5.87915 6.90408 6.41213
#
# Compressibility (1/GPa) = 0.02292891
#
# Stress axis : x y z
#
# Youngs Moduli (GPa) = 76.85212 72.50357 196.73314
#
# Poissons Ratio (x) = 0.10153 0.32599
# Poissons Ratio (y) = 0.10762 0.27972
# Poissons Ratio (z) = 0.12735 0.10309
#
# Static dielectric constant tensor:
#      x y z
#    x 2.104010 -0.000960 -0.021240 
#    y -0.000960 2.111070 -0.051370 
#    z -0.021240 -0.051370 2.192140 
# 
# From -- ./inp_files/291751.got.cif
#   From: 2010.05.17/outbox.cif.g08.bks.cpg/sg2_146_cif.got.tgz:291751.got - 2010.06.03 11:33:40.
