data_PCOD9060550
_publ_section_title
;
Structure prediction by ZEFSAII (Michael W. Deem and Ramdas Pophale) SiO2 
 PCOD9060550
Probable space group: P -1
;
_chemical_formula_sum "Si O2"
_cell_formula_units_Z 10
_cell_length_a 16.730133
_cell_length_b 5.066312
_cell_length_c 6.296469
_cell_angle_alpha 80.657631
_cell_angle_beta 109.772092
_cell_angle_gamma 123.659038
_cell_volume 417.812327
_symmetry_space_group_name_H-M "P -1"
_symmetry_group_IT_number 2
_symmetry_cell_setting 'triclinic'
loop_
_space_group_symop_operation_xyz
x,y,z
-x,-y,-z
loop_
_atom_site_type_symbol
_atom_site_label
_atom_site_fract_x
_atom_site_fract_y
_atom_site_fract_z
Si Si1 0.446651 0.702361 0.649266
Si Si2 0.885830 0.895590 0.438463
Si Si3 0.240561 0.369878 0.254837
Si Si4 0.213169 0.740185 0.839180
Si Si5 0.380510 0.365030 0.035239
O O1 0.334920 0.511756 0.479334
O O2 0.528074 0.597932 0.750073
O O3 0.500000 0.000000 0.500000
O O4 0.422551 0.670661 0.884603
O O5 0.853327 0.878881 0.656790
O O6 0.819152 0.543329 0.320313
O O7 0.861548 0.136851 0.274649
O O8 0.000000 0.000000 0.500000
O O9 0.289210 0.293363 0.112878
O O10 0.212992 0.603376 0.089133
O O11 0.326330 0.052427 0.877330
#
# Coordination Sequence:
#
# PCOD9060550 Si02
#       5
#     2   2   2   2   2
#     4  11  23  43  72 108 156 200 238 293 369 433
#     4  12  30  52  77 107 147 194 249 313 380 433
#     4  12  25  46  76 105 156 192 248 303 368 429
#     4  12  25  49  75 111 146 190 252 303 367 447
#     4  11  25  45  70 114 149 195 251 291 357 453
#
# _framework density 23.934194999999999
#
# number of rings (size 3 to 8) (size 9 to 14) (size 15 to 20)
#    0.000    0.400    6.000    1.200    2.800    4.000 
#    7.200    0.000    0.000    0.000    0.000    0.000 
#    0.000    0.000    0.000    0.000    0.000    0.000 
#
# Total GULP energy -55795.467247 kJ/mol
# GULP energy per Si atom -5579.546725 kJ/mol
# Density = 2.387972 g / cm^3
# Si number density = 23.934195 Si / 1000 Ang^3
#
#
#
# Elastic Constant Matrix: (Units=GPa)
#
#
# Indices 1 2 3 4 5 6 
#
# 1 196.7431 47.2544 75.0535 -25.1147 9.3645 5.7370
# 2 47.2544 78.1777 55.3569 -3.8953 -4.4482 -3.4929
# 3 75.0535 55.3569 171.1343 -49.1345 14.9701 -5.9080
# 4 -25.1147 -3.8953 -49.1345 43.6346 -4.8207 -2.3305
# 5 9.3645 -4.4482 14.9701 -4.8207 40.8020 -17.8135
# 6 5.7370 -3.4929 -5.9080 -2.3305 -17.8135 42.1602
#
#
#
# Elastic Compliance Matrix: (Units=1/GPa)
#
#
# Indices 1 2 3 4 5 6 
#
# 1 0.006762 -0.003341 -0.001241 0.001835 -0.002205 -0.002201
# 2 -0.003341 0.020572 -0.007991 -0.008200 0.006411 0.003295
# 3 -0.001241 -0.007991 0.012989 0.012826 -0.003614 0.000509
# 4 0.001835 -0.008200 0.012826 0.037799 -0.000323 0.002821
# 5 -0.002205 0.006411 -0.003614 -0.000323 0.033273 0.014365
# 6 -0.002201 0.003295 0.000509 0.002821 0.014365 0.030588
#
#
# Mechanical properties :
#
#
# Convention : Reuss Voigt Hill
#
# Bulk Modulus (GPa) = 65.88698 89.04274 77.46486
# Shear Modulus (GPa) = 29.03796 43.21203 36.12500
#
# Velocity S-wave (km/s) = 3.48694 4.25367 3.88925
# Velocity P-wave (km/s) = 6.61814 7.83638 7.25288
#
# Compressibility (1/GPa) = 0.01517751
#
# Stress axis : x y z
#
# Youngs Moduli (GPa) = 147.88442 48.60910 76.99002
#
# Poissons Ratio (x) = 0.16239 0.09556
# Poissons Ratio (y) = 0.49405 0.61521
# Poissons Ratio (z) = 0.18356 0.38842
#
# Static dielectric constant tensor:
#      x y z
#    x 1.974770 -0.061260 -0.080550 
#    y -0.061260 2.000560 0.038890 
#    z -0.080550 0.038890 1.961570 
# 
# From -- ./inp_files/1718.got.cif
#   From: 2010.05.17/outbox.cif.g08.bks.cpg/sg2_1_cif.got.tgz:1718.got - 2010.06.03 11:33:40.
