data_PCOD9060015
_publ_section_title
;
Structure prediction by ZEFSAII (Michael W. Deem and Ramdas Pophale) SiO2 
 PCOD9060015
Probable space group: P -1
;
_chemical_formula_sum "Si O2"
_cell_formula_units_Z 16
_cell_length_a 9.737797
_cell_length_b 12.669903
_cell_length_c 8.500324
_cell_angle_alpha 50.826314
_cell_angle_beta 128.230241
_cell_angle_gamma 110.930721
_cell_volume 637.677976
_symmetry_space_group_name_H-M "P -1"
_symmetry_group_IT_number 2
_symmetry_cell_setting 'triclinic'
loop_
_space_group_symop_operation_xyz
x,y,z
-x,-y,-z
loop_
_atom_site_type_symbol
_atom_site_label
_atom_site_fract_x
_atom_site_fract_y
_atom_site_fract_z
Si Si1 0.929887 0.648952 0.245156
Si Si2 0.135619 0.875201 0.600785
Si Si3 0.152726 0.086679 0.865406
Si Si4 0.647584 0.099379 0.569553
Si Si5 0.477960 0.313142 0.475648
Si Si6 0.552329 0.574005 0.125781
Si Si7 0.056910 0.349167 0.119796
Si Si8 0.538995 0.176012 0.971755
O O1 0.946378 0.780558 0.245291
O O2 0.724099 0.639373 0.126181
O O3 0.000000 0.500000 0.500000
O O4 0.978461 0.665142 0.080222
O O5 0.247163 0.843358 0.553066
O O6 0.972632 0.960092 0.321271
O O7 0.044098 0.759187 0.745031
O O8 0.297980 0.927010 0.770662
O O9 0.344224 0.126578 0.901944
O O10 0.787050 0.021604 0.856975
O O11 0.540114 0.220542 0.462794
O O12 0.500000 0.000000 0.500000
O O13 0.566537 0.455822 0.378679
O O14 0.267209 0.331159 0.311922
O O15 0.550812 0.232723 0.753241
O O16 0.443533 0.692891 0.026781
O O17 0.500000 0.500000 0.000000
O O18 0.000000 0.500000 0.000000
#
# Coordination Sequence:
#
# PCOD9060015 Si02
#       8
#     2   2   2   2   2   2   2   2
#     4  11  26  43  73 109 152 191 249 312 382 456
#     4  12  26  48  77 105 150 199 251 315 376 441
#     4  11  25  51  75 110 149 198 257 315 375 456
#     4  12  27  51  80 106 149 210 264 311 371 460
#     4  12  26  47  75 108 156 199 253 313 388 449
#     4  11  23  42  73 106 144 198 243 302 383 459
#     4  12  26  44  72 115 153 189 247 317 379 453
#     4  11  25  46  74 112 151 190 250 316 385 450
#
# _framework density 25.091032999999999
#
# number of rings (size 3 to 8) (size 9 to 14) (size 15 to 20)
#    0.000    0.500    3.750    3.750    8.750    0.500 
#    0.000    4.375    0.000    0.000    0.000    0.000 
#    0.000    0.000    0.000    0.000    0.000    0.000 
#
# Total GULP energy -89452.070977 kJ/mol
# GULP energy per Si atom -5590.754436 kJ/mol
# Density = 2.503392 g / cm^3
# Si number density = 25.091033 Si / 1000 Ang^3
#
#
#
# Elastic Constant Matrix: (Units=GPa)
#
#
# Indices 1 2 3 4 5 6 
#
# 1 178.3154 44.2376 54.3139 2.1913 -19.2918 -9.7775
# 2 44.2376 80.5401 22.8820 -4.6858 14.3628 -4.8865
# 3 54.3139 22.8820 175.1709 12.8249 -3.6471 4.5433
# 4 2.1913 -4.6858 12.8249 33.4384 8.7538 6.8592
# 5 -19.2918 14.3628 -3.6471 8.7538 55.3359 -16.1699
# 6 -9.7775 -4.8865 4.5433 6.8592 -16.1699 42.0200
#
#
#
# Elastic Compliance Matrix: (Units=1/GPa)
#
#
# Indices 1 2 3 4 5 6 
#
# 1 0.008252 -0.005002 -0.001677 -0.002976 0.005771 0.004226
# 2 -0.005002 0.017112 -0.001209 0.005962 -0.008127 -0.003144
# 3 -0.001677 -0.001209 0.006598 -0.002545 0.000365 -0.000688
# 4 -0.002976 0.005962 -0.002545 0.037050 -0.011606 -0.010238
# 5 0.005771 -0.008127 0.000365 -0.011606 0.027842 0.012967
# 6 0.004226 -0.003144 -0.000688 -0.010238 0.012967 0.031151
#
#
# Mechanical properties :
#
#
# Convention : Reuss Voigt Hill
#
# Bulk Modulus (GPa) = 61.77425 75.21038 68.49232
# Shear Modulus (GPa) = 33.51705 46.99839 40.25772
#
# Velocity S-wave (km/s) = 3.65885 4.33265 4.00992
# Velocity P-wave (km/s) = 6.52097 7.42086 6.98542
#
# Compressibility (1/GPa) = 0.01618798
#
# Stress axis : x y z
#
# Youngs Moduli (GPa) = 121.17642 58.43708 151.55460
#
# Poissons Ratio (x) = 0.29231 0.25415
# Poissons Ratio (y) = 0.60614 0.18315
# Poissons Ratio (z) = 0.20320 0.07062
#
# Static dielectric constant tensor:
#      x y z
#    x 0.851980 0.189220 -0.318280 
#    y 0.189220 2.129750 0.160750 
#    z -0.318280 0.160750 2.039410 
# 
# From -- ./inp_files/185379.got.cif
#   From: 2010.05.17/outbox.cif.g08.bks.cpg/sg2_93_cif.got.tgz:185379.got - 2010.06.03 11:33:40.
