data_PCOD9060434
_publ_section_title
;
Structure prediction by ZEFSAII (Michael W. Deem and Ramdas Pophale) SiO2 
 PCOD9060434
Probable space group: P -1
;
_chemical_formula_sum "Si O2"
_cell_formula_units_Z 14
_cell_length_a 10.684649
_cell_length_b 8.852360
_cell_length_c 11.515345
_cell_angle_alpha 49.636156
_cell_angle_beta 140.443637
_cell_angle_gamma 125.651849
_cell_volume 520.615879
_symmetry_space_group_name_H-M "P -1"
_symmetry_group_IT_number 2
_symmetry_cell_setting 'triclinic'
loop_
_space_group_symop_operation_xyz
x,y,z
-x,-y,-z
loop_
_atom_site_type_symbol
_atom_site_label
_atom_site_fract_x
_atom_site_fract_y
_atom_site_fract_z
Si Si1 0.380056 0.906441 0.266112
Si Si2 0.443283 0.522584 0.649654
Si Si3 0.844035 0.956445 0.519097
Si Si4 0.647726 0.176563 0.956092
Si Si5 0.993283 0.567937 0.829755
Si Si6 0.233302 0.282447 0.030182
Si Si7 0.893398 0.693806 0.330492
O O1 0.390051 0.705052 0.446303
O O2 0.612951 0.989875 0.351882
O O3 0.269120 0.893760 0.068691
O O4 0.265071 0.052883 0.185829
O O5 0.560739 0.366897 0.749825
O O6 0.580745 0.604589 0.817753
O O7 0.256794 0.368272 0.640824
O O8 0.829714 0.713074 0.638458
O O9 0.000000 0.000000 0.500000
O O10 0.959269 0.102063 0.629440
O O11 0.804702 0.267243 0.119845
O O12 0.500000 0.000000 0.000000
O O13 0.040936 0.379932 0.883116
O O14 0.000000 0.500000 0.000000
O O15 0.228324 0.306523 0.876010
O O16 0.000000 0.500000 0.500000
#
# Coordination Sequence:
#
# PCOD9060434 Si02
#       7
#     2   2   2   2   2   2   2
#     4  12  25  46  72 104 143 189 240 295 356 431
#     4  11  24  44  69 102 140 189 239 293 357 431
#     4  12  25  45  70 103 143 185 234 293 354 422
#     4  11  23  43  70  99 138 191 239 285 355 436
#     4  11  25  46  70 101 137 181 235 295 356 419
#     4  11  25  46  72 101 142 189 237 294 361 435
#     4  12  26  44  71 106 141 184 242 303 360 420
#
# _framework density 26.891226
#
# number of rings (size 3 to 8) (size 9 to 14) (size 15 to 20)
#    0.000    0.571    0.000    9.000    0.000    6.857 
#    0.000    5.714    0.000    0.000    0.000    0.000 
#    0.000    0.000    0.000    0.000    0.000    0.000 
#
# Total GULP energy -78197.619459 kJ/mol
# GULP energy per Si atom -5585.544247 kJ/mol
# Density = 2.683002 g / cm^3
# Si number density = 26.891226 Si / 1000 Ang^3
#
#
#
# Elastic Constant Matrix: (Units=GPa)
#
#
# Indices 1 2 3 4 5 6 
#
# 1 90.8899 46.7053 22.2923 -11.0211 -4.5862 -3.4048
# 2 46.7053 148.4198 60.0853 -15.3017 5.5599 -18.6736
# 3 22.2923 60.0853 157.2756 -26.1009 3.8504 -9.3370
# 4 -11.0211 -15.3017 -26.1009 56.9011 -7.7696 10.9981
# 5 -4.5862 5.5599 3.8504 -7.7696 52.4187 -10.9345
# 6 -3.4048 -18.6736 -9.3370 10.9981 -10.9345 55.9223
#
#
#
# Elastic Compliance Matrix: (Units=1/GPa)
#
#
# Indices 1 2 3 4 5 6 
#
# 1 0.013442 -0.004144 -0.000102 0.001798 0.001766 -0.000590
# 2 -0.004144 0.009530 -0.002919 -0.000124 -0.000691 0.002332
# 3 -0.000102 -0.002919 0.007954 0.002897 0.000104 -0.000202
# 4 0.001798 -0.000124 0.002897 0.020105 0.002323 -0.002948
# 5 0.001766 -0.000691 0.000104 0.002323 0.020354 0.003417
# 6 -0.000590 0.002332 -0.000202 -0.002948 0.003417 0.019839
#
#
# Mechanical properties :
#
#
# Convention : Reuss Voigt Hill
#
# Bulk Modulus (GPa) = 60.25336 72.75012 66.50174
# Shear Modulus (GPa) = 45.01074 50.88191 47.94632
#
# Velocity S-wave (km/s) = 4.09566 4.35459 4.22711
# Velocity P-wave (km/s) = 6.69484 7.23847 6.97196
#
# Compressibility (1/GPa) = 0.01659659
#
# Stress axis : x y z
#
# Youngs Moduli (GPa) = 74.39567 104.93614 125.72293
#
# Poissons Ratio (x) = 0.43482 0.01284
# Poissons Ratio (y) = 0.30827 0.36693
# Poissons Ratio (z) = 0.00760 0.30626
#
# Static dielectric constant tensor:
#      x y z
#    x 7.649230 -0.902060 3.807660 
#    y -0.902060 2.355680 -0.636140 
#    z 3.807660 -0.636140 4.726050 
# 
# From -- ./inp_files/419037.got.cif
#   From: 2010.05.17/outbox.cif.g08.bks.cpg/sg2_210_cif.got.tgz:419037.got - 2010.06.03 11:33:40.
