data_PCOD9060771
_publ_section_title
;
Structure prediction by ZEFSAII (Michael W. Deem and Ramdas Pophale) SiO2 
 PCOD9060771
Probable space group: P -1
;
_chemical_formula_sum "Si O2"
_cell_formula_units_Z 14
_cell_length_a 13.334554
_cell_length_b 6.702029
_cell_length_c 7.955340
_cell_angle_alpha 81.307536
_cell_angle_beta 101.393892
_cell_angle_gamma 65.571765
_cell_volume 612.584457
_symmetry_space_group_name_H-M "P -1"
_symmetry_group_IT_number 2
_symmetry_cell_setting 'triclinic'
loop_
_space_group_symop_operation_xyz
x,y,z
-x,-y,-z
loop_
_atom_site_type_symbol
_atom_site_label
_atom_site_fract_x
_atom_site_fract_y
_atom_site_fract_z
Si Si1 0.584958 0.244584 0.004022
Si Si2 0.698429 0.850857 0.346448
Si Si3 0.558827 0.610695 0.380881
Si Si4 0.082847 0.590317 0.605965
Si Si5 0.773348 0.181175 0.501876
Si Si6 0.980267 0.290233 0.055750
Si Si7 0.803446 0.169906 0.897000
O O1 0.529862 0.232325 0.808306
O O2 0.711728 0.208650 0.003548
O O3 0.500000 0.500000 0.000000
O O4 0.608493 0.046961 0.170450
O O5 0.627620 0.749829 0.447177
O O6 0.796483 0.640419 0.303104
O O7 0.767944 0.959528 0.458813
O O8 0.500000 0.500000 0.500000
O O9 0.661655 0.389032 0.358769
O O10 0.120267 0.761989 0.499346
O O11 0.029807 0.718158 0.745987
O O12 0.000000 0.500000 0.500000
O O13 0.752557 0.198533 0.691708
O O14 0.861101 0.331810 0.928289
O O15 0.086689 0.076464 0.036293
O O16 0.000000 0.500000 0.000000
#
# Coordination Sequence:
#
# PCOD9060771 Si02
#       7
#     2   2   2   2   2   2   2
#     4  12  24  46  71 103 141 185 236 294 348 422
#     4  11  25  43  72 106 139 187 233 289 362 410
#     4  11  24  47  67 101 141 182 237 291 348 422
#     4  11  24  43  73 104 142 183 234 291 350 423
#     4  11  23  44  67 103 139 180 238 284 348 425
#     4  11  24  44  66 100 138 179 232 286 352 416
#     4  11  25  43  69  97 138 183 228 291 349 413
#
# _framework density 22.85399
#
# number of rings (size 3 to 8) (size 9 to 14) (size 15 to 20)
#    0.000    0.857    2.857    3.857    2.000    6.286 
#    2.571    0.000    0.000    0.000    0.000    0.000 
#    0.000    0.000    0.000    0.000    0.000    0.000 
#
# Total GULP energy -78152.707226 kJ/mol
# GULP energy per Si atom -5582.336230 kJ/mol
# Density = 2.280197 g / cm^3
# Si number density = 22.853990 Si / 1000 Ang^3
#
#
#
# Elastic Constant Matrix: (Units=GPa)
#
#
# Indices 1 2 3 4 5 6 
#
# 1 144.9504 65.1231 21.9072 1.0618 -16.4974 18.2003
# 2 65.1231 112.4226 15.2973 -4.5216 -10.6485 19.5965
# 3 21.9072 15.2973 64.6155 -4.9248 -5.0238 6.7580
# 4 1.0618 -4.5216 -4.9248 34.9285 -1.1949 0.5908
# 5 -16.4974 -10.6485 -5.0238 -1.1949 43.3379 -2.8969
# 6 18.2003 19.5965 6.7580 0.5908 -2.8969 49.9338
#
#
#
# Elastic Compliance Matrix: (Units=1/GPa)
#
#
# Indices 1 2 3 4 5 6 
#
# 1 0.009887 -0.005094 -0.001938 -0.001138 0.002176 -0.001203
# 2 -0.005094 0.012622 -0.000745 0.001766 0.000927 -0.002963
# 3 -0.001938 -0.000745 0.016697 0.002372 0.000998 -0.001231
# 4 -0.001138 0.001766 0.002372 0.029277 0.001023 -0.000886
# 5 0.002176 0.000927 0.000998 0.001023 0.024281 0.000105
# 6 -0.001203 -0.002963 -0.001231 -0.000886 0.000105 0.021811
#
#
# Mechanical properties :
#
#
# Convention : Reuss Voigt Hill
#
# Bulk Modulus (GPa) = 42.27755 58.51597 50.39676
# Shear Modulus (GPa) = 36.22825 40.28409 38.25617
#
# Velocity S-wave (km/s) = 3.98578 4.20297 4.09582
# Velocity P-wave (km/s) = 6.30247 7.01521 6.66837
#
# Compressibility (1/GPa) = 0.02365321
#
# Stress axis : x y z
#
# Youngs Moduli (GPa) = 101.13933 79.22455 59.89216
#
# Poissons Ratio (x) = 0.40355 0.11608
# Poissons Ratio (y) = 0.51518 0.04460
# Poissons Ratio (z) = 0.19602 0.05900
#
# Static dielectric constant tensor:
#      x y z
#    x 1.872010 0.012840 0.039940 
#    y 0.012840 1.847780 -0.038090 
#    z 0.039940 -0.038090 1.895580 
# 
# From -- ./inp_files/26728.got.cif
#   From: 2010.05.17/outbox.cif.g08.bks.cpg/sg2_14_cif.got.tgz:26728.got - 2010.06.03 11:33:40.
