data_PCOD9060923
_publ_section_title
;
Structure prediction by ZEFSAII (Michael W. Deem and Ramdas Pophale) SiO2 
 PCOD9060923
Probable space group: P -1
;
_chemical_formula_sum "Si O2"
_cell_formula_units_Z 14
_cell_length_a 8.522555
_cell_length_b 9.305521
_cell_length_c 14.072759
_cell_angle_alpha 52.506838
_cell_angle_beta 49.937692
_cell_angle_gamma 48.463210
_cell_volume 606.296834
_symmetry_space_group_name_H-M "P -1"
_symmetry_group_IT_number 2
_symmetry_cell_setting 'triclinic'
loop_
_space_group_symop_operation_xyz
x,y,z
-x,-y,-z
loop_
_atom_site_type_symbol
_atom_site_label
_atom_site_fract_x
_atom_site_fract_y
_atom_site_fract_z
Si Si1 0.678082 0.777089 0.548339
Si Si2 0.882001 0.121882 0.901691
Si Si3 0.701951 0.446589 0.516357
Si Si4 0.980035 0.047666 0.600697
Si Si5 0.941726 0.239412 0.156651
Si Si6 0.856209 0.553458 0.749577
Si Si7 0.336333 0.347978 0.000750
O O1 0.681231 0.612645 0.537309
O O2 0.664846 0.696525 0.691245
O O3 0.895726 0.823675 0.456305
O O4 0.500000 0.000000 0.500000
O O5 0.914613 0.322350 0.801283
O O6 0.606596 0.204915 0.962884
O O7 0.019640 0.958854 0.835260
O O8 0.000000 0.000000 0.000000
O O9 0.500000 0.500000 0.500000
O O10 0.727074 0.232328 0.637409
O O11 0.915785 0.427005 0.374578
O O12 0.070226 0.833708 0.703250
O O13 0.000000 0.000000 0.500000
O O14 0.179480 0.257251 0.048945
O O15 0.738431 0.441795 0.112688
O O16 0.764289 0.600640 0.873432
#
# Coordination Sequence:
#
# PCOD9060923 Si02
#       7
#     2   2   2   2   2   2   2
#     4  11  24  41  68 102 134 185 235 294 368 424
#     4  12  25  44  71 104 143 192 243 290 365 424
#     4  11  24  45  69 103 141 185 241 301 368 437
#     4  11  23  44  70 101 140 186 237 293 370 431
#     4  11  24  46  69 100 147 185 241 299 360 433
#     4  11  24  46  68 100 143 179 243 296 353 442
#     4  11  26  45  69 106 142 191 242 295 361 434
#
# _framework density 23.090999
#
# number of rings (size 3 to 8) (size 9 to 14) (size 15 to 20)
#    0.000    0.857    1.429    6.857    2.000    2.286 
#   10.286    0.000    0.000    0.000    0.000    0.000 
#    0.000    0.000    0.000    0.000    0.000    0.000 
#
# Total GULP energy -78098.087904 kJ/mol
# GULP energy per Si atom -5578.434850 kJ/mol
# Density = 2.303844 g / cm^3
# Si number density = 23.090999 Si / 1000 Ang^3
#
#
#
# Elastic Constant Matrix: (Units=GPa)
#
#
# Indices 1 2 3 4 5 6 
#
# 1 103.1648 19.4009 32.1219 -9.3897 21.3967 -14.2713
# 2 19.4009 98.7779 31.4659 -29.4872 28.9694 9.7575
# 3 32.1219 31.4659 119.6702 -29.1695 40.5566 -11.5353
# 4 -9.3897 -29.4872 -29.1695 41.4815 -4.6146 9.6408
# 5 21.3967 28.9694 40.5566 -4.6146 52.4699 -8.7420
# 6 -14.2713 9.7575 -11.5353 9.6408 -8.7420 52.0469
#
#
#
# Elastic Compliance Matrix: (Units=1/GPa)
#
#
# Indices 1 2 3 4 5 6 
#
# 1 0.011284 -0.001560 -0.001896 -0.000745 -0.001876 0.002789
# 2 -0.001560 0.018178 0.002256 0.014760 -0.011170 -0.007946
# 3 -0.001896 0.002256 0.014361 0.010413 -0.010911 -0.001521
# 4 -0.000745 0.014760 0.010413 0.042740 -0.013955 -0.010924
# 5 -0.001876 -0.011170 -0.010911 -0.013955 0.034452 0.007533
# 6 0.002789 -0.007946 -0.001521 -0.010924 0.007533 0.024420
#
#
# Mechanical properties :
#
#
# Convention : Reuss Voigt Hill
#
# Bulk Modulus (GPa) = 24.14036 54.17672 39.15854
# Shear Modulus (GPa) = 30.93264 45.10793 38.02029
#
# Velocity S-wave (km/s) = 3.66402 4.42462 4.06216
# Velocity P-wave (km/s) = 5.32703 7.04388 6.24474
#
# Compressibility (1/GPa) = 0.04142439
#
# Stress axis : x y z
#
# Youngs Moduli (GPa) = 88.62132 55.01063 69.63235
#
# Poissons Ratio (x) = 0.08583 0.13200
# Poissons Ratio (y) = 0.13827 -0.15711
# Poissons Ratio (z) = 0.16799 -0.12412
#
# Static dielectric constant tensor:
#      x y z
#    x 2.178000 -0.241480 0.010340 
#    y -0.241480 2.078190 0.023910 
#    z 0.010340 0.023910 2.014120 
# 
# From -- ./inp_files/491961.got.cif
#   From: 2010.05.17/outbox.cif.g08.bks.cpg/sg2_246_cif.got.tgz:491961.got - 2010.06.03 11:33:40.
