data_PCOD9060445
_publ_section_title
;
Structure prediction by ZEFSAII (Michael W. Deem and Ramdas Pophale) SiO2 
 PCOD9060445
Probable space group: P -1
;
_chemical_formula_sum "Si O2"
_cell_formula_units_Z 14
_cell_length_a 10.093813
_cell_length_b 18.683562
_cell_length_c 21.534970
_cell_angle_alpha 18.565987
_cell_angle_beta 133.075448
_cell_angle_gamma 144.841136
_cell_volume 643.973329
_symmetry_space_group_name_H-M "P -1"
_symmetry_group_IT_number 2
_symmetry_cell_setting 'triclinic'
loop_
_space_group_symop_operation_xyz
x,y,z
-x,-y,-z
loop_
_atom_site_type_symbol
_atom_site_label
_atom_site_fract_x
_atom_site_fract_y
_atom_site_fract_z
Si Si1 0.900471 0.298042 0.571064
Si Si2 0.163978 0.627282 0.641509
Si Si3 0.325653 0.563023 0.020484
Si Si4 0.300064 0.626997 0.218714
Si Si5 0.813594 0.323560 0.994522
Si Si6 0.432705 0.548452 0.505181
Si Si7 0.518682 0.351123 0.187432
O O1 0.887273 0.460586 0.375148
O O2 0.000000 0.500000 0.500000
O O3 0.123200 0.319242 0.604491
O O4 0.614496 0.926796 0.796971
O O5 0.217565 0.471157 0.834469
O O6 0.931639 0.568698 0.643855
O O7 0.417130 0.021506 0.400764
O O8 0.261482 0.560327 0.073356
O O9 0.335547 0.310561 0.213047
O O10 0.095986 0.473982 0.980148
O O11 0.452590 0.530024 0.345942
O O12 0.187836 0.583992 0.151019
O O13 0.500000 0.000000 0.000000
O O14 0.593728 0.926213 0.253206
O O15 0.500000 0.500000 0.500000
O O16 0.500000 0.500000 0.000000
#
# Coordination Sequence:
#
# PCOD9060445 Si02
#       7
#     2   2   2   2   2   2   2
#     4  12  25  46  71 104 146 183 233 297 351 420
#     4  11  25  42  70 107 134 180 239 287 346 420
#     4  11  25  45  71  97 144 187 229 293 355 411
#     4  12  25  41  71 102 137 183 233 283 348 424
#     4  11  25  48  67 103 141 184 236 290 350 422
#     4  12  24  46  71 100 142 184 230 287 351 413
#     4  11  23  43  71 101 137 175 231 296 351 410
#
# _framework density 21.740031999999999
#
# number of rings (size 3 to 8) (size 9 to 14) (size 15 to 20)
#    0.000    0.571    5.714    1.714    4.000    1.143 
#    0.000    3.571    0.000    0.000    0.000    0.000 
#    0.000    0.000    0.000    0.000    0.000    0.000 
#
# Total GULP energy -78247.926927 kJ/mol
# GULP energy per Si atom -5589.137638 kJ/mol
# Density = 2.169055 g / cm^3
# Si number density = 21.740032 Si / 1000 Ang^3
#
#
#
# Elastic Constant Matrix: (Units=GPa)
#
#
# Indices 1 2 3 4 5 6 
#
# 1 114.0809 49.6598 -5.6695 4.7356 0.0500 -7.1688
# 2 49.6598 129.3812 19.4374 17.7479 -16.3839 -19.8348
# 3 -5.6695 19.4374 43.0584 8.2954 -3.6263 -9.4129
# 4 4.7356 17.7479 8.2954 40.2099 2.7721 -4.9310
# 5 0.0500 -16.3839 -3.6263 2.7721 31.4074 -6.0382
# 6 -7.1688 -19.8348 -9.4129 -4.9310 -6.0382 50.7516
#
#
#
# Elastic Compliance Matrix: (Units=1/GPa)
#
#
# Indices 1 2 3 4 5 6 
#
# 1 0.011177 -0.005178 0.003527 0.000400 -0.002353 -0.000032
# 2 -0.005178 0.012356 -0.004058 -0.004029 0.007070 0.003795
# 3 0.003527 -0.004058 0.027296 -0.003930 0.002115 0.003845
# 4 0.000400 -0.004029 -0.003930 0.027740 -0.005033 -0.000151
# 5 -0.002353 0.007070 0.002115 -0.005033 0.037527 0.006799
# 6 -0.000032 0.003795 0.003845 -0.000151 0.006799 0.022690
#
#
# Mechanical properties :
#
#
# Convention : Reuss Voigt Hill
#
# Bulk Modulus (GPa) = 25.37332 45.93066 35.65199
# Shear Modulus (GPa) = 30.61078 39.34665 34.97872
#
# Velocity S-wave (km/s) = 3.75645 4.25887 4.01553
# Velocity P-wave (km/s) = 5.52369 6.73477 6.15907
#
# Compressibility (1/GPa) = 0.03941147
#
# Stress axis : x y z
#
# Youngs Moduli (GPa) = 89.46727 80.93373 36.63502
#
# Poissons Ratio (x) = 0.41904 -0.12921
# Poissons Ratio (y) = 0.46323 0.14867
# Poissons Ratio (z) = -0.31554 0.32845
#
# Static dielectric constant tensor:
#      x y z
#    x 1.763080 0.000290 -0.011400 
#    y 0.000290 1.839590 -0.009070 
#    z -0.011400 -0.009070 1.820540 
# 
# From -- ./inp_files/467014.got.cif
#   From: 2010.05.17/outbox.cif.g08.bks.cpg/sg2_234_cif.got.tgz:467014.got - 2010.06.03 11:33:40.
