data_PCOD9060082
_publ_section_title
;
Structure prediction by ZEFSAII (Michael W. Deem and Ramdas Pophale) SiO2 
 PCOD9060082
Probable space group: P -1
;
_chemical_formula_sum "Si O2"
_cell_formula_units_Z 16
_cell_length_a 17.330654
_cell_length_b 15.494838
_cell_length_c 9.471027
_cell_angle_alpha 116.175934
_cell_angle_beta 38.937248
_cell_angle_gamma 146.280271
_cell_volume 716.413120
_symmetry_space_group_name_H-M "P -1"
_symmetry_group_IT_number 2
_symmetry_cell_setting 'triclinic'
loop_
_space_group_symop_operation_xyz
x,y,z
-x,-y,-z
loop_
_atom_site_type_symbol
_atom_site_label
_atom_site_fract_x
_atom_site_fract_y
_atom_site_fract_z
Si Si1 0.752000 0.899976 0.655574
Si Si2 0.316725 0.825705 0.835324
Si Si3 0.908353 0.698767 0.433432
Si Si4 0.265113 0.395368 0.696209
Si Si5 0.268276 0.748199 0.515648
Si Si6 0.948677 0.016577 0.938230
Si Si7 0.283022 0.623634 0.945680
Si Si8 0.508267 0.702844 0.139963
O O1 0.874172 0.912653 0.377865
O O2 0.504582 0.775016 0.849761
O O3 0.676549 0.796529 0.832983
O O4 0.937472 0.110896 0.582043
O O5 0.264291 0.765759 0.703009
O O6 0.321573 0.733027 0.854399
O O7 0.569713 0.058104 0.645717
O O8 0.099678 0.746439 0.145209
O O9 0.766780 0.634993 0.447740
O O10 0.712368 0.520639 0.690027
O O11 0.500000 0.500000 0.500000
O O12 0.025777 0.180718 0.948922
O O13 0.283956 0.519349 0.797719
O O14 0.404820 0.739953 0.295093
O O15 0.986262 0.549206 0.727043
O O16 0.000000 0.000000 0.000000
O O17 0.675455 0.817450 0.124995
#
# Coordination Sequence:
#
# PCOD9060082 Si02
#       8
#     2   2   2   2   2   2   2   2
#     4  12  29  50  71 112 158 196 242 321 376 453
#     4  11  23  44  74 112 150 197 251 310 365 451
#     4  12  25  49  77 109 153 203 246 304 388 442
#     4  12  24  47  76 111 148 194 258 310 362 447
#     4  11  23  42  76 110 149 198 253 309 373 442
#     4  12  28  49  79 111 149 196 258 312 370 451
#     4  12  26  45  76 108 154 195 254 307 370 442
#     4  12  26  48  77 106 155 202 248 308 387 438
#
# _framework density 22.333483000000001
#
# number of rings (size 3 to 8) (size 9 to 14) (size 15 to 20)
#    0.000    0.250    6.250    2.250    3.500    3.500 
#    0.000    0.000    0.000    0.000    0.000    0.000 
#    0.000    0.000    0.000    0.000    0.000    0.000 
#
# Total GULP energy -89702.980903 kJ/mol
# GULP energy per Si atom -5606.436306 kJ/mol
# Density = 2.228265 g / cm^3
# Si number density = 22.333483 Si / 1000 Ang^3
#
#
#
# Elastic Constant Matrix: (Units=GPa)
#
#
# Indices 1 2 3 4 5 6 
#
# 1 117.3175 84.1216 45.8000 -13.4743 -7.4676 -16.3899
# 2 84.1216 145.8918 65.7262 -23.2801 13.8784 -1.6004
# 3 45.8000 65.7262 105.5810 -19.6229 2.6670 -8.3952
# 4 -13.4743 -23.2801 -19.6229 47.4171 -5.9830 -2.6599
# 5 -7.4676 13.8784 2.6670 -5.9830 45.3018 -14.5876
# 6 -16.3899 -1.6004 -8.3952 -2.6599 -14.5876 34.1180
#
#
#
# Elastic Compliance Matrix: (Units=1/GPa)
#
#
# Indices 1 2 3 4 5 6 
#
# 1 0.020592 -0.012626 0.000182 0.002106 0.012283 0.014761
# 2 -0.012626 0.017927 -0.006186 0.000662 -0.010759 -0.011295
# 3 0.000182 -0.006186 0.014219 0.003571 0.003143 0.004918
# 4 0.002106 0.000662 0.003571 0.024472 0.005101 0.006010
# 5 0.012283 -0.010759 0.003143 0.005101 0.034788 0.021441
# 6 0.014761 -0.011295 0.004918 0.006010 0.021441 0.046717
#
#
# Mechanical properties :
#
#
# Convention : Reuss Voigt Hill
#
# Bulk Modulus (GPa) = 64.60855 84.45400 74.53127
# Shear Modulus (GPa) = 24.85920 36.91021 30.88470
#
# Velocity S-wave (km/s) = 3.33992 4.06973 3.72275
# Velocity P-wave (km/s) = 6.62308 7.74472 7.20576
#
# Compressibility (1/GPa) = 0.01547783
#
# Stress axis : x y z
#
# Youngs Moduli (GPa) = 48.56278 55.78314 70.32988
#
# Poissons Ratio (x) = 0.70431 -0.01280
# Poissons Ratio (y) = 0.61315 0.43505
# Poissons Ratio (z) = -0.00884 0.34507
#
# Static dielectric constant tensor:
#      x y z
#    x 1.795760 0.001120 -0.020150 
#    y 0.001120 1.808100 -0.005760 
#    z -0.020150 -0.005760 1.839090 
# 
# From -- ./inp_files/315395.got.cif
#   From: 2010.05.17/outbox.cif.g08.bks.cpg/sg2_158_cif.got.tgz:315395.got - 2010.06.03 11:33:40.
