data_PCOD9060956
_publ_section_title
;
Structure prediction by ZEFSAII (Michael W. Deem and Ramdas Pophale) SiO2 
 PCOD9060956
Probable space group: P -1
;
_chemical_formula_sum "Si O2"
_cell_formula_units_Z 16
_cell_length_a 11.628970
_cell_length_b 9.282058
_cell_length_c 16.954204
_cell_angle_alpha 92.138509
_cell_angle_beta 55.721562
_cell_angle_gamma 137.725410
_cell_volume 743.374728
_symmetry_space_group_name_H-M "P -1"
_symmetry_group_IT_number 2
_symmetry_cell_setting 'triclinic'
loop_
_space_group_symop_operation_xyz
x,y,z
-x,-y,-z
loop_
_atom_site_type_symbol
_atom_site_label
_atom_site_fract_x
_atom_site_fract_y
_atom_site_fract_z
Si Si1 0.411375 0.779854 0.803058
Si Si2 0.112348 0.963969 0.285167
Si Si3 0.273333 0.174261 0.057027
Si Si4 0.402298 0.701226 0.488237
Si Si5 0.864212 0.768992 0.612246
Si Si6 0.714735 0.105235 0.529352
Si Si7 0.735369 0.878181 0.218922
Si Si8 0.783977 0.107917 0.051590
O O1 0.635258 0.873534 0.756823
O O2 0.378472 0.888426 0.874926
O O3 0.526457 0.932160 0.677013
O O4 0.102232 0.430194 0.907115
O O5 0.185570 0.012115 0.166902
O O6 0.092446 0.113680 0.318742
O O7 0.821908 0.625332 0.413929
O O8 0.500000 0.500000 0.000000
O O9 0.999362 0.011962 0.128900
O O10 0.358405 0.135647 0.956851
O O11 0.237171 0.687554 0.512394
O O12 0.637480 0.861425 0.338412
O O13 0.545476 0.880426 0.517657
O O14 0.537855 0.455223 0.712074
O O15 0.013681 0.748590 0.554895
O O16 0.000000 0.000000 0.500000
O O17 0.803700 0.057127 0.129785
#
# Coordination Sequence:
#
# PCOD9060956 Si02
#       8
#     2   2   2   2   2   2   2   2
#     4  11  23  44  70  96 136 181 233 278 331 414
#     4  12  25  43  69 103 135 179 226 283 343 404
#     4  12  27  47  68 100 140 181 231 288 335 400
#     4  11  25  41  70 104 136 178 215 288 349 405
#     4  12  24  40  73 102 134 178 223 275 347 410
#     4  11  24  45  66 102 142 173 225 278 349 404
#     4  12  24  45  70  99 137 176 229 278 342 407
#     4  11  25  43  70  96 130 189 231 277 337 399
#
# _framework density 21.523465999999999
#
# number of rings (size 3 to 8) (size 9 to 14) (size 15 to 20)
#    0.000    0.500    3.750    4.125    3.500    2.500 
#    2.250    0.000    0.000    0.000    0.000    0.000 
#    0.000    0.000    0.000    0.000    0.000    0.000 
#
# Total GULP energy -89611.298616 kJ/mol
# GULP energy per Si atom -5600.706163 kJ/mol
# Density = 2.147448 g / cm^3
# Si number density = 21.523466 Si / 1000 Ang^3
#
#
#
# Elastic Constant Matrix: (Units=GPa)
#
#
# Indices 1 2 3 4 5 6 
#
# 1 58.0354 5.3334 11.6332 -6.0641 -0.8294 -2.3919
# 2 5.3334 113.1556 35.7664 7.0289 -13.6626 -10.4110
# 3 11.6332 35.7664 80.3283 1.7986 4.6824 2.0482
# 4 -6.0641 7.0289 1.7986 40.9070 4.5091 1.0383
# 5 -0.8294 -13.6626 4.6824 4.5091 29.0993 8.0506
# 6 -2.3919 -10.4110 2.0482 1.0383 8.0506 21.9790
#
#
#
# Elastic Compliance Matrix: (Units=1/GPa)
#
#
# Indices 1 2 3 4 5 6 
#
# 1 0.018156 0.000037 -0.002760 0.002757 -0.000039 0.002135
# 2 0.000037 0.011858 -0.005668 -0.002519 0.005716 0.004174
# 3 -0.002760 -0.005668 0.015700 0.000448 -0.004562 -0.002799
# 4 0.002757 -0.002519 0.000448 0.025837 -0.005100 -0.000287
# 5 -0.000039 0.005716 -0.004562 -0.005100 0.041884 -0.011972
# 6 0.002135 0.004174 -0.002799 -0.000287 -0.011972 0.052367
#
#
# Mechanical properties :
#
#
# Convention : Reuss Voigt Hill
#
# Bulk Modulus (GPa) = 34.56439 39.66505 37.11472
# Shear Modulus (GPa) = 26.01070 31.64947 28.83008
#
# Velocity S-wave (km/s) = 3.48009 3.83882 3.66385
# Velocity P-wave (km/s) = 5.67819 6.17394 5.93125
#
# Compressibility (1/GPa) = 0.02893151
#
# Stress axis : x y z
#
# Youngs Moduli (GPa) = 55.07785 84.33105 63.69554
#
# Poissons Ratio (x) = -0.00312 0.17579
# Poissons Ratio (y) = -0.00204 0.36105
# Poissons Ratio (z) = 0.15200 0.47802
#
# Static dielectric constant tensor:
#      x y z
#    x 1.771920 -0.013020 0.001130 
#    y -0.013020 1.779400 0.028180 
#    z 0.001130 0.028180 1.766340 
# 
# From -- ./inp_files/566770.got.cif
#   From: 2010.05.17/outbox.cif.g08.bks.cpg/sg2_284_cif.got.tgz:566770.got - 2010.06.03 11:33:40.
