data_PCOD9060169
_publ_section_title
;
Structure prediction by ZEFSAII (Michael W. Deem and Ramdas Pophale) SiO2 
 PCOD9060169
Probable space group: P -1
;
_chemical_formula_sum "Si O2"
_cell_formula_units_Z 15
_cell_length_a 16.148030
_cell_length_b 9.212283
_cell_length_c 10.134491
_cell_angle_alpha 92.557949
_cell_angle_beta 122.999667
_cell_angle_gamma 41.243061
_cell_volume 626.252087
_symmetry_space_group_name_H-M "P -1"
_symmetry_group_IT_number 2
_symmetry_cell_setting 'triclinic'
loop_
_space_group_symop_operation_xyz
x,y,z
-x,-y,-z
loop_
_atom_site_type_symbol
_atom_site_label
_atom_site_fract_x
_atom_site_fract_y
_atom_site_fract_z
Si Si1 0.658639 0.404326 0.941162
Si Si2 0.856052 0.439012 0.212133
Si Si3 0.266902 0.750469 0.580194
Si Si4 0.011546 0.227071 0.828772
Si Si5 0.243663 0.216765 0.075591
Si Si6 0.500000 0.000000 0.500000
Si Si7 0.693112 0.444605 0.675858
Si Si8 0.701343 0.617296 0.351182
O O1 0.441772 0.620063 0.791569
O O2 0.672006 0.392000 0.793004
O O3 0.707061 0.503893 0.034579
O O4 0.829216 0.076404 0.124762
O O5 0.760451 0.623302 0.270457
O O6 0.877922 0.528965 0.120910
O O7 0.064345 0.098170 0.413342
O O8 0.321030 0.635482 0.471105
O O9 0.250559 0.615258 0.631641
O O10 0.908040 0.247585 0.839919
O O11 0.834482 0.499656 0.585312
O O12 0.140438 0.193883 0.994521
O O13 0.285883 0.239961 0.250520
O O14 0.470566 0.923135 0.202236
O O15 0.465409 0.221435 0.456327
#
# Coordination Sequence:
#
# PCOD9060169 Si02
#       8
#     2   2   2   2   2   1   2   2
#     4  12  23  42  70 103 134 178 225 280 340 401
#     4  12  27  43  71 102 136 178 235 278 329 398
#     4  11  24  43  70 102 136 176 230 280 337 397
#     4  11  24  44  74  95 138 183 220 271 352 395
#     4  12  26  47  68 104 137 182 219 280 347 397
#     4  12  22  44  68 100 138 174 222 276 340 414
#     4  11  23  43  67 100 140 169 223 284 332 405
#     4  11  24  48  68  98 141 178 230 282 323 406
#
# _framework density 23.952014999999999
#
# number of rings (size 3 to 8) (size 9 to 14) (size 15 to 20)
#    0.000    0.533    8.000    1.600    0.000    4.800 
#    0.000    0.000    0.000    0.000    0.000    0.000 
#    0.000    0.000    0.000    0.000    0.000    0.000 
#
# Total GULP energy -83743.834725 kJ/mol
# GULP energy per Si atom -5582.922315 kJ/mol
# Density = 2.389750 g / cm^3
# Si number density = 23.952015 Si / 1000 Ang^3
#
#
#
# Elastic Constant Matrix: (Units=GPa)
#
#
# Indices 1 2 3 4 5 6 
#
# 1 46.2725 25.4965 43.5934 27.9919 14.5510 0.3460
# 2 25.4965 38.9008 7.6332 -8.4344 13.5569 2.1616
# 3 43.5934 7.6332 70.7760 -20.6456 22.6518 -1.7354
# 4 27.9919 -8.4344 -20.6456 40.9921 3.8592 0.7336
# 5 14.5510 13.5569 22.6518 3.8592 39.3126 9.0937
# 6 0.3460 2.1616 -1.7354 0.7336 9.0937 25.6983
#
#
#
# Elastic Compliance Matrix: (Units=1/GPa)
#
#
# Indices 1 2 3 4 5 6 
#
# 1 -0.014241 0.015455 0.018591 0.023517 -0.014113 0.004470
# 2 0.015455 0.015489 -0.015661 -0.015211 -0.000055 -0.002115
# 3 0.018591 -0.015661 -0.000236 -0.016052 -0.000128 0.001555
# 4 0.023517 -0.015211 -0.016052 -0.003465 0.006683 -0.002387
# 5 -0.014113 -0.000055 -0.000128 0.006683 0.032783 -0.011605
# 6 0.004470 -0.002115 0.001555 -0.002387 -0.011605 0.043311
#
#
# Mechanical properties :
#
#
# Convention : Reuss Voigt Hill
#
# Bulk Modulus (GPa) = 26.46771 34.37728 30.42250
# Shear Modulus (GPa) = 101.08707 26.48236 63.78471
#
# Velocity S-wave (km/s) = 6.50351 3.32873 5.16604
# Velocity P-wave (km/s) = 8.21392 5.39978 6.95076
#
# Compressibility (1/GPa) = 0.03778188
#
# Stress axis : x y z
#
# Youngs Moduli (GPa) = -70.21853 64.56345 -4230.94348
#
# Poissons Ratio (x) = -0.99783 78.65926
# Poissons Ratio (y) = 1.08523 -66.26078
# Poissons Ratio (z) = 1.30546 1.01113
#
# Static dielectric constant tensor:
#      x y z
#    x 1.880980 -0.047270 -0.045760 
#    y -0.047270 1.749040 0.071100 
#    z -0.045760 0.071100 1.887670 
# 
# From -- ./inp_files/445896.got.cif
#   From: 2010.05.17/outbox.cif.g08.bks.cpg/sg2_223_cif.got.tgz:445896.got - 2010.06.03 11:33:40.
