data_PCOD9060124
_publ_section_title
;
Structure prediction by ZEFSAII (Michael W. Deem and Ramdas Pophale) SiO2 
 PCOD9060124
Probable space group: P -1
;
_chemical_formula_sum "Si O2"
_cell_formula_units_Z 16
_cell_length_a 6.836855
_cell_length_b 9.753516
_cell_length_c 18.255462
_cell_angle_alpha 124.841963
_cell_angle_beta 70.998387
_cell_angle_gamma 131.929309
_cell_volume 740.152905
_symmetry_space_group_name_H-M "P -1"
_symmetry_group_IT_number 2
_symmetry_cell_setting 'triclinic'
loop_
_space_group_symop_operation_xyz
x,y,z
-x,-y,-z
loop_
_atom_site_type_symbol
_atom_site_label
_atom_site_fract_x
_atom_site_fract_y
_atom_site_fract_z
Si Si1 0.073985 0.094878 0.298438
Si Si2 0.318183 0.346523 0.041208
Si Si3 0.614765 0.632614 0.232956
Si Si4 0.335891 0.653598 0.756777
Si Si5 0.540835 0.218448 0.566074
Si Si6 0.630932 0.745388 0.545337
Si Si7 0.104853 0.626608 0.629475
Si Si8 0.279086 0.936035 0.949933
O O1 0.363691 0.215137 0.267120
O O2 0.123874 0.122996 0.389163
O O3 0.965397 0.213824 0.316648
O O4 0.868772 0.846686 0.231191
O O5 0.415282 0.474658 0.145576
O O6 0.011348 0.233630 0.032887
O O7 0.500000 0.500000 0.000000
O O8 0.323654 0.148885 0.986319
O O9 0.703141 0.514053 0.231799
O O10 0.498923 0.710078 0.328888
O O11 0.141620 0.555218 0.681572
O O12 0.303290 0.818896 0.845443
O O13 0.342323 0.208379 0.529722
O O14 0.843019 0.408683 0.562511
O O15 0.500000 0.000000 0.500000
O O16 0.500000 0.500000 0.500000
O O17 0.397619 0.755374 0.599897
O O18 0.500000 0.000000 0.000000
#
# Coordination Sequence:
#
# PCOD9060124 Si02
#       8
#     2   2   2   2   2   2   2   2
#     4  11  26  44  70 100 144 187 235 293 359 422
#     4  11  28  48  76 111 147 185 240 298 360 443
#     4  12  26  47  69 105 144 185 236 294 358 428
#     4  11  25  46  71 104 141 185 237 293 355 435
#     4  12  25  41  69 100 140 187 242 291 349 423
#     4  11  23  43  65  97 131 190 241 292 354 414
#     4  11  23  45  67  94 143 192 230 294 361 418
#     4  11  25  48  78 106 145 188 233 297 371 430
#
# _framework density 21.617156000000001
#
# number of rings (size 3 to 8) (size 9 to 14) (size 15 to 20)
#    0.000    0.750    3.750    2.625    7.000    2.000 
#    2.250    0.000    0.000    0.000    0.000    0.000 
#    0.000    0.000    0.000    0.000    0.000    0.000 
#
# Total GULP energy -89482.623662 kJ/mol
# GULP energy per Si atom -5592.663979 kJ/mol
# Density = 2.156795 g / cm^3
# Si number density = 21.617156 Si / 1000 Ang^3
#
#
#
# Elastic Constant Matrix: (Units=GPa)
#
#
# Indices 1 2 3 4 5 6 
#
# 1 137.5942 50.6053 31.6029 1.1324 3.5350 -2.2099
# 2 50.6053 127.4116 25.5318 13.9101 2.1532 -8.9198
# 3 31.6029 25.5318 75.5505 8.5545 -9.7312 -17.6640
# 4 1.1324 13.9101 8.5545 37.0916 -0.9717 2.9886
# 5 3.5350 2.1532 -9.7312 -0.9717 38.8106 -0.4505
# 6 -2.2099 -8.9198 -17.6640 2.9886 -0.4505 21.2294
#
#
#
# Elastic Compliance Matrix: (Units=1/GPa)
#
#
# Indices 1 2 3 4 5 6 
#
# 1 0.009477 -0.003428 -0.004324 0.002303 -0.001751 -0.004413
# 2 -0.003428 0.010042 -0.000697 -0.003820 -0.000471 0.003810
# 3 -0.004324 -0.000697 0.020723 -0.005640 0.005689 0.017415
# 4 0.002303 -0.003820 -0.005640 0.030438 -0.000770 -0.010359
# 5 -0.001751 -0.000471 0.005689 -0.000770 0.027418 0.005044
# 6 -0.004413 0.003810 0.017415 -0.010359 0.005044 0.064301
#
#
# Mechanical properties :
#
#
# Convention : Reuss Voigt Hill
#
# Bulk Modulus (GPa) = 42.83680 61.78182 52.30931
# Shear Modulus (GPa) = 26.72689 34.94740 30.83715
#
# Velocity S-wave (km/s) = 3.52003 4.02512 3.78102
# Velocity P-wave (km/s) = 6.03158 7.08831 6.58119
#
# Compressibility (1/GPa) = 0.02334442
#
# Stress axis : x y z
#
# Youngs Moduli (GPa) = 105.51996 99.58550 48.25480
#
# Poissons Ratio (x) = 0.34142 0.20863
# Poissons Ratio (y) = 0.36177 0.03362
# Poissons Ratio (z) = 0.45623 0.06938
#
# Static dielectric constant tensor:
#      x y z
#    x 1.803800 0.011860 0.008180 
#    y 0.011860 1.767000 -0.049890 
#    z 0.008180 -0.049890 1.829080 
# 
# From -- ./inp_files/548308.got.cif
#   From: 2010.05.17/outbox.cif.g08.bks.cpg/sg2_275_cif.got.tgz:548308.got - 2010.06.03 11:33:40.
