data_PCOD9060664
_publ_section_title
;
Structure prediction by ZEFSAII (Michael W. Deem and Ramdas Pophale) SiO2 
 PCOD9060664
Probable space group: P -1
;
_chemical_formula_sum "Si O2"
_cell_formula_units_Z 16
_cell_length_a 8.862483
_cell_length_b 8.946906
_cell_length_c 9.657986
_cell_angle_alpha 79.468329
_cell_angle_beta 55.315727
_cell_angle_gamma 79.628427
_cell_volume 616.365460
_symmetry_space_group_name_H-M "P -1"
_symmetry_group_IT_number 2
_symmetry_cell_setting 'triclinic'
loop_
_space_group_symop_operation_xyz
x,y,z
-x,-y,-z
loop_
_atom_site_type_symbol
_atom_site_label
_atom_site_fract_x
_atom_site_fract_y
_atom_site_fract_z
Si Si1 0.781712 0.029617 0.135030
Si Si2 0.460165 0.263155 0.274811
Si Si3 0.354383 0.598652 0.165568
Si Si4 0.335976 0.228741 0.923396
Si Si5 0.342480 0.389262 0.608952
Si Si6 0.911476 0.239832 0.513385
Si Si7 0.065022 0.448824 0.191915
Si Si8 0.787984 0.964137 0.463733
O O1 0.673281 0.196850 0.173219
O O2 0.702826 0.942970 0.057929
O O3 0.747637 0.968097 0.320141
O O4 0.000000 0.000000 0.000000
O O5 0.445430 0.425383 0.174341
O O6 0.364493 0.306287 0.465160
O O7 0.354081 0.107327 0.342678
O O8 0.502184 0.725123 0.067906
O O9 0.235568 0.644552 0.355647
O O10 0.199633 0.577112 0.135278
O O11 0.384312 0.283776 0.736638
O O12 0.153826 0.335598 0.047896
O O13 0.500000 0.500000 0.500000
O O14 0.142027 0.476840 0.725759
O O15 0.058318 0.337514 0.346838
O O16 0.016739 0.132051 0.590881
O O17 0.818755 0.134959 0.468915
#
# Coordination Sequence:
#
# PCOD9060664 Si02
#       8
#     2   2   2   2   2   2   2   2
#     4  12  29  47  71 103 149 188 238 301 363 423
#     4  12  24  45  73 102 140 186 242 297 350 428
#     4  12  25  47  74 107 143 193 239 297 360 428
#     4  12  27  45  70 107 144 193 238 294 361 423
#     4  12  25  43  75 110 140 188 244 300 351 427
#     4  11  23  43  75 104 143 186 242 290 352 436
#     4  12  25  46  72 105 152 184 241 298 365 420
#     4  11  24  44  72 107 138 193 239 286 357 431
#
# _framework density 25.958625000000001
#
# number of rings (size 3 to 8) (size 9 to 14) (size 15 to 20)
#    0.000    0.250    5.000    3.750    5.250    1.000 
#    2.250    0.625    0.000    0.000    0.000    0.000 
#    0.000    0.000    0.000    0.000    0.000    0.000 
#
# Total GULP energy -89488.634862 kJ/mol
# GULP energy per Si atom -5593.039679 kJ/mol
# Density = 2.589954 g / cm^3
# Si number density = 25.958625 Si / 1000 Ang^3
#
#
#
# Elastic Constant Matrix: (Units=GPa)
#
#
# Indices 1 2 3 4 5 6 
#
# 1 91.7207 46.5422 28.4615 17.4294 -14.8395 8.5428
# 2 46.5422 86.9595 27.1716 8.8463 -11.8984 10.4169
# 3 28.4615 27.1716 84.3222 21.9743 -30.5094 11.5535
# 4 17.4294 8.8463 21.9743 44.3201 5.7554 2.6016
# 5 -14.8395 -11.8984 -30.5094 5.7554 46.0283 4.4410
# 6 8.5428 10.4169 11.5535 2.6016 4.4410 41.3632
#
#
#
# Elastic Compliance Matrix: (Units=1/GPa)
#
#
# Indices 1 2 3 4 5 6 
#
# 1 0.016621 -0.007564 0.000032 -0.005500 0.004272 -0.001649
# 2 -0.007564 0.016536 -0.002828 0.001188 -0.000005 -0.001886
# 3 0.000032 -0.002828 0.023065 -0.012670 0.016803 -0.006744
# 4 -0.005500 0.001188 -0.012670 0.032400 -0.014289 0.003872
# 5 0.004272 -0.000005 0.016803 -0.014289 0.036859 -0.008633
# 6 -0.001649 -0.001886 -0.006744 0.003872 -0.008633 0.027559
#
#
# Mechanical properties :
#
#
# Convention : Reuss Voigt Hill
#
# Bulk Modulus (GPa) = 28.16768 51.92812 40.04790
# Shear Modulus (GPa) = 26.94045 37.06411 32.00228
#
# Velocity S-wave (km/s) = 3.22502 3.78274 3.51496
# Velocity P-wave (km/s) = 4.97416 6.25512 5.65105
#
# Compressibility (1/GPa) = 0.03550169
#
# Stress axis : x y z
#
# Youngs Moduli (GPa) = 60.16498 60.47301 43.35518
#
# Poissons Ratio (x) = 0.45744 -0.00140
# Poissons Ratio (y) = 0.45511 0.12263
# Poissons Ratio (z) = -0.00194 0.17104
#
# Static dielectric constant tensor:
#      x y z
#    x 2.336890 0.427150 -0.010660 
#    y 0.427150 2.778720 -0.024830 
#    z -0.010660 -0.024830 2.029620 
# 
# From -- ./inp_files/382204.got.cif
#   From: 2010.05.17/outbox.cif.g08.bks.cpg/sg2_192_cif.got.tgz:382204.got - 2010.06.03 11:33:40.
