data_PCOD9060696
_publ_section_title
;
Structure prediction by ZEFSAII (Michael W. Deem and Ramdas Pophale) SiO2 
 PCOD9060696
Probable space group: P -1
;
_chemical_formula_sum "Si O2"
_cell_formula_units_Z 16
_cell_length_a 10.918429
_cell_length_b 8.424210
_cell_length_c 14.615301
_cell_angle_alpha 70.524201
_cell_angle_beta 69.357394
_cell_angle_gamma 127.204502
_cell_volume 681.227791
_symmetry_space_group_name_H-M "P -1"
_symmetry_group_IT_number 2
_symmetry_cell_setting 'triclinic'
loop_
_space_group_symop_operation_xyz
x,y,z
-x,-y,-z
loop_
_atom_site_type_symbol
_atom_site_label
_atom_site_fract_x
_atom_site_fract_y
_atom_site_fract_z
Si Si1 0.838643 0.475891 0.756414
Si Si2 0.700005 0.163479 0.347036
Si Si3 0.537823 0.708295 0.829719
Si Si4 0.981012 0.683367 0.481635
Si Si5 0.572643 0.858284 0.975948
Si Si6 0.449551 0.599997 0.424137
Si Si7 0.694995 0.821745 0.127595
Si Si8 0.876108 0.536923 0.064358
O O1 0.875798 0.600609 0.625521
O O2 0.084594 0.682441 0.686573
O O3 0.682977 0.145386 0.852996
O O4 0.696588 0.433472 0.874837
O O5 0.787405 0.408453 0.215088
O O6 0.500000 0.000000 0.500000
O O7 0.602309 0.918444 0.353309
O O8 0.624371 0.780675 0.897178
O O9 0.390361 0.414862 0.871895
O O10 0.355412 0.668821 0.889645
O O11 0.763301 0.981888 0.659834
O O12 0.808491 0.598369 0.474953
O O13 0.000000 0.500000 0.500000
O O14 0.673438 0.949599 0.034423
O O15 0.500000 0.500000 0.500000
O O16 0.532667 0.641316 0.292730
O O17 0.945401 0.120594 0.045250
O O18 0.000000 0.500000 0.000000
#
# Coordination Sequence:
#
# PCOD9060696 Si02
#       8
#     2   2   2   2   2   2   2   2
#     4  11  23  43  76 110 143 194 260 320 367 448
#     4  12  26  45  76 112 147 200 262 314 379 456
#     4  12  28  46  76 113 156 202 255 324 390 455
#     4  12  25  50  81 113 153 201 269 320 373 464
#     4  11  24  45  75 108 147 195 254 312 384 446
#     4  12  30  51  77 114 162 206 250 319 403 463
#     4  12  27  51  73 112 157 200 258 317 394 467
#     4  12  25  49  78 108 153 203 258 320 378 466
#
# _framework density 23.487003000000001
#
# number of rings (size 3 to 8) (size 9 to 14) (size 15 to 20)
#    0.000    0.250    5.000    3.750    5.250    1.500 
#    2.250    0.000    0.000    0.000    0.000    0.000 
#    0.000    0.000    0.000    0.000    0.000    0.000 
#
# Total GULP energy -89408.661954 kJ/mol
# GULP energy per Si atom -5588.041372 kJ/mol
# Density = 2.343355 g / cm^3
# Si number density = 23.487003 Si / 1000 Ang^3
#
#
#
# Elastic Constant Matrix: (Units=GPa)
#
#
# Indices 1 2 3 4 5 6 
#
# 1 81.6274 18.2558 31.4186 -9.0543 -16.7901 32.6357
# 2 18.2558 99.6216 36.0422 6.8646 -9.5153 4.4723
# 3 31.4186 36.0422 152.3944 9.8046 -18.1440 10.3383
# 4 -9.0543 6.8646 9.8046 52.9110 12.5569 -1.6799
# 5 -16.7901 -9.5153 -18.1440 12.5569 34.3568 -5.6218
# 6 32.6357 4.4723 10.3383 -1.6799 -5.6218 37.8452
#
#
#
# Elastic Compliance Matrix: (Units=1/GPa)
#
#
# Indices 1 2 3 4 5 6 
#
# 1 0.021778 -0.002057 -0.002427 0.002713 0.005017 -0.017008
# 2 -0.002057 0.011404 -0.001995 -0.001896 0.001986 0.001182
# 3 -0.002427 -0.001995 0.008075 -0.002470 0.003517 0.000535
# 4 0.002713 -0.001896 -0.002470 0.022118 -0.008879 -0.001777
# 5 0.005017 0.001986 0.003517 -0.008879 0.037145 -0.000398
# 6 -0.017008 0.001182 0.000535 -0.001777 -0.000398 0.040667
#
#
# Mechanical properties :
#
#
# Convention : Reuss Voigt Hill
#
# Bulk Modulus (GPa) = 35.33557 56.11962 45.72759
# Shear Modulus (GPa) = 30.56649 41.55106 36.05877
#
# Velocity S-wave (km/s) = 3.61144 4.21064 3.92250
# Velocity P-wave (km/s) = 5.69801 6.89820 6.32663
#
# Compressibility (1/GPa) = 0.02830010
#
# Stress axis : x y z
#
# Youngs Moduli (GPa) = 45.91795 87.68942 123.83377
#
# Poissons Ratio (x) = 0.18038 0.30051
# Poissons Ratio (y) = 0.09445 0.24702
# Poissons Ratio (z) = 0.11143 0.17492
#
# Static dielectric constant tensor:
#      x y z
#    x 2.036930 -0.017730 0.058020 
#    y -0.017730 1.910210 0.030330 
#    z 0.058020 0.030330 1.803280 
# 
# From -- ./inp_files/515366.got.cif
#   From: 2010.05.17/outbox.cif.g08.bks.cpg/sg2_258_cif.got.tgz:515366.got - 2010.06.03 11:33:40.
