data_PCOD9060592
_publ_section_title
;
Structure prediction by ZEFSAII (Michael W. Deem and Ramdas Pophale) SiO2 
 PCOD9060592
Probable space group: P -1
;
_chemical_formula_sum "Si O2"
_cell_formula_units_Z 16
_cell_length_a 15.403774
_cell_length_b 15.072044
_cell_length_c 14.463041
_cell_angle_alpha 143.849228
_cell_angle_beta 142.614616
_cell_angle_gamma 19.140110
_cell_volume 640.667898
_symmetry_space_group_name_H-M "P -1"
_symmetry_group_IT_number 2
_symmetry_cell_setting 'triclinic'
loop_
_space_group_symop_operation_xyz
x,y,z
-x,-y,-z
loop_
_atom_site_type_symbol
_atom_site_label
_atom_site_fract_x
_atom_site_fract_y
_atom_site_fract_z
Si Si1 0.725351 0.191724 0.886250
Si Si2 0.319920 0.965390 0.557536
Si Si3 0.303350 0.331402 0.216181
Si Si4 0.275625 0.907815 0.874473
Si Si5 0.095455 0.256403 0.417357
Si Si6 0.181504 0.437800 0.988929
Si Si7 0.156613 0.777101 0.524520
Si Si8 0.372076 0.526069 0.716749
O O1 0.664603 0.281762 0.803961
O O2 0.732366 0.001407 0.725621
O O3 0.500000 0.500000 0.000000
O O4 0.000000 0.000000 0.000000
O O5 0.451757 0.928748 0.727861
O O6 0.552583 0.641619 0.449267
O O7 0.241237 0.128749 0.535113
O O8 0.065524 0.095196 0.485537
O O9 0.282683 0.311161 0.072987
O O10 0.299877 0.512973 0.373294
O O11 0.031741 0.499842 0.169062
O O12 0.545061 0.760698 0.997734
O O13 0.324993 0.755289 0.700020
O O14 0.251342 0.799491 0.838505
O O15 0.019207 0.238328 0.913947
O O16 0.000000 0.500000 0.500000
O O17 0.826603 0.399359 0.329253
O O18 0.000000 0.000000 0.500000
#
# Coordination Sequence:
#
# PCOD9060592 Si02
#       8
#     2   2   2   2   2   2   2   2
#     4  11  24  47  77 109 148 194 243 313 393 468
#     4  11  23  43  73 107 150 194 258 319 377 450
#     4  11  25  43  67 102 151 194 251 312 378 444
#     4  12  24  45  69 104 141 193 250 299 369 446
#     4  11  25  48  79 112 152 199 258 324 398 463
#     4  11  28  43  68 104 151 199 243 313 382 445
#     4  12  23  39  73 104 144 196 257 303 370 452
#     4  11  24  45  75 107 150 190 253 318 377 462
#
# _framework density 24.973938
#
# number of rings (size 3 to 8) (size 9 to 14) (size 15 to 20)
#    0.000    0.750    5.000    1.500    3.500    4.000 
#    2.250    2.500    0.000    0.000    0.000    0.000 
#    0.000    0.000    0.000    0.000    0.000    0.000 
#
# Total GULP energy -89321.598395 kJ/mol
# GULP energy per Si atom -5582.599900 kJ/mol
# Density = 2.491710 g / cm^3
# Si number density = 24.973938 Si / 1000 Ang^3
#
#
#
# Elastic Constant Matrix: (Units=GPa)
#
#
# Indices 1 2 3 4 5 6 
#
# 1 107.6003 59.4778 25.9344 4.9297 20.7659 15.2125
# 2 59.4778 184.2732 42.9153 -2.8693 20.2626 19.3055
# 3 25.9344 42.9153 74.4187 -0.5485 17.8421 23.8233
# 4 4.9297 -2.8693 -0.5485 56.3932 10.6316 0.2986
# 5 20.7659 20.2626 17.8421 10.6316 32.7988 3.6353
# 6 15.2125 19.3055 23.8233 0.2986 3.6353 57.2368
#
#
#
# Elastic Compliance Matrix: (Units=1/GPa)
#
#
# Indices 1 2 3 4 5 6 
#
# 1 0.012449 -0.003091 -0.000774 -0.000247 -0.005293 -0.001606
# 2 -0.003091 0.007243 -0.002635 0.000863 -0.001314 -0.000445
# 3 -0.000774 -0.002635 0.019257 0.001700 -0.008198 -0.006409
# 4 -0.000247 0.000863 0.001700 0.019226 -0.007472 -0.000559
# 5 -0.005293 -0.001314 -0.008198 -0.007472 0.041236 0.002682
# 6 -0.001606 -0.000445 -0.006409 -0.000559 0.002682 0.020548
#
#
# Mechanical properties :
#
#
# Convention : Reuss Voigt Hill
#
# Bulk Modulus (GPa) = 38.54119 69.21634 53.87876
# Shear Modulus (GPa) = 35.30812 45.15005 40.22908
#
# Velocity S-wave (km/s) = 3.76413 4.25654 4.01788
# Velocity P-wave (km/s) = 5.86154 7.20646 6.56851
#
# Compressibility (1/GPa) = 0.02594627
#
# Stress axis : x y z
#
# Youngs Moduli (GPa) = 80.32800 138.06623 51.93007
#
# Poissons Ratio (x) = 0.42682 0.04021
# Poissons Ratio (y) = 0.24832 0.13686
# Poissons Ratio (z) = 0.06220 0.36387
#
# Static dielectric constant tensor:
#      x y z
#    x 2.156850 0.024130 -0.143090 
#    y 0.024130 2.056340 0.052890 
#    z -0.143090 0.052890 2.106700 
# 
# From -- ./inp_files/534449.got.cif
#   From: 2010.05.17/outbox.cif.g08.bks.cpg/sg2_268_cif.got.tgz:534449.got - 2010.06.03 11:33:40.
