data_PCOD9060617
_publ_section_title
;
Structure prediction by ZEFSAII (Michael W. Deem and Ramdas Pophale) SiO2 
 PCOD9060617
Probable space group: P -1
;
_chemical_formula_sum "Si O2"
_cell_formula_units_Z 14
_cell_length_a 9.245098
_cell_length_b 7.328134
_cell_length_c 11.400855
_cell_angle_alpha 63.145714
_cell_angle_beta 90.409103
_cell_angle_gamma 52.787721
_cell_volume 504.281824
_symmetry_space_group_name_H-M "P -1"
_symmetry_group_IT_number 2
_symmetry_cell_setting 'triclinic'
loop_
_space_group_symop_operation_xyz
x,y,z
-x,-y,-z
loop_
_atom_site_type_symbol
_atom_site_label
_atom_site_fract_x
_atom_site_fract_y
_atom_site_fract_z
Si Si1 0.296571 0.578027 0.966961
Si Si2 0.200970 0.226080 0.018324
Si Si3 0.231780 0.876881 0.583634
Si Si4 0.186265 0.530979 0.582270
Si Si5 0.630625 0.100090 0.658459
Si Si6 0.673319 0.591917 0.731608
Si Si7 0.910619 0.816562 0.229992
O O1 0.318181 0.330433 0.983829
O O2 0.242611 0.595574 0.097438
O O3 0.500000 0.500000 0.000000
O O4 0.158546 0.888248 0.824736
O O5 0.299447 0.972804 0.184767
O O6 0.155333 0.169922 0.909744
O O7 0.000000 0.500000 0.000000
O O8 0.208911 0.656173 0.660354
O O9 0.240004 0.901978 0.433783
O O10 0.451802 0.730315 0.664527
O O11 0.039581 0.187569 0.534097
O O12 0.398412 0.367662 0.570509
O O13 0.181645 0.294769 0.677103
O O14 0.653581 0.847165 0.688692
O O15 0.851679 0.412819 0.692794
#
# Coordination Sequence:
#
# PCOD9060617 Si02
#       7
#     2   2   2   2   2   2   2
#     4  11  26  44  66 112 143 185 240 285 361 432
#     4  11  23  43  74 104 145 183 232 295 356 429
#     4  11  25  48  68 101 144 182 242 292 347 424
#     4  11  26  45  71 104 135 191 239 288 359 418
#     4  11  23  45  70 102 138 184 238 286 355 424
#     4  11  24  45  70 101 144 183 231 299 355 417
#     4  12  24  47  73 106 144 187 235 293 366 419
#
# _framework density 27.762253999999999
#
# number of rings (size 3 to 8) (size 9 to 14) (size 15 to 20)
#    0.000    0.857    4.286    3.000    4.000    1.714 
#    2.571    0.000    0.000    0.000    0.000    0.000 
#    0.000    0.000    0.000    0.000    0.000    0.000 
#
# Total GULP energy -78393.273794 kJ/mol
# GULP energy per Si atom -5599.519557 kJ/mol
# Density = 2.769907 g / cm^3
# Si number density = 27.762254 Si / 1000 Ang^3
#
#
#
# Elastic Constant Matrix: (Units=GPa)
#
#
# Indices 1 2 3 4 5 6 
#
# 1 121.4844 27.1679 13.6080 -2.6307 12.0280 -13.4875
# 2 27.1679 124.0585 11.5482 -21.9167 6.5975 -9.8041
# 3 13.6080 11.5482 95.0379 -7.3743 16.7822 -1.0593
# 4 -2.6307 -21.9167 -7.3743 38.8181 4.3680 7.9425
# 5 12.0280 6.5975 16.7822 4.3680 51.7372 -6.6421
# 6 -13.4875 -9.8041 -1.0593 7.9425 -6.6421 65.0635
#
#
#
# Elastic Compliance Matrix: (Units=1/GPa)
#
#
# Indices 1 2 3 4 5 6 
#
# 1 0.009026 -0.001837 -0.000878 -0.000759 -0.001318 0.001538
# 2 -0.001837 0.009498 -0.000287 0.005247 -0.001096 0.000293
# 3 -0.000878 -0.000287 0.011546 0.002552 -0.003815 -0.000738
# 4 -0.000759 0.005247 0.002552 0.030355 -0.004329 -0.003473
# 5 -0.001318 -0.001096 -0.003815 -0.004329 0.021665 0.002240
# 6 0.001538 0.000293 -0.000738 -0.003473 0.002240 0.016373
#
#
# Mechanical properties :
#
#
# Convention : Reuss Voigt Hill
#
# Bulk Modulus (GPa) = 41.55421 49.46991 45.51206
# Shear Modulus (GPa) = 44.44870 50.34087 47.39479
#
# Velocity S-wave (km/s) = 4.00565 4.26289 4.13627
# Velocity P-wave (km/s) = 6.03275 6.48748 6.26424
#
# Compressibility (1/GPa) = 0.02406495
#
# Stress axis : x y z
#
# Youngs Moduli (GPa) = 110.79703 105.28301 86.60885
#
# Poissons Ratio (x) = 0.19343 0.07605
# Poissons Ratio (y) = 0.20356 0.02487
# Poissons Ratio (z) = 0.09730 0.03023
#
# Static dielectric constant tensor:
#      x y z
#    x 2.178530 0.008960 -0.024780 
#    y 0.008960 2.236400 0.073980 
#    z -0.024780 0.073980 2.311470 
# 
# From -- ./inp_files/318845.got.cif
#   From: 2010.05.17/outbox.cif.g08.bks.cpg/sg2_160_cif.got.tgz:318845.got - 2010.06.03 11:33:40.
