data_PCOD9060977
_publ_section_title
;
Structure prediction by ZEFSAII (Michael W. Deem and Ramdas Pophale) SiO2 
 PCOD9060977
Probable space group: P -1
;
_chemical_formula_sum "Si O2"
_cell_formula_units_Z 16
_cell_length_a 12.456105
_cell_length_b 11.967635
_cell_length_c 8.473322
_cell_angle_alpha 117.004676
_cell_angle_beta 49.645521
_cell_angle_gamma 133.760791
_cell_volume 695.151695
_symmetry_space_group_name_H-M "P -1"
_symmetry_group_IT_number 2
_symmetry_cell_setting 'triclinic'
loop_
_space_group_symop_operation_xyz
x,y,z
-x,-y,-z
loop_
_atom_site_type_symbol
_atom_site_label
_atom_site_fract_x
_atom_site_fract_y
_atom_site_fract_z
Si Si1 0.717815 0.075264 0.423215
Si Si2 0.525104 0.221142 0.676886
Si Si3 0.742602 0.498917 0.842181
Si Si4 0.705877 0.738548 0.577743
Si Si5 0.399517 0.386839 0.729319
Si Si6 0.862116 0.386759 0.929392
Si Si7 0.514527 0.887962 0.802767
Si Si8 0.025520 0.265857 0.478217
O O1 0.678028 0.198427 0.497025
O O2 0.900798 0.153395 0.384111
O O3 0.656018 0.950392 0.263661
O O4 0.578895 0.970616 0.626074
O O5 0.576333 0.325556 0.850325
O O6 0.502361 0.314153 0.624263
O O7 0.846780 0.483238 0.869374
O O8 0.845749 0.570627 0.628233
O O9 0.693363 0.609687 0.024594
O O10 0.536574 0.567067 0.673609
O O11 0.729732 0.709549 0.353296
O O12 0.653224 0.856046 0.705978
O O13 0.862093 0.779201 0.567342
O O14 0.915696 0.287259 0.724086
O O15 0.674587 0.273681 0.116048
O O16 0.000000 0.500000 0.000000
O O17 0.500000 0.000000 0.000000
#
# Coordination Sequence:
#
# PCOD9060977 Si02
#       8
#     2   2   2   2   2   2   2   2
#     4  11  26  44  69 103 144 194 232 290 363 429
#     4  11  23  44  70  99 140 187 239 285 354 432
#     4  12  24  43  74 105 143 183 246 296 359 420
#     4  11  25  44  76 105 147 186 244 296 355 424
#     4  11  23  44  73 109 135 195 240 297 356 421
#     4  12  27  44  72 109 145 184 245 303 355 420
#     4  12  24  49  72  99 147 196 239 280 364 439
#     4  12  26  45  69 113 144 185 239 308 352 416
#
# _framework density 23.016559999999998
#
# number of rings (size 3 to 8) (size 9 to 14) (size 15 to 20)
#    0.000    0.500    6.250    1.500    3.500    1.500 
#    0.000    0.625    0.000    0.000    0.000    0.000 
#    0.000    0.000    0.000    0.000    0.000    0.000 
#
# Total GULP energy -89505.904638 kJ/mol
# GULP energy per Si atom -5594.119040 kJ/mol
# Density = 2.296417 g / cm^3
# Si number density = 23.016560 Si / 1000 Ang^3
#
#
#
# Elastic Constant Matrix: (Units=GPa)
#
#
# Indices 1 2 3 4 5 6 
#
# 1 194.7046 53.1680 23.8576 23.9725 -5.0863 15.1866
# 2 53.1680 69.8388 27.0251 23.8782 -6.7571 4.5233
# 3 23.8576 27.0251 68.5746 13.8660 -8.8941 0.8067
# 4 23.9725 23.8782 13.8660 40.1459 0.6578 6.0879
# 5 -5.0863 -6.7571 -8.8941 0.6578 26.7153 8.0551
# 6 15.1866 4.5233 0.8067 6.0879 8.0551 53.4115
#
#
#
# Elastic Compliance Matrix: (Units=1/GPa)
#
#
# Indices 1 2 3 4 5 6 
#
# 1 0.006639 -0.004464 -0.000263 -0.001004 0.000515 -0.001469
# 2 -0.004464 0.023333 -0.005272 -0.009437 0.003555 -0.000088
# 3 -0.000263 -0.005272 0.017965 -0.002970 0.004707 -0.000121
# 4 -0.001004 -0.009437 -0.002970 0.032514 -0.003762 -0.002009
# 5 0.000515 0.003555 0.004707 -0.003762 0.042027 -0.006428
# 6 -0.001469 -0.000088 -0.000121 -0.002009 -0.006428 0.020348
#
#
# Mechanical properties :
#
#
# Convention : Reuss Voigt Hill
#
# Bulk Modulus (GPa) = 35.79428 60.13550 47.96489
# Shear Modulus (GPa) = 29.04662 39.32570 34.18616
#
# Velocity S-wave (km/s) = 3.55630 4.13798 3.85812
# Velocity P-wave (km/s) = 5.69634 7.00102 6.38211
#
# Compressibility (1/GPa) = 0.02793743
#
# Stress axis : x y z
#
# Youngs Moduli (GPa) = 150.62792 42.85695 55.66501
#
# Poissons Ratio (x) = 0.19132 0.01466
# Poissons Ratio (y) = 0.67241 0.29348
# Poissons Ratio (z) = 0.03968 0.22595
#
# Static dielectric constant tensor:
#      x y z
#    x 1.858080 0.028780 0.019730 
#    y 0.028780 1.897070 0.020780 
#    z 0.019730 0.020780 1.865470 
# 
# From -- ./inp_files/262970.got.cif
#   From: 2010.05.17/outbox.cif.g08.bks.cpg/sg2_132_cif.got.tgz:262970.got - 2010.06.03 11:33:40.
