data_PCOD9060074
_publ_section_title
;
Structure prediction by ZEFSAII (Michael W. Deem and Ramdas Pophale) SiO2 
 PCOD9060074
Probable space group: P -1
;
_chemical_formula_sum "Si O2"
_cell_formula_units_Z 14
_cell_length_a 9.030956
_cell_length_b 13.767526
_cell_length_c 14.603937
_cell_angle_alpha 45.836253
_cell_angle_beta 136.710815
_cell_angle_gamma 147.177486
_cell_volume 656.964372
_symmetry_space_group_name_H-M "P -1"
_symmetry_group_IT_number 2
_symmetry_cell_setting 'triclinic'
loop_
_space_group_symop_operation_xyz
x,y,z
-x,-y,-z
loop_
_atom_site_type_symbol
_atom_site_label
_atom_site_fract_x
_atom_site_fract_y
_atom_site_fract_z
Si Si1 0.288187 0.083830 0.304401
Si Si2 0.240672 0.462874 0.352269
Si Si3 0.756626 0.238438 0.753654
Si Si4 0.696954 0.447414 0.887384
Si Si5 0.324994 0.968656 0.585122
Si Si6 0.581955 0.477815 0.152506
Si Si7 0.818351 0.974031 0.024590
O O1 0.406541 0.003362 0.356560
O O2 0.541964 0.301540 0.261392
O O3 0.224788 0.021349 0.421789
O O4 0.015242 0.030830 0.164092
O O5 0.500000 0.500000 0.500000
O O6 0.212947 0.604651 0.285420
O O7 0.334368 0.517636 0.253285
O O8 0.940915 0.245645 0.366836
O O9 0.080712 0.349504 0.783285
O O10 0.480807 0.115746 0.641046
O O11 0.727496 0.091905 0.898817
O O12 0.648254 0.552487 0.862979
O O13 0.458941 0.238718 0.950659
O O14 0.000000 0.500000 0.000000
O O15 0.500000 0.500000 0.000000
O O16 0.000000 0.000000 0.000000
#
# Coordination Sequence:
#
# PCOD9060074 Si02
#       7
#     2   2   2   2   2   2   2
#     4  11  23  42  75 108 140 185 255 305 348 434
#     4  12  29  51  68 104 159 191 239 310 378 436
#     4  12  25  45  80 100 144 199 245 300 365 434
#     4  12  27  45  72 109 150 191 238 308 376 431
#     4  11  25  46  71 107 145 190 247 303 361 441
#     4  12  23  45  78 109 142 192 250 304 363 438
#     4  12  22  45  75 107 141 187 251 305 355 435
#
# _framework density 21.310134999999999
#
# number of rings (size 3 to 8) (size 9 to 14) (size 15 to 20)
#    0.000    0.286    5.714    2.571    2.000    2.857 
#    5.143    0.000    0.000    0.000    0.000    0.000 
#    0.000    0.000    0.000    0.000    0.000    0.000 
#
# Total GULP energy -78278.198917 kJ/mol
# GULP energy per Si atom -5591.299923 kJ/mol
# Density = 2.126163 g / cm^3
# Si number density = 21.310135 Si / 1000 Ang^3
#
#
#
# Elastic Constant Matrix: (Units=GPa)
#
#
# Indices 1 2 3 4 5 6 
#
# 1 107.2166 24.6496 51.5320 4.6317 -18.6489 -3.2690
# 2 24.6496 121.6027 28.2086 -4.0692 -22.1244 -0.5473
# 3 51.5320 28.2086 135.0866 -3.7838 -21.7403 -4.2732
# 4 4.6317 -4.0692 -3.7838 40.4682 0.3058 2.0171
# 5 -18.6489 -22.1244 -21.7403 0.3058 22.3805 -2.3868
# 6 -3.2690 -0.5473 -4.2732 2.0171 -2.3868 32.8486
#
#
#
# Elastic Compliance Matrix: (Units=1/GPa)
#
#
# Indices 1 2 3 4 5 6 
#
# 1 0.012437 -0.000566 -0.003594 -0.001933 0.006482 0.001350
# 2 -0.000566 0.010142 -0.000363 0.000947 0.009261 0.000680
# 3 -0.003594 -0.000363 0.009963 0.001191 0.006449 0.001328
# 4 -0.001933 0.000947 0.001191 0.025217 -0.000029 -0.001572
# 5 0.006482 0.009261 0.006449 -0.000029 0.066191 0.006450
# 6 0.001350 0.000680 0.001328 -0.001572 0.006450 0.031326
#
#
# Mechanical properties :
#
#
# Convention : Reuss Voigt Hill
#
# Bulk Modulus (GPa) = 42.56435 63.63183 53.09809
# Shear Modulus (GPa) = 29.04349 36.44052 32.74200
#
# Velocity S-wave (km/s) = 3.69575 4.13971 3.92401
# Velocity P-wave (km/s) = 6.18292 7.26459 6.74547
#
# Compressibility (1/GPa) = 0.02349384
#
# Stress axis : x y z
#
# Youngs Moduli (GPa) = 80.40644 98.59710 100.37237
#
# Poissons Ratio (x) = 0.05585 0.36076
# Poissons Ratio (y) = 0.04555 0.03647
# Poissons Ratio (z) = 0.28900 0.03583
#
# Static dielectric constant tensor:
#      x y z
#    x 1.899930 -0.025140 0.064530 
#    y -0.025140 1.645700 0.025110 
#    z 0.064530 0.025110 1.766560 
# 
# From -- ./inp_files/245279.got.cif
#   From: 2010.05.17/outbox.cif.g08.bks.cpg/sg2_123_cif.got.tgz:245279.got - 2010.06.03 11:33:40.
