data_PCOD9060785
_publ_section_title
;
Structure prediction by ZEFSAII (Michael W. Deem and Ramdas Pophale) SiO2 
 PCOD9060785
Probable space group: P -1
;
_chemical_formula_sum "Si O2"
_cell_formula_units_Z 16
_cell_length_a 14.167067
_cell_length_b 5.390269
_cell_length_c 8.892844
_cell_angle_alpha 108.631381
_cell_angle_beta 91.409629
_cell_angle_gamma 102.007381
_cell_volume 626.382137
_symmetry_space_group_name_H-M "P -1"
_symmetry_group_IT_number 2
_symmetry_cell_setting 'triclinic'
loop_
_space_group_symop_operation_xyz
x,y,z
-x,-y,-z
loop_
_atom_site_type_symbol
_atom_site_label
_atom_site_fract_x
_atom_site_fract_y
_atom_site_fract_z
Si Si1 0.979159 0.304258 0.820706
Si Si2 0.175366 0.041096 0.079212
Si Si3 0.291136 0.435374 0.392061
Si Si4 0.580462 0.422351 0.837792
Si Si5 0.357772 0.933599 0.973062
Si Si6 0.380022 0.475261 0.704832
Si Si7 0.108278 0.645564 0.484879
Si Si8 0.828279 0.796035 0.226620
O O1 0.903318 0.329164 0.692269
O O2 0.082454 0.333821 0.751854
O O3 0.927559 0.035231 0.856216
O O4 0.000000 0.500000 0.000000
O O5 0.244247 0.179677 0.242233
O O6 0.241200 0.840811 0.982035
O O7 0.165994 0.191445 0.952667
O O8 0.349269 0.628173 0.303672
O O9 0.365979 0.402282 0.516064
O O10 0.199450 0.512289 0.481466
O O11 0.590349 0.214931 0.928649
O O12 0.474165 0.401488 0.763478
O O13 0.613050 0.740526 0.953312
O O14 0.382244 0.791640 0.794443
O O15 0.280964 0.325003 0.753116
O O16 0.000000 0.500000 0.500000
O O17 0.138379 0.918485 0.633117
#
# Coordination Sequence:
#
# PCOD9060785 Si02
#       8
#     2   2   2   2   2   2   2   2
#     4  12  23  40  65  96 135 184 231 290 356 427
#     4  11  23  44  67  97 136 182 233 291 355 428
#     4  11  24  43  66  99 137 183 232 291 354 423
#     4  11  26  47  73 103 142 190 239 292 356 425
#     4  11  24  46  73 104 139 186 238 294 354 424
#     4  12  24  44  68 102 139 182 237 297 354 420
#     4  12  24  42  66 100 140 184 236 296 356 425
#     4  12  25  42  68 101 138 187 238 295 355 424
#
# _framework density 25.543513000000001
#
# number of rings (size 3 to 8) (size 9 to 14) (size 15 to 20)
#    0.000    0.500    0.000    9.375    0.000    3.000 
#    0.000    3.750    0.000    0.000    0.000    0.000 
#    0.000    0.000    0.000    0.000    0.000    0.000 
#
# Total GULP energy -89462.154254 kJ/mol
# GULP energy per Si atom -5591.384641 kJ/mol
# Density = 2.548537 g / cm^3
# Si number density = 25.543513 Si / 1000 Ang^3
#
#
#
# Elastic Constant Matrix: (Units=GPa)
#
#
# Indices 1 2 3 4 5 6 
#
# 1 128.4617 7.0795 -1.9768 3.9280 12.7218 0.8127
# 2 7.0795 65.1872 33.3416 -0.4183 19.6395 2.4977
# 3 -1.9768 33.3416 120.2227 -12.8844 21.1405 4.6182
# 4 3.9280 -0.4183 -12.8844 38.4031 -2.6843 0.2755
# 5 12.7218 19.6395 21.1405 -2.6843 51.3126 -5.0783
# 6 0.8127 2.4977 4.6182 0.2755 -5.0783 44.6122
#
#
#
# Elastic Compliance Matrix: (Units=1/GPa)
#
#
# Indices 1 2 3 4 5 6 
#
# 1 0.008059 -0.000524 0.000583 -0.000780 -0.002119 -0.000414
# 2 -0.000524 0.019461 -0.004539 -0.001644 -0.005657 -0.001244
# 3 0.000583 -0.004539 0.010443 0.003217 -0.002656 -0.001160
# 4 -0.000780 -0.001644 0.003217 0.027245 0.000893 -0.000293
# 5 -0.002119 -0.005657 -0.002656 0.000893 0.023648 0.003317
# 6 -0.000414 -0.001244 -0.001160 -0.000293 0.003317 0.022992
#
#
# Mechanical properties :
#
#
# Convention : Reuss Voigt Hill
#
# Bulk Modulus (GPa) = 34.48113 43.41779 38.94946
# Shear Modulus (GPa) = 38.32141 45.22741 41.77441
#
# Velocity S-wave (km/s) = 3.87750 4.21242 4.04842
# Velocity P-wave (km/s) = 5.79439 6.37917 6.09380
#
# Compressibility (1/GPa) = 0.02900137
#
# Stress axis : x y z
#
# Youngs Moduli (GPa) = 124.09098 51.38580 95.76044
#
# Poissons Ratio (x) = 0.02692 -0.05581
# Poissons Ratio (y) = 0.06501 0.43468
# Poissons Ratio (z) = -0.07233 0.23325
#
# Static dielectric constant tensor:
#      x y z
#    x -1.918890 -3.536850 2.377590 
#    y -3.536850 -1.082230 2.165640 
#    z 2.377590 2.165640 0.540130 
# 
# From -- ./inp_files/289218.got.cif
#   From: 2010.05.17/outbox.cif.g08.bks.cpg/sg2_145_cif.got.tgz:289218.got - 2010.06.03 11:33:40.
