data_PCOD9060909
_publ_section_title
;
Structure prediction by ZEFSAII (Michael W. Deem and Ramdas Pophale) SiO2 
 PCOD9060909
Probable space group: P -1
;
_chemical_formula_sum "Si O2"
_cell_formula_units_Z 16
_cell_length_a 9.086142
_cell_length_b 13.443364
_cell_length_c 7.688132
_cell_angle_alpha 120.706339
_cell_angle_beta 65.963502
_cell_angle_gamma 79.211139
_cell_volume 637.222364
_symmetry_space_group_name_H-M "P -1"
_symmetry_group_IT_number 2
_symmetry_cell_setting 'triclinic'
loop_
_space_group_symop_operation_xyz
x,y,z
-x,-y,-z
loop_
_atom_site_type_symbol
_atom_site_label
_atom_site_fract_x
_atom_site_fract_y
_atom_site_fract_z
Si Si1 0.936385 0.578450 0.916985
Si Si2 0.844562 0.972435 0.143229
Si Si3 0.491813 0.697507 0.870403
Si Si4 0.484745 0.237355 0.683448
Si Si5 0.592302 0.424556 0.705331
Si Si6 0.316098 0.137873 0.164886
Si Si7 0.935414 0.321908 0.634718
Si Si8 0.121112 0.735147 0.003806
O O1 0.920490 0.463719 0.718285
O O2 0.733842 0.712316 0.150719
O O3 0.000000 0.500000 0.000000
O O4 0.075367 0.629552 0.838266
O O5 0.950019 0.880855 0.176393
O O6 0.647091 0.098649 0.408246
O O7 0.781999 0.890382 0.974372
O O8 0.000000 0.000000 0.000000
O O9 0.577144 0.538684 0.691916
O O10 0.621944 0.752539 0.791549
O O11 0.456274 0.748930 0.135247
O O12 0.304128 0.745717 0.893653
O O13 0.480689 0.349306 0.655349
O O14 0.803117 0.311148 0.546002
O O15 0.500000 0.500000 0.000000
O O16 0.146708 0.204429 0.440076
O O17 0.500000 0.000000 0.000000
O O18 0.855061 0.316937 0.856182
#
# Coordination Sequence:
#
# PCOD9060909 Si02
#       8
#     2   2   2   2   2   2   2   2
#     4  10  21  39  71 108 134 176 239 296 345 410
#     4  12  29  48  68 106 148 189 236 295 351 418
#     4  11  23  44  74 107 138 189 235 291 357 422
#     4  11  22  43  74 102 141 187 236 289 348 427
#     4  10  17  39  71 110 134 174 236 290 347 414
#     4  12  30  49  69 104 149 188 237 289 355 424
#     4  11  22  45  76 104 141 186 234 295 350 424
#     4  11  24  45  74 103 141 186 240 286 356 423
#
# _framework density 25.108972000000001
#
# number of rings (size 3 to 8) (size 9 to 14) (size 15 to 20)
#    0.000    1.000    5.000    3.000    5.250    2.000 
#    2.250    0.625    0.000    0.000    0.000    0.000 
#    0.000    0.000    0.000    0.000    0.000    0.000 
#
# Total GULP energy -89396.082237 kJ/mol
# GULP energy per Si atom -5587.255140 kJ/mol
# Density = 2.505182 g / cm^3
# Si number density = 25.108972 Si / 1000 Ang^3
#
#
#
# Elastic Constant Matrix: (Units=GPa)
#
#
# Indices 1 2 3 4 5 6 
#
# 1 151.6849 26.5604 25.5354 -0.9526 -21.6080 8.8354
# 2 26.5604 78.6618 8.2318 11.9884 -11.8957 -1.2254
# 3 25.5354 8.2318 81.5462 0.5313 -34.2418 -4.0875
# 4 -0.9526 11.9884 0.5313 24.7245 -6.6000 -12.0528
# 5 -21.6080 -11.8957 -34.2418 -6.6000 38.1988 10.9101
# 6 8.8354 -1.2254 -4.0875 -12.0528 10.9101 41.6499
#
#
#
# Elastic Compliance Matrix: (Units=1/GPa)
#
#
# Indices 1 2 3 4 5 6 
#
# 1 0.007820 -0.002183 -0.000641 0.001250 0.004099 -0.002498
# 2 -0.002183 0.014989 0.000412 -0.007534 0.003085 -0.002044
# 3 -0.000641 0.000412 0.020345 0.003550 0.019143 -0.001843
# 4 0.001250 -0.007534 0.003550 0.052334 0.006809 0.013223
# 5 0.004099 0.003085 0.019143 0.006809 0.050712 -0.010214
# 6 -0.002498 -0.002044 -0.001843 0.013223 -0.010214 0.030800
#
#
# Mechanical properties :
#
#
# Convention : Reuss Voigt Hill
#
# Bulk Modulus (GPa) = 26.08792 48.06091 37.07442
# Shear Modulus (GPa) = 25.69378 37.68565 31.68971
#
# Velocity S-wave (km/s) = 3.20236 3.87833 3.55644
# Velocity P-wave (km/s) = 4.90774 6.26400 5.62688
#
# Compressibility (1/GPa) = 0.03833192
#
# Stress axis : x y z
#
# Youngs Moduli (GPa) = 127.87806 66.71368 49.15286
#
# Poissons Ratio (x) = 0.14563 0.03149
# Poissons Ratio (y) = 0.27915 -0.02027
# Poissons Ratio (z) = 0.08191 -0.02751
#
# Static dielectric constant tensor:
#      x y z
#    x 2.033110 0.042110 0.013850 
#    y 0.042110 1.990160 -0.037910 
#    z 0.013850 -0.037910 2.051870 
# 
# From -- ./inp_files/208894.got.cif
#   From: 2010.05.17/outbox.cif.g08.bks.cpg/sg2_105_cif.got.tgz:208894.got - 2010.06.03 11:33:40.
