data_PCOD9060628
_publ_section_title
;
Structure prediction by ZEFSAII (Michael W. Deem and Ramdas Pophale) SiO2 
 PCOD9060628
Probable space group: P -1
;
_chemical_formula_sum "Si O2"
_cell_formula_units_Z 14
_cell_length_a 7.224001
_cell_length_b 10.245639
_cell_length_c 11.503586
_cell_angle_alpha 108.250952
_cell_angle_beta 117.777738
_cell_angle_gamma 45.710046
_cell_volume 539.133371
_symmetry_space_group_name_H-M "P -1"
_symmetry_group_IT_number 2
_symmetry_cell_setting 'triclinic'
loop_
_space_group_symop_operation_xyz
x,y,z
-x,-y,-z
loop_
_atom_site_type_symbol
_atom_site_label
_atom_site_fract_x
_atom_site_fract_y
_atom_site_fract_z
Si Si1 0.131048 0.710097 0.982863
Si Si2 0.071045 0.117717 0.421593
Si Si3 0.705517 0.576363 0.889728
Si Si4 0.339640 0.915381 0.012435
Si Si5 0.483836 0.357539 0.399913
Si Si6 0.550185 0.846784 0.312790
Si Si7 0.972742 0.411389 0.312947
O O1 0.038839 0.650744 0.835595
O O2 0.346168 0.537219 0.078922
O O3 0.218929 0.817970 0.986775
O O4 0.872174 0.875859 0.028649
O O5 0.273668 0.102979 0.569489
O O6 0.937059 0.302540 0.361135
O O7 0.796420 0.169928 0.413212
O O8 0.268420 0.956406 0.339331
O O9 0.681312 0.551080 0.743079
O O10 0.513126 0.788474 0.919443
O O11 0.000000 0.500000 0.000000
O O12 0.480211 0.899753 0.170949
O O13 0.500000 0.500000 0.500000
O O14 0.278647 0.344126 0.404577
O O15 0.742319 0.628731 0.315424
#
# Coordination Sequence:
#
# PCOD9060628 Si02
#       7
#     2   2   2   2   2   2   2
#     4  11  24  43  71 103 138 184 244 296 361 426
#     4  11  26  46  72 108 147 192 241 298 367 429
#     4  12  25  45  70 103 144 187 235 299 367 426
#     4  11  24  43  74 103 138 189 246 297 358 439
#     4  12  27  47  75 111 145 188 248 298 360 446
#     4  11  23  43  74 106 145 191 244 296 360 438
#     4  12  23  49  73 102 147 194 235 305 362 426
#
# _framework density 25.967601999999999
#
# number of rings (size 3 to 8) (size 9 to 14) (size 15 to 20)
#    0.000    0.571    5.714    1.714    4.000    0.571 
#    0.000    4.286    0.000    0.000    0.000    0.000 
#    0.000    0.000    0.000    0.000    0.000    0.000 
#
# Total GULP energy -78446.456923 kJ/mol
# GULP energy per Si atom -5603.318352 kJ/mol
# Density = 2.590850 g / cm^3
# Si number density = 25.967602 Si / 1000 Ang^3
#
#
#
# Elastic Constant Matrix: (Units=GPa)
#
#
# Indices 1 2 3 4 5 6 
#
# 1 79.5523 17.4441 -8.0797 2.1297 11.5121 3.9511
# 2 17.4441 169.9647 21.6465 21.2240 -4.6255 -14.0640
# 3 -8.0797 21.6465 159.5354 14.3085 8.5798 2.4462
# 4 2.1297 21.2240 14.3085 24.4595 -12.4195 3.2436
# 5 11.5121 -4.6255 8.5798 -12.4195 21.7173 4.8131
# 6 3.9511 -14.0640 2.4462 3.2436 4.8131 31.5725
#
#
#
# Elastic Compliance Matrix: (Units=1/GPa)
#
#
# Indices 1 2 3 4 5 6 
#
# 1 0.015498 -0.001056 0.002614 -0.009791 -0.015231 0.000715
# 2 -0.001056 0.007438 -0.000109 -0.009040 -0.004092 0.005006
# 3 0.002614 -0.000109 0.007929 -0.010586 -0.010988 0.001773
# 4 -0.009791 -0.009040 -0.010586 0.091232 0.064309 -0.021158
# 5 -0.015231 -0.004092 -0.010988 0.064309 0.098967 -0.020759
# 6 0.000715 0.005006 0.001773 -0.021158 -0.020759 0.039015
#
#
# Mechanical properties :
#
#
# Convention : Reuss Voigt Hill
#
# Bulk Modulus (GPa) = 29.61785 52.34157 40.97971
# Shear Modulus (GPa) = 18.62662 40.75264 29.68963
#
# Velocity S-wave (km/s) = 2.68116 3.96582 3.38499
# Velocity P-wave (km/s) = 4.58424 6.41643 5.57610
#
# Compressibility (1/GPa) = 0.03376342
#
# Stress axis : x y z
#
# Youngs Moduli (GPa) = 64.52372 134.45301 126.12686
#
# Poissons Ratio (x) = 0.14203 -0.32976
# Poissons Ratio (y) = 0.06816 0.01369
# Poissons Ratio (z) = -0.16870 0.01460
#
# Static dielectric constant tensor:
#      x y z
#    x 2.289690 -0.117850 -0.033360 
#    y -0.117850 2.040860 -0.010320 
#    z -0.033360 -0.010320 1.963730 
# 
# From -- ./inp_files/391126.got.cif
#   From: 2010.05.17/outbox.cif.g08.bks.cpg/sg2_196_cif.got.tgz:391126.got - 2010.06.03 11:33:40.
