data_PCOD9060373
_publ_section_title
;
Structure prediction by ZEFSAII (Michael W. Deem and Ramdas Pophale) SiO2 
 PCOD9060373
Probable space group: P -1
;
_chemical_formula_sum "Si O2"
_cell_formula_units_Z 16
_cell_length_a 12.050972
_cell_length_b 12.894813
_cell_length_c 13.157271
_cell_angle_alpha 124.571630
_cell_angle_beta 140.087704
_cell_angle_gamma 87.501016
_cell_volume 724.997945
_symmetry_space_group_name_H-M "P -1"
_symmetry_group_IT_number 2
_symmetry_cell_setting 'triclinic'
loop_
_space_group_symop_operation_xyz
x,y,z
-x,-y,-z
loop_
_atom_site_type_symbol
_atom_site_label
_atom_site_fract_x
_atom_site_fract_y
_atom_site_fract_z
Si Si1 0.312522 0.251326 0.946900
Si Si2 0.500813 0.004974 0.698620
Si Si3 0.268638 0.656389 0.833458
Si Si4 0.925170 0.419447 0.788665
Si Si5 0.362112 0.541247 0.032112
Si Si6 0.838765 0.952111 0.585495
Si Si7 0.926066 0.085662 0.939541
Si Si8 0.356552 0.508048 0.486445
O O1 0.483800 0.239225 0.004719
O O2 0.301885 0.366001 0.927212
O O3 0.470643 0.373680 0.228105
O O4 0.035942 0.057393 0.688396
O O5 0.644074 0.985006 0.713698
O O6 0.260450 0.801774 0.464394
O O7 0.376165 0.057146 0.585907
O O8 0.692911 0.180628 0.007559
O O9 0.000000 0.500000 0.500000
O O10 0.278116 0.553108 0.870542
O O11 0.760909 0.434566 0.621071
O O12 0.000000 0.500000 0.000000
O O13 0.193675 0.533331 0.986850
O O14 0.668825 0.735310 0.362739
O O15 0.972797 0.074773 0.849458
O O16 0.111250 0.293895 0.224872
O O17 0.000000 0.000000 0.000000
O O18 0.500000 0.500000 0.500000
#
# Coordination Sequence:
#
# PCOD9060373 Si02
#       8
#     2   2   2   2   2   2   2   2
#     4  12  24  47  71 102 142 185 241 289 358 428
#     4  11  24  43  70 101 140 184 238 283 357 424
#     4  11  26  50  72 100 142 191 238 299 351 424
#     4  12  23  43  71 104 143 183 233 293 358 424
#     4  11  24  45  71 102 136 184 239 291 357 420
#     4  11  23  43  70 103 139 184 231 292 360 419
#     4  12  23  41  68 102 141 178 236 295 357 426
#     4  12  23  40  66 101 141 179 231 296 356 416
#
# _framework density 22.069030000000001
#
# number of rings (size 3 to 8) (size 9 to 14) (size 15 to 20)
#    0.000    0.500    2.500    7.500    0.000    2.000 
#    2.250    1.250    0.000    0.000    0.000    0.000 
#    0.000    0.000    0.000    0.000    0.000    0.000 
#
# Total GULP energy -89429.034054 kJ/mol
# GULP energy per Si atom -5589.314628 kJ/mol
# Density = 2.201880 g / cm^3
# Si number density = 22.069030 Si / 1000 Ang^3
#
#
#
# Elastic Constant Matrix: (Units=GPa)
#
#
# Indices 1 2 3 4 5 6 
#
# 1 136.9535 27.6877 20.6952 8.4460 24.1481 22.4102
# 2 27.6877 84.3221 34.8057 19.8248 0.0630 4.9362
# 3 20.6952 34.8057 102.8776 17.9870 -4.2435 16.2400
# 4 8.4460 19.8248 17.9870 38.4159 8.8620 4.5710
# 5 24.1481 0.0630 -4.2435 8.8620 44.8186 4.0799
# 6 22.4102 4.9362 16.2400 4.5710 4.0799 29.7235
#
#
#
# Elastic Compliance Matrix: (Units=1/GPa)
#
#
# Indices 1 2 3 4 5 6 
#
# 1 0.009787 -0.003021 -0.000445 0.001515 -0.005048 -0.006174
# 2 -0.003021 0.015849 -0.003912 -0.006507 0.002297 0.002468
# 3 -0.000445 -0.003912 0.012835 -0.003835 0.002748 -0.005815
# 4 0.001515 -0.006507 -0.003835 0.032813 -0.007478 -0.001986
# 5 -0.005048 0.002297 0.002748 -0.007478 0.026823 -0.000609
# 6 -0.006174 0.002468 -0.005815 -0.001986 -0.000609 0.041454
#
#
# Mechanical properties :
#
#
# Convention : Reuss Voigt Hill
#
# Bulk Modulus (GPa) = 42.16590 54.50340 48.33465
# Shear Modulus (GPa) = 30.82193 38.65590 34.73891
#
# Velocity S-wave (km/s) = 3.74118 4.18974 3.97180
# Velocity P-wave (km/s) = 6.14897 6.93943 6.55612
#
# Compressibility (1/GPa) = 0.02371585
#
# Stress axis : x y z
#
# Youngs Moduli (GPa) = 102.17940 63.09350 77.91149
#
# Poissons Ratio (x) = 0.19059 0.03469
# Poissons Ratio (y) = 0.30865 0.30477
# Poissons Ratio (z) = 0.04550 0.24680
#
# Static dielectric constant tensor:
#      x y z
#    x 1.724830 -0.025660 0.089610 
#    y -0.025660 1.806190 0.207870 
#    z 0.089610 0.207870 1.504200 
# 
# From -- ./inp_files/428592.got.cif
#   From: 2010.05.17/outbox.cif.g08.bks.cpg/sg2_215_cif.got.tgz:428592.got - 2010.06.03 11:33:40.
