data_PCOD9060504
_publ_section_title
;
Structure prediction by ZEFSAII (Michael W. Deem and Ramdas Pophale) SiO2 
 PCOD9060504
Probable space group: P -1
;
_chemical_formula_sum "Si O2"
_cell_formula_units_Z 16
_cell_length_a 8.760086
_cell_length_b 11.762490
_cell_length_c 14.239725
_cell_angle_alpha 128.412449
_cell_angle_beta 42.653933
_cell_angle_gamma 127.311610
_cell_volume 747.602686
_symmetry_space_group_name_H-M "P -1"
_symmetry_group_IT_number 2
_symmetry_cell_setting 'triclinic'
loop_
_space_group_symop_operation_xyz
x,y,z
-x,-y,-z
loop_
_atom_site_type_symbol
_atom_site_label
_atom_site_fract_x
_atom_site_fract_y
_atom_site_fract_z
Si Si1 0.660623 0.830134 0.094177
Si Si2 0.810942 0.163853 0.144585
Si Si3 0.249486 0.519413 0.646993
Si Si4 0.531118 0.409453 0.090177
Si Si5 0.666116 0.170009 0.005692
Si Si6 0.850374 0.652678 0.199809
Si Si7 0.124858 0.569794 0.384526
Si Si8 0.530355 0.841226 0.374382
O O1 0.639527 0.836190 0.218659
O O2 0.647083 0.995339 0.152359
O O3 0.484417 0.684313 0.048669
O O4 0.922135 0.826364 0.944313
O O5 0.738672 0.305904 0.289534
O O6 0.800310 0.191188 0.053388
O O7 0.500000 0.500000 0.500000
O O8 0.184569 0.454887 0.748412
O O9 0.051377 0.430853 0.619853
O O10 0.757930 0.540827 0.093386
O O11 0.317397 0.483229 0.225120
O O12 0.501533 0.278151 0.114392
O O13 0.884726 0.237521 0.870652
O O14 0.500000 0.000000 0.000000
O O15 0.678636 0.761565 0.333924
O O16 0.268849 0.736730 0.430865
O O17 0.000000 0.500000 0.500000
O O18 0.500000 0.000000 0.500000
#
# Coordination Sequence:
#
# PCOD9060504 Si02
#       8
#     2   2   2   2   2   2   2   2
#     4  11  24  43  72 107 140 191 236 296 360 421
#     4  11  24  42  69 106 146 183 236 294 356 426
#     4  12  26  46  72 104 147 189 240 292 356 429
#     4  11  23  43  72 100 141 179 243 291 355 422
#     4  12  24  42  65 105 143 179 227 297 359 423
#     4  11  26  45  71 105 141 188 236 297 360 425
#     4  11  27  45  70 104 137 189 238 289 353 423
#     4  11  27  48  71  98 145 189 237 295 354 427
#
# _framework density 21.401741999999999
#
# number of rings (size 3 to 8) (size 9 to 14) (size 15 to 20)
#    0.000    0.750    5.000    1.875    5.250    3.000 
#    0.000    0.625    0.000    0.000    0.000    0.000 
#    0.000    0.000    0.000    0.000    0.000    0.000 
#
# Total GULP energy -89320.740317 kJ/mol
# GULP energy per Si atom -5582.546270 kJ/mol
# Density = 2.135303 g / cm^3
# Si number density = 21.401742 Si / 1000 Ang^3
#
#
#
# Elastic Constant Matrix: (Units=GPa)
#
#
# Indices 1 2 3 4 5 6 
#
# 1 119.8579 43.4201 30.8391 7.1414 -12.7723 6.7539
# 2 43.4201 158.1226 63.3430 28.9640 -11.4615 10.5688
# 3 30.8391 63.3430 66.6084 8.1669 -7.1589 13.8455
# 4 7.1414 28.9640 8.1669 39.8309 -4.5439 -0.2572
# 5 -12.7723 -11.4615 -7.1589 -4.5439 30.7536 -1.6579
# 6 6.7539 10.5688 13.8455 -0.2572 -1.6579 44.6358
#
#
#
# Elastic Compliance Matrix: (Units=1/GPa)
#
#
# Indices 1 2 3 4 5 6 
#
# 1 0.009907 -0.001319 -0.003003 0.000133 0.002936 -0.000145
# 2 -0.001319 0.011801 -0.009871 -0.006244 0.000655 0.000455
# 3 -0.003003 -0.009871 0.026782 0.002345 0.001361 -0.005452
# 4 0.000133 -0.006244 0.002345 0.029454 0.002680 0.001000
# 5 0.002936 0.000655 0.001361 0.002680 0.034708 0.000283
# 6 -0.000145 0.000455 -0.005452 0.001000 0.000283 0.024025
#
#
# Mechanical properties :
#
#
# Convention : Reuss Voigt Hill
#
# Bulk Modulus (GPa) = 49.73907 68.86592 59.30249
# Shear Modulus (GPa) = 29.10970 36.84319 32.97645
#
# Velocity S-wave (km/s) = 3.69203 4.15360 3.92960
# Velocity P-wave (km/s) = 6.43940 7.43309 6.95402
#
# Compressibility (1/GPa) = 0.02010492
#
# Stress axis : x y z
#
# Youngs Moduli (GPa) = 100.94031 84.73634 37.33829
#
# Poissons Ratio (x) = 0.11180 0.11211
# Poissons Ratio (y) = 0.13318 0.36855
# Poissons Ratio (z) = 0.30309 0.83641
#
# Static dielectric constant tensor:
#      x y z
#    x 1.807200 0.002030 0.020820 
#    y 0.002030 1.787880 0.030220 
#    z 0.020820 0.030220 1.827410 
# 
# From -- ./inp_files/416332.got.cif
#   From: 2010.05.17/outbox.cif.g08.bks.cpg/sg2_209_cif.got.tgz:416332.got - 2010.06.03 11:33:40.
