data_PCOD9060614
_publ_section_title
;
Structure prediction by ZEFSAII (Michael W. Deem and Ramdas Pophale) SiO2 
 PCOD9060614
Probable space group: P -1
;
_chemical_formula_sum "Si O2"
_cell_formula_units_Z 16
_cell_length_a 5.341907
_cell_length_b 18.439397
_cell_length_c 25.292576
_cell_angle_alpha 161.292111
_cell_angle_beta 75.161180
_cell_angle_gamma 96.202728
_cell_volume 695.942911
_symmetry_space_group_name_H-M "P -1"
_symmetry_group_IT_number 2
_symmetry_cell_setting 'triclinic'
loop_
_space_group_symop_operation_xyz
x,y,z
-x,-y,-z
loop_
_atom_site_type_symbol
_atom_site_label
_atom_site_fract_x
_atom_site_fract_y
_atom_site_fract_z
Si Si1 0.358924 0.432747 0.127906
Si Si2 0.560818 0.252787 0.516153
Si Si3 0.274700 0.958359 0.520240
Si Si4 0.828671 0.281531 0.327201
Si Si5 0.842746 0.339523 0.874579
Si Si6 0.034391 0.649345 0.518463
Si Si7 0.867138 0.285833 0.087872
Si Si8 0.385257 0.927881 0.227702
O O1 0.224737 0.732460 0.342594
O O2 0.608231 0.326691 0.087552
O O3 0.102151 0.357251 0.098404
O O4 0.485030 0.315456 0.983671
O O5 0.603951 0.151009 0.503655
O O6 0.759572 0.354895 0.543456
O O7 0.269813 0.513216 0.718600
O O8 0.551601 0.021744 0.324536
O O9 0.500000 0.000000 0.500000
O O10 0.998862 0.213138 0.724786
O O11 0.500000 0.500000 0.500000
O O12 0.903138 0.231114 0.350157
O O13 0.013384 0.403509 0.371152
O O14 0.943973 0.003347 0.104925
O O15 0.860145 0.111298 0.753495
O O16 0.500000 0.500000 0.000000
O O17 0.000000 0.500000 0.000000
O O18 0.725967 0.843606 0.649227
#
# Coordination Sequence:
#
# PCOD9060614 Si02
#       8
#     2   2   2   2   2   2   2   2
#     4  11  25  45  75 106 147 199 249 309 379 448
#     4  11  25  45  75 106 149 199 250 312 384 445
#     4  11  25  51  76 110 157 199 258 320 382 459
#     4  11  24  45  72 111 146 194 252 310 376 459
#     4  12  27  46  74 111 147 196 256 316 379 447
#     4  11  23  43  74 103 147 195 247 305 378 445
#     4  11  25  45  71 109 149 194 251 306 379 447
#     4  12  24  46  74 107 149 197 256 306 384 454
#
# _framework density 22.990389
#
# number of rings (size 3 to 8) (size 9 to 14) (size 15 to 20)
#    0.000    0.750    2.500    4.500    3.500    3.500 
#    0.000    8.125    0.000    0.000    0.000    0.000 
#    0.000    0.000    0.000    0.000    0.000    0.000 
#
# Total GULP energy -89296.485509 kJ/mol
# GULP energy per Si atom -5581.030344 kJ/mol
# Density = 2.293806 g / cm^3
# Si number density = 22.990389 Si / 1000 Ang^3
#
#
#
# Elastic Constant Matrix: (Units=GPa)
#
#
# Indices 1 2 3 4 5 6 
#
# 1 90.2927 29.4869 25.9713 -9.2831 0.5081 10.1025
# 2 29.4869 116.4986 13.0423 -9.4096 -5.0597 16.8131
# 3 25.9713 13.0423 97.5975 -4.4539 1.5926 -1.9910
# 4 -9.2831 -9.4096 -4.4539 32.9277 2.2658 3.3024
# 5 0.5081 -5.0597 1.5926 2.2658 37.1848 -3.1417
# 6 10.1025 16.8131 -1.9910 3.3024 -3.1417 43.9422
#
#
#
# Elastic Compliance Matrix: (Units=1/GPa)
#
#
# Indices 1 2 3 4 5 6 
#
# 1 0.013374 -0.002461 -0.003135 0.002953 -0.000779 -0.002553
# 2 -0.002461 0.010004 -0.000660 0.002348 0.000993 -0.003397
# 3 -0.003135 -0.000660 0.011220 0.000332 -0.000427 0.001426
# 4 0.002953 0.002348 0.000332 0.032476 -0.002065 -0.004150
# 5 -0.000779 0.000993 -0.000427 -0.002065 0.027342 0.001890
# 6 -0.002553 -0.003397 0.001426 -0.004150 0.001890 0.025156
#
#
# Mechanical properties :
#
#
# Convention : Reuss Voigt Hill
#
# Bulk Modulus (GPa) = 45.27872 49.04332 47.16102
# Shear Modulus (GPa) = 35.85639 38.53683 37.19661
#
# Velocity S-wave (km/s) = 3.95349 4.09860 4.02670
# Velocity P-wave (km/s) = 6.37005 6.61638 6.49438
#
# Compressibility (1/GPa) = 0.02208543
#
# Stress axis : x y z
#
# Youngs Moduli (GPa) = 74.77181 99.96309 89.12853
#
# Poissons Ratio (x) = 0.24602 0.27939
# Poissons Ratio (y) = 0.18402 0.05885
# Poissons Ratio (z) = 0.23438 0.06600
#
# Static dielectric constant tensor:
#      x y z
#    x 1.842100 -0.165310 -0.029270 
#    y -0.165310 1.789940 0.087430 
#    z -0.029270 0.087430 1.936770 
# 
# From -- ./inp_files/605005.got.cif
#   From: 2010.05.17/outbox.cif.g08.bks.cpg/sg2_303_cif.got.tgz:605005.got - 2010.06.03 11:33:40.
