data_PCOD9060534
_publ_section_title
;
Structure prediction by ZEFSAII (Michael W. Deem and Ramdas Pophale) SiO2 
 PCOD9060534
Probable space group: P -1
;
_chemical_formula_sum "Si O2"
_cell_formula_units_Z 16
_cell_length_a 11.512921
_cell_length_b 12.562598
_cell_length_c 12.531494
_cell_angle_alpha 110.937055
_cell_angle_beta 99.655594
_cell_angle_gamma 141.152280
_cell_volume 688.408409
_symmetry_space_group_name_H-M "P -1"
_symmetry_group_IT_number 2
_symmetry_cell_setting 'triclinic'
loop_
_space_group_symop_operation_xyz
x,y,z
-x,-y,-z
loop_
_atom_site_type_symbol
_atom_site_label
_atom_site_fract_x
_atom_site_fract_y
_atom_site_fract_z
Si Si1 0.963676 0.605243 0.830355
Si Si2 0.312054 0.695570 0.975903
Si Si3 0.414361 0.038266 0.670643
Si Si4 0.726326 0.685814 0.313067
Si Si5 0.095464 0.203087 0.037657
Si Si6 0.241490 0.522065 0.676730
Si Si7 0.372194 0.734655 0.542371
Si Si8 0.964294 0.169884 0.775136
O O1 0.671734 0.324185 0.750125
O O2 0.019269 0.787913 0.914283
O O3 0.898193 0.517242 0.666336
O O4 0.191237 0.716924 0.952885
O O5 0.352634 0.685109 0.857825
O O6 0.079982 0.401506 0.881898
O O7 0.557480 0.909429 0.180055
O O8 0.454389 0.938857 0.625891
O O9 0.104274 0.791278 0.486266
O O10 0.440278 0.506102 0.193954
O O11 0.658961 0.521154 0.322653
O O12 0.827120 0.711391 0.230303
O O13 0.000000 0.000000 0.500000
O O14 0.983096 0.122929 0.872867
O O15 0.000000 0.000000 0.000000
O O16 0.316383 0.650244 0.624871
O O17 0.632920 0.888592 0.593012
#
# Coordination Sequence:
#
# PCOD9060534 Si02
#       8
#     2   2   2   2   2   2   2   2
#     4  12  23  44  71 103 143 183 240 283 356 437
#     4  11  23  43  72 105 134 189 231 291 356 429
#     4  12  22  42  71 101 142 186 233 282 363 437
#     4  11  25  47  73  96 136 196 246 287 347 430
#     4  12  26  46  69 106 143 184 239 299 356 414
#     4  11  26  45  64 105 150 178 234 296 361 419
#     4  12  24  42  69 108 145 179 221 304 365 422
#     4  11  23  45  72 100 135 179 241 291 348 427
#
# _framework density 23.242016
#
# number of rings (size 3 to 8) (size 9 to 14) (size 15 to 20)
#    0.000    0.500    3.750    6.000    0.000    1.500 
#    6.750    2.500    0.000    0.000    0.000    0.000 
#    0.000    0.000    0.000    0.000    0.000    0.000 
#
# Total GULP energy -89603.057395 kJ/mol
# GULP energy per Si atom -5600.191087 kJ/mol
# Density = 2.318912 g / cm^3
# Si number density = 23.242016 Si / 1000 Ang^3
#
#
#
# Elastic Constant Matrix: (Units=GPa)
#
#
# Indices 1 2 3 4 5 6 
#
# 1 80.3241 18.2328 15.7585 3.6624 -8.0636 -23.2376
# 2 18.2328 107.7988 16.9020 -10.4775 -10.4090 -20.4158
# 3 15.7585 16.9020 82.0077 -21.9747 -8.4712 1.3473
# 4 3.6624 -10.4775 -21.9747 39.8300 -0.3533 5.1273
# 5 -8.0636 -10.4090 -8.4712 -0.3533 40.6326 11.2917
# 6 -23.2376 -20.4158 1.3473 5.1273 11.2917 45.9145
#
#
#
# Elastic Compliance Matrix: (Units=1/GPa)
#
#
# Indices 1 2 3 4 5 6 
#
# 1 0.016264 -0.000964 -0.004552 -0.005376 -0.000416 0.008639
# 2 -0.000964 0.010673 -0.001538 0.001564 0.001168 0.003841
# 3 -0.004552 -0.001538 0.016507 0.009862 0.003757 -0.005497
# 4 -0.005376 0.001564 0.009862 0.032361 0.003562 -0.006805
# 5 -0.000416 0.001168 0.003757 0.003562 0.027582 -0.006982
# 6 0.008639 0.003841 -0.005497 -0.006805 -0.006982 0.030498
#
#
# Mechanical properties :
#
#
# Convention : Reuss Voigt Hill
#
# Bulk Modulus (GPa) = 34.08770 41.32413 37.70592
# Shear Modulus (GPa) = 31.69137 39.89123 35.79130
#
# Velocity S-wave (km/s) = 3.69662 4.14737 3.92846
# Velocity P-wave (km/s) = 5.73744 6.38379 6.06922
#
# Compressibility (1/GPa) = 0.02933609
#
# Stress axis : x y z
#
# Youngs Moduli (GPa) = 61.48532 93.69492 60.58113
#
# Poissons Ratio (x) = 0.09029 0.27578
# Poissons Ratio (y) = 0.05925 0.09317
# Poissons Ratio (z) = 0.27989 0.14410
#
# Static dielectric constant tensor:
#      x y z
#    x 1.862090 0.031550 -0.002800 
#    y 0.031550 1.889180 0.008260 
#    z -0.002800 0.008260 1.875760 
# 
# From -- ./inp_files/306955.got.cif
#   From: 2010.05.17/outbox.cif.g08.bks.cpg/sg2_154_cif.got.tgz:306955.got - 2010.06.03 11:33:40.
