data_PCOD9060059
_publ_section_title
;
Structure prediction by ZEFSAII (Michael W. Deem and Ramdas Pophale) SiO2 
 PCOD9060059
Probable space group: P -1
;
_chemical_formula_sum "Si O2"
_cell_formula_units_Z 13
_cell_length_a 11.993253
_cell_length_b 9.299557
_cell_length_c 9.460335
_cell_angle_alpha 45.575570
_cell_angle_beta 131.718741
_cell_angle_gamma 133.245233
_cell_volume 512.656931
_symmetry_space_group_name_H-M "P -1"
_symmetry_group_IT_number 2
_symmetry_cell_setting 'triclinic'
loop_
_space_group_symop_operation_xyz
x,y,z
-x,-y,-z
loop_
_atom_site_type_symbol
_atom_site_label
_atom_site_fract_x
_atom_site_fract_y
_atom_site_fract_z
Si Si1 0.081447 0.668006 0.703450
Si Si2 0.500000 0.000000 0.500000
Si Si3 0.609531 0.258264 0.908004
Si Si4 0.870075 0.701471 0.126862
Si Si5 0.705996 0.303951 0.651255
Si Si6 0.177304 0.003939 0.332244
Si Si7 0.595659 0.574615 0.173609
O O1 0.152872 0.549567 0.729489
O O2 0.100274 0.899056 0.490826
O O3 0.895399 0.484562 0.694304
O O4 0.207327 0.703393 0.912838
O O5 0.368690 0.953923 0.276751
O O6 0.354882 0.007416 0.474743
O O7 0.628714 0.336586 0.708978
O O8 0.508659 0.358364 0.850084
O O9 0.500000 0.000000 0.000000
O O10 0.773569 0.736343 0.155802
O O11 0.057628 0.839294 0.228072
O O12 0.823279 0.770561 0.887643
O O13 0.623003 0.365080 0.401832
O O14 0.500000 0.500000 0.000000
#
# Coordination Sequence:
#
# PCOD9060059 Si02
#       7
#     2   1   2   2   2   2   2
#     4  12  24  51  75 110 156 206 249 315 390 457
#     4  12  24  40  80 110 148 190 258 312 374 440
#     4  12  30  49  76 113 158 199 256 319 388 455
#     4  11  23  42  74 113 149 192 258 307 377 450
#     4  12  27  49  77 111 157 204 252 318 389 454
#     4  11  24  40  71 116 145 191 252 318 365 448
#     4  12  25  47  79 112 150 202 257 313 381 462
#
# _framework density 25.358086
#
# number of rings (size 3 to 8) (size 9 to 14) (size 15 to 20)
#    0.000    0.308    4.615    4.154    6.462    0.000 
#    2.769    0.769    0.000    0.000    0.000    0.000 
#    0.000    0.000    0.000    0.000    0.000    0.000 
#
# Total GULP energy -72405.564555 kJ/mol
# GULP energy per Si atom -5569.658812 kJ/mol
# Density = 2.530037 g / cm^3
# Si number density = 25.358086 Si / 1000 Ang^3
#
#
#
# Elastic Constant Matrix: (Units=GPa)
#
#
# Indices 1 2 3 4 5 6 
#
# 1 145.2012 30.6156 29.0959 16.9390 -18.7738 26.0471
# 2 30.6156 68.6790 -3.4622 16.2935 2.7677 35.0668
# 3 29.0959 -3.4622 98.4003 3.7242 -10.4536 12.7088
# 4 16.9390 16.2935 3.7242 46.9907 4.7951 9.6344
# 5 -18.7738 2.7677 -10.4536 4.7951 34.2656 16.6698
# 6 26.0471 35.0668 12.7088 9.6344 16.6698 49.5341
#
#
#
# Elastic Compliance Matrix: (Units=1/GPa)
#
#
# Indices 1 2 3 4 5 6 
#
# 1 0.009972 -0.000586 -0.000989 -0.002785 0.009041 -0.007076
# 2 -0.000586 0.028380 0.005747 -0.006366 0.011683 -0.023951
# 3 -0.000989 0.005747 0.012672 -0.001555 0.007459 -0.009007
# 4 -0.002785 -0.006366 -0.001555 0.024512 -0.006811 0.003895
# 5 0.009041 0.011683 0.007459 -0.006811 0.051472 -0.030936
# 6 -0.007076 -0.023951 -0.009007 0.003895 -0.030936 0.052829
#
#
# Mechanical properties :
#
#
# Convention : Reuss Voigt Hill
#
# Bulk Modulus (GPa) = 16.84415 47.19769 32.02092
# Shear Modulus (GPa) = 26.13931 43.22683 34.68307
#
# Velocity S-wave (km/s) = 3.21410 4.13323 3.70230
# Velocity P-wave (km/s) = 4.52005 6.43669 5.56156
#
# Compressibility (1/GPa) = 0.05936779
#
# Stress axis : x y z
#
# Youngs Moduli (GPa) = 100.28069 35.23604 78.91444
#
# Poissons Ratio (x) = 0.02064 0.07808
# Poissons Ratio (y) = 0.05875 -0.45354
# Poissons Ratio (z) = 0.09922 -0.20251
#
# Static dielectric constant tensor:
#      x y z
#    x 2.039230 0.003900 0.054820 
#    y 0.003900 1.661460 0.138330 
#    z 0.054820 0.138330 2.033760 
# 
# From -- ./inp_files/242331.got.cif
#   From: 2010.05.17/outbox.cif.g08.bks.cpg/sg2_122_cif.got.tgz:242331.got - 2010.06.03 11:33:40.
