data_PCOD9060106
_publ_section_title
;
Structure prediction by ZEFSAII (Michael W. Deem and Ramdas Pophale) SiO2 
 PCOD9060106
Probable space group: P -1
;
_chemical_formula_sum "Si O2"
_cell_formula_units_Z 12
_cell_length_a 14.601702
_cell_length_b 7.602872
_cell_length_c 13.387883
_cell_angle_alpha 92.181789
_cell_angle_beta 161.401905
_cell_angle_gamma 80.724302
_cell_volume 435.644216
_symmetry_space_group_name_H-M "P -1"
_symmetry_group_IT_number 2
_symmetry_cell_setting 'triclinic'
loop_
_space_group_symop_operation_xyz
x,y,z
-x,-y,-z
loop_
_atom_site_type_symbol
_atom_site_label
_atom_site_fract_x
_atom_site_fract_y
_atom_site_fract_z
Si Si1 0.699256 0.294111 0.045877
Si Si2 0.857187 0.378830 0.733476
Si Si3 0.432688 0.868719 0.510619
Si Si4 0.212390 0.231498 0.417310
Si Si5 0.189000 0.159056 0.729216
Si Si6 0.348059 0.697545 0.692327
O O1 0.898443 0.321225 0.159436
O O2 0.942458 0.238614 0.386543
O O3 0.507632 0.178129 0.797012
O O4 0.409371 0.483831 0.787375
O O5 0.740999 0.273697 0.698038
O O6 0.774659 0.605504 0.642759
O O7 0.706958 0.320651 0.480749
O O8 0.225788 0.271397 0.104317
O O9 0.500000 0.000000 0.500000
O O10 0.234938 0.035456 0.386937
O O11 0.952019 0.137183 0.566621
O O12 0.339973 0.282251 0.949394
O O13 0.500000 0.000000 0.000000
#
# Coordination Sequence:
#
# PCOD9060106 Si02
#       6
#     2   2   2   2   2   2
#     4  11  23  43  68  97 140 191 240 285 342 411
#     4  11  25  46  72 101 142 185 236 287 354 424
#     4  12  27  46  75 107 140 180 228 297 365 431
#     4  11  25  45  73 105 139 191 237 289 354 423
#     4  12  25  37  63 103 140 183 236 292 338 399
#     4  11  23  43  64  93 139 191 232 285 344 407
#
# _framework density 27.545411999999999
#
# number of rings (size 3 to 8) (size 9 to 14) (size 15 to 20)
#    0.000    0.667    0.000    9.000    7.000    1.333 
#    0.000    0.000    0.000    0.000    0.000    0.000 
#    0.000    0.000    0.000    0.000    0.000    0.000 
#
# Total GULP energy -67126.814636 kJ/mol
# GULP energy per Si atom -5593.901220 kJ/mol
# Density = 2.748272 g / cm^3
# Si number density = 27.545412 Si / 1000 Ang^3
#
#
#
# Elastic Constant Matrix: (Units=GPa)
#
#
# Indices 1 2 3 4 5 6 
#
# 1 48.8630 7.0403 17.2093 -3.7737 18.0900 5.0547
# 2 7.0403 117.9475 10.7471 -10.1963 4.4724 1.1961
# 3 17.2093 10.7471 161.3545 -18.5855 11.6654 -4.2217
# 4 -3.7737 -10.1963 -18.5855 49.8071 11.0113 4.6326
# 5 18.0900 4.4724 11.6654 11.0113 40.5898 5.0288
# 6 5.0547 1.1961 -4.2217 4.6326 5.0288 29.4035
#
#
#
# Elastic Compliance Matrix: (Units=1/GPa)
#
#
# Indices 1 2 3 4 5 6 
#
# 1 0.026151 -0.000573 -0.001488 0.004250 -0.011906 -0.003319
# 2 -0.000573 0.008748 -0.000227 0.001949 -0.001122 -0.000405
# 3 -0.001488 -0.000227 0.006881 0.002783 -0.002192 0.001189
# 4 0.004250 0.001949 0.002783 0.024099 -0.009118 -0.002648
# 5 -0.011906 -0.001122 -0.002192 -0.009118 0.033481 -0.002512
# 6 -0.003319 -0.000405 0.001189 -0.002648 -0.002512 0.035614
#
#
# Mechanical properties :
#
#
# Convention : Reuss Voigt Hill
#
# Bulk Modulus (GPa) = 26.87675 44.23982 35.55828
# Shear Modulus (GPa) = 32.90515 43.50465 38.20490
#
# Velocity S-wave (km/s) = 3.46002 3.97845 3.72826
# Velocity P-wave (km/s) = 5.07353 6.09915 5.60983
#
# Compressibility (1/GPa) = 0.03720688
#
# Stress axis : x y z
#
# Youngs Moduli (GPa) = 38.23899 114.30795 145.31937
#
# Poissons Ratio (x) = 0.06549 0.21617
# Poissons Ratio (y) = 0.02191 0.03293
# Poissons Ratio (z) = 0.05688 0.02590
#
# Static dielectric constant tensor:
#      x y z
#    x 2.272040 0.097110 -0.065910 
#    y 0.097110 2.242600 -0.061240 
#    z -0.065910 -0.061240 2.023070 
# 
# From -- ./inp_files/313335.got.cif
#   From: 2010.05.17/outbox.cif.g08.bks.cpg/sg2_157_cif.got.tgz:313335.got - 2010.06.03 11:33:40.
