data_PCOD9060323
_publ_section_title
;
Structure prediction by ZEFSAII (Michael W. Deem and Ramdas Pophale) SiO2 
 PCOD9060323
Probable space group: P -1
;
_chemical_formula_sum "Si O2"
_cell_formula_units_Z 16
_cell_length_a 9.882077
_cell_length_b 14.242303
_cell_length_c 5.520175
_cell_angle_alpha 121.768089
_cell_angle_beta 81.118102
_cell_angle_gamma 93.024878
_cell_volume 652.237254
_symmetry_space_group_name_H-M "P -1"
_symmetry_group_IT_number 2
_symmetry_cell_setting 'triclinic'
loop_
_space_group_symop_operation_xyz
x,y,z
-x,-y,-z
loop_
_atom_site_type_symbol
_atom_site_label
_atom_site_fract_x
_atom_site_fract_y
_atom_site_fract_z
Si Si1 0.074282 0.337355 0.165839
Si Si2 0.778336 0.113903 0.312926
Si Si3 0.398726 0.081512 0.782775
Si Si4 0.460808 0.772498 0.709907
Si Si5 0.124820 0.494865 0.771918
Si Si6 0.583229 0.417331 0.188791
Si Si7 0.062844 0.881067 0.237749
Si Si8 0.649282 0.688693 0.181018
O O1 0.125059 0.378856 0.469452
O O2 0.933129 0.408672 0.264854
O O3 0.201754 0.362029 0.987170
O O4 0.040959 0.212102 0.942280
O O5 0.645000 0.194632 0.426045
O O6 0.860324 0.154891 0.581244
O O7 0.730324 0.990376 0.214049
O O8 0.848458 0.108698 0.020393
O O9 0.361189 0.194188 0.801957
O O10 0.500000 0.000000 0.500000
O O11 0.488926 0.117555 0.032566
O O12 0.389989 0.693956 0.813518
O O13 0.601997 0.715704 0.500692
O O14 0.274435 0.531924 0.858935
O O15 0.000000 0.500000 0.000000
O O16 0.500000 0.500000 0.500000
O O17 0.472812 0.386078 0.977693
O O18 0.000000 0.000000 0.500000
#
# Coordination Sequence:
#
# PCOD9060323 Si02
#       8
#     2   2   2   2   2   2   2   2
#     4  11  27  48  71 110 153 199 264 320 401 467
#     4  12  26  47  76 110 158 208 266 320 392 475
#     4  11  23  43  69 110 155 196 255 318 390 466
#     4  11  26  41  77 109 147 200 255 327 390 466
#     4  11  27  49  77 105 151 204 256 327 396 473
#     4  11  25  49  73 111 149 191 261 319 392 463
#     4  12  29  49  76 113 158 214 261 327 396 483
#     4  11  25  44  76 110 148 196 256 325 390 469
#
# _framework density 24.530953
#
# number of rings (size 3 to 8) (size 9 to 14) (size 15 to 20)
#    0.000    0.750    2.500    3.000   10.500    2.500 
#    0.000    0.000    0.000    0.000    0.000    0.000 
#    0.000    0.000    0.000    0.000    0.000    0.000 
#
# Total GULP energy -89517.733465 kJ/mol
# GULP energy per Si atom -5594.858342 kJ/mol
# Density = 2.447512 g / cm^3
# Si number density = 24.530953 Si / 1000 Ang^3
#
#
#
# Elastic Constant Matrix: (Units=GPa)
#
#
# Indices 1 2 3 4 5 6 
#
# 1 160.4789 49.9457 65.5292 8.6595 -1.3575 20.2156
# 2 49.9457 103.7917 32.0098 9.0772 8.1220 26.9478
# 3 65.5292 32.0098 179.1665 11.8329 -5.3676 27.4416
# 4 8.6595 9.0772 11.8329 43.8125 11.4532 -2.1120
# 5 -1.3575 8.1220 -5.3676 11.4532 36.1569 0.9652
# 6 20.2156 26.9478 27.4416 -2.1120 0.9652 59.2253
#
#
#
# Elastic Compliance Matrix: (Units=1/GPa)
#
#
# Indices 1 2 3 4 5 6 
#
# 1 0.008256 -0.003186 -0.002337 -0.000584 0.000872 -0.000321
# 2 -0.003186 0.012799 -0.000397 -0.001492 -0.002459 -0.004565
# 3 -0.002337 -0.000397 0.007051 -0.001925 0.001722 -0.002385
# 4 -0.000584 -0.001492 -0.001925 0.026078 -0.008309 0.002836
# 5 0.000872 -0.002459 0.001722 -0.008309 0.031151 -0.000781
# 6 -0.000321 -0.004565 -0.002385 0.002836 -0.000781 0.020290
#
#
# Mechanical properties :
#
#
# Convention : Reuss Voigt Hill
#
# Bulk Modulus (GPa) = 61.47873 82.04517 71.76195
# Shear Modulus (GPa) = 40.68768 47.56913 44.12841
#
# Velocity S-wave (km/s) = 4.07704 4.40835 4.24593
# Velocity P-wave (km/s) = 6.87598 7.70906 7.30441
#
# Compressibility (1/GPa) = 0.01626579
#
# Stress axis : x y z
#
# Youngs Moduli (GPa) = 121.11688 78.13366 141.82231
#
# Poissons Ratio (x) = 0.24896 0.33139
# Poissons Ratio (y) = 0.38592 0.05633
# Poissons Ratio (z) = 0.28301 0.03103
#
# Static dielectric constant tensor:
#      x y z
#    x 1.946080 -0.061560 0.008660 
#    y -0.061560 2.071510 0.029030 
#    z 0.008660 0.029030 2.167410 
# 
# From -- ./inp_files/49280.got.cif
#   From: 2010.05.17/outbox.cif.g08.bks.cpg/sg2_25_cif.got.tgz:49280.got - 2010.06.03 11:33:40.
