data_PCOD9060283
_publ_section_title
;
Structure prediction by ZEFSAII (Michael W. Deem and Ramdas Pophale) SiO2 
 PCOD9060283
Probable space group: P -1
;
_chemical_formula_sum "Si O2"
_cell_formula_units_Z 16
_cell_length_a 26.411835
_cell_length_b 26.514479
_cell_length_c 9.230847
_cell_angle_alpha 36.663899
_cell_angle_beta 141.436667
_cell_angle_gamma 169.208566
_cell_volume 721.662953
_symmetry_space_group_name_H-M "P -1"
_symmetry_group_IT_number 2
_symmetry_cell_setting 'triclinic'
loop_
_space_group_symop_operation_xyz
x,y,z
-x,-y,-z
loop_
_atom_site_type_symbol
_atom_site_label
_atom_site_fract_x
_atom_site_fract_y
_atom_site_fract_z
Si Si1 0.890570 0.659866 0.407293
Si Si2 0.823182 0.993619 0.017770
Si Si3 0.635603 0.939740 0.272117
Si Si4 0.651073 0.592949 0.742915
Si Si5 0.774120 0.264472 0.915541
Si Si6 0.770332 0.737092 0.987217
Si Si7 0.605731 0.908077 0.943074
Si Si8 0.112088 0.529047 0.598955
O O1 0.641186 0.349391 0.591285
O O2 0.788378 0.653801 0.211470
O O3 0.126684 0.879631 0.544537
O O4 0.030609 0.795968 0.249301
O O5 0.075887 0.188042 0.194742
O O6 0.601049 0.719496 0.061353
O O7 0.640805 0.858677 0.040543
O O8 0.752229 0.150124 0.058905
O O9 0.578165 0.860997 0.159002
O O10 0.500000 0.500000 0.500000
O O11 0.755530 0.747858 0.759874
O O12 0.818639 0.373576 0.633136
O O13 0.000000 0.500000 0.000000
O O14 0.500000 0.000000 0.000000
O O15 0.500000 0.500000 0.000000
O O16 0.000000 0.000000 0.000000
O O17 0.879626 0.229655 0.781714
O O18 0.370924 0.740130 0.760584
O O19 0.000000 0.500000 0.500000
#
# Coordination Sequence:
#
# PCOD9060283 Si02
#       8
#     2   2   2   2   2   2   2   2
#     4  11  25  44  69 100 142 181 224 288 342 408
#     4  11  25  46  69 105 144 184 236 280 361 418
#     4  12  26  45  69 101 140 178 233 287 341 415
#     4  11  24  45  72 107 143 183 233 296 342 416
#     4  12  28  45  69 105 133 179 238 284 345 411
#     4  11  23  43  69 101 136 183 229 273 347 415
#     4  12  27  45  72 100 137 185 229 283 356 411
#     4  12  26  48  70  97 139 181 227 294 346 407
#
# _framework density 22.171016000000002
#
# number of rings (size 3 to 8) (size 9 to 14) (size 15 to 20)
#    0.000    0.500    1.250    7.500    7.000    3.000 
#    0.000    0.000    0.000    0.000    0.000    0.000 
#    0.000    0.000    0.000    0.000    0.000    0.000 
#
# Total GULP energy -89494.640745 kJ/mol
# GULP energy per Si atom -5593.415047 kJ/mol
# Density = 2.212055 g / cm^3
# Si number density = 22.171016 Si / 1000 Ang^3
#
#
#
# Elastic Constant Matrix: (Units=GPa)
#
#
# Indices 1 2 3 4 5 6 
#
# 1 103.8835 27.2277 24.3137 27.5391 -11.2431 7.4217
# 2 27.2277 190.9735 43.0196 33.1521 -1.6604 5.7562
# 3 24.3137 43.0196 101.7653 31.5987 -22.8036 4.3074
# 4 27.5391 33.1521 31.5987 61.4654 2.3425 6.2905
# 5 -11.2431 -1.6604 -22.8036 2.3425 29.0455 3.7597
# 6 7.4217 5.7562 4.3074 6.2905 3.7597 43.3673
#
#
#
# Elastic Compliance Matrix: (Units=1/GPa)
#
#
# Indices 1 2 3 4 5 6 
#
# 1 0.011805 -0.000787 0.000392 -0.005101 0.005462 -0.001688
# 2 -0.000787 0.006139 -0.002199 -0.001762 -0.001529 -0.000073
# 3 0.000392 -0.002199 0.016117 -0.007642 0.013482 -0.001436
# 4 -0.005101 -0.001762 -0.007642 0.023887 -0.009905 -0.000740
# 5 0.005462 -0.001529 0.013482 -0.009905 0.048465 -0.004836
# 6 -0.001688 -0.000073 -0.001436 -0.000740 -0.004836 0.024027
#
#
# Mechanical properties :
#
#
# Convention : Reuss Voigt Hill
#
# Bulk Modulus (GPa) = 34.63699 65.08272 49.85985
# Shear Modulus (GPa) = 34.42260 46.91305 40.66782
#
# Velocity S-wave (km/s) = 3.94457 4.60495 4.28749
# Velocity P-wave (km/s) = 6.03347 7.59557 6.85913
#
# Compressibility (1/GPa) = 0.02887087
#
# Stress axis : x y z
#
# Youngs Moduli (GPa) = 84.71057 162.89837 62.04508
#
# Poissons Ratio (x) = 0.12827 -0.02431
# Poissons Ratio (y) = 0.06670 0.13646
# Poissons Ratio (z) = -0.03319 0.35828
#
# Static dielectric constant tensor:
#      x y z
#    x 1.764040 0.047100 -0.063420 
#    y 0.047100 1.718730 0.037570 
#    z -0.063420 0.037570 1.772540 
# 
# From -- ./inp_files/357983.got.cif
#   From: 2010.05.17/outbox.cif.g08.bks.cpg/sg2_179_cif.got.tgz:357983.got - 2010.06.03 11:33:40.
