data_PCOD9060161
_publ_section_title
;
Structure prediction by ZEFSAII (Michael W. Deem and Ramdas Pophale) SiO2 
 PCOD9060161
Probable space group: P -1
;
_chemical_formula_sum "Si O2"
_cell_formula_units_Z 14
_cell_length_a 9.567314
_cell_length_b 5.322670
_cell_length_c 17.953986
_cell_angle_alpha 66.410785
_cell_angle_beta 134.082065
_cell_angle_gamma 124.588134
_cell_volume 540.666760
_symmetry_space_group_name_H-M "P -1"
_symmetry_group_IT_number 2
_symmetry_cell_setting 'triclinic'
loop_
_space_group_symop_operation_xyz
x,y,z
-x,-y,-z
loop_
_atom_site_type_symbol
_atom_site_label
_atom_site_fract_x
_atom_site_fract_y
_atom_site_fract_z
Si Si1 0.737457 0.126935 0.856106
Si Si2 0.823081 0.948879 0.233457
Si Si3 0.299800 0.673513 0.681419
Si Si4 0.500847 0.820833 0.946945
Si Si5 0.883260 0.831204 0.816137
Si Si6 0.534677 0.265889 0.424094
Si Si7 0.911994 0.775384 0.563219
O O1 0.494907 0.987275 0.745556
O O2 0.691591 0.006463 0.937592
O O3 0.857151 0.982990 0.864563
O O4 0.859119 0.490864 0.857670
O O5 0.714760 0.181663 0.169767
O O6 0.657618 0.609684 0.239250
O O7 0.500000 0.000000 0.000000
O O8 0.909631 0.962861 0.180745
O O9 0.306667 0.694253 0.592267
O O10 0.062177 0.598636 0.631964
O O11 0.500000 0.500000 0.000000
O O12 0.681414 0.785018 0.693090
O O13 0.981455 0.938721 0.648382
O O14 0.660825 0.573197 0.481385
O O15 0.500000 0.000000 0.500000
O O16 0.000000 0.000000 0.500000
#
# Coordination Sequence:
#
# PCOD9060161 Si02
#       7
#     2   2   2   2   2   2   2
#     4  11  24  49  73 105 146 187 236 302 369 433
#     4  12  27  46  73 107 146 195 249 306 366 444
#     4  11  23  43  66  98 149 198 250 294 359 426
#     4  12  26  50  82 111 137 188 247 305 373 448
#     4  11  27  45  70 106 153 195 233 297 376 427
#     4  11  24  40  62 103 148 199 245 297 351 430
#     4  12  24  40  68 101 146 196 257 296 349 425
#
# _framework density 25.893953
#
# number of rings (size 3 to 8) (size 9 to 14) (size 15 to 20)
#    0.000    0.571    2.857    5.571    8.000    0.571 
#    0.000    4.286    0.000    0.000    0.000    0.000 
#    0.000    0.000    0.000    0.000    0.000    0.000 
#
# Total GULP energy -78477.609870 kJ/mol
# GULP energy per Si atom -5605.543562 kJ/mol
# Density = 2.583502 g / cm^3
# Si number density = 25.893953 Si / 1000 Ang^3
#
#
#
# Elastic Constant Matrix: (Units=GPa)
#
#
# Indices 1 2 3 4 5 6 
#
# 1 166.9828 53.8200 54.3997 -11.5221 -39.2440 -17.0077
# 2 53.8200 135.5948 69.7698 -31.2553 -23.5397 -21.5683
# 3 54.3997 69.7698 135.2947 -19.7472 -32.3824 -9.9679
# 4 -11.5221 -31.2553 -19.7472 57.6050 7.0359 0.9446
# 5 -39.2440 -23.5397 -32.3824 7.0359 60.2388 -1.7205
# 6 -17.0077 -21.5683 -9.9679 0.9446 -1.7205 39.0213
#
#
#
# Elastic Compliance Matrix: (Units=1/GPa)
#
#
# Indices 1 2 3 4 5 6 
#
# 1 0.008108 -0.001428 -0.001383 -0.000167 0.004073 0.002575
# 2 -0.001428 0.012280 -0.004460 0.004636 0.001071 0.004961
# 3 -0.001383 -0.004460 0.011123 0.000721 0.003248 -0.000101
# 4 -0.000167 0.004636 0.000721 0.020077 -0.000192 0.002180
# 5 0.004073 0.001071 0.003248 -0.000192 0.021560 0.004152
# 6 0.002575 0.004961 -0.000101 0.002180 0.004152 0.029596
#
#
# Mechanical properties :
#
#
# Convention : Reuss Voigt Hill
#
# Bulk Modulus (GPa) = 58.93517 88.20569 73.57043
# Shear Modulus (GPa) = 40.66966 48.69856 44.68411
#
# Velocity S-wave (km/s) = 3.96741 4.34140 4.15861
# Velocity P-wave (km/s) = 6.61791 7.69860 7.17862
#
# Compressibility (1/GPa) = 0.01696780
#
# Stress axis : x y z
#
# Youngs Moduli (GPa) = 123.34153 81.43035 89.90650
#
# Poissons Ratio (x) = 0.11630 0.12436
# Poissons Ratio (y) = 0.17615 0.40099
# Poissons Ratio (z) = 0.17061 0.36318
#
# Static dielectric constant tensor:
#      x y z
#    x 2.130130 -0.001750 0.105270 
#    y -0.001750 2.013580 0.032780 
#    z 0.105270 0.032780 2.114250 
# 
# From -- ./inp_files/553201.got.cif
#   From: 2010.05.17/outbox.cif.g08.bks.cpg/sg2_277_cif.got.tgz:553201.got - 2010.06.03 11:33:40.
