data_PCOD9060140
_publ_section_title
;
Structure prediction by ZEFSAII (Michael W. Deem and Ramdas Pophale) SiO2 
 PCOD9060140
Probable space group: P -1
;
_chemical_formula_sum "Si O2"
_cell_formula_units_Z 16
_cell_length_a 11.798252
_cell_length_b 11.555784
_cell_length_c 6.579921
_cell_angle_alpha 69.272518
_cell_angle_beta 77.486715
_cell_angle_gamma 55.763654
_cell_volume 693.466395
_symmetry_space_group_name_H-M "P -1"
_symmetry_group_IT_number 2
_symmetry_cell_setting 'triclinic'
loop_
_space_group_symop_operation_xyz
x,y,z
-x,-y,-z
loop_
_atom_site_type_symbol
_atom_site_label
_atom_site_fract_x
_atom_site_fract_y
_atom_site_fract_z
Si Si1 0.310878 0.273227 0.318844
Si Si2 0.031754 0.896755 0.353110
Si Si3 0.782772 0.078491 0.035274
Si Si4 0.553867 0.668869 0.399840
Si Si5 0.550755 0.087270 0.044257
Si Si6 0.615538 0.358559 0.167590
Si Si7 0.212413 0.529285 0.868751
Si Si8 0.986103 0.630362 0.579392
O O1 0.359734 0.293999 0.503963
O O2 0.177078 0.263959 0.390980
O O3 0.447899 0.148169 0.236233
O O4 0.256978 0.415020 0.105896
O O5 0.039524 0.741449 0.445258
O O6 0.906610 0.995684 0.190580
O O7 0.000000 0.000000 0.500000
O O8 0.166937 0.875663 0.208125
O O9 0.656055 0.216072 0.111702
O O10 0.713602 0.986257 0.075968
O O11 0.472560 0.789468 0.185939
O O12 0.454631 0.644159 0.594509
O O13 0.670810 0.534884 0.309782
O O14 0.500000 0.000000 0.000000
O O15 0.761822 0.347256 0.134093
O O16 0.500000 0.500000 0.000000
O O17 0.074493 0.560605 0.795178
O O18 0.000000 0.500000 0.500000
#
# Coordination Sequence:
#
# PCOD9060140 Si02
#       8
#     2   2   2   2   2   2   2   2
#     4  11  24  46  64 106 144 182 236 306 370 426
#     4  11  29  52  74 105 147 205 248 298 371 443
#     4  11  27  49  71 107 148 192 248 302 367 448
#     4  11  23  43  66 106 141 183 239 293 382 427
#     4  11  27  44  74 101 139 189 243 305 364 445
#     4  12  23  43  75 107 148 187 244 313 363 440
#     4  11  24  42  68 103 144 190 229 301 372 428
#     4  12  27  45  77 105 146 195 250 305 363 439
#
# _framework density 23.072496999999998
#
# number of rings (size 3 to 8) (size 9 to 14) (size 15 to 20)
#    0.000    0.750    3.750    2.250   10.500    0.500 
#    2.250    0.000    0.000    0.000    0.000    0.000 
#    0.000    0.000    0.000    0.000    0.000    0.000 
#
# Total GULP energy -89262.420730 kJ/mol
# GULP energy per Si atom -5578.901296 kJ/mol
# Density = 2.301998 g / cm^3
# Si number density = 23.072497 Si / 1000 Ang^3
#
#
#
# Elastic Constant Matrix: (Units=GPa)
#
#
# Indices 1 2 3 4 5 6 
#
# 1 172.4887 2.2476 20.2200 6.8686 3.4410 5.2829
# 2 2.2476 44.7113 12.6232 -0.3178 -7.8968 3.3732
# 3 20.2200 12.6232 80.6940 8.6865 -1.4364 0.9157
# 4 6.8686 -0.3178 8.6865 15.8719 -2.2819 1.8397
# 5 3.4410 -7.8968 -1.4364 -2.2819 46.3226 2.7754
# 6 5.2829 3.3732 0.9157 1.8397 2.7754 32.8374
#
#
#
# Elastic Compliance Matrix: (Units=1/GPa)
#
#
# Indices 1 2 3 4 5 6 
#
# 1 0.006062 0.000020 -0.001320 -0.001886 -0.000533 -0.000790
# 2 0.000020 0.024566 -0.004137 0.003730 0.004421 -0.002994
# 3 -0.001320 -0.004137 0.014151 -0.007421 -0.000576 0.000707
# 4 -0.001886 0.003730 -0.007421 0.069034 0.004192 -0.004095
# 5 -0.000533 0.004421 -0.000576 0.004192 0.022720 -0.002507
# 6 -0.000790 -0.002994 0.000707 -0.004095 -0.002507 0.031309
#
#
# Mechanical properties :
#
#
# Convention : Reuss Voigt Hill
#
# Bulk Modulus (GPa) = 29.49363 40.89728 35.19546
# Shear Modulus (GPa) = 26.31342 36.52658 31.42000
#
# Velocity S-wave (km/s) = 3.38074 3.98316 3.69425
# Velocity P-wave (km/s) = 5.29623 6.23844 5.78654
#
# Compressibility (1/GPa) = 0.03390563
#
# Stress axis : x y z
#
# Youngs Moduli (GPa) = 164.96657 40.70682 70.66704
#
# Poissons Ratio (x) = -0.00081 0.09325
# Poissons Ratio (y) = -0.00327 0.29233
# Poissons Ratio (z) = 0.21769 0.16839
#
# Static dielectric constant tensor:
#      x y z
#    x 2.026200 0.045030 0.009000 
#    y 0.045030 1.837550 -0.049750 
#    z 0.009000 -0.049750 1.791970 
# 
# From -- ./inp_files/69779.got.cif
#   From: 2010.05.17/outbox.cif.g08.bks.cpg/sg2_35_cif.got.tgz:69779.got - 2010.06.03 11:33:40.
