data_PCOD9060649
_publ_section_title
;
Structure prediction by ZEFSAII (Michael W. Deem and Ramdas Pophale) SiO2 
 PCOD9060649
Probable space group: P -1
;
_chemical_formula_sum "Si O2"
_cell_formula_units_Z 12
_cell_length_a 10.476017
_cell_length_b 8.276714
_cell_length_c 9.313074
_cell_angle_alpha 130.269588
_cell_angle_beta 118.700101
_cell_angle_gamma 72.564780
_cell_volume 540.372792
_symmetry_space_group_name_H-M "P -1"
_symmetry_group_IT_number 2
_symmetry_cell_setting 'triclinic'
loop_
_space_group_symop_operation_xyz
x,y,z
-x,-y,-z
loop_
_atom_site_type_symbol
_atom_site_label
_atom_site_fract_x
_atom_site_fract_y
_atom_site_fract_z
Si Si1 0.164077 0.915687 0.997792
Si Si2 0.440384 0.090465 0.163503
Si Si3 0.370161 0.879791 0.448643
Si Si4 0.234917 0.446666 0.137162
Si Si5 0.918554 0.881590 0.648620
Si Si6 0.953189 0.541923 0.225720
O O1 0.105367 0.694055 0.902791
O O2 0.081200 0.961516 0.828991
O O3 0.334555 0.909674 0.067120
O O4 0.140447 0.103177 0.209241
O O5 0.567993 0.141421 0.370691
O O6 0.337736 0.284841 0.180405
O O7 0.500000 0.000000 0.000000
O O8 0.333887 0.641543 0.244956
O O9 0.500000 0.000000 0.500000
O O10 0.213025 0.992855 0.424353
O O11 0.111959 0.526849 0.229131
O O12 0.147894 0.365988 0.902814
O O13 0.943913 0.680331 0.445329
#
# Coordination Sequence:
#
# PCOD9060649 Si02
#       6
#     2   2   2   2   2   2
#     4  11  24  47  69 106 141 184 241 288 343 429
#     4  12  27  46  71 103 146 186 232 293 362 416
#     4  12  25  47  71 100 146 190 227 292 355 419
#     4  11  25  45  68 108 143 178 243 298 341 424
#     4  11  23  43  75 100 137 189 237 283 348 417
#     4  11  24  44  75 106 138 186 240 293 349 412
#
# _framework density 22.206890999999999
#
# number of rings (size 3 to 8) (size 9 to 14) (size 15 to 20)
#    0.000    0.667    3.333    4.000    4.667    2.000 
#    0.000    3.333    0.000    0.000    0.000    0.000 
#    0.000    0.000    0.000    0.000    0.000    0.000 
#
# Total GULP energy -66903.969015 kJ/mol
# GULP energy per Si atom -5575.330751 kJ/mol
# Density = 2.215635 g / cm^3
# Si number density = 22.206891 Si / 1000 Ang^3
#
#
#
# Elastic Constant Matrix: (Units=GPa)
#
#
# Indices 1 2 3 4 5 6 
#
# 1 58.9206 29.1339 54.9000 4.4456 1.1211 6.4334
# 2 29.1339 120.0674 53.4575 -29.5354 10.9157 -9.1046
# 3 54.9000 53.4575 173.6007 -32.7938 -15.0202 -20.2599
# 4 4.4456 -29.5354 -32.7938 34.9851 -12.8914 23.3059
# 5 1.1211 10.9157 -15.0202 -12.8914 41.9896 -6.3034
# 6 6.4334 -9.1046 -20.2599 23.3059 -6.3034 41.0765
#
#
#
# Elastic Compliance Matrix: (Units=1/GPa)
#
#
# Indices 1 2 3 4 5 6 
#
# 1 0.042830 -0.009691 -0.019238 -0.038619 -0.017224 0.000924
# 2 -0.009691 0.013839 0.002033 0.018902 0.002478 -0.004756
# 3 -0.019238 0.002033 0.017252 0.025864 0.014014 -0.000551
# 4 -0.038619 0.018902 0.025864 0.108228 0.033605 -0.033255
# 5 -0.017224 0.002478 0.014014 0.033605 0.038511 -0.002998
# 6 0.000924 -0.004756 -0.000551 -0.033255 -0.002998 0.041282
#
#
# Mechanical properties :
#
#
# Convention : Reuss Voigt Hill
#
# Bulk Modulus (GPa) = 49.68045 69.73014 59.70529
# Shear Modulus (GPa) = 15.50657 37.95007 26.72832
#
# Velocity S-wave (km/s) = 2.64536 4.13841 3.47306
# Velocity P-wave (km/s) = 5.63478 7.36910 6.55951
#
# Compressibility (1/GPa) = 0.02012864
#
# Stress axis : x y z
#
# Youngs Moduli (GPa) = 23.34806 72.26152 57.96368
#
# Poissons Ratio (x) = 0.70030 1.11512
# Poissons Ratio (y) = 0.22627 -0.11786
# Poissons Ratio (z) = 0.44918 -0.14693
#
# Static dielectric constant tensor:
#      x y z
#    x 1.908300 -0.029610 0.075800 
#    y -0.029610 1.913410 -0.038340 
#    z 0.075800 -0.038340 1.826770 
# 
# From -- ./inp_files/246160.got.cif
#   From: 2010.05.17/outbox.cif.g08.bks.cpg/sg2_124_cif.got.tgz:246160.got - 2010.06.03 11:33:40.
