data_PCOD9060097
_publ_section_title
;
Structure prediction by ZEFSAII (Michael W. Deem and Ramdas Pophale) SiO2 
 PCOD9060097
Probable space group: P -1
;
_chemical_formula_sum "Si O2"
_cell_formula_units_Z 14
_cell_length_a 6.771640
_cell_length_b 9.166295
_cell_length_c 22.678656
_cell_angle_alpha 50.193118
_cell_angle_beta 140.592500
_cell_angle_gamma 132.499809
_cell_volume 637.505027
_symmetry_space_group_name_H-M "P -1"
_symmetry_group_IT_number 2
_symmetry_cell_setting 'triclinic'
loop_
_space_group_symop_operation_xyz
x,y,z
-x,-y,-z
loop_
_atom_site_type_symbol
_atom_site_label
_atom_site_fract_x
_atom_site_fract_y
_atom_site_fract_z
Si Si1 0.383630 0.636371 0.614985
Si Si2 0.534755 0.763228 0.210841
Si Si3 0.231292 0.102344 0.898764
Si Si4 0.552194 0.105369 0.217539
Si Si5 0.640194 0.396503 0.509466
Si Si6 0.360371 0.981603 0.604140
Si Si7 0.763441 0.552210 0.100202
O O1 0.419613 0.435680 0.701056
O O2 0.545753 0.676332 0.577059
O O3 0.455966 0.816255 0.631711
O O4 0.988648 0.575022 0.529357
O O5 0.730605 0.835501 0.176865
O O6 0.134206 0.682454 0.128217
O O7 0.624300 0.946752 0.231133
O O8 0.307481 0.302986 0.904757
O O9 0.850324 0.952638 0.862525
O O10 0.500000 0.000000 0.000000
O O11 0.635796 0.065081 0.313995
O O12 0.739253 0.338160 0.179470
O O13 0.500000 0.500000 0.500000
O O14 0.641630 0.195405 0.593863
O O15 0.000000 0.000000 0.500000
O O16 0.500000 0.500000 0.000000
#
# Coordination Sequence:
#
# PCOD9060097 Si02
#       7
#     2   2   2   2   2   2   2
#     4  11  25  41  66  94 125 178 218 271 334 385
#     4  11  25  43  68  97 136 174 222 271 337 398
#     4  11  24  45  70  99 134 174 219 273 341 404
#     4  11  26  44  66  99 139 174 222 280 330 395
#     4  11  23  43  63  89 130 167 221 274 323 384
#     4  12  25  42  66  95 132 176 224 272 325 389
#     4  11  25  44  70 102 134 172 218 276 336 400
#
# _framework density 21.960609999999999
#
# number of rings (size 3 to 8) (size 9 to 14) (size 15 to 20)
#    0.000    0.857    1.429    4.714    4.000   11.429 
#    0.000    0.000    0.000    0.000    0.000    0.000 
#    0.000    0.000    0.000    0.000    0.000    0.000 
#
# Total GULP energy -78283.400479 kJ/mol
# GULP energy per Si atom -5591.671463 kJ/mol
# Density = 2.191063 g / cm^3
# Si number density = 21.960610 Si / 1000 Ang^3
#
#
#
# Elastic Constant Matrix: (Units=GPa)
#
#
# Indices 1 2 3 4 5 6 
#
# 1 111.9765 29.6745 3.8993 4.7513 -11.7541 -29.2484
# 2 29.6745 105.0943 -0.9148 -10.9607 -3.7188 -25.1624
# 3 3.8993 -0.9148 71.9617 -1.2920 -12.6144 -15.9442
# 4 4.7513 -10.9607 -1.2920 39.2935 -2.6413 -0.9280
# 5 -11.7541 -3.7188 -12.6144 -2.6413 41.4154 -5.2380
# 6 -29.2484 -25.1624 -15.9442 -0.9280 -5.2380 42.0816
#
#
#
# Elastic Compliance Matrix: (Units=1/GPa)
#
#
# Indices 1 2 3 4 5 6 
#
# 1 0.012152 -0.001141 0.002250 -0.001151 0.005125 0.009229
# 2 -0.001141 0.012284 0.002547 0.004026 0.002818 0.007957
# 3 0.002250 0.002547 0.017566 0.001787 0.007690 0.010739
# 4 -0.001151 0.004026 0.001787 0.027029 0.002710 0.003217
# 5 0.005125 0.002818 0.007690 0.002710 0.029878 0.011940
# 6 0.009229 0.007957 0.010739 0.003217 0.011940 0.040562
#
#
# Mechanical properties :
#
#
# Convention : Reuss Voigt Hill
#
# Bulk Modulus (GPa) = 20.27789 39.37228 29.82509
# Shear Modulus (GPa) = 33.64817 41.64968 37.64892
#
# Velocity S-wave (km/s) = 3.91859 4.35968 4.14500
# Velocity P-wave (km/s) = 5.45230 6.58103 6.04307
#
# Compressibility (1/GPa) = 0.04931479
#
# Stress axis : x y z
#
# Youngs Moduli (GPa) = 82.29206 81.40497 56.92770
#
# Poissons Ratio (x) = 0.09286 -0.12807
# Poissons Ratio (y) = 0.09387 -0.14501
# Poissons Ratio (z) = -0.18513 -0.20736
#
# Static dielectric constant tensor:
#      x y z
#    x 1.797130 0.059130 -0.027860 
#    y 0.059130 1.769380 0.093940 
#    z -0.027860 0.093940 1.836440 
# 
# From -- ./inp_files/91164.got.cif
#   From: 2010.05.17/outbox.cif.g08.bks.cpg/sg2_46_cif.got.tgz:91164.got - 2010.06.03 11:33:40.
