data_PCOD9060885
_publ_section_title
;
Structure prediction by ZEFSAII (Michael W. Deem and Ramdas Pophale) SiO2 
 PCOD9060885
Probable space group: P -1
;
_chemical_formula_sum "Si O2"
_cell_formula_units_Z 11
_cell_length_a 13.524748
_cell_length_b 8.193449
_cell_length_c 19.844640
_cell_angle_alpha 148.347086
_cell_angle_beta 156.725038
_cell_angle_gamma 38.428991
_cell_volume 455.990184
_symmetry_space_group_name_H-M "P -1"
_symmetry_group_IT_number 2
_symmetry_cell_setting 'triclinic'
loop_
_space_group_symop_operation_xyz
x,y,z
-x,-y,-z
loop_
_atom_site_type_symbol
_atom_site_label
_atom_site_fract_x
_atom_site_fract_y
_atom_site_fract_z
Si Si1 0.973691 0.284942 0.825306
Si Si2 0.544776 0.768194 0.566749
Si Si3 0.000000 0.000000 0.500000
Si Si4 0.317331 0.111180 0.864130
Si Si5 0.485581 0.223974 0.805401
Si Si6 0.030941 0.011404 0.898015
O O1 0.673977 0.273539 0.638442
O O2 0.056255 0.635720 0.015849
O O3 0.066596 0.212584 0.783540
O O4 0.072573 0.033933 0.852402
O O5 0.500000 0.500000 0.500000
O O6 0.715500 0.054007 0.927287
O O7 0.499789 0.089020 0.691186
O O8 0.786989 0.076368 0.330871
O O9 0.777045 0.853754 0.353836
O O10 0.447568 0.417273 0.024324
O O11 0.500000 0.000000 0.000000
O O12 0.180876 0.226038 0.292529
#
# Coordination Sequence:
#
# PCOD9060885 Si02
#       6
#     2   2   1   2   2   2
#     4  11  23  44  69 106 141 180 235 292 362 424
#     4  12  22  42  72 107 141 181 227 291 366 427
#     4  12  28  48  74 100 140 198 244 286 354 418
#     4  12  27  51  71 102 146 192 245 294 346 422
#     4  12  25  47  71 102 143 186 236 297 353 418
#     4  11  24  42  74 106 140 180 230 300 362 423
#
# _framework density 24.123325999999999
#
# number of rings (size 3 to 8) (size 9 to 14) (size 15 to 20)
#    0.000    0.364    5.455    3.818    0.000    0.727 
#    3.273    0.000    0.000    0.000    0.000    0.000 
#    0.000    0.000    0.000    0.000    0.000    0.000 
#
# Total GULP energy -61286.801953 kJ/mol
# GULP energy per Si atom -5571.527450 kJ/mol
# Density = 2.406842 g / cm^3
# Si number density = 24.123326 Si / 1000 Ang^3
#
#
#
# Elastic Constant Matrix: (Units=GPa)
#
#
# Indices 1 2 3 4 5 6 
#
# 1 81.9820 12.5637 47.1145 7.4485 30.0764 22.4524
# 2 12.5637 70.2559 32.9176 -10.5409 1.3593 26.2479
# 3 47.1145 32.9176 155.5094 -15.5433 24.2934 18.6516
# 4 7.4485 -10.5409 -15.5433 29.2554 13.9645 -3.9677
# 5 30.0764 1.3593 24.2934 13.9645 59.9693 -2.9864
# 6 22.4524 26.2479 18.6516 -3.9677 -2.9864 30.9492
#
#
#
# Elastic Compliance Matrix: (Units=1/GPa)
#
#
# Indices 1 2 3 4 5 6 
#
# 1 0.023819 0.005015 -0.004756 -0.004738 -0.010038 -0.020243
# 2 0.005015 0.023546 -0.002783 0.004744 -0.004108 -0.021719
# 3 -0.004756 -0.002783 0.009518 0.006762 -0.002950 0.000656
# 4 -0.004738 0.004744 0.006762 0.046052 -0.011186 0.000163
# 5 -0.010038 -0.004108 -0.002950 -0.011186 0.026282 0.013646
# 6 -0.020243 -0.021719 0.000656 0.000163 0.013646 0.066359
#
#
# Mechanical properties :
#
#
# Convention : Reuss Voigt Hill
#
# Bulk Modulus (GPa) = 19.29122 54.77099 37.03111
# Shear Modulus (GPa) = 22.94612 38.37821 30.66217
#
# Velocity S-wave (km/s) = 3.08750 3.99296 3.56906
# Velocity P-wave (km/s) = 4.55242 6.63417 5.68932
#
# Compressibility (1/GPa) = 0.05183705
#
# Stress axis : x y z
#
# Youngs Moduli (GPa) = 41.98262 42.46980 105.06094
#
# Poissons Ratio (x) = -0.21298 0.49962
# Poissons Ratio (y) = -0.21054 0.29236
# Poissons Ratio (z) = 0.19965 0.11818
#
# Static dielectric constant tensor:
#      x y z
#    x 2.054410 0.012750 -0.149730 
#    y 0.012750 2.045080 -0.086630 
#    z -0.149730 -0.086630 2.006130 
# 
# From -- ./inp_files/596914.got.cif
#   From: 2010.05.17/outbox.cif.g08.bks.cpg/sg2_299_cif.got.tgz:596914.got - 2010.06.03 11:33:40.
