data_PCOD9060716
_publ_section_title
;
Structure prediction by ZEFSAII (Michael W. Deem and Ramdas Pophale) SiO2 
 PCOD9060716
Probable space group: P -1
;
_chemical_formula_sum "Si O2"
_cell_formula_units_Z 12
_cell_length_a 5.176394
_cell_length_b 9.229619
_cell_length_c 11.844732
_cell_angle_alpha 113.288555
_cell_angle_beta 89.498978
_cell_angle_gamma 75.120681
_cell_volume 498.469860
_symmetry_space_group_name_H-M "P -1"
_symmetry_group_IT_number 2
_symmetry_cell_setting 'triclinic'
loop_
_space_group_symop_operation_xyz
x,y,z
-x,-y,-z
loop_
_atom_site_type_symbol
_atom_site_label
_atom_site_fract_x
_atom_site_fract_y
_atom_site_fract_z
Si Si1 0.792210 0.908591 0.516997
Si Si2 0.852374 0.418778 0.566624
Si Si3 0.651414 0.301721 0.317672
Si Si4 0.042459 0.254715 0.114249
Si Si5 0.510257 0.320381 0.989740
Si Si6 0.603008 0.979290 0.791246
O O1 0.917297 0.721212 0.417104
O O2 0.500000 0.000000 0.500000
O O3 0.766789 0.917547 0.656371
O O4 0.000000 0.000000 0.500000
O O5 0.691887 0.321326 0.456735
O O6 0.623812 0.560222 0.670181
O O7 0.000000 0.500000 0.500000
O O8 0.882685 0.339165 0.252504
O O9 0.620747 0.121053 0.237724
O O10 0.251270 0.329944 0.071942
O O11 0.223765 0.085384 0.116604
O O12 0.795195 0.256354 0.033996
O O13 0.504971 0.175879 0.856261
O O14 0.500000 0.500000 0.000000
#
# Coordination Sequence:
#
# PCOD9060716 Si02
#       6
#     2   2   2   2   2   2
#     4  12  28  47  71 112 157 199 241 313 391 441
#     4  11  23  45  74 110 153 200 259 308 361 463
#     4  11  23  43  81 111 145 197 270 307 361 441
#     4  12  25  50  82 108 145 207 256 311 377 459
#     4  12  30  50  75 116 153 192 253 326 393 444
#     4  12  26  51  76 108 151 205 262 307 371 468
#
# _framework density 24.073675000000001
#
# number of rings (size 3 to 8) (size 9 to 14) (size 15 to 20)
#    0.000    0.333    5.000    2.500    4.667    1.333 
#    3.000    0.000    0.000    0.000    0.000    0.000 
#    0.000    0.000    0.000    0.000    0.000    0.000 
#
# Total GULP energy -67112.479463 kJ/mol
# GULP energy per Si atom -5592.706622 kJ/mol
# Density = 2.401888 g / cm^3
# Si number density = 24.073675 Si / 1000 Ang^3
#
#
#
# Elastic Constant Matrix: (Units=GPa)
#
#
# Indices 1 2 3 4 5 6 
#
# 1 166.3174 54.7876 25.6181 -2.9088 -18.4984 14.3609
# 2 54.7876 149.7606 24.8298 16.5027 -15.4452 14.8916
# 3 25.6181 24.8298 79.5253 13.4331 -5.1872 17.2383
# 4 -2.9088 16.5027 13.4331 41.5671 2.5292 -5.0760
# 5 -18.4984 -15.4452 -5.1872 2.5292 52.9396 -11.7548
# 6 14.3609 14.8916 17.2383 -5.0760 -11.7548 43.7008
#
#
#
# Elastic Compliance Matrix: (Units=1/GPa)
#
#
# Indices 1 2 3 4 5 6 
#
# 1 0.007303 -0.002407 -0.001771 0.001916 0.001530 -0.000247
# 2 -0.002407 0.008392 -0.000762 -0.003556 0.001296 -0.001833
# 3 -0.001771 -0.000762 0.015618 -0.005586 -0.000393 -0.006073
# 4 0.001916 -0.003556 -0.005586 0.028176 -0.000975 0.005796
# 5 0.001530 0.001296 -0.000393 -0.000975 0.020855 0.004707
# 6 -0.000247 -0.001833 -0.006073 0.005796 0.004707 0.027924
#
#
# Mechanical properties :
#
#
# Convention : Reuss Voigt Hill
#
# Bulk Modulus (GPa) = 46.66011 67.34159 57.00085
# Shear Modulus (GPa) = 39.90646 46.99936 43.45291
#
# Velocity S-wave (km/s) = 4.07588 4.42329 4.25313
# Velocity P-wave (km/s) = 6.44784 7.35671 6.91722
#
# Compressibility (1/GPa) = 0.02143158
#
# Stress axis : x y z
#
# Youngs Moduli (GPa) = 136.92415 119.16136 64.02987
#
# Poissons Ratio (x) = 0.28681 0.11343
# Poissons Ratio (y) = 0.32956 0.04881
# Poissons Ratio (z) = 0.24256 0.09084
#
# Static dielectric constant tensor:
#      x y z
#    x 2.143240 -0.129210 0.035000 
#    y -0.129210 1.980940 0.062490 
#    z 0.035000 0.062490 2.006260 
# 
# From -- ./inp_files/360956.got.cif
#   From: 2010.05.17/outbox.cif.g08.bks.cpg/sg2_181_cif.got.tgz:360956.got - 2010.06.03 11:33:40.
