data_PCOD9060980
_publ_section_title
;
Structure prediction by ZEFSAII (Michael W. Deem and Ramdas Pophale) SiO2 
 PCOD9060980
Probable space group: P -1
;
_chemical_formula_sum "Si O2"
_cell_formula_units_Z 12
_cell_length_a 7.113171
_cell_length_b 7.796505
_cell_length_c 17.444163
_cell_angle_alpha 129.265665
_cell_angle_beta 134.259235
_cell_angle_gamma 71.622808
_cell_volume 522.286912
_symmetry_space_group_name_H-M "P -1"
_symmetry_group_IT_number 2
_symmetry_cell_setting 'triclinic'
loop_
_space_group_symop_operation_xyz
x,y,z
-x,-y,-z
loop_
_atom_site_type_symbol
_atom_site_label
_atom_site_fract_x
_atom_site_fract_y
_atom_site_fract_z
Si Si1 0.589327 0.320791 0.616470
Si Si2 0.954792 0.751796 0.042793
Si Si3 0.558976 0.335775 0.225036
Si Si4 0.694831 0.956231 0.661202
Si Si5 0.483860 0.021464 0.774490
Si Si6 0.912509 0.759126 0.362221
O O1 0.604286 0.559773 0.726647
O O2 0.580000 0.145037 0.634479
O O3 0.843419 0.298987 0.632184
O O4 0.333677 0.241516 0.464855
O O5 0.660300 0.745485 0.926318
O O6 0.970079 0.093817 0.816203
O O7 0.000000 0.500000 0.000000
O O8 0.202289 0.861578 0.087089
O O9 0.646376 0.134274 0.237263
O O10 0.788521 0.545699 0.320600
O O11 0.511674 0.884957 0.664400
O O12 0.316588 0.202677 0.751823
O O13 0.000000 0.000000 0.500000
#
# Coordination Sequence:
#
# PCOD9060980 Si02
#       6
#     2   2   2   2   2   2
#     4  11  20  39  66  89 123 160 201 255 301 362
#     4  10  17  40  66  85 119 169 199 245 310 361
#     4  12  23  41  66  92 122 162 206 253 303 359
#     4   9  19  39  62  89 118 165 198 248 306 359
#     4  10  22  40  66  89 123 163 203 251 306 362
#     4  12  22  42  60  92 129 163 199 249 310 365
#
# _framework density 22.975878999999999
#
# number of rings (size 3 to 8) (size 9 to 14) (size 15 to 20)
#    1.000    0.333    6.667    1.500    0.000    1.333 
#    3.000    3.333    0.000    3.000    0.000    0.000 
#    0.000    0.000    0.000    0.000    0.000    0.000 
#
# Total GULP energy -66962.202600 kJ/mol
# GULP energy per Si atom -5580.183550 kJ/mol
# Density = 2.292359 g / cm^3
# Si number density = 22.975879 Si / 1000 Ang^3
#
#
#
# Elastic Constant Matrix: (Units=GPa)
#
#
# Indices 1 2 3 4 5 6 
#
# 1 93.8861 45.0268 31.2084 0.0168 11.3904 16.7187
# 2 45.0268 91.0191 6.7437 2.5765 7.7336 47.9331
# 3 31.2084 6.7437 122.0077 -6.3352 -8.3777 13.7403
# 4 0.0168 2.5765 -6.3352 18.3573 10.7261 1.5154
# 5 11.3904 7.7336 -8.3777 10.7261 29.7169 8.8491
# 6 16.7187 47.9331 13.7403 1.5154 8.8491 35.1228
#
#
#
# Elastic Compliance Matrix: (Units=1/GPa)
#
#
# Indices 1 2 3 4 5 6 
#
# 1 0.022484 -0.026598 -0.008733 0.007777 -0.016763 0.032901
# 2 -0.026598 0.075028 0.015629 -0.014774 0.031092 -0.103042
# 3 -0.008733 0.015629 0.013037 -0.002153 0.011176 -0.024995
# 4 0.007777 -0.014774 -0.002153 0.073118 -0.032809 0.022414
# 5 -0.016763 0.031092 0.011176 -0.032809 0.062831 -0.053240
# 6 0.032901 -0.103042 -0.024995 0.022414 -0.053240 0.175660
#
#
# Mechanical properties :
#
#
# Convention : Reuss Voigt Hill
#
# Bulk Modulus (GPa) = 14.05619 52.54120 33.29870
# Shear Modulus (GPa) = 10.30338 31.56833 20.93585
#
# Velocity S-wave (km/s) = 2.11995 3.71074 3.02190
# Velocity P-wave (km/s) = 3.48185 6.42473 5.16722
#
# Compressibility (1/GPa) = 0.07114304
#
# Stress axis : x y z
#
# Youngs Moduli (GPa) = 44.47620 13.32833 76.70640
#
# Poissons Ratio (x) = 0.35451 0.66991
# Poissons Ratio (y) = 1.18299 -1.19883
# Poissons Ratio (z) = 0.38843 -0.20831
#
# Static dielectric constant tensor:
#      x y z
#    x 1.877880 -0.000840 0.022420 
#    y -0.000840 1.879410 -0.002540 
#    z 0.022420 -0.002540 1.902240 
# 
# From -- ./inp_files/232523.got.cif
#   From: 2010.05.17/outbox.cif.g08.bks.cpg/sg2_117_cif.got.tgz:232523.got - 2010.06.03 11:33:40.
