data_PCOD9060476
_publ_section_title
;
Structure prediction by ZEFSAII (Michael W. Deem and Ramdas Pophale) SiO2 
 PCOD9060476
Probable space group: P -1
;
_chemical_formula_sum "Si O2"
_cell_formula_units_Z 16
_cell_length_a 8.747654
_cell_length_b 12.786321
_cell_length_c 18.566275
_cell_angle_alpha 151.279488
_cell_angle_beta 48.894500
_cell_angle_gamma 129.354875
_cell_volume 742.361087
_symmetry_space_group_name_H-M "P -1"
_symmetry_group_IT_number 2
_symmetry_cell_setting 'triclinic'
loop_
_space_group_symop_operation_xyz
x,y,z
-x,-y,-z
loop_
_atom_site_type_symbol
_atom_site_label
_atom_site_fract_x
_atom_site_fract_y
_atom_site_fract_z
Si Si1 0.147186 0.179850 0.457861
Si Si2 0.458423 0.746322 0.373062
Si Si3 0.936058 0.466938 0.582188
Si Si4 0.850634 0.943972 0.945565
Si Si5 0.605120 0.083372 0.869438
Si Si6 0.012072 0.747941 0.044603
Si Si7 0.573170 0.543782 0.084451
Si Si8 0.865198 0.716214 0.307730
O O1 0.171771 0.268903 0.585918
O O2 0.071670 0.354075 0.530397
O O3 0.348232 0.104942 0.313966
O O4 0.988147 0.948451 0.379637
O O5 0.272619 0.702253 0.457705
O O6 0.411613 0.629639 0.239889
O O7 0.652434 0.666055 0.300455
O O8 0.500000 0.000000 0.500000
O O9 0.873389 0.696222 0.766808
O O10 0.000000 0.500000 0.500000
O O11 0.944741 0.110212 0.954700
O O12 0.613296 0.965742 0.050869
O O13 0.000000 0.000000 0.000000
O O14 0.806609 0.139164 0.891146
O O15 0.602891 0.308755 0.963721
O O16 0.780629 0.724258 0.131996
O O17 0.026180 0.492956 0.869281
O O18 0.500000 0.500000 0.000000
#
# Coordination Sequence:
#
# PCOD9060476 Si02
#       8
#     2   2   2   2   2   2   2   2
#     4  11  25  42  72 103 144 180 239 295 356 418
#     4  12  26  44  71 103 144 185 239 293 360 427
#     4  12  27  48  69 104 147 191 237 292 359 428
#     4  12  27  47  71 100 144 189 237 290 354 428
#     4  12  24  46  69 104 136 187 236 292 352 424
#     4  12  24  44  73 100 138 182 238 293 359 419
#     4  12  26  42  72 106 141 184 243 298 352 425
#     4  11  23  43  71 106 136 184 233 302 354 417
#
# _framework density 21.552855999999998
#
# number of rings (size 3 to 8) (size 9 to 14) (size 15 to 20)
#    0.000    0.250    5.000    3.750    5.250    2.000 
#    0.000    1.875    0.000    0.000    0.000    0.000 
#    0.000    0.000    0.000    0.000    0.000    0.000 
#
# Total GULP energy -89443.630256 kJ/mol
# GULP energy per Si atom -5590.226891 kJ/mol
# Density = 2.150380 g / cm^3
# Si number density = 21.552856 Si / 1000 Ang^3
#
#
#
# Elastic Constant Matrix: (Units=GPa)
#
#
# Indices 1 2 3 4 5 6 
#
# 1 59.2612 25.0043 -1.3141 -10.6969 11.0815 -20.1997
# 2 25.0043 144.5855 17.1932 -19.5743 -11.6181 -11.9903
# 3 -1.3141 17.1932 87.7436 -23.6154 -2.2828 -4.8381
# 4 -10.6969 -19.5743 -23.6154 33.5830 -6.1256 0.5071
# 5 11.0815 -11.6181 -2.2828 -6.1256 33.7230 -2.0862
# 6 -20.1997 -11.9903 -4.8381 0.5071 -2.0862 43.6147
#
#
#
# Elastic Compliance Matrix: (Units=1/GPa)
#
#
# Indices 1 2 3 4 5 6 
#
# 1 0.024432 -0.003438 0.003185 0.006555 -0.007169 0.010304
# 2 -0.003438 0.008652 -0.000323 0.004616 0.004985 0.000935
# 3 0.003185 -0.000323 0.014856 0.011619 0.002144 0.003002
# 4 0.006555 0.004616 0.011619 0.044210 0.008593 0.005491
# 5 -0.007169 0.004985 0.002144 0.008593 0.035425 -0.000117
# 6 0.010304 0.000935 0.003002 0.005491 -0.000117 0.028221
#
#
# Mechanical properties :
#
#
# Convention : Reuss Voigt Hill
#
# Bulk Modulus (GPa) = 21.37280 41.48413 31.42846
# Shear Modulus (GPa) = 28.97795 38.89792 33.93794
#
# Velocity S-wave (km/s) = 3.67073 4.25287 3.97248
# Velocity P-wave (km/s) = 5.28239 6.58826 5.97113
#
# Compressibility (1/GPa) = 0.04678845
#
# Stress axis : x y z
#
# Youngs Moduli (GPa) = 40.93021 115.57506 67.31165
#
# Poissons Ratio (x) = 0.39736 -0.21442
# Poissons Ratio (y) = 0.14072 0.02176
# Poissons Ratio (z) = -0.13038 0.03737
#
# Static dielectric constant tensor:
#      x y z
#    x 1.828110 0.009150 0.010230 
#    y 0.009150 1.786910 -0.032220 
#    z 0.010230 -0.032220 1.764780 
# 
# From -- ./inp_files/333715.got.cif
#   From: 2010.05.17/outbox.cif.g08.bks.cpg/sg2_167_cif.got.tgz:333715.got - 2010.06.03 11:33:40.
