data_PCOD9060754
_publ_section_title
;
Structure prediction by ZEFSAII (Michael W. Deem and Ramdas Pophale) SiO2 
 PCOD9060754
Probable space group: P -1
;
_chemical_formula_sum "Si O2"
_cell_formula_units_Z 14
_cell_length_a 19.561974
_cell_length_b 7.934031
_cell_length_c 7.596988
_cell_angle_alpha 142.674928
_cell_angle_beta 122.272950
_cell_angle_gamma 61.629578
_cell_volume 601.533211
_symmetry_space_group_name_H-M "P -1"
_symmetry_group_IT_number 2
_symmetry_cell_setting 'triclinic'
loop_
_space_group_symop_operation_xyz
x,y,z
-x,-y,-z
loop_
_atom_site_type_symbol
_atom_site_label
_atom_site_fract_x
_atom_site_fract_y
_atom_site_fract_z
Si Si1 0.853981 0.499152 0.868951
Si Si2 0.057884 0.716615 0.833374
Si Si3 0.573615 0.768431 0.357926
Si Si4 0.838344 0.137008 0.231399
Si Si5 0.325460 0.654649 0.412171
Si Si6 0.407628 0.104031 0.897886
Si Si7 0.349182 0.825537 0.960375
O O1 0.881613 0.311046 0.583065
O O2 0.765321 0.410517 0.731392
O O3 0.907503 0.412235 0.041549
O O4 0.847372 0.818005 0.053600
O O5 0.126426 0.792464 0.851246
O O6 0.000000 0.500000 0.500000
O O7 0.000000 0.000000 0.000000
O O8 0.575818 0.728552 0.120533
O O9 0.587164 0.443801 0.159604
O O10 0.500000 0.000000 0.500000
O O11 0.640723 0.905929 0.685939
O O12 0.742777 0.242886 0.188798
O O13 0.354323 0.857563 0.780415
O O14 0.351424 0.893166 0.520654
O O15 0.374345 0.366080 0.195905
O O16 0.500000 0.000000 0.000000
#
# Coordination Sequence:
#
# PCOD9060754 Si02
#       7
#     2   2   2   2   2   2   2
#     4  11  25  47  73 105 144 189 238 293 360 426
#     4  12  28  46  74 112 146 186 238 296 354 438
#     4  12  25  40  63  95 133 181 228 289 352 414
#     4  11  25  47  73 105 144 189 238 293 360 426
#     4  11  23  44  66  95 131 178 233 290 346 419
#     4  12  25  40  63  95 133 181 228 289 352 414
#     4  11  23  44  66  95 131 178 233 290 346 419
#
# _framework density 23.273859999999999
#
# number of rings (size 3 to 8) (size 9 to 14) (size 15 to 20)
#    0.000    0.571    0.000    9.429    4.000    3.429 
#    0.000    0.000    0.000    0.000    0.000    0.000 
#    0.000    0.000    0.000    0.000    0.000    0.000 
#
# Total GULP energy -77960.173411 kJ/mol
# GULP energy per Si atom -5568.583815 kJ/mol
# Density = 2.322089 g / cm^3
# Si number density = 23.273860 Si / 1000 Ang^3
#
#
#
# Elastic Constant Matrix: (Units=GPa)
#
#
# Indices 1 2 3 4 5 6 
#
# 1 67.2601 1.2025 12.6197 8.6372 -0.2582 -4.9773
# 2 1.2025 65.1301 20.7990 16.5116 1.5324 20.4759
# 3 12.6197 20.7990 123.5883 28.9412 -2.4022 15.5511
# 4 8.6372 16.5116 28.9412 45.2736 5.8019 -5.4373
# 5 -0.2582 1.5324 -2.4022 5.8019 35.8478 0.8108
# 6 -4.9773 20.4759 15.5511 -5.4373 0.8108 26.0620
#
#
#
# Elastic Compliance Matrix: (Units=1/GPa)
#
#
# Indices 1 2 3 4 5 6 
#
# 1 0.015685 -0.000910 -0.001794 -0.000975 0.000086 0.004574
# 2 -0.000910 0.025954 0.002125 -0.013861 0.001830 -0.024781
# 3 -0.001794 0.002125 0.011556 -0.009449 0.002448 -0.010955
# 4 -0.000975 -0.013861 -0.009449 0.037134 -0.006607 0.024295
# 5 0.000086 0.001830 0.002448 -0.006607 0.029168 -0.005168
# 6 0.004574 -0.024781 -0.010955 0.024295 -0.005168 0.070479
#
#
# Mechanical properties :
#
#
# Convention : Reuss Voigt Hill
#
# Bulk Modulus (GPa) = 19.21727 36.13568 27.67647
# Shear Modulus (GPa) = 23.98325 36.19382 30.08853
#
# Velocity S-wave (km/s) = 3.21359 3.94779 3.59946
# Velocity P-wave (km/s) = 4.69516 6.02827 5.40299
#
# Compressibility (1/GPa) = 0.05203653
#
# Stress axis : x y z
#
# Youngs Moduli (GPa) = 63.75680 38.52978 86.53757
#
# Poissons Ratio (x) = 0.03504 0.15525
# Poissons Ratio (y) = 0.05799 -0.18386
# Poissons Ratio (z) = 0.11438 -0.08186
#
# Static dielectric constant tensor:
#      x y z
#    x 1.914150 0.056250 0.026030 
#    y 0.056250 2.026730 -0.046120 
#    z 0.026030 -0.046120 1.920250 
# 
# From -- ./inp_files/223748.got.cif
#   From: 2010.05.17/outbox.cif.g08.bks.cpg/sg2_112_cif.got.tgz:223748.got - 2010.06.03 11:33:40.
