data_PCOD9060515
_publ_section_title
;
Structure prediction by ZEFSAII (Michael W. Deem and Ramdas Pophale) SiO2 
 PCOD9060515
Probable space group: P -1
;
_chemical_formula_sum "Si O2"
_cell_formula_units_Z 16
_cell_length_a 8.801576
_cell_length_b 5.085125
_cell_length_c 22.369104
_cell_angle_alpha 58.542562
_cell_angle_beta 64.618652
_cell_angle_gamma 91.789076
_cell_volume 728.166908
_symmetry_space_group_name_H-M "P -1"
_symmetry_group_IT_number 2
_symmetry_cell_setting 'triclinic'
loop_
_space_group_symop_operation_xyz
x,y,z
-x,-y,-z
loop_
_atom_site_type_symbol
_atom_site_label
_atom_site_fract_x
_atom_site_fract_y
_atom_site_fract_z
Si Si1 0.682890 0.105649 0.918713
Si Si2 0.978843 0.851651 0.956004
Si Si3 0.391351 0.127686 0.550157
Si Si4 0.237685 0.844815 0.350970
Si Si5 0.813591 0.900661 0.801771
Si Si6 0.890366 0.772325 0.493634
Si Si7 0.594836 0.287211 0.291386
Si Si8 0.196399 0.035689 0.779981
O O1 0.761972 0.503746 0.857208
O O2 0.804300 0.917878 0.952249
O O3 0.691449 0.993851 0.861742
O O4 0.500000 0.000000 0.000000
O O5 0.124671 0.002869 0.863278
O O6 0.000000 0.500000 0.000000
O O7 0.000000 0.000000 0.000000
O O8 0.500000 0.500000 0.500000
O O9 0.207688 0.064880 0.555021
O O10 0.500000 0.000000 0.500000
O O11 0.372536 0.955898 0.636702
O O12 0.265220 0.514115 0.411329
O O13 0.043189 0.739549 0.427037
O O14 0.217435 0.939058 0.274666
O O15 0.393992 0.146928 0.317100
O O16 0.023795 0.033651 0.769954
O O17 0.000000 0.000000 0.500000
O O18 0.645135 0.623379 0.279572
O O19 0.726896 0.247250 0.220806
#
# Coordination Sequence:
#
# PCOD9060515 Si02
#       8
#     2   2   2   2   2   2   2   2
#     4  11  25  46  74 109 144 186 235 290 356 432
#     4  11  23  43  72 101 141 180 230 282 349 418
#     4  12  25  45  69  97 132 183 231 287 348 405
#     4  11  27  44  66 106 136 188 232 296 351 416
#     4  11  25  46  72 102 148 188 235 286 358 423
#     4  11  26  44  71  96 144 182 241 290 357 417
#     4  12  25  43  68  98 139 177 241 285 344 412
#     4  11  25  44  67  99 137 185 226 284 344 414
#
# _framework density 21.972985999999999
#
# number of rings (size 3 to 8) (size 9 to 14) (size 15 to 20)
#    0.000    0.750    1.250    6.375    7.000    3.000 
#    0.000    0.000    0.000    0.000    0.000    0.000 
#    0.000    0.000    0.000    0.000    0.000    0.000 
#
# Total GULP energy -89197.126530 kJ/mol
# GULP energy per Si atom -5574.820408 kJ/mol
# Density = 2.192297 g / cm^3
# Si number density = 21.972986 Si / 1000 Ang^3
#
#
#
# Elastic Constant Matrix: (Units=GPa)
#
#
# Indices 1 2 3 4 5 6 
#
# 1 94.7606 25.1431 67.1882 10.5723 12.9610 14.4266
# 2 25.1431 141.3775 44.7109 8.7804 3.3493 4.8274
# 3 67.1882 44.7109 116.6556 19.7720 12.6166 0.2418
# 4 10.5723 8.7804 19.7720 40.3890 2.5260 -4.6669
# 5 12.9610 3.3493 12.6166 2.5260 43.1087 13.3390
# 6 14.4266 4.8274 0.2418 -4.6669 13.3390 34.9982
#
#
#
# Elastic Compliance Matrix: (Units=1/GPa)
#
#
# Indices 1 2 3 4 5 6 
#
# 1 0.019943 0.000418 -0.011516 -0.000623 -0.000067 -0.008257
# 2 0.000418 0.008126 -0.003354 -0.000468 0.000753 -0.001619
# 3 -0.011516 -0.003354 0.017466 -0.003970 -0.002910 0.005669
# 4 -0.000623 -0.000468 -0.003970 0.027612 -0.001677 0.004670
# 5 -0.000067 0.000753 -0.002910 -0.001677 0.027430 -0.010735
# 6 -0.008257 -0.001619 0.005669 0.004670 -0.010735 0.036875
#
#
# Mechanical properties :
#
#
# Convention : Reuss Voigt Hill
#
# Bulk Modulus (GPa) = 60.13032 69.65316 64.89174
# Shear Modulus (GPa) = 29.08636 38.08262 33.58449
#
# Velocity S-wave (km/s) = 3.64226 4.16764 3.91377
# Velocity P-wave (km/s) = 6.71663 7.41129 7.07249
#
# Compressibility (1/GPa) = 0.01663055
#
# Stress axis : x y z
#
# Youngs Moduli (GPa) = 50.14210 123.05923 57.25266
#
# Poissons Ratio (x) = -0.05138 0.65935
# Poissons Ratio (y) = -0.02094 0.19201
# Poissons Ratio (z) = 0.57746 0.41271
#
# Static dielectric constant tensor:
#      x y z
#    x 2.287520 -0.477660 0.250050 
#    y -0.477660 2.234360 -0.206430 
#    z 0.250050 -0.206430 1.893850 
# 
# From -- ./inp_files/605799.got.cif
#   From: 2010.05.17/outbox.cif.g08.bks.cpg/sg2_303_cif.got.tgz:605799.got - 2010.06.03 11:33:40.
