data_PCOD9060316
_publ_section_title
;
Structure prediction by ZEFSAII (Michael W. Deem and Ramdas Pophale) SiO2 
 PCOD9060316
Probable space group: P -1
;
_chemical_formula_sum "Si O2"
_cell_formula_units_Z 15
_cell_length_a 30.738679
_cell_length_b 12.584937
_cell_length_c 14.614088
_cell_angle_alpha 149.951462
_cell_angle_beta 19.774257
_cell_angle_gamma 159.716212
_cell_volume 655.984952
_symmetry_space_group_name_H-M "P -1"
_symmetry_group_IT_number 2
_symmetry_cell_setting 'triclinic'
loop_
_space_group_symop_operation_xyz
x,y,z
-x,-y,-z
loop_
_atom_site_type_symbol
_atom_site_label
_atom_site_fract_x
_atom_site_fract_y
_atom_site_fract_z
Si Si1 0.180146 0.300915 0.145455
Si Si2 0.789144 0.766474 0.281908
Si Si3 0.600982 0.834401 0.455378
Si Si4 0.305420 0.883491 0.321016
Si Si5 0.500000 0.500000 0.000000
Si Si6 0.217387 0.237395 0.222755
Si Si7 0.769818 0.635303 0.432291
Si Si8 0.221253 0.783555 0.796992
O O1 0.160271 0.518919 0.316540
O O2 0.257303 0.401916 0.171711
O O3 0.314884 0.302998 0.825616
O O4 0.979229 0.947682 0.281949
O O5 0.624234 0.457511 0.318760
O O6 0.774392 0.648967 0.323975
O O7 0.737874 0.954548 0.526927
O O8 0.000000 0.000000 0.000000
O O9 0.682951 0.030604 0.531933
O O10 0.671025 0.046056 0.384627
O O11 0.500000 0.000000 0.000000
O O12 0.339161 0.444269 0.222445
O O13 0.377342 0.374760 0.244052
O O14 0.000000 0.000000 0.500000
O O15 0.251377 0.029452 0.981464
O O16 0.721617 0.345334 0.349969
O O17 0.000000 0.500000 0.000000
#
# Coordination Sequence:
#
# PCOD9060316 Si02
#       8
#     2   2   2   2   1   2   2   2
#     4  11  24  47  76 106 149 198 255 312 376 469
#     4  12  29  51  73 109 157 200 259 332 376 452
#     4  11  25  49  77 108 151 198 258 317 382 460
#     4  12  28  47  81 103 139 211 262 300 387 460
#     4  12  26  42  70 108 156 190 240 326 376 458
#     4  11  23  43  69 107 148 191 245 305 380 454
#     4  12  26  47  73 112 155 191 250 319 392 456
#     4  11  23  44  79 107 146 203 242 304 397 471
#
# _framework density 22.866375999999999
#
# number of rings (size 3 to 8) (size 9 to 14) (size 15 to 20)
#    0.000    0.533    5.333    2.800    5.600    2.667 
#    2.400    0.000    0.000    0.000    0.000    0.000 
#    0.000    0.000    0.000    0.000    0.000    0.000 
#
# Total GULP energy -83709.888150 kJ/mol
# GULP energy per Si atom -5580.659210 kJ/mol
# Density = 2.281433 g / cm^3
# Si number density = 22.866376 Si / 1000 Ang^3
#
#
#
# Elastic Constant Matrix: (Units=GPa)
#
#
# Indices 1 2 3 4 5 6 
#
# 1 120.4564 21.9356 29.7801 9.2112 5.9265 -21.4022
# 2 21.9356 87.7209 16.4880 6.6233 -11.0316 -19.0041
# 3 29.7801 16.4880 110.0225 -17.7315 4.4150 -7.2943
# 4 9.2112 6.6233 -17.7315 48.8828 -1.9205 -8.8710
# 5 5.9265 -11.0316 4.4150 -1.9205 42.4794 1.0581
# 6 -21.4022 -19.0041 -7.2943 -8.8710 1.0581 36.4620
#
#
#
# Elastic Compliance Matrix: (Units=1/GPa)
#
#
# Indices 1 2 3 4 5 6 
#
# 1 0.010154 -0.001168 -0.002525 -0.001933 -0.001655 0.004424
# 2 -0.001168 0.013819 -0.001691 -0.001064 0.003734 0.005811
# 3 -0.002525 -0.001691 0.010909 0.004806 -0.001029 0.001018
# 4 -0.001933 -0.001064 0.004806 0.023635 0.000438 0.005010
# 5 -0.001655 0.003734 -0.001029 0.000438 0.024864 0.000154
# 6 0.004424 0.005811 0.001018 0.005010 0.000154 0.034469
#
#
# Mechanical properties :
#
#
# Convention : Reuss Voigt Hill
#
# Bulk Modulus (GPa) = 41.47055 50.51192 45.99124
# Shear Modulus (GPa) = 36.58782 42.23124 39.40953
#
# Velocity S-wave (km/s) = 4.00443 4.30219 4.15597
# Velocity P-wave (km/s) = 6.28936 6.84225 6.57162
#
# Compressibility (1/GPa) = 0.02411350
#
# Stress axis : x y z
#
# Youngs Moduli (GPa) = 98.48260 72.36601 91.66452
#
# Poissons Ratio (x) = 0.08455 0.23147
# Poissons Ratio (y) = 0.11506 0.15498
# Poissons Ratio (z) = 0.24869 0.12235
#
# Static dielectric constant tensor:
#      x y z
#    x 1.903700 0.016100 0.002680 
#    y 0.016100 1.922550 -0.019180 
#    z 0.002680 -0.019180 1.842180 
# 
# From -- ./inp_files/544969.got.cif
#   From: 2010.05.17/outbox.cif.g08.bks.cpg/sg2_273_cif.got.tgz:544969.got - 2010.06.03 11:33:40.
