data_PCOD9060158
_publ_section_title
;
Structure prediction by ZEFSAII (Michael W. Deem and Ramdas Pophale) SiO2 
 PCOD9060158
Probable space group: P -1
;
_chemical_formula_sum "Si O2"
_cell_formula_units_Z 10
_cell_length_a 16.129634
_cell_length_b 8.854238
_cell_length_c 12.751898
_cell_angle_alpha 53.224320
_cell_angle_beta 25.294453
_cell_angle_gamma 38.994753
_cell_volume 451.519725
_symmetry_space_group_name_H-M "P -1"
_symmetry_group_IT_number 2
_symmetry_cell_setting 'triclinic'
loop_
_space_group_symop_operation_xyz
x,y,z
-x,-y,-z
loop_
_atom_site_type_symbol
_atom_site_label
_atom_site_fract_x
_atom_site_fract_y
_atom_site_fract_z
Si Si1 0.371939 0.482814 0.756031
Si Si2 0.744464 0.477623 0.709046
Si Si3 0.159526 0.247969 0.851712
Si Si4 0.504969 0.696695 0.682914
Si Si5 0.660240 0.927142 0.738847
O O1 0.500000 0.500000 0.500000
O O2 0.418165 0.569651 0.773718
O O3 0.510488 0.187926 0.735681
O O4 0.054562 0.674001 0.022575
O O5 0.736545 0.508759 0.579978
O O6 0.683265 0.716501 0.736591
O O7 0.034755 0.216465 0.523876
O O8 0.500000 0.500000 0.000000
O O9 0.391585 0.229459 0.553736
O O10 0.271669 0.979712 0.885030
O O11 0.000000 0.500000 0.000000
O O12 0.500000 0.000000 0.000000
#
# Coordination Sequence:
#
# PCOD9060158 Si02
#       5
#     2   2   2   2   2
#     4  12  25  42  70 102 138 180 225 282 346 405
#     4  11  26  45  73 100 135 186 235 286 343 410
#     4  11  23  43  66  97 139 177 224 280 341 407
#     4  11  25  42  68 100 135 181 228 280 342 408
#     4  11  26  48  70 100 142 181 235 288 344 417
#
# _framework density 22.147425999999999
#
# number of rings (size 3 to 8) (size 9 to 14) (size 15 to 20)
#    0.000    0.800    2.000    4.200    5.600    6.400 
#    0.000    0.000    0.000    0.000    0.000    0.000 
#    0.000    0.000    0.000    0.000    0.000    0.000 
#
# Total GULP energy -55882.934849 kJ/mol
# GULP energy per Si atom -5588.293485 kJ/mol
# Density = 2.209702 g / cm^3
# Si number density = 22.147426 Si / 1000 Ang^3
#
#
#
# Elastic Constant Matrix: (Units=GPa)
#
#
# Indices 1 2 3 4 5 6 
#
# 1 79.2780 -12.7506 -8.9997 1.0451 -18.8118 9.6565
# 2 -12.7506 81.8832 14.3773 1.4071 -8.6415 -13.4012
# 3 -8.9997 14.3773 46.8845 -0.7745 -22.2985 8.4896
# 4 1.0451 1.4071 -0.7745 27.1992 -3.7199 -4.7017
# 5 -18.8118 -8.6415 -22.2985 -3.7199 48.5355 4.1899
# 6 9.6565 -13.4012 8.4896 -4.7017 4.1899 36.4825
#
#
#
# Elastic Compliance Matrix: (Units=1/GPa)
#
#
# Indices 1 2 3 4 5 6 
#
# 1 0.018078 0.000881 0.010856 -0.000137 0.012873 -0.008484
# 2 0.000881 0.014322 -0.005432 0.000145 -0.000139 0.006326
# 3 0.010856 -0.005432 0.038787 0.001232 0.022565 -0.016328
# 4 -0.000137 0.000145 0.001232 0.037970 0.003074 0.004343
# 5 0.012873 -0.000139 0.022565 0.003074 0.037258 -0.012592
# 6 -0.008484 0.006326 -0.016328 0.004343 -0.012592 0.037785
#
#
# Mechanical properties :
#
#
# Convention : Reuss Voigt Hill
#
# Bulk Modulus (GPa) = 11.93338 21.47775 16.70556
# Shear Modulus (GPa) = 25.06006 36.80470 30.93238
#
# Velocity S-wave (km/s) = 3.36744 4.08095 3.74124
# Velocity P-wave (km/s) = 4.52984 5.65015 5.12072
#
# Compressibility (1/GPa) = 0.08379853
#
# Stress axis : x y z
#
# Youngs Moduli (GPa) = 55.31621 69.82416 25.78163
#
# Poissons Ratio (x) = -0.06154 -0.27990
# Poissons Ratio (y) = -0.04875 0.14004
# Poissons Ratio (z) = -0.60053 0.37928
#
# Static dielectric constant tensor:
#      x y z
#    x 1.824500 0.029440 0.111060 
#    y 0.029440 1.944000 -0.026900 
#    z 0.111060 -0.026900 1.639020 
# 
# From -- ./inp_files/3385.got.cif
#   From: 2010.05.17/outbox.cif.g08.bks.cpg/sg2_2_cif.got.tgz:3385.got - 2010.06.03 11:33:40.
