data_PCOD9060085
_publ_section_title
;
Structure prediction by ZEFSAII (Michael W. Deem and Ramdas Pophale) SiO2 
 PCOD9060085
Probable space group: P -1
;
_chemical_formula_sum "Si O2"
_cell_formula_units_Z 16
_cell_length_a 5.010779
_cell_length_b 16.681357
_cell_length_c 9.874247
_cell_angle_alpha 56.265588
_cell_angle_beta 98.452285
_cell_angle_gamma 101.213980
_cell_volume 672.508119
_symmetry_space_group_name_H-M "P -1"
_symmetry_group_IT_number 2
_symmetry_cell_setting 'triclinic'
loop_
_space_group_symop_operation_xyz
x,y,z
-x,-y,-z
loop_
_atom_site_type_symbol
_atom_site_label
_atom_site_fract_x
_atom_site_fract_y
_atom_site_fract_z
Si Si1 0.254195 0.736189 0.145649
Si Si2 0.726439 0.751851 0.952551
Si Si3 0.339297 0.585847 0.959866
Si Si4 0.387728 0.638841 0.515081
Si Si5 0.127783 0.111503 0.395376
Si Si6 0.238335 0.937991 0.104140
Si Si7 0.294092 0.836187 0.480019
Si Si8 0.918550 0.552157 0.725786
O O1 0.502519 0.768030 0.031973
O O2 0.348667 0.663394 0.332590
O O3 0.194199 0.832930 0.128896
O O4 0.967999 0.702319 0.082917
O O5 0.552353 0.682017 0.896808
O O6 0.869151 0.845580 0.795438
O O7 0.232299 0.549927 0.133428
O O8 0.683134 0.611591 0.599746
O O9 0.088646 0.593715 0.833535
O O10 0.334213 0.735034 0.504918
O O11 0.152151 0.555198 0.627830
O O12 0.436967 0.124542 0.454769
O O13 0.957963 0.170785 0.429658
O O14 0.000000 0.000000 0.500000
O O15 0.260148 0.913561 0.286826
O O16 0.500000 0.000000 0.000000
O O17 0.000000 0.000000 0.000000
O O18 0.500000 0.500000 0.000000
#
# Coordination Sequence:
#
# PCOD9060085 Si02
#       8
#     2   2   2   2   2   2   2   2
#     4  11  27  47  70 105 144 193 239 287 373 423
#     4  12  28  47  71 102 154 185 231 303 367 431
#     4  11  26  45  75 111 141 190 239 293 366 427
#     4  11  23  45  74 103 138 189 236 299 341 431
#     4  12  27  44  70 103 142 187 231 295 363 425
#     4  11  24  43  75  97 134 187 241 299 340 415
#     4  11  25  43  68 101 135 178 246 281 353 416
#     4  11  23  42  77 104 141 173 250 287 350 419
#
# _framework density 23.791533999999999
#
# number of rings (size 3 to 8) (size 9 to 14) (size 15 to 20)
#    0.000    0.750    1.250    4.875   10.500    4.000 
#    0.000    3.750    0.000    0.000    0.000    0.000 
#    0.000    0.000    0.000    0.000    0.000    0.000 
#
# Total GULP energy -89689.474100 kJ/mol
# GULP energy per Si atom -5605.592131 kJ/mol
# Density = 2.373738 g / cm^3
# Si number density = 23.791534 Si / 1000 Ang^3
#
#
#
# Elastic Constant Matrix: (Units=GPa)
#
#
# Indices 1 2 3 4 5 6 
#
# 1 180.2780 12.0810 67.8196 12.3390 19.1945 13.0740
# 2 12.0810 39.8266 16.4686 -11.7761 7.1451 2.3021
# 3 67.8196 16.4686 149.4643 5.6227 1.9022 16.1705
# 4 12.3390 -11.7761 5.6227 33.0599 6.5781 -7.5263
# 5 19.1945 7.1451 1.9022 6.5781 49.6413 4.4816
# 6 13.0740 2.3021 16.1705 -7.5263 4.4816 31.6607
#
#
#
# Elastic Compliance Matrix: (Units=1/GPa)
#
#
# Indices 1 2 3 4 5 6 
#
# 1 0.007221 -0.001387 -0.002798 -0.002739 -0.001957 -0.001826
# 2 -0.001387 0.032516 -0.003953 0.015128 -0.006425 0.004733
# 3 -0.002798 -0.003953 0.008946 -0.003264 0.002120 -0.004202
# 4 -0.002739 0.015128 -0.003264 0.041623 -0.007653 0.012676
# 5 -0.001957 -0.006425 0.002120 -0.007653 0.023202 -0.004911
# 6 -0.001826 0.004733 -0.004202 0.012676 -0.004911 0.037849
#
#
# Mechanical properties :
#
#
# Convention : Reuss Voigt Hill
#
# Bulk Modulus (GPa) = 30.85679 62.47861 46.66770
# Shear Modulus (GPa) = 28.02124 41.08568 34.55346
#
# Velocity S-wave (km/s) = 3.43561 4.16011 3.81510
# Velocity P-wave (km/s) = 5.36057 7.02803 6.25016
#
# Compressibility (1/GPa) = 0.03240778
#
# Stress axis : x y z
#
# Youngs Moduli (GPa) = 138.48704 30.75394 111.77856
#
# Poissons Ratio (x) = 0.04264 0.31278
# Poissons Ratio (y) = 0.19202 0.44186
# Poissons Ratio (z) = 0.38752 0.12157
#
# Static dielectric constant tensor:
#      x y z
#    x 1.837960 -0.031390 -0.008700 
#    y -0.031390 1.941030 0.015260 
#    z -0.008700 0.015260 1.903180 
# 
# From -- ./inp_files/142242.got.cif
#   From: 2010.05.17/outbox.cif.g08.bks.cpg/sg2_72_cif.got.tgz:142242.got - 2010.06.03 11:33:40.
