data_PCOD9060117
_publ_section_title
;
Structure prediction by ZEFSAII (Michael W. Deem and Ramdas Pophale) SiO2 
 PCOD9060117
Probable space group: P -1
;
_chemical_formula_sum "Si O2"
_cell_formula_units_Z 14
_cell_length_a 6.836486
_cell_length_b 5.124614
_cell_length_c 21.783148
_cell_angle_alpha 96.611835
_cell_angle_beta 114.310378
_cell_angle_gamma 107.816473
_cell_volume 636.054156
_symmetry_space_group_name_H-M "P -1"
_symmetry_group_IT_number 2
_symmetry_cell_setting 'triclinic'
loop_
_space_group_symop_operation_xyz
x,y,z
-x,-y,-z
loop_
_atom_site_type_symbol
_atom_site_label
_atom_site_fract_x
_atom_site_fract_y
_atom_site_fract_z
Si Si1 0.084284 0.312241 0.960485
Si Si2 0.508418 0.244065 0.054299
Si Si3 0.153292 0.315691 0.504200
Si Si4 0.689683 0.177936 0.809042
Si Si5 0.314961 0.416548 0.387120
Si Si6 0.585981 0.415114 0.204007
Si Si7 0.886109 0.208453 0.703589
O O1 0.294517 0.481185 0.944381
O O2 0.869054 0.159627 0.883521
O O3 0.235931 0.193410 0.019721
O O4 0.000000 0.500000 0.000000
O O5 0.592581 0.265189 0.135454
O O6 0.500000 0.000000 0.000000
O O7 0.219848 0.326068 0.441259
O O8 0.000000 0.500000 0.500000
O O9 0.404471 0.456539 0.573494
O O10 0.000000 0.000000 0.500000
O O11 0.575426 0.402445 0.818504
O O12 0.818415 0.277006 0.764185
O O13 0.506906 0.852914 0.769720
O O14 0.232806 0.657775 0.357637
O O15 0.204711 0.129997 0.325392
O O16 0.837036 0.638066 0.262032
#
# Coordination Sequence:
#
# PCOD9060117 Si02
#       7
#     2   2   2   2   2   2   2
#     4  11  23  43  65  95 128 174 234 298 359 420
#     4  11  25  40  68  94 130 174 231 302 367 419
#     4  11  24  45  76 110 146 178 232 279 328 402
#     4  12  27  44  70  97 135 185 236 289 361 419
#     4  11  26  45  73 107 141 190 225 277 341 400
#     4  12  27  45  66 100 133 182 235 288 352 427
#     4  12  26  47  68 100 149 182 233 283 339 418
#
# _framework density 22.010704
#
# number of rings (size 3 to 8) (size 9 to 14) (size 15 to 20)
#    0.000    0.571    2.857    4.286    4.000   11.429 
#    0.000    0.000    0.000    0.000    0.000    0.000 
#    0.000    0.000    0.000    0.000    0.000    0.000 
#
# Total GULP energy -78254.461203 kJ/mol
# GULP energy per Si atom -5589.604372 kJ/mol
# Density = 2.196061 g / cm^3
# Si number density = 22.010704 Si / 1000 Ang^3
#
#
#
# Elastic Constant Matrix: (Units=GPa)
#
#
# Indices 1 2 3 4 5 6 
#
# 1 117.3421 24.6843 19.8545 10.5876 18.5318 -1.4139
# 2 24.6843 89.4199 -10.2162 8.0049 5.8347 5.6354
# 3 19.8545 -10.2162 46.3831 10.0614 8.1925 5.4335
# 4 10.5876 8.0049 10.0614 37.1788 3.1471 -1.5103
# 5 18.5318 5.8347 8.1925 3.1471 28.3251 1.6371
# 6 -1.4139 5.6354 5.4335 -1.5103 1.6371 46.6631
#
#
#
# Elastic Compliance Matrix: (Units=1/GPa)
#
#
# Indices 1 2 3 4 5 6 
#
# 1 0.010838 -0.003187 -0.004441 -0.000706 -0.005152 0.001388
# 2 -0.003187 0.013278 0.005623 -0.003422 -0.001757 -0.002404
# 3 -0.004441 0.005623 0.027651 -0.007153 -0.005220 -0.004082
# 4 -0.000706 -0.003422 -0.007153 0.029878 -0.000211 0.002199
# 5 -0.005152 -0.001757 -0.005220 -0.000211 0.040614 -0.000768
# 6 0.001388 -0.002404 -0.004082 0.002199 -0.000768 0.022336
#
#
# Mechanical properties :
#
#
# Convention : Reuss Voigt Hill
#
# Bulk Modulus (GPa) = 20.93953 35.75448 28.34700
# Shear Modulus (GPa) = 30.39072 37.02157 33.70615
#
# Velocity S-wave (km/s) = 3.71984 4.10564 3.91750
# Velocity P-wave (km/s) = 5.28995 6.22531 5.77660
#
# Compressibility (1/GPa) = 0.04775656
#
# Stress axis : x y z
#
# Youngs Moduli (GPa) = 92.26782 75.31264 36.16538
#
# Poissons Ratio (x) = 0.24005 0.16061
# Poissons Ratio (y) = 0.29409 -0.20336
# Poissons Ratio (z) = 0.40975 -0.42350
#
# Static dielectric constant tensor:
#      x y z
#    x 1.947530 0.078390 -0.008260 
#    y 0.078390 1.908740 -0.041450 
#    z -0.008260 -0.041450 1.812800 
# 
# From -- ./inp_files/602996.got.cif
#   From: 2010.05.17/outbox.cif.g08.bks.cpg/sg2_302_cif.got.tgz:602996.got - 2010.06.03 11:33:40.
