data_PCOD9060662
_publ_section_title
;
Structure prediction by ZEFSAII (Michael W. Deem and Ramdas Pophale) SiO2 
 PCOD9060662
Probable space group: P -1
;
_chemical_formula_sum "Si O2"
_cell_formula_units_Z 16
_cell_length_a 21.374556
_cell_length_b 17.708061
_cell_length_c 11.820489
_cell_angle_alpha 151.933979
_cell_angle_beta 36.520539
_cell_angle_gamma 159.329150
_cell_volume 736.541607
_symmetry_space_group_name_H-M "P -1"
_symmetry_group_IT_number 2
_symmetry_cell_setting 'triclinic'
loop_
_space_group_symop_operation_xyz
x,y,z
-x,-y,-z
loop_
_atom_site_type_symbol
_atom_site_label
_atom_site_fract_x
_atom_site_fract_y
_atom_site_fract_z
Si Si1 0.366565 0.111920 0.466275
Si Si2 0.002741 0.668654 0.547251
Si Si3 0.523161 0.585467 0.710796
Si Si4 0.549909 0.148543 0.744431
Si Si5 0.311211 0.638107 0.561460
Si Si6 0.958766 0.627603 0.809982
Si Si7 0.841906 0.408360 0.052344
Si Si8 0.051947 0.902493 0.236669
O O1 0.429177 0.329103 0.579677
O O2 0.529796 0.290799 0.553753
O O3 0.182051 0.909879 0.534160
O O4 0.314080 0.891516 0.174054
O O5 0.955170 0.419680 0.312130
O O6 0.846933 0.570322 0.576651
O O7 0.030875 0.752659 0.746716
O O8 0.500000 0.500000 0.500000
O O9 0.737863 0.862039 0.769254
O O10 0.453542 0.664622 0.977145
O O11 0.749873 0.332247 0.715957
O O12 0.500000 0.000000 0.500000
O O13 0.418615 0.922228 0.732479
O O14 0.232026 0.574641 0.716263
O O15 0.979631 0.811068 0.094774
O O16 0.941553 0.632429 0.107990
O O17 0.000000 0.500000 0.000000
O O18 0.000000 0.000000 0.500000
#
# Coordination Sequence:
#
# PCOD9060662 Si02
#       8
#     2   2   2   2   2   2   2   2
#     4  12  25  46  70 110 149 193 246 316 374 443
#     4  11  23  43  75 103 145 190 249 306 361 445
#     4  12  28  48  72 112 155 193 250 317 378 449
#     4  12  24  45  76 110 147 202 253 302 377 457
#     4  12  23  41  73 107 140 193 252 301 372 445
#     4  11  23  45  74 108 142 195 255 305 369 447
#     4  12  22  41  72 102 142 192 247 304 369 440
#     4  12  25  45  71 106 145 197 241 308 377 441
#
# _framework density 21.723146
#
# number of rings (size 3 to 8) (size 9 to 14) (size 15 to 20)
#    0.000    0.250    5.000    4.875    1.750    0.000 
#    2.250    4.375    0.000    0.000    0.000    0.000 
#    0.000    0.000    0.000    0.000    0.000    0.000 
#
# Total GULP energy -89264.618411 kJ/mol
# GULP energy per Si atom -5579.038651 kJ/mol
# Density = 2.167370 g / cm^3
# Si number density = 21.723146 Si / 1000 Ang^3
#
#
#
# Elastic Constant Matrix: (Units=GPa)
#
#
# Indices 1 2 3 4 5 6 
#
# 1 114.7932 41.8115 49.7356 6.1747 9.4780 -11.2713
# 2 41.8115 90.4367 16.4677 7.7400 1.6898 -14.0761
# 3 49.7356 16.4677 113.4939 -8.5481 15.1016 -15.9987
# 4 6.1747 7.7400 -8.5481 25.1656 -5.7996 0.2128
# 5 9.4780 1.6898 15.1016 -5.7996 36.2585 1.2765
# 6 -11.2713 -14.0761 -15.9987 0.2128 1.2765 51.1914
#
#
#
# Elastic Compliance Matrix: (Units=1/GPa)
#
#
# Indices 1 2 3 4 5 6 
#
# 1 0.012967 -0.004708 -0.005060 -0.003840 -0.001678 0.000037
# 2 -0.004708 0.013906 0.000232 -0.003093 -0.000110 0.002875
# 3 -0.005060 0.000232 0.012148 0.004554 -0.003118 0.002805
# 4 -0.003840 -0.003093 0.004554 0.044661 0.006416 -0.000618
# 5 -0.001678 -0.000110 -0.003118 0.006416 0.030425 -0.002160
# 6 0.000037 0.002875 0.002805 -0.000618 -0.002160 0.021266
#
#
# Mechanical properties :
#
#
# Convention : Reuss Voigt Hill
#
# Bulk Modulus (GPa) = 50.12497 59.41703 54.77100
# Shear Modulus (GPa) = 31.03772 36.57038 33.80405
#
# Velocity S-wave (km/s) = 3.78403 4.10747 3.94906
# Velocity P-wave (km/s) = 6.49741 7.06445 6.78685
#
# Compressibility (1/GPa) = 0.01995014
#
# Stress axis : x y z
#
# Youngs Moduli (GPa) = 77.11788 71.91121 82.31748
#
# Poissons Ratio (x) = 0.33856 0.41653
# Poissons Ratio (y) = 0.36307 -0.01914
# Poissons Ratio (z) = 0.39022 -0.01672
#
# Static dielectric constant tensor:
#      x y z
#    x 1.787070 0.028650 0.022710 
#    y 0.028650 1.826780 0.011320 
#    z 0.022710 0.011320 1.869920 
# 
# From -- ./inp_files/472486.got.cif
#   From: 2010.05.17/outbox.cif.g08.bks.cpg/sg2_237_cif.got.tgz:472486.got - 2010.06.03 11:33:40.
