data_PCOD9060013
_publ_section_title
;
Structure prediction by ZEFSAII (Michael W. Deem and Ramdas Pophale) SiO2 
 PCOD9060013
Probable space group: P -1
;
_chemical_formula_sum "Si O2"
_cell_formula_units_Z 16
_cell_length_a 17.947433
_cell_length_b 12.306717
_cell_length_c 9.224524
_cell_angle_alpha 129.256293
_cell_angle_beta 48.197996
_cell_angle_gamma 147.357444
_cell_volume 806.189164
_symmetry_space_group_name_H-M "P -1"
_symmetry_group_IT_number 2
_symmetry_cell_setting 'triclinic'
loop_
_space_group_symop_operation_xyz
x,y,z
-x,-y,-z
loop_
_atom_site_type_symbol
_atom_site_label
_atom_site_fract_x
_atom_site_fract_y
_atom_site_fract_z
Si Si1 0.850135 0.268077 0.465586
Si Si2 0.371834 0.612098 0.586879
Si Si3 0.652044 0.878018 0.899385
Si Si4 0.867286 0.951661 0.202079
Si Si5 0.552685 0.561416 0.149001
Si Si6 0.149425 0.146209 0.516995
Si Si7 0.393075 0.003493 0.210259
Si Si8 0.344361 0.868492 0.667656
O O1 0.781384 0.248396 0.387041
O O2 0.000000 0.500000 0.500000
O O3 0.879845 0.131588 0.312930
O O4 0.721275 0.162837 0.661768
O O5 0.461377 0.601952 0.356215
O O6 0.232650 0.380114 0.619033
O O7 0.495472 0.769372 0.677666
O O8 0.326966 0.715689 0.665038
O O9 0.497597 0.639962 0.890279
O O10 0.758586 0.857413 0.716105
O O11 0.690017 0.014806 0.830810
O O12 0.654575 0.982757 0.122008
O O13 0.718656 0.755167 0.145503
O O14 0.859727 0.918630 0.359260
O O15 0.000000 0.000000 0.000000
O O16 0.500000 0.500000 0.000000
O O17 0.000000 0.000000 0.500000
O O18 0.500000 0.000000 0.000000
O O19 0.500000 0.000000 0.500000
#
# Coordination Sequence:
#
# PCOD9060013 Si02
#       8
#     2   2   2   2   2   2   2   2
#     4  12  28  46  69 102 148 184 229 294 359 411
#     4  11  23  42  75 100 137 179 235 287 340 418
#     4  11  23  42  75  98 138 179 231 287 345 413
#     4  12  27  47  69 100 143 182 234 288 352 424
#     4  11  23  42  73 104 134 181 236 284 349 412
#     4  11  27  46  70 101 142 183 235 287 351 413
#     4  12  22  45  71 105 135 184 236 288 348 419
#     4  12  23  44  71 107 138 178 233 288 345 428
#
# _framework density 19.846457999999998
#
# number of rings (size 3 to 8) (size 9 to 14) (size 15 to 20)
#    0.000    0.500    5.000    2.250    7.000    5.000 
#    0.000    1.250    0.000    0.000    0.000    0.000 
#    0.000    0.000    0.000    0.000    0.000    0.000 
#
# Total GULP energy -89267.239459 kJ/mol
# GULP energy per Si atom -5579.202466 kJ/mol
# Density = 1.980129 g / cm^3
# Si number density = 19.846458 Si / 1000 Ang^3
#
#
#
# Elastic Constant Matrix: (Units=GPa)
#
#
# Indices 1 2 3 4 5 6 
#
# 1 92.3678 49.2342 26.2299 2.0236 8.8871 16.2550
# 2 49.2342 121.5967 45.8477 9.1150 1.4003 27.2003
# 3 26.2299 45.8477 140.8433 11.0090 -2.4755 15.3291
# 4 2.0236 9.1150 11.0090 24.4245 3.8677 4.0416
# 5 8.8871 1.4003 -2.4755 3.8677 38.0220 6.5757
# 6 16.2550 27.2003 15.3291 4.0416 6.5757 37.2529
#
#
#
# Elastic Compliance Matrix: (Units=1/GPa)
#
#
# Indices 1 2 3 4 5 6 
#
# 1 0.014449 -0.005184 -0.001023 0.001989 -0.003151 -0.001758
# 2 -0.005184 0.012728 -0.002272 -0.002582 0.001922 -0.006156
# 3 -0.001023 -0.002272 0.008419 -0.002868 0.001386 -0.001293
# 4 0.001989 -0.002582 -0.002868 0.044073 -0.004737 -0.001748
# 5 -0.003151 0.001922 0.001386 -0.004737 0.028421 -0.005102
# 6 -0.001758 -0.006156 -0.001293 -0.001748 -0.005102 0.033727
#
#
# Mechanical properties :
#
#
# Convention : Reuss Voigt Hill
#
# Bulk Modulus (GPa) = 53.65362 66.38127 60.01745
# Shear Modulus (GPa) = 30.30502 35.50629 32.90565
#
# Velocity S-wave (km/s) = 3.91189 4.23430 4.07629
# Velocity P-wave (km/s) = 6.89180 7.57798 7.24302
#
# Compressibility (1/GPa) = 0.01863807
#
# Stress axis : x y z
#
# Youngs Moduli (GPa) = 69.20855 78.56628 118.77254
#
# Poissons Ratio (x) = 0.40731 0.12148
# Poissons Ratio (y) = 0.35880 0.26988
# Poissons Ratio (z) = 0.07079 0.17852
#
# Static dielectric constant tensor:
#      x y z
#    x 1.710510 -0.028170 -0.005940 
#    y -0.028170 1.704070 -0.041150 
#    z -0.005940 -0.041150 1.612240 
# 
# From -- ./inp_files/187618.got.cif
#   From: 2010.05.17/outbox.cif.g08.bks.cpg/sg2_94_cif.got.tgz:187618.got - 2010.06.03 11:33:40.
