data_PCOD9060834
_publ_section_title
;
Structure prediction by ZEFSAII (Michael W. Deem and Ramdas Pophale) SiO2 
 PCOD9060834
Probable space group: P -1
;
_chemical_formula_sum "Si O2"
_cell_formula_units_Z 13
_cell_length_a 8.810275
_cell_length_b 9.809748
_cell_length_c 6.853622
_cell_angle_alpha 69.272637
_cell_angle_beta 88.621347
_cell_angle_gamma 97.302919
_cell_volume 547.978019
_symmetry_space_group_name_H-M "P -1"
_symmetry_group_IT_number 2
_symmetry_cell_setting 'triclinic'
loop_
_space_group_symop_operation_xyz
x,y,z
-x,-y,-z
loop_
_atom_site_type_symbol
_atom_site_label
_atom_site_fract_x
_atom_site_fract_y
_atom_site_fract_z
Si Si1 0.539806 0.663739 0.504353
Si Si2 0.898079 0.020442 0.806080
Si Si3 0.392217 0.862792 0.673155
Si Si4 0.952170 0.188309 0.366592
Si Si5 0.676486 0.575004 0.916931
Si Si6 0.000000 0.500000 0.000000
Si Si7 0.612188 0.834259 0.028069
O O1 0.500000 0.500000 0.500000
O O2 0.407780 0.722645 0.605318
O O3 0.671336 0.648995 0.666298
O O4 0.579215 0.785627 0.274094
O O5 0.724313 0.983978 0.903425
O O6 0.930504 0.903855 0.697930
O O7 0.944724 0.170989 0.609984
O O8 0.000000 0.000000 0.000000
O O9 0.216422 0.883134 0.668571
O O10 0.464796 0.836077 0.894494
O O11 0.500000 0.000000 0.500000
O O12 0.986767 0.353184 0.208738
O O13 0.700760 0.703629 0.011353
O O14 0.500000 0.500000 0.000000
O O15 0.808831 0.475806 0.983705
#
# Coordination Sequence:
#
# PCOD9060834 Si02
#       7
#     2   2   2   2   2   1   2
#     4  11  25  41  71 103 139 185 234 293 363 429
#     4  11  26  45  69  98 139 189 230 285 363 428
#     4  11  25  45  71 101 138 185 236 295 357 427
#     4  11  26  47  68 100 144 180 237 297 356 426
#     4  11  23  46  69  99 146 187 231 294 368 422
#     4  12  24  44  72 104 136 188 236 296 352 430
#     4  11  23  44  68  96 138 185 231 287 362 422
#
# _framework density 23.723578
#
# number of rings (size 3 to 8) (size 9 to 14) (size 15 to 20)
#    0.000    0.923    4.615    1.846    4.308    1.846 
#    0.000    1.538    0.000    0.000    0.000    0.000 
#    0.000    0.000    0.000    0.000    0.000    0.000 
#
# Total GULP energy -72451.552574 kJ/mol
# GULP energy per Si atom -5573.196352 kJ/mol
# Density = 2.366958 g / cm^3
# Si number density = 23.723578 Si / 1000 Ang^3
#
#
#
# Elastic Constant Matrix: (Units=GPa)
#
#
# Indices 1 2 3 4 5 6 
#
# 1 122.2695 7.2120 46.1491 -6.0743 -2.2967 -0.1879
# 2 7.2120 69.0118 36.8812 -15.3784 -12.7167 -1.8879
# 3 46.1491 36.8812 208.8988 -32.3687 6.5486 0.6353
# 4 -6.0743 -15.3784 -32.3687 51.5858 4.3507 -3.6377
# 5 -2.2967 -12.7167 6.5486 4.3507 42.8267 -14.8425
# 6 -0.1879 -1.8879 0.6353 -3.6377 -14.8425 32.1078
#
#
#
# Elastic Compliance Matrix: (Units=1/GPa)
#
#
# Indices 1 2 3 4 5 6 
#
# 1 0.008968 0.000378 -0.002119 -0.000214 0.001156 0.000627
# 2 0.000378 0.018288 -0.003040 0.003319 0.007267 0.004873
# 3 -0.002119 -0.003040 0.006340 0.002964 -0.002715 -0.001236
# 4 -0.000214 0.003319 0.002964 0.022450 -0.000990 0.002221
# 5 0.001156 0.007267 -0.002715 -0.000990 0.031217 0.014806
# 6 0.000627 0.004873 -0.001236 0.002221 0.014806 0.038556
#
#
# Mechanical properties :
#
#
# Convention : Reuss Voigt Hill
#
# Bulk Modulus (GPa) = 41.61086 64.51831 53.06459
# Shear Modulus (GPa) = 34.86903 45.96656 40.41780
#
# Velocity S-wave (km/s) = 3.83796 4.40658 4.13206
# Velocity P-wave (km/s) = 6.10065 7.29010 6.72173
#
# Compressibility (1/GPa) = 0.02403219
#
# Stress axis : x y z
#
# Youngs Moduli (GPa) = 111.50370 54.68143 157.72419
#
# Poissons Ratio (x) = -0.02066 0.33427
# Poissons Ratio (y) = -0.04213 0.47956
# Poissons Ratio (z) = 0.23631 0.16626
#
# Static dielectric constant tensor:
#      x y z
#    x 1.926710 0.017040 -0.038310 
#    y 0.017040 1.949470 -0.016900 
#    z -0.038310 -0.016900 1.939290 
# 
# From -- ./inp_files/23223.got.cif
#   From: 2010.05.17/outbox.cif.g08.bks.cpg/sg2_12_cif.got.tgz:23223.got - 2010.06.03 11:33:40.
