data_PCOD9060608
_publ_section_title
;
Structure prediction by ZEFSAII (Michael W. Deem and Ramdas Pophale) SiO2 
 PCOD9060608
Probable space group: P -1
;
_chemical_formula_sum "Si O2"
_cell_formula_units_Z 16
_cell_length_a 22.295448
_cell_length_b 10.000951
_cell_length_c 11.827766
_cell_angle_alpha 40.988754
_cell_angle_beta 145.779765
_cell_angle_gamma 153.394405
_cell_volume 662.964260
_symmetry_space_group_name_H-M "P -1"
_symmetry_group_IT_number 2
_symmetry_cell_setting 'triclinic'
loop_
_space_group_symop_operation_xyz
x,y,z
-x,-y,-z
loop_
_atom_site_type_symbol
_atom_site_label
_atom_site_fract_x
_atom_site_fract_y
_atom_site_fract_z
Si Si1 0.131075 0.470916 0.181938
Si Si2 0.847859 0.037583 0.143463
Si Si3 0.011374 0.784589 0.115891
Si Si4 0.337044 0.541022 0.925645
Si Si5 0.826239 0.309318 0.312340
Si Si6 0.546244 0.261837 0.472261
Si Si7 0.647441 0.813499 0.193238
Si Si8 0.636752 0.743439 0.645554
O O1 0.277611 0.535056 0.342924
O O2 0.034649 0.272589 0.269660
O O3 0.179857 0.775740 0.073158
O O4 0.013318 0.281021 0.013924
O O5 0.767271 0.738388 0.144010
O O6 0.776070 0.964937 0.201346
O O7 0.867279 0.472506 0.151619
O O8 0.187569 0.965872 0.308192
O O9 0.000000 0.000000 0.000000
O O10 0.262926 0.653473 0.772184
O O11 0.511540 0.793248 0.983415
O O12 0.348316 0.422738 0.134812
O O13 0.000000 0.500000 0.500000
O O14 0.726459 0.974384 0.334111
O O15 0.554648 0.471755 0.272235
O O16 0.426273 0.148875 0.454672
O O17 0.500000 0.000000 0.500000
O O18 0.500000 0.500000 0.500000
#
# Coordination Sequence:
#
# PCOD9060608 Si02
#       8
#     2   2   2   2   2   2   2   2
#     4  11  23  43  74 101 143 184 237 294 353 422
#     4  11  23  45  74 100 137 189 235 289 357 420
#     4  12  23  45  75 100 138 192 242 289 355 423
#     4  11  24  47  69  99 143 184 235 289 354 422
#     4  12  28  47  69 106 146 187 237 296 356 418
#     4  11  27  46  69 106 146 180 240 296 354 427
#     4  11  26  46  71 102 143 188 231 292 363 422
#     4  11  24  42  72 104 138 185 239 291 353 420
#
# _framework density 24.134031
#
# number of rings (size 3 to 8) (size 9 to 14) (size 15 to 20)
#    0.000    0.750    3.750    3.000    8.750    0.500 
#    4.500    0.000    0.000    0.000    0.000    0.000 
#    0.000    0.000    0.000    0.000    0.000    0.000 
#
# Total GULP energy -89538.099904 kJ/mol
# GULP energy per Si atom -5596.131244 kJ/mol
# Density = 2.407910 g / cm^3
# Si number density = 24.134031 Si / 1000 Ang^3
#
#
#
# Elastic Constant Matrix: (Units=GPa)
#
#
# Indices 1 2 3 4 5 6 
#
# 1 173.8135 63.3477 41.2795 7.0855 36.1122 -24.4297
# 2 63.3477 99.8209 14.4620 13.4857 11.6902 -21.9975
# 3 41.2795 14.4620 62.6273 16.5056 29.5588 -16.0099
# 4 7.0855 13.4857 16.5056 31.0961 4.3951 3.2186
# 5 36.1122 11.6902 29.5588 4.3951 41.1494 3.5609
# 6 -24.4297 -21.9975 -16.0099 3.2186 3.5609 49.4304
#
#
#
# Elastic Compliance Matrix: (Units=1/GPa)
#
#
# Indices 1 2 3 4 5 6 
#
# 1 0.009441 -0.004788 -0.002479 0.001812 -0.005512 0.002011
# 2 -0.004788 0.015466 0.005543 -0.008754 -0.003857 0.007159
# 3 -0.002479 0.005543 0.038359 -0.020236 -0.026252 0.016874
# 4 0.001812 -0.008754 -0.020236 0.046019 0.011676 -0.013392
# 5 -0.005512 -0.003857 -0.026252 0.011676 0.049339 -0.017258
# 6 0.002011 0.007159 0.016874 -0.013392 -0.017258 0.031991
#
#
# Mechanical properties :
#
#
# Convention : Reuss Voigt Hill
#
# Bulk Modulus (GPa) = 16.71786 63.82670 40.27228
# Shear Modulus (GPa) = 23.36410 38.81333 31.08871
#
# Velocity S-wave (km/s) = 3.11480 4.01464 3.59300
# Velocity P-wave (km/s) = 4.45849 6.92777 5.82546
#
# Compressibility (1/GPa) = 0.05981625
#
# Stress axis : x y z
#
# Youngs Moduli (GPa) = 105.91798 64.65881 26.06940
#
# Poissons Ratio (x) = 0.30962 0.06463
# Poissons Ratio (y) = 0.50719 -0.14450
# Poissons Ratio (z) = 0.26260 -0.35839
#
# Static dielectric constant tensor:
#      x y z
#    x 1.906240 0.064910 -0.019310 
#    y 0.064910 1.948920 0.010000 
#    z -0.019310 0.010000 1.983750 
# 
# From -- ./inp_files/469864.got.cif
#   From: 2010.05.17/outbox.cif.g08.bks.cpg/sg2_235_cif.got.tgz:469864.got - 2010.06.03 11:33:40.
