data_PCOD9060151
_publ_section_title
;
Structure prediction by ZEFSAII (Michael W. Deem and Ramdas Pophale) SiO2 
 PCOD9060151
Probable space group: P -1
;
_chemical_formula_sum "Si O2"
_cell_formula_units_Z 14
_cell_length_a 17.053838
_cell_length_b 11.779059
_cell_length_c 18.322660
_cell_angle_alpha 149.719070
_cell_angle_beta 30.491477
_cell_angle_gamma 159.061879
_cell_volume 631.385762
_symmetry_space_group_name_H-M "P -1"
_symmetry_group_IT_number 2
_symmetry_cell_setting 'triclinic'
loop_
_space_group_symop_operation_xyz
x,y,z
-x,-y,-z
loop_
_atom_site_type_symbol
_atom_site_label
_atom_site_fract_x
_atom_site_fract_y
_atom_site_fract_z
Si Si1 0.461152 0.197386 0.851778
Si Si2 0.355290 0.683028 0.073112
Si Si3 0.049640 0.463011 0.731441
Si Si4 0.874871 0.601700 0.646159
Si Si5 0.357388 0.630414 0.444220
Si Si6 0.230623 0.278083 0.827773
Si Si7 0.171680 0.711750 0.047446
O O1 0.559222 0.205787 0.852101
O O2 0.621628 0.299335 0.713996
O O3 0.205688 0.841429 0.843508
O O4 0.500000 0.500000 0.000000
O O5 0.179913 0.697339 0.211682
O O6 0.588291 0.936430 0.979466
O O7 0.224677 0.322586 0.944666
O O8 0.211525 0.515809 0.571972
O O9 0.949780 0.268152 0.781028
O O10 0.828181 0.624414 0.612921
O O11 0.000000 0.500000 0.500000
O O12 0.017183 0.926454 0.763694
O O13 0.548169 0.645550 0.316117
O O14 0.500000 0.000000 0.500000
O O15 0.233403 0.530917 0.930244
O O16 0.000000 0.500000 0.000000
#
# Coordination Sequence:
#
# PCOD9060151 Si02
#       7
#     2   2   2   2   2   2   2
#     4  12  23  36  65 101 129 169 222 270 335 396
#     4  11  25  43  70  94 133 174 224 280 331 385
#     4  11  23  43  66  95 131 174 219 271 336 390
#     4  12  24  41  65  99 142 176 215 266 333 406
#     4  12  24  43  66  97 143 178 212 269 335 402
#     4  11  25  43  69  98 134 180 222 271 338 391
#     4  11  24  49  71  94 130 175 231 287 326 383
#
# _framework density 22.173449999999999
#
# number of rings (size 3 to 8) (size 9 to 14) (size 15 to 20)
#    0.000    0.571    4.286    5.143    2.000    1.143 
#    0.000    3.571    0.000    0.000    0.000    0.000 
#    0.000    0.000    0.000    0.000    0.000    0.000 
#
# Total GULP energy -78144.694688 kJ/mol
# GULP energy per Si atom -5581.763906 kJ/mol
# Density = 2.212298 g / cm^3
# Si number density = 22.173450 Si / 1000 Ang^3
#
#
#
# Elastic Constant Matrix: (Units=GPa)
#
#
# Indices 1 2 3 4 5 6 
#
# 1 162.1463 -66.4387 20.1014 14.0904 41.0694 46.3824
# 2 -66.4387 378.8872 60.3566 -100.1636 -66.1681 -59.2863
# 3 20.1014 60.3566 95.6109 -44.3995 4.0357 -16.3765
# 4 14.0904 -100.1636 -44.3995 73.1819 25.4572 30.0607
# 5 41.0694 -66.1681 4.0357 25.4572 59.7177 16.7159
# 6 46.3824 -59.2863 -16.3765 30.0607 16.7159 57.2877
#
#
#
# Elastic Compliance Matrix: (Units=1/GPa)
#
#
# Indices 1 2 3 4 5 6 
#
# 1 0.010085 0.000749 -0.002650 0.002416 -0.004705 -0.008043
# 2 0.000749 0.004691 -0.001061 0.004343 0.002653 0.000891
# 3 -0.002650 -0.001061 0.017196 0.010605 -0.005605 0.002034
# 4 0.002416 0.004343 0.010605 0.032266 -0.008865 -0.008774
# 5 -0.004705 0.002653 -0.005605 -0.008865 0.026559 0.001855
# 6 -0.008043 0.000891 0.002034 -0.008774 0.001855 0.029534
#
#
# Mechanical properties :
#
#
# Convention : Reuss Voigt Hill
#
# Bulk Modulus (GPa) = 38.39137 73.85367 56.12252
# Shear Modulus (GPa) = 37.05416 79.54580 58.29998
#
# Velocity S-wave (km/s) = 4.09235 5.99602 5.13320
# Velocity P-wave (km/s) = 6.29932 9.01753 7.77809
#
# Compressibility (1/GPa) = 0.02604752
#
# Stress axis : x y z
#
# Youngs Moduli (GPa) = 99.15488 213.19205 58.15375
#
# Poissons Ratio (x) = -0.15972 0.15412
# Poissons Ratio (y) = -0.07429 0.06170
# Poissons Ratio (z) = 0.26278 0.22621
#
# Static dielectric constant tensor:
#      x y z
#    x 1.651700 -0.041230 0.003820 
#    y -0.041230 1.825820 0.049310 
#    z 0.003820 0.049310 1.842180 
# 
# From -- ./inp_files/279991.got.cif
#   From: 2010.05.17/outbox.cif.g08.bks.cpg/sg2_140_cif.got.tgz:279991.got - 2010.06.03 11:33:40.
