data_PCOD9060774
_publ_section_title
;
Structure prediction by ZEFSAII (Michael W. Deem and Ramdas Pophale) SiO2 
 PCOD9060774
Probable space group: P -1
;
_chemical_formula_sum "Si O2"
_cell_formula_units_Z 14
_cell_length_a 9.400982
_cell_length_b 8.446896
_cell_length_c 17.280608
_cell_angle_alpha 110.256343
_cell_angle_beta 31.037486
_cell_angle_gamma 100.944309
_cell_volume 647.385284
_symmetry_space_group_name_H-M "P -1"
_symmetry_group_IT_number 2
_symmetry_cell_setting 'triclinic'
loop_
_space_group_symop_operation_xyz
x,y,z
-x,-y,-z
loop_
_atom_site_type_symbol
_atom_site_label
_atom_site_fract_x
_atom_site_fract_y
_atom_site_fract_z
Si Si1 0.835970 0.554211 0.665470
Si Si2 0.714272 0.960096 0.821646
Si Si3 0.259133 0.162285 0.963393
Si Si4 0.301593 0.376319 0.540714
Si Si5 0.289766 0.953474 0.755440
Si Si6 0.870652 0.838483 0.275042
Si Si7 0.788263 0.482036 0.025556
O O1 0.765883 0.761441 0.740680
O O2 0.537185 0.495773 0.794344
O O3 0.000000 0.500000 0.500000
O O4 0.032462 0.475580 0.633714
O O5 0.558485 0.086931 0.849459
O O6 0.998847 0.016300 0.720699
O O7 0.500000 0.000000 0.000000
O O8 0.193443 0.367275 0.018320
O O9 0.270941 0.075302 0.858919
O O10 0.013261 0.101042 0.115520
O O11 0.500000 0.500000 0.500000
O O12 0.479590 0.224639 0.377566
O O13 0.228876 0.278280 0.634089
O O14 0.339632 0.061538 0.675057
O O15 0.108127 0.705471 0.092745
O O16 0.000000 0.500000 0.000000
#
# Coordination Sequence:
#
# PCOD9060774 Si02
#       7
#     2   2   2   2   2   2   2
#     4  12  29  49  73 109 150 191 244 301 368 435
#     4  12  24  46  72 104 141 187 242 305 352 426
#     4  11  24  41  75  98 141 188 247 287 358 434
#     4  12  28  44  71 107 151 187 236 305 372 426
#     4  11  23  44  67 104 139 192 234 292 358 439
#     4  12  25  45  74 103 143 190 248 294 365 432
#     4  12  26  46  75 108 142 195 244 300 361 438
#
# _framework density 21.625454000000001
#
# number of rings (size 3 to 8) (size 9 to 14) (size 15 to 20)
#    0.000    0.286    4.286    3.857    8.000    2.286 
#    0.000    2.857    0.000    0.000    0.000    0.000 
#    0.000    0.000    0.000    0.000    0.000    0.000 
#
# Total GULP energy -78365.696161 kJ/mol
# GULP energy per Si atom -5597.549726 kJ/mol
# Density = 2.157623 g / cm^3
# Si number density = 21.625454 Si / 1000 Ang^3
#
#
#
# Elastic Constant Matrix: (Units=GPa)
#
#
# Indices 1 2 3 4 5 6 
#
# 1 109.3816 39.2934 21.5467 -11.3694 -17.6368 -15.3822
# 2 39.2934 106.4711 21.0076 2.2415 4.5191 -5.8096
# 3 21.5467 21.0076 83.7480 1.3229 -2.2333 4.6865
# 4 -11.3694 2.2415 1.3229 50.0243 -7.0738 -5.6575
# 5 -17.6368 4.5191 -2.2333 -7.0738 29.4940 2.7705
# 6 -15.3822 -5.8096 4.6865 -5.6575 2.7705 37.7445
#
#
#
# Elastic Compliance Matrix: (Units=1/GPa)
#
#
# Indices 1 2 3 4 5 6 
#
# 1 0.014457 -0.005070 -0.002578 0.005629 0.010056 0.005537
# 2 -0.005070 0.011907 -0.001795 -0.002423 -0.005576 0.000036
# 3 -0.002578 -0.001795 0.013242 -0.001249 -0.000269 -0.003139
# 4 0.005629 -0.002423 -0.001249 0.023204 0.008747 0.004912
# 5 0.010056 -0.005576 -0.000269 0.008747 0.042714 0.001449
# 6 0.005537 0.000036 -0.003139 0.004912 0.001449 0.029776
#
#
# Mechanical properties :
#
#
# Convention : Reuss Voigt Hill
#
# Bulk Modulus (GPa) = 48.26209 51.47732 49.86971
# Shear Modulus (GPa) = 31.03811 37.96943 34.50377
#
# Velocity S-wave (km/s) = 3.79259 4.19474 3.99873
# Velocity P-wave (km/s) = 6.44547 6.87873 6.66562
#
# Compressibility (1/GPa) = 0.02072019
#
# Stress axis : x y z
#
# Youngs Moduli (GPa) = 69.17210 83.98417 75.51530
#
# Poissons Ratio (x) = 0.42578 0.19470
# Poissons Ratio (y) = 0.35069 0.13554
# Poissons Ratio (z) = 0.17835 0.15074
#
# Static dielectric constant tensor:
#      x y z
#    x 1.673110 -0.017040 -0.061280 
#    y -0.017040 1.741950 -0.016770 
#    z -0.061280 -0.016770 1.759500 
# 
# From -- ./inp_files/182448.got.cif
#   From: 2010.05.17/outbox.cif.g08.bks.cpg/sg2_92_cif.got.tgz:182448.got - 2010.06.03 11:33:40.
