data_PCOD9060130
_publ_section_title
;
Structure prediction by ZEFSAII (Michael W. Deem and Ramdas Pophale) SiO2 
 PCOD9060130
Probable space group: P -1
;
_chemical_formula_sum "Si O2"
_cell_formula_units_Z 14
_cell_length_a 11.341669
_cell_length_b 5.305896
_cell_length_c 14.696191
_cell_angle_alpha 63.808128
_cell_angle_beta 137.156380
_cell_angle_gamma 115.097437
_cell_volume 532.256160
_symmetry_space_group_name_H-M "P -1"
_symmetry_group_IT_number 2
_symmetry_cell_setting 'triclinic'
loop_
_space_group_symop_operation_xyz
x,y,z
-x,-y,-z
loop_
_atom_site_type_symbol
_atom_site_label
_atom_site_fract_x
_atom_site_fract_y
_atom_site_fract_z
Si Si1 0.151614 0.531243 0.005135
Si Si2 0.717406 0.723327 0.652147
Si Si3 0.476201 0.532747 0.689071
Si Si4 0.084890 0.750630 0.225036
Si Si5 0.293025 0.975088 0.869104
Si Si6 0.130526 0.540854 0.693650
Si Si7 0.731963 0.020907 0.420693
O O1 0.180675 0.820260 0.915004
O O2 0.085622 0.288822 0.930412
O O3 0.341582 0.523727 0.156119
O O4 0.000000 0.500000 0.000000
O O5 0.522203 0.657826 0.593245
O O6 0.784938 0.426205 0.724771
O O7 0.822690 0.935428 0.751491
O O8 0.753915 0.884601 0.552257
O O9 0.406950 0.767154 0.673399
O O10 0.344618 0.240132 0.645858
O O11 0.035482 0.592786 0.318553
O O12 0.246134 0.758751 0.793760
O O13 0.231178 0.278094 0.771639
O O14 0.500000 0.000000 0.000000
O O15 0.105867 0.756039 0.563376
#
# Coordination Sequence:
#
# PCOD9060130 Si02
#       7
#     2   2   2   2   2   2   2
#     4  11  24  44  72 104 140 180 226 284 351 417
#     4  12  25  46  70  97 144 177 232 284 337 406
#     4  12  26  44  70 102 136 178 234 282 344 404
#     4  11  25  44  68 105 136 181 222 286 347 406
#     4  11  23  43  66 100 140 181 226 284 340 410
#     4  11  24  42  67  97 139 173 232 276 340 409
#     4  12  26  46  70 101 133 189 230 281 338 408
#
# _framework density 26.303125999999999
#
# number of rings (size 3 to 8) (size 9 to 14) (size 15 to 20)
#    0.000    0.571    1.429    7.286    0.000    6.286 
#    0.000    0.000    0.000    0.000    0.000    0.000 
#    0.000    0.000    0.000    0.000    0.000    0.000 
#
# Total GULP energy -78510.451736 kJ/mol
# GULP energy per Si atom -5607.889410 kJ/mol
# Density = 2.624326 g / cm^3
# Si number density = 26.303126 Si / 1000 Ang^3
#
#
#
# Elastic Constant Matrix: (Units=GPa)
#
#
# Indices 1 2 3 4 5 6 
#
# 1 111.4261 54.3837 11.8289 -6.6135 -10.2384 -12.3909
# 2 54.3837 192.0796 50.0762 3.7946 -0.2494 -17.6618
# 3 11.8289 50.0762 84.7052 -6.2460 -9.0462 -8.4840
# 4 -6.6135 3.7946 -6.2460 42.1640 7.0597 -3.3674
# 5 -10.2384 -0.2494 -9.0462 7.0597 44.9501 -14.3848
# 6 -12.3909 -17.6618 -8.4840 -3.3674 -14.3848 56.3302
#
#
#
# Elastic Compliance Matrix: (Units=1/GPa)
#
#
# Indices 1 2 3 4 5 6 
#
# 1 0.011130 -0.003236 0.001099 0.001857 0.003260 0.002543
# 2 -0.003236 0.007249 -0.004001 -0.001526 -0.001073 0.000593
# 3 0.001099 -0.004001 0.014796 0.002308 0.003568 0.002265
# 4 0.001857 -0.001526 0.002308 0.025027 -0.002705 0.001083
# 5 0.003260 -0.001073 0.003568 -0.002705 0.026537 0.007533
# 6 0.002543 0.000593 0.002265 0.001083 0.007533 0.020827
#
#
# Mechanical properties :
#
#
# Convention : Reuss Voigt Hill
#
# Bulk Modulus (GPa) = 47.85346 68.97651 58.41498
# Shear Modulus (GPa) = 40.06124 46.81700 43.43912
#
# Velocity S-wave (km/s) = 3.90687 4.22347 4.06825
# Velocity P-wave (km/s) = 6.21161 7.07560 6.65764
#
# Compressibility (1/GPa) = 0.02089713
#
# Stress axis : x y z
#
# Youngs Moduli (GPa) = 89.84707 137.95200 67.58748
#
# Poissons Ratio (x) = 0.44646 -0.07426
# Poissons Ratio (y) = 0.29078 0.27043
# Poissons Ratio (z) = -0.09872 0.55196
#
# Static dielectric constant tensor:
#      x y z
#    x 2.103360 0.027920 -0.075000 
#    y 0.027920 1.978090 -0.025630 
#    z -0.075000 -0.025630 2.134190 
# 
# From -- ./inp_files/510208.got.cif
#   From: 2010.05.17/outbox.cif.g08.bks.cpg/sg2_256_cif.got.tgz:510208.got - 2010.06.03 11:33:40.
