data_PCOD9060760
_publ_section_title
;
Structure prediction by ZEFSAII (Michael W. Deem and Ramdas Pophale) SiO2 
 PCOD9060760
Probable space group: P -1
;
_chemical_formula_sum "Si O2"
_cell_formula_units_Z 16
_cell_length_a 9.931046
_cell_length_b 9.584074
_cell_length_c 23.482379
_cell_angle_alpha 52.401958
_cell_angle_beta 155.659343
_cell_angle_gamma 122.571820
_cell_volume 728.824503
_symmetry_space_group_name_H-M "P -1"
_symmetry_group_IT_number 2
_symmetry_cell_setting 'triclinic'
loop_
_space_group_symop_operation_xyz
x,y,z
-x,-y,-z
loop_
_atom_site_type_symbol
_atom_site_label
_atom_site_fract_x
_atom_site_fract_y
_atom_site_fract_z
Si Si1 0.429967 0.635698 0.990409
Si Si2 0.668253 0.571671 0.885820
Si Si3 0.747225 0.244700 0.420808
Si Si4 0.304820 0.345269 0.331667
Si Si5 0.150021 0.069601 0.097415
Si Si6 0.533422 0.849115 0.440064
Si Si7 0.562621 0.712354 0.368654
Si Si8 0.810388 0.941669 0.096896
O O1 0.048459 0.694518 0.820105
O O2 0.500000 0.500000 0.000000
O O3 0.462840 0.566446 0.085352
O O4 0.687789 0.785524 0.049199
O O5 0.433957 0.646712 0.726931
O O6 0.715947 0.739550 0.903506
O O7 0.000000 0.500000 0.000000
O O8 0.575878 0.296655 0.400901
O O9 0.121356 0.291596 0.548380
O O10 0.698950 0.035338 0.447607
O O11 0.373725 0.231852 0.443109
O O12 0.338347 0.552317 0.307108
O O13 0.399383 0.908742 0.250675
O O14 0.906269 0.089571 0.052327
O O15 0.000000 0.000000 0.000000
O O16 0.647809 0.711336 0.468906
O O17 0.139003 0.885687 0.272430
O O18 0.500000 0.000000 0.000000
#
# Coordination Sequence:
#
# PCOD9060760 Si02
#       8
#     2   2   2   2   2   2   2   2
#     4  12  26  42  69 101 132 177 227 275 338 398
#     4  12  24  45  70  97 140 176 224 284 337 399
#     4  12  25  45  70 101 135 184 224 280 343 402
#     4  12  26  46  67 102 141 175 231 283 331 408
#     4  11  24  44  69  98 137 175 225 284 330 403
#     4  11  25  46  69  99 139 178 226 282 337 402
#     4  11  25  45  68 101 136 177 231 275 345 400
#     4  11  23  44  66  99 134 174 224 271 343 401
#
# _framework density 21.953157999999998
#
# number of rings (size 3 to 8) (size 9 to 14) (size 15 to 20)
#    0.000    0.500    3.750    6.000    3.500    2.000 
#    0.000    0.000    0.000    0.000    0.000    0.000 
#    0.000    0.000    0.000    0.000    0.000    0.000 
#
# Total GULP energy -89475.247679 kJ/mol
# GULP energy per Si atom -5592.202980 kJ/mol
# Density = 2.190319 g / cm^3
# Si number density = 21.953158 Si / 1000 Ang^3
#
#
#
# Elastic Constant Matrix: (Units=GPa)
#
#
# Indices 1 2 3 4 5 6 
#
# 1 81.9700 -26.7731 16.6874 -13.9821 -10.6325 9.5771
# 2 -26.7731 78.2953 15.9256 6.4727 -7.7238 6.3318
# 3 16.6874 15.9256 59.9823 0.7408 -5.0217 24.4609
# 4 -13.9821 6.4727 0.7408 20.2309 -2.4206 3.2353
# 5 -10.6325 -7.7238 -5.0217 -2.4206 35.0605 8.8145
# 6 9.5771 6.3318 24.4609 3.2353 8.8145 29.5791
#
#
#
# Elastic Compliance Matrix: (Units=1/GPa)
#
#
# Indices 1 2 3 4 5 6 
#
# 1 0.021022 0.008571 -0.002513 0.015187 0.011912 -0.011774
# 2 0.008571 0.017550 -0.004210 0.002228 0.007399 -0.005499
# 3 -0.002513 -0.004210 0.029966 0.003856 0.009484 -0.026314
# 4 0.015187 0.002228 0.003856 0.064096 0.015127 -0.020101
# 5 0.011912 0.007399 0.009484 0.015127 0.043156 -0.027799
# 6 -0.011774 -0.005499 -0.026314 -0.020101 -0.027799 0.071040
#
#
# Mechanical properties :
#
#
# Convention : Reuss Voigt Hill
#
# Bulk Modulus (GPa) = 13.84364 25.76972 19.80668
# Shear Modulus (GPa) = 18.71182 31.26795 24.98988
#
# Velocity S-wave (km/s) = 2.92267 3.77809 3.37757
# Velocity P-wave (km/s) = 4.20821 5.54941 4.92468
#
# Compressibility (1/GPa) = 0.07223532
#
# Stress axis : x y z
#
# Youngs Moduli (GPa) = 47.56897 56.98030 33.37168
#
# Poissons Ratio (x) = -0.48841 0.08386
# Poissons Ratio (y) = -0.40774 0.14048
# Poissons Ratio (z) = 0.11954 0.23986
#
# Static dielectric constant tensor:
#      x y z
#    x 1.797730 -0.048220 -0.008770 
#    y -0.048220 1.771660 -0.008140 
#    z -0.008770 -0.008140 1.817590 
# 
# From -- ./inp_files/206447.got.cif
#   From: 2010.05.17/outbox.cif.g08.bks.cpg/sg2_104_cif.got.tgz:206447.got - 2010.06.03 11:33:40.
