data_PCOD9060986
_publ_section_title
;
Structure prediction by ZEFSAII (Michael W. Deem and Ramdas Pophale) SiO2 
 PCOD9060986
Probable space group: P -1
;
_chemical_formula_sum "Si O2"
_cell_formula_units_Z 16
_cell_length_a 10.873503
_cell_length_b 14.724674
_cell_length_c 13.180498
_cell_angle_alpha 60.949762
_cell_angle_beta 147.234999
_cell_angle_gamma 137.485594
_cell_volume 717.913305
_symmetry_space_group_name_H-M "P -1"
_symmetry_group_IT_number 2
_symmetry_cell_setting 'triclinic'
loop_
_space_group_symop_operation_xyz
x,y,z
-x,-y,-z
loop_
_atom_site_type_symbol
_atom_site_label
_atom_site_fract_x
_atom_site_fract_y
_atom_site_fract_z
Si Si1 0.089495 0.419174 0.652930
Si Si2 0.194610 0.366167 0.964490
Si Si3 0.391962 0.766947 0.266580
Si Si4 0.151987 0.127261 0.957620
Si Si5 0.232873 0.978904 0.771211
Si Si6 0.209754 0.783958 0.619513
Si Si7 0.202298 0.009161 0.422088
Si Si8 0.318712 0.348466 0.512918
O O1 0.101331 0.417541 0.783233
O O2 0.000000 0.500000 0.500000
O O3 0.850688 0.270129 0.508677
O O4 0.446379 0.502095 0.826507
O O5 0.175728 0.247897 0.960512
O O6 0.961771 0.304155 0.930708
O O7 0.615078 0.912252 0.276590
O O8 0.423585 0.663008 0.296375
O O9 0.524167 0.823837 0.443560
O O10 0.911810 0.050506 0.738007
O O11 0.505803 0.193499 0.147436
O O12 0.000000 0.000000 0.000000
O O13 0.100451 0.029706 0.719823
O O14 0.958794 0.808052 0.649742
O O15 0.500000 0.000000 0.000000
O O16 0.292379 0.930427 0.581832
O O17 0.883642 0.675510 0.517314
O O18 0.500000 0.500000 0.500000
#
# Coordination Sequence:
#
# PCOD9060986 Si02
#       8
#     2   2   2   2   2   2   2   2
#     4  11  25  46  68  95 145 191 225 288 363 415
#     4  11  26  44  66 104 138 183 238 283 351 431
#     4  11  24  46  72 101 148 182 235 294 356 422
#     4  12  27  41  71 107 135 179 242 290 346 416
#     4  11  23  46  73 102 143 190 235 292 356 422
#     4  12  23  46  72  95 142 184 237 290 350 419
#     4  11  23  44  71 100 140 182 230 293 347 410
#     4  11  25  45  69 105 138 187 234 292 358 423
#
# _framework density 22.286812999999999
#
# number of rings (size 3 to 8) (size 9 to 14) (size 15 to 20)
#    0.000    0.750    5.000    2.250    5.250    2.000 
#    2.250    1.250    0.000    0.000    0.000    0.000 
#    0.000    0.000    0.000    0.000    0.000    0.000 
#
# Total GULP energy -89267.024797 kJ/mol
# GULP energy per Si atom -5579.189050 kJ/mol
# Density = 2.223609 g / cm^3
# Si number density = 22.286813 Si / 1000 Ang^3
#
#
#
# Elastic Constant Matrix: (Units=GPa)
#
#
# Indices 1 2 3 4 5 6 
#
# 1 47.5090 22.9766 7.7448 -2.4447 22.4353 3.2556
# 2 22.9766 110.7680 17.5137 -16.3251 5.1062 2.3621
# 3 7.7448 17.5137 64.7888 -11.9468 17.0197 8.7249
# 4 -2.4447 -16.3251 -11.9468 35.7947 0.1517 10.8465
# 5 22.4353 5.1062 17.0197 0.1517 40.0481 3.1824
# 6 3.2556 2.3621 8.7249 10.8465 3.1824 25.8897
#
#
#
# Elastic Compliance Matrix: (Units=1/GPa)
#
#
# Indices 1 2 3 4 5 6 
#
# 1 0.032562 -0.006134 0.003356 0.001540 -0.018652 -0.003018
# 2 -0.006134 0.011190 -0.001980 0.004577 0.002982 -0.001866
# 3 0.003356 -0.001980 0.021315 0.009579 -0.009910 -0.010219
# 4 0.001540 0.004577 0.009579 0.039351 -0.004091 -0.019822
# 5 -0.018652 0.002982 -0.009910 -0.004091 0.039081 0.002323
# 6 -0.003018 -0.001866 -0.010219 -0.019822 0.002323 0.050638
#
#
# Mechanical properties :
#
#
# Convention : Reuss Voigt Hill
#
# Bulk Modulus (GPa) = 18.00129 35.50398 26.75263
# Shear Modulus (GPa) = 22.50538 32.00189 27.25364
#
# Velocity S-wave (km/s) = 3.18119 3.79345 3.50073
# Velocity P-wave (km/s) = 4.64628 5.92892 5.32635
#
# Compressibility (1/GPa) = 0.05555157
#
# Stress axis : x y z
#
# Youngs Moduli (GPa) = 30.71059 89.36471 46.91620
#
# Poissons Ratio (x) = 0.54814 -0.15744
# Poissons Ratio (y) = 0.18837 0.09288
# Poissons Ratio (z) = -0.10306 0.17691
#
# Static dielectric constant tensor:
#      x y z
#    x 1.918970 0.002060 -0.000820 
#    y 0.002060 1.860420 -0.016250 
#    z -0.000820 -0.016250 1.872290 
# 
# From -- ./inp_files/522375.got.cif
#   From: 2010.05.17/outbox.cif.g08.bks.cpg/sg2_262_cif.got.tgz:522375.got - 2010.06.03 11:33:40.
