data_PCOD9060535
_publ_section_title
;
Structure prediction by ZEFSAII (Michael W. Deem and Ramdas Pophale) SiO2 
 PCOD9060535
Probable space group: P -1
;
_chemical_formula_sum "Si O2"
_cell_formula_units_Z 16
_cell_length_a 8.078053
_cell_length_b 10.696519
_cell_length_c 17.173881
_cell_angle_alpha 133.152357
_cell_angle_beta 136.332867
_cell_angle_gamma 77.776806
_cell_volume 618.356562
_symmetry_space_group_name_H-M "P -1"
_symmetry_group_IT_number 2
_symmetry_cell_setting 'triclinic'
loop_
_space_group_symop_operation_xyz
x,y,z
-x,-y,-z
loop_
_atom_site_type_symbol
_atom_site_label
_atom_site_fract_x
_atom_site_fract_y
_atom_site_fract_z
Si Si1 0.596349 0.455262 0.644534
Si Si2 0.433919 0.287291 0.783741
Si Si3 0.891413 0.745367 0.086534
Si Si4 0.283279 0.068669 0.477926
Si Si5 0.789582 0.164155 0.920882
Si Si6 0.377885 0.728791 0.661276
Si Si7 0.019843 0.610979 0.350599
Si Si8 0.383154 0.765588 0.856561
O O1 0.397468 0.290071 0.571905
O O2 0.438961 0.551768 0.591223
O O3 0.699117 0.335788 0.577042
O O4 0.900331 0.647601 0.863300
O O5 0.297675 0.117790 0.595361
O O6 0.543280 0.212141 0.858747
O O7 0.199212 0.343139 0.742498
O O8 0.732140 0.504132 0.951393
O O9 0.152758 0.840751 0.154065
O O10 0.646381 0.747073 0.957026
O O11 0.994949 0.890035 0.259465
O O12 0.500000 0.000000 0.500000
O O13 0.668039 0.952364 0.835353
O O14 0.288196 0.701156 0.708484
O O15 0.137634 0.717433 0.519589
O O16 0.847934 0.370538 0.214084
O O17 0.500000 0.000000 0.000000
#
# Coordination Sequence:
#
# PCOD9060535 Si02
#       8
#     2   2   2   2   2   2   2   2
#     4  12  25  46  71 102 143 183 237 288 343 421
#     4  11  25  49  69 105 146 178 236 295 341 414
#     4  11  23  43  72 105 135 185 232 286 349 410
#     4  12  24  43  77 106 134 187 235 281 348 419
#     4  12  23  44  74 100 143 185 233 289 343 413
#     4  12  26  45  71 101 140 189 227 291 349 417
#     4  11  27  45  68 101 140 183 230 292 354 403
#     4  11  25  43  68 101 138 181 226 288 357 417
#
# _framework density 25.875039000000001
#
# number of rings (size 3 to 8) (size 9 to 14) (size 15 to 20)
#    0.000    0.500    3.750    4.500    5.250    1.000 
#    0.000    0.000    0.000    0.000    0.000    0.000 
#    0.000    0.000    0.000    0.000    0.000    0.000 
#
# Total GULP energy -89652.870139 kJ/mol
# GULP energy per Si atom -5603.304384 kJ/mol
# Density = 2.581615 g / cm^3
# Si number density = 25.875039 Si / 1000 Ang^3
#
#
#
# Elastic Constant Matrix: (Units=GPa)
#
#
# Indices 1 2 3 4 5 6 
#
# 1 87.1989 10.4834 5.6326 1.4185 5.4485 1.1238
# 2 10.4834 123.8351 21.1963 8.3385 19.8814 -2.9999
# 3 5.6326 21.1963 113.1872 10.2474 -3.8175 14.9528
# 4 1.4185 8.3385 10.2474 54.5183 1.0307 3.9230
# 5 5.4485 19.8814 -3.8175 1.0307 28.1587 1.3860
# 6 1.1238 -2.9999 14.9528 3.9230 1.3860 30.9238
#
#
#
# Elastic Compliance Matrix: (Units=1/GPa)
#
#
# Indices 1 2 3 4 5 6 
#
# 1 0.011694 -0.000596 -0.000509 -0.000071 -0.001901 -0.000142
# 2 -0.000596 0.009810 -0.002286 -0.001102 -0.007205 0.002542
# 3 -0.000509 -0.002286 0.010193 -0.001248 0.003393 -0.005126
# 4 -0.000071 -0.001102 -0.001248 0.018884 0.000025 -0.001897
# 5 -0.001901 -0.007205 0.003393 0.000025 0.041631 -0.004139
# 6 -0.000142 0.002542 -0.005126 -0.001897 -0.004139 0.035494
#
#
# Mechanical properties :
#
#
# Convention : Reuss Voigt Hill
#
# Bulk Modulus (GPa) = 40.13903 44.31621 42.22762
# Shear Modulus (GPa) = 35.01554 41.84742 38.43148
#
# Velocity S-wave (km/s) = 3.68265 4.02592 3.85810
# Velocity P-wave (km/s) = 5.79904 6.22695 6.01680
#
# Compressibility (1/GPa) = 0.02491341
#
# Stress axis : x y z
#
# Youngs Moduli (GPa) = 85.51104 101.94035 98.10645
#
# Poissons Ratio (x) = 0.06078 0.04995
# Poissons Ratio (y) = 0.05099 0.22431
# Poissons Ratio (z) = 0.04354 0.23308
#
# Static dielectric constant tensor:
#      x y z
#    x 2.126690 0.007290 -0.011110 
#    y 0.007290 1.904330 0.008180 
#    z -0.011110 0.008180 2.084380 
# 
# From -- ./inp_files/589660.got.cif
#   From: 2010.05.17/outbox.cif.g08.bks.cpg/sg2_295_cif.got.tgz:589660.got - 2010.06.03 11:33:40.
