data_PCOD9060590
_publ_section_title
;
Structure prediction by ZEFSAII (Michael W. Deem and Ramdas Pophale) SiO2 
 PCOD9060590
Probable space group: P -1
;
_chemical_formula_sum "Si O2"
_cell_formula_units_Z 16
_cell_length_a 24.356244
_cell_length_b 12.057890
_cell_length_c 8.980849
_cell_angle_alpha 53.556906
_cell_angle_beta 52.926970
_cell_angle_gamma 18.425515
_cell_volume 662.585535
_symmetry_space_group_name_H-M "P -1"
_symmetry_group_IT_number 2
_symmetry_cell_setting 'triclinic'
loop_
_space_group_symop_operation_xyz
x,y,z
-x,-y,-z
loop_
_atom_site_type_symbol
_atom_site_label
_atom_site_fract_x
_atom_site_fract_y
_atom_site_fract_z
Si Si1 0.181061 0.241337 0.866083
Si Si2 0.614556 0.105724 0.475610
Si Si3 0.149157 0.287385 0.324805
Si Si4 0.865131 0.372987 0.939154
Si Si5 0.564548 0.901433 0.801484
Si Si6 0.151079 0.604213 0.734590
Si Si7 0.338292 0.756728 0.204775
Si Si8 0.251844 0.626211 0.293512
O O1 0.184291 0.387220 0.809318
O O2 0.218104 0.191403 0.670658
O O3 0.000000 0.500000 0.000000
O O4 0.342563 0.858775 0.980663
O O5 0.482093 0.455666 0.334950
O O6 0.677349 0.017548 0.611083
O O7 0.526163 0.116933 0.611001
O O8 0.085407 0.558665 0.166673
O O9 0.000000 0.500000 0.500000
O O10 0.193362 0.103244 0.266497
O O11 0.769057 0.555081 0.793518
O O12 0.764052 0.524022 0.139838
O O13 0.000000 0.000000 0.000000
O O14 0.594248 0.713865 0.796256
O O15 0.500000 0.000000 0.000000
O O16 0.226042 0.563178 0.517259
O O17 0.939251 0.012379 0.762259
O O18 0.285669 0.710687 0.248078
#
# Coordination Sequence:
#
# PCOD9060590 Si02
#       8
#     2   2   2   2   2   2   2   2
#     4  12  23  46  74 106 140 192 241 305 362 435
#     4  11  27  48  69 103 149 187 242 301 362 442
#     4  11  26  45  72 102 142 191 238 297 361 432
#     4  11  24  43  71 103 137 184 241 297 353 423
#     4  11  26  48  70 105 147 190 237 293 367 437
#     4  11  23  43  73 107 145 180 251 308 352 423
#     4  12  26  46  70 107 143 193 238 297 374 432
#     4  11  25  43  75 106 141 192 241 304 366 424
#
# _framework density 24.147824
#
# number of rings (size 3 to 8) (size 9 to 14) (size 15 to 20)
#    0.000    0.750    5.000    1.500    3.500    1.500 
#    6.750    0.000    0.000    0.000    0.000    0.000 
#    0.000    0.000    0.000    0.000    0.000    0.000 
#
# Total GULP energy -89342.217480 kJ/mol
# GULP energy per Si atom -5583.888592 kJ/mol
# Density = 2.409286 g / cm^3
# Si number density = 24.147824 Si / 1000 Ang^3
#
#
#
# Elastic Constant Matrix: (Units=GPa)
#
#
# Indices 1 2 3 4 5 6 
#
# 1 110.3807 29.8541 35.5185 -0.5403 4.6053 37.1220
# 2 29.8541 80.3263 41.9021 -13.7489 -6.1389 40.8793
# 3 35.5185 41.9021 146.6108 -17.9487 -10.1331 24.3066
# 4 -0.5403 -13.7489 -17.9487 42.4648 -1.8187 7.0699
# 5 4.6053 -6.1389 -10.1331 -1.8187 50.8118 -6.2448
# 6 37.1220 40.8793 24.3066 7.0699 -6.2448 54.9406
#
#
#
# Elastic Compliance Matrix: (Units=1/GPa)
#
#
# Indices 1 2 3 4 5 6 
#
# 1 0.012426 0.000580 -0.001846 0.000860 -0.002426 -0.008397
# 2 0.000580 0.025289 -0.002913 0.010176 0.000429 -0.019180
# 3 -0.001846 -0.002913 0.008660 0.002862 0.001570 -0.000606
# 4 0.000860 0.010176 0.002862 0.030310 0.001187 -0.013184
# 5 -0.002426 0.000429 0.001570 0.001187 0.020654 0.002820
# 6 -0.008397 -0.019180 -0.000606 -0.013184 0.002820 0.040432
#
#
# Mechanical properties :
#
#
# Convention : Reuss Voigt Hill
#
# Bulk Modulus (GPa) = 26.30442 61.31860 43.81151
# Shear Modulus (GPa) = 31.48576 44.97964 38.23270
#
# Velocity S-wave (km/s) = 3.61484 4.32056 3.98336
# Velocity P-wave (km/s) = 5.32348 7.09491 6.27205
#
# Compressibility (1/GPa) = 0.03801643
#
# Stress axis : x y z
#
# Youngs Moduli (GPa) = 80.47470 39.54322 115.47307
#
# Poissons Ratio (x) = -0.02294 0.21322
# Poissons Ratio (y) = -0.04668 0.33636
# Poissons Ratio (z) = 0.14859 0.11518
#
# Static dielectric constant tensor:
#      x y z
#    x 2.042930 -0.341870 -0.182400 
#    y -0.341870 3.921860 1.930950 
#    z -0.182400 1.930950 3.918510 
# 
# From -- ./inp_files/184354.got.cif
#   From: 2010.05.17/outbox.cif.g08.bks.cpg/sg2_93_cif.got.tgz:184354.got - 2010.06.03 11:33:40.
