data_PCOD9060008
_publ_section_title
;
Structure prediction by ZEFSAII (Michael W. Deem and Ramdas Pophale) SiO2 
 PCOD9060008
Probable space group: P -1
;
_chemical_formula_sum "Si O2"
_cell_formula_units_Z 16
_cell_length_a 9.741157
_cell_length_b 22.071830
_cell_length_c 9.980234
_cell_angle_alpha 42.859334
_cell_angle_beta 29.313928
_cell_angle_gamma 47.260091
_cell_volume 709.553446
_symmetry_space_group_name_H-M "P -1"
_symmetry_group_IT_number 2
_symmetry_cell_setting 'triclinic'
loop_
_space_group_symop_operation_xyz
x,y,z
-x,-y,-z
loop_
_atom_site_type_symbol
_atom_site_label
_atom_site_fract_x
_atom_site_fract_y
_atom_site_fract_z
Si Si1 0.809332 0.960194 0.339949
Si Si2 0.044766 0.708498 0.376430
Si Si3 0.680792 0.804657 0.293735
Si Si4 0.751787 0.439805 0.761842
Si Si5 0.651584 0.762102 0.844372
Si Si6 0.368936 0.322094 0.713112
Si Si7 0.773900 0.414963 0.066414
Si Si8 0.885789 0.065135 0.373944
O O1 0.784479 0.854574 0.551165
O O2 0.500000 0.000000 0.500000
O O3 0.875510 0.002525 0.355630
O O4 0.000000 0.000000 0.000000
O O5 0.149498 0.617411 0.357520
O O6 0.820345 0.762078 0.379502
O O7 0.867775 0.694010 0.684274
O O8 0.326938 0.758112 0.078964
O O9 0.652969 0.732464 0.317719
O O10 0.402605 0.871989 0.452514
O O11 0.895496 0.866337 0.950694
O O12 0.446055 0.494813 0.904841
O O13 0.000000 0.500000 0.500000
O O14 0.727325 0.377239 0.015599
O O15 0.643995 0.738227 0.046694
O O16 0.657917 0.363302 0.373772
O O17 0.110709 0.402131 0.813697
O O18 0.000000 0.000000 0.500000
#
# Coordination Sequence:
#
# PCOD9060008 Si02
#       8
#     2   2   2   2   2   2   2   2
#     4  12  25  47  70  96 136 191 233 284 354 422
#     4  12  26  45  73 105 136 185 241 292 340 422
#     4  12  24  43  71 100 131 179 239 293 335 410
#     4  11  24  44  76 110 138 182 240 298 343 408
#     4  12  28  46  68 103 149 184 231 295 361 426
#     4  12  25  46  69 105 147 191 227 288 367 419
#     4  11  23  42  73 103 137 185 234 280 354 416
#     4  12  26  43  66 102 134 175 233 294 350 407
#
# _framework density 22.549393999999999
#
# number of rings (size 3 to 8) (size 9 to 14) (size 15 to 20)
#    0.000    0.250    2.500    7.125    5.250    2.000 
#    0.000    3.750    0.000    0.000    0.000    0.000 
#    0.000    0.000    0.000    0.000    0.000    0.000 
#
# Total GULP energy -89431.065807 kJ/mol
# GULP energy per Si atom -5589.441613 kJ/mol
# Density = 2.249807 g / cm^3
# Si number density = 22.549394 Si / 1000 Ang^3
#
#
#
# Elastic Constant Matrix: (Units=GPa)
#
#
# Indices 1 2 3 4 5 6 
#
# 1 14195.0632-1017.8024-5849.7531 252.5118-2279.6625 9345.6298
# 2 -1017.8024 172.1706 485.1426 4.4487 173.5130 -707.7730
# 3 -5849.7531 485.1426 2656.9150 -81.3856 975.1017-3923.4788
# 4 252.5118 4.4487 -81.3856 48.2165 -47.1740 167.1216
# 5 -2279.6625 173.5130 975.1017 -47.1740 420.4190-1525.9865
# 6 9345.6298 -707.7730-3923.4788 167.1216-1525.9865 6245.1418
#
#
#
# Elastic Compliance Matrix: (Units=1/GPa)
#
#
# Indices 1 2 3 4 5 6 
#
# 1 0.005290 -0.002597 -0.000174 0.001162 -0.000190 -0.008397
# 2 -0.002597 0.014590 -0.001955 -0.006626 -0.000169 0.004447
# 3 -0.000174 -0.001955 0.006172 -0.002630 -0.002443 0.003390
# 4 0.001162 -0.006626 -0.002630 0.028436 0.004682 -0.003759
# 5 -0.000190 -0.000169 -0.002443 0.004682 0.022516 0.004107
# 6 -0.008397 0.004447 0.003390 -0.003759 0.004107 0.016464
#
#
# Mechanical properties :
#
#
# Convention : Reuss Voigt Hill
#
# Bulk Modulus (GPa) = 60.24177 473.25813 266.74995
# Shear Modulus (GPa) = 46.10307 2903.19289 1474.64798
#
# Velocity S-wave (km/s) = 4.52656 35.92042 25.60045
# Velocity P-wave (km/s) = 7.35480 43.93974 31.50233
#
# Compressibility (1/GPa) = 0.01659978
#
# Stress axis : x y z
#
# Youngs Moduli (GPa) = 189.04538 68.54170 162.02200
#
# Poissons Ratio (x) = 0.17798 0.02818
# Poissons Ratio (y) = 0.49089 0.31679
# Poissons Ratio (z) = 0.03288 0.13402
#
# Static dielectric constant tensor:
#      x y z
#    x 1.773730 -0.018000 0.006200 
#    y -0.018000 1.824850 -0.023950 
#    z 0.006200 -0.023950 1.842180 
# 
# From -- ./inp_files/226056.got.cif
#   From: 2010.05.17/outbox.cif.g08.bks.cpg/sg2_114_cif.got.tgz:226056.got - 2010.06.03 11:33:40.
