data_PCOD9060020
_publ_section_title
;
Structure prediction by ZEFSAII (Michael W. Deem and Ramdas Pophale) SiO2 
 PCOD9060020
Probable space group: P -1
;
_chemical_formula_sum "Si O2"
_cell_formula_units_Z 14
_cell_length_a 13.606780
_cell_length_b 11.737255
_cell_length_c 8.933970
_cell_angle_alpha 57.279889
_cell_angle_beta 146.720191
_cell_angle_gamma 131.927180
_cell_volume 581.926030
_symmetry_space_group_name_H-M "P -1"
_symmetry_group_IT_number 2
_symmetry_cell_setting 'triclinic'
loop_
_space_group_symop_operation_xyz
x,y,z
-x,-y,-z
loop_
_atom_site_type_symbol
_atom_site_label
_atom_site_fract_x
_atom_site_fract_y
_atom_site_fract_z
Si Si1 0.463398 0.144457 0.812917
Si Si2 0.519365 0.381606 0.490644
Si Si3 0.059174 0.347526 0.602057
Si Si4 0.982552 0.923487 0.696555
Si Si5 0.690718 0.813665 0.906374
Si Si6 0.671743 0.299137 0.264007
Si Si7 0.070183 0.395820 0.254328
O O1 0.578502 0.267204 0.741142
O O2 0.230759 0.090084 0.513832
O O3 0.520837 0.234454 0.978421
O O4 0.500000 0.000000 0.000000
O O5 0.500000 0.500000 0.500000
O O6 0.336245 0.262780 0.237241
O O7 0.687568 0.496460 0.508864
O O8 0.211704 0.517376 0.729341
O O9 0.980091 0.363512 0.327946
O O10 0.861204 0.262726 0.513927
O O11 0.192746 0.264072 0.802670
O O12 0.970562 0.759565 0.768359
O O13 0.000000 0.000000 0.500000
O O14 0.159261 0.012287 0.979933
O O15 0.469058 0.766043 0.724602
O O16 0.000000 0.500000 0.000000
#
# Coordination Sequence:
#
# PCOD9060020 Si02
#       7
#     2   2   2   2   2   2   2
#     4  12  26  48  76 107 152 200 253 313 385 457
#     4  12  27  50  75 112 149 202 254 316 381 444
#     4  11  23  43  74 111 145 204 255 310 378 451
#     4  12  25  47  75 110 151 203 250 308 388 449
#     4  12  25  46  78 107 155 197 253 318 378 450
#     4  11  23  42  73 109 144 196 259 307 368 458
#     4  12  26  47  73 111 156 195 254 316 374 453
#
# _framework density 24.058039999999998
#
# number of rings (size 3 to 8) (size 9 to 14) (size 15 to 20)
#    0.000    0.286    5.714    3.000    2.000    1.714 
#    2.571    1.429    0.000    0.000    0.000    0.000 
#    0.000    0.000    0.000    0.000    0.000    0.000 
#
# Total GULP energy -78219.972523 kJ/mol
# GULP energy per Si atom -5587.140894 kJ/mol
# Density = 2.400328 g / cm^3
# Si number density = 24.058040 Si / 1000 Ang^3
#
#
#
# Elastic Constant Matrix: (Units=GPa)
#
#
# Indices 1 2 3 4 5 6 
#
# 1 90.2359 40.8658 36.5802 12.3327 15.0852 -2.8793
# 2 40.8658 159.6854 62.2061 9.8594 -2.1347 -22.0704
# 3 36.5802 62.2061 94.7327 19.8218 -6.3893 -11.4868
# 4 12.3327 9.8594 19.8218 61.1412 -2.0326 -6.2328
# 5 15.0852 -2.1347 -6.3893 -2.0326 42.8849 7.4454
# 6 -2.8793 -22.0704 -11.4868 -6.2328 7.4454 30.1684
#
#
#
# Elastic Compliance Matrix: (Units=1/GPa)
#
#
# Indices 1 2 3 4 5 6 
#
# 1 0.015121 -0.002164 -0.004602 -0.001482 -0.006060 -0.000702
# 2 -0.002164 0.009374 -0.004945 0.001033 -0.000340 0.005066
# 3 -0.004602 -0.004945 0.016630 -0.003478 0.003568 0.000676
# 4 -0.001482 0.001033 -0.003478 0.017924 0.000402 0.002894
# 5 -0.006060 -0.000340 0.003568 0.000402 0.027035 -0.006057
# 6 -0.000702 0.005066 0.000676 0.002894 -0.006057 0.039137
#
#
# Mechanical properties :
#
#
# Convention : Reuss Voigt Hill
#
# Bulk Modulus (GPa) = 56.48168 69.32870 62.90519
# Shear Modulus (GPa) = 32.35335 40.50567 36.42951
#
# Velocity S-wave (km/s) = 3.67114 4.10770 3.89554
# Velocity P-wave (km/s) = 6.44188 7.16780 6.81452
#
# Compressibility (1/GPa) = 0.01770485
#
# Stress axis : x y z
#
# Youngs Moduli (GPa) = 66.13441 106.67667 60.13056
#
# Poissons Ratio (x) = 0.23080 0.27671
# Poissons Ratio (y) = 0.14308 0.29734
# Poissons Ratio (z) = 0.30434 0.52750
#
# Static dielectric constant tensor:
#      x y z
#    x 2.003660 0.012030 0.039450 
#    y 0.012030 1.956870 0.033800 
#    z 0.039450 0.033800 1.917980 
# 
# From -- ./inp_files/306863.got.cif
#   From: 2010.05.17/outbox.cif.g08.bks.cpg/sg2_154_cif.got.tgz:306863.got - 2010.06.03 11:33:40.
