data_PCOD9060573
_publ_section_title
;
Structure prediction by ZEFSAII (Michael W. Deem and Ramdas Pophale) SiO2 
 PCOD9060573
Probable space group: P -1
;
_chemical_formula_sum "Si O2"
_cell_formula_units_Z 14
_cell_length_a 9.567263
_cell_length_b 8.712523
_cell_length_c 8.043157
_cell_angle_alpha 97.169734
_cell_angle_beta 70.795714
_cell_angle_gamma 111.945089
_cell_volume 587.252380
_symmetry_space_group_name_H-M "P -1"
_symmetry_group_IT_number 2
_symmetry_cell_setting 'triclinic'
loop_
_space_group_symop_operation_xyz
x,y,z
-x,-y,-z
loop_
_atom_site_type_symbol
_atom_site_label
_atom_site_fract_x
_atom_site_fract_y
_atom_site_fract_z
Si Si1 0.308839 0.926962 0.760954
Si Si2 0.455425 0.292999 0.789267
Si Si3 0.248120 0.486032 0.927538
Si Si4 0.964561 0.826803 0.899539
Si Si5 0.715039 0.200301 0.876918
Si Si6 0.173562 0.077628 0.355402
Si Si7 0.488724 0.707183 0.589648
O O1 0.430149 0.862212 0.612479
O O2 0.129965 0.821744 0.767763
O O3 0.328876 0.117075 0.757402
O O4 0.331036 0.896517 0.943778
O O5 0.374833 0.404267 0.930600
O O6 0.573423 0.233866 0.841736
O O7 0.523973 0.375779 0.597525
O O8 0.349320 0.591192 0.749303
O O9 0.099589 0.316775 0.957265
O O10 0.193201 0.609939 0.077304
O O11 0.855336 0.831554 0.787426
O O12 0.000000 0.000000 0.000000
O O13 0.783698 0.084899 0.728814
O O14 0.330640 0.210749 0.400159
O O15 0.000000 0.000000 0.500000
#
# Coordination Sequence:
#
# PCOD9060573 Si02
#       7
#     2   2   2   2   2   2   2
#     4  11  23  43  73 103 134 185 241 279 341 417
#     4  12  22  43  73 105 140 183 234 285 350 414
#     4  11  27  44  72 104 143 181 241 287 349 412
#     4  12  25  46  74 101 138 188 235 292 347 414
#     4  11  25  42  71 107 138 186 231 291 342 418
#     4  12  27  47  72 106 144 179 238 288 352 415
#     4  11  27  44  73 103 142 188 232 290 344 416
#
# _framework density 23.839838
#
# number of rings (size 3 to 8) (size 9 to 14) (size 15 to 20)
#    0.000    0.571    4.286    2.571   10.000    2.286 
#    0.000    0.714    0.000    0.000    0.000    0.000 
#    0.000    0.000    0.000    0.000    0.000    0.000 
#
# Total GULP energy -78073.098500 kJ/mol
# GULP energy per Si atom -5576.649893 kJ/mol
# Density = 2.378558 g / cm^3
# Si number density = 23.839838 Si / 1000 Ang^3
#
#
#
# Elastic Constant Matrix: (Units=GPa)
#
#
# Indices 1 2 3 4 5 6 
#
# 1 129.0742 10.2740 17.6577 -4.9853 6.7292 -23.0461
# 2 10.2740 119.1346 26.9026 -24.2458 -3.9573 -1.9739
# 3 17.6577 26.9026 40.4574 -17.9685 1.1604 -9.2372
# 4 -4.9853 -24.2458 -17.9685 47.6714 -4.3985 -10.8799
# 5 6.7292 -3.9573 1.1604 -4.3985 31.7899 1.9735
# 6 -23.0461 -1.9739 -9.2372 -10.8799 1.9735 36.7272
#
#
#
# Elastic Compliance Matrix: (Units=1/GPa)
#
#
# Indices 1 2 3 4 5 6 
#
# 1 0.009217 -0.000042 -0.002044 0.001297 -0.002060 0.005762
# 2 -0.000042 0.010383 -0.005391 0.003447 0.001970 0.000091
# 3 -0.002044 -0.005391 0.038363 0.014279 -0.000429 0.012329
# 4 0.001297 0.003447 0.014279 0.031691 0.003161 0.013808
# 5 -0.002060 0.001970 -0.000429 0.003161 0.032722 -0.002116
# 6 0.005762 0.000091 0.012329 0.013808 -0.002116 0.038154
#
#
# Mechanical properties :
#
#
# Convention : Reuss Voigt Hill
#
# Bulk Modulus (GPa) = 23.25077 44.25941 33.75509
# Shear Modulus (GPa) = 26.34076 38.82650 32.58363
#
# Velocity S-wave (km/s) = 3.32762 4.04002 3.70100
# Velocity P-wave (km/s) = 4.95360 6.35358 5.69676
#
# Compressibility (1/GPa) = 0.04300934
#
# Stress axis : x y z
#
# Youngs Moduli (GPa) = 108.49819 96.30832 26.06677
#
# Poissons Ratio (x) = 0.00407 0.05328
# Poissons Ratio (y) = 0.00459 0.14052
# Poissons Ratio (z) = 0.22175 0.51917
#
# Static dielectric constant tensor:
#      x y z
#    x 1.998460 0.062430 -0.018900 
#    y 0.062430 2.005740 -0.017330 
#    z -0.018900 -0.017330 1.971030 
# 
# From -- ./inp_files/158539.got.cif
#   From: 2010.05.17/outbox.cif.g08.bks.cpg/sg2_80_cif.got.tgz:158539.got - 2010.06.03 11:33:40.
