data_PCOD9060925
_publ_section_title
;
Structure prediction by ZEFSAII (Michael W. Deem and Ramdas Pophale) SiO2 
 PCOD9060925
Probable space group: P -1
;
_chemical_formula_sum "Si O2"
_cell_formula_units_Z 14
_cell_length_a 11.659727
_cell_length_b 11.583786
_cell_length_c 5.902650
_cell_angle_alpha 130.974496
_cell_angle_beta 109.703288
_cell_angle_gamma 75.452164
_cell_volume 566.163068
_symmetry_space_group_name_H-M "P -1"
_symmetry_group_IT_number 2
_symmetry_cell_setting 'triclinic'
loop_
_space_group_symop_operation_xyz
x,y,z
-x,-y,-z
loop_
_atom_site_type_symbol
_atom_site_label
_atom_site_fract_x
_atom_site_fract_y
_atom_site_fract_z
Si Si1 0.402159 0.934940 0.173390
Si Si2 0.157190 0.223653 0.657661
Si Si3 0.957264 0.330647 0.314919
Si Si4 0.763535 0.522200 0.670034
Si Si5 0.634971 0.742550 0.506317
Si Si6 0.605959 0.298858 0.500683
Si Si7 0.806447 0.114415 0.670078
O O1 0.282210 0.897564 0.185460
O O2 0.500000 0.000000 0.500000
O O3 0.372008 0.082151 0.183391
O O4 0.444536 0.789749 0.865589
O O5 0.290607 0.240355 0.653555
O O6 0.058690 0.240430 0.414409
O O7 0.150917 0.061215 0.567862
O O8 0.146375 0.370633 0.998751
O O9 0.837804 0.373895 0.438795
O O10 0.000000 0.500000 0.500000
O O11 0.913841 0.225927 0.946620
O O12 0.709662 0.623902 0.560605
O O13 0.655111 0.460740 0.670841
O O14 0.496370 0.691835 0.361245
O O15 0.720216 0.194128 0.528920
#
# Coordination Sequence:
#
# PCOD9060925 Si02
#       7
#     2   2   2   2   2   2   2
#     4  11  23  44  70 101 145 185 231 284 342 425
#     4  11  26  46  73 102 141 187 238 290 345 415
#     4  12  24  51  72  99 144 185 240 294 346 412
#     4  12  26  45  70 106 142 186 234 290 357 412
#     4  11  25  42  68 104 142 184 228 283 351 418
#     4  12  25  43  72 106 145 182 234 285 359 420
#     4  11  25  46  73 106 138 185 237 290 349 413
#
# _framework density 24.72786
#
# number of rings (size 3 to 8) (size 9 to 14) (size 15 to 20)
#    0.000    0.571    4.286    3.429    4.000    0.571 
#    0.000    1.429    0.000    0.000    0.000    0.000 
#    0.000    0.000    0.000    0.000    0.000    0.000 
#
# Total GULP energy -78388.278096 kJ/mol
# GULP energy per Si atom -5599.162721 kJ/mol
# Density = 2.467158 g / cm^3
# Si number density = 24.727860 Si / 1000 Ang^3
#
#
#
# Elastic Constant Matrix: (Units=GPa)
#
#
# Indices 1 2 3 4 5 6 
#
# 1 69.2505 32.6097 21.1362 12.1444 14.4000 1.8347
# 2 32.6097 104.9375 25.5716 3.3238 15.2276 5.7129
# 3 21.1362 25.5716 128.6782 19.8029 26.9619 -8.0983
# 4 12.1444 3.3238 19.8029 29.1526 -1.1777 14.0029
# 5 14.4000 15.2276 26.9619 -1.1777 29.0826 1.7340
# 6 1.8347 5.7129 -8.0983 14.0029 1.7340 47.6372
#
#
#
# Elastic Compliance Matrix: (Units=1/GPa)
#
#
# Indices 1 2 3 4 5 6 
#
# 1 0.020187 -0.005147 0.001642 -0.011114 -0.009495 0.003731
# 2 -0.005147 0.011844 -0.001756 0.003044 -0.001762 -0.002351
# 3 0.001642 -0.001756 0.012954 -0.012988 -0.012824 0.006634
# 4 -0.011114 0.003044 -0.012988 0.057713 0.019468 -0.019818
# 5 -0.009495 -0.001762 -0.012824 0.019468 0.053239 -0.009264
# 6 0.003731 -0.002351 0.006634 -0.019818 -0.009264 0.028421
#
#
# Mechanical properties :
#
#
# Convention : Reuss Voigt Hill
#
# Bulk Modulus (GPa) = 29.01581 51.27790 40.14685
# Shear Modulus (GPa) = 24.22866 36.07773 30.15319
#
# Velocity S-wave (km/s) = 3.13359 3.82382 3.49578
# Velocity P-wave (km/s) = 4.98518 6.34644 5.70655
#
# Compressibility (1/GPa) = 0.03446397
#
# Stress axis : x y z
#
# Youngs Moduli (GPa) = 49.53573 84.43166 77.19694
#
# Poissons Ratio (x) = 0.43453 -0.12672
# Poissons Ratio (y) = 0.25494 0.13553
# Poissons Ratio (z) = -0.08132 0.14823
#
# Static dielectric constant tensor:
#      x y z
#    x 2.004090 0.008340 -0.015030 
#    y 0.008340 1.924730 -0.004250 
#    z -0.015030 -0.004250 1.931710 
# 
# From -- ./inp_files/27568.got.cif
#   From: 2010.05.17/outbox.cif.g08.bks.cpg/sg2_14_cif.got.tgz:27568.got - 2010.06.03 11:33:40.
