data_PCOD9060999
_publ_section_title
;
Structure prediction by ZEFSAII (Michael W. Deem and Ramdas Pophale) SiO2 
 PCOD9060999
Probable space group: P -1
;
_chemical_formula_sum "Si O2"
_cell_formula_units_Z 12
_cell_length_a 13.681930
_cell_length_b 11.923151
_cell_length_c 5.505272
_cell_angle_alpha 87.624188
_cell_angle_beta 95.978083
_cell_angle_gamma 28.989585
_cell_volume 416.200077
_symmetry_space_group_name_H-M "P -1"
_symmetry_group_IT_number 2
_symmetry_cell_setting 'triclinic'
loop_
_space_group_symop_operation_xyz
x,y,z
-x,-y,-z
loop_
_atom_site_type_symbol
_atom_site_label
_atom_site_fract_x
_atom_site_fract_y
_atom_site_fract_z
Si Si1 0.197676 0.547738 0.195892
Si Si2 0.073186 0.901986 0.303931
Si Si3 0.482421 0.224772 0.909757
Si Si4 0.090143 0.293687 0.158405
Si Si5 0.716987 0.751614 0.444922
Si Si6 0.570145 0.470525 0.294177
O O1 0.088497 0.752222 0.301427
O O2 0.196804 0.438981 0.363611
O O3 0.430799 0.319244 0.160074
O O4 0.057982 0.664794 0.909487
O O5 0.340656 0.664651 0.368390
O O6 0.842079 0.171760 0.358286
O O7 0.000000 0.000000 0.000000
O O8 0.346299 0.247372 0.819257
O O9 0.447100 0.373869 0.729563
O O10 0.710814 0.948004 0.925807
O O11 0.149015 0.273633 0.448419
O O12 0.000000 0.500000 0.000000
O O13 0.500000 0.000000 0.500000
O O14 0.500000 0.500000 0.000000
#
# Coordination Sequence:
#
# PCOD9060999 Si02
#       6
#     2   2   2   2   2   2
#     4  11  23  44  71 104 147 201 253 314 397 463
#     4  12  27  48  76 113 155 198 256 329 392 462
#     4  11  23  44  73 102 148 202 253 318 390 467
#     4   9  22  41  69 107 145 192 258 321 381 467
#     4   9  20  41  67 101 141 190 248 319 377 455
#     4  12  27  48  76 114 150 202 261 317 394 472
#
# _framework density 28.832288999999999
#
# number of rings (size 3 to 8) (size 9 to 14) (size 15 to 20)
#    0.000    1.333    1.667    3.000    4.667    6.667 
#    0.000    5.000    0.000    0.000    0.000    0.000 
#    0.000    0.000    0.000    0.000    0.000    0.000 
#
# Total GULP energy -66940.875900 kJ/mol
# GULP energy per Si atom -5578.406325 kJ/mol
# Density = 2.876667 g / cm^3
# Si number density = 28.832289 Si / 1000 Ang^3
#
#
#
# Elastic Constant Matrix: (Units=GPa)
#
#
# Indices 1 2 3 4 5 6 
#
# 1 128.7167 78.2593 56.7525 -1.2444 -2.2463 9.7605
# 2 78.2593 276.3850 115.3368 35.0433 0.1154 13.8287
# 3 56.7525 115.3368 180.7181 15.1542 8.2629 -14.9901
# 4 -1.2444 35.0433 15.1542 91.1576 -9.9370 -4.1648
# 5 -2.2463 0.1154 8.2629 -9.9370 63.5425 12.7024
# 6 9.7605 13.8287 -14.9901 -4.1648 12.7024 58.9181
#
#
#
# Elastic Compliance Matrix: (Units=1/GPa)
#
#
# Indices 1 2 3 4 5 6 
#
# 1 0.010164 -0.002016 -0.002236 0.001333 0.001253 -0.001955
# 2 -0.002016 0.005822 -0.003123 -0.001791 0.000454 -0.002052
# 3 -0.002236 -0.003123 0.008654 -0.000316 -0.001990 0.003712
# 4 0.001333 -0.001791 -0.000316 0.011956 0.001848 0.000566
# 5 0.001253 0.000454 -0.001990 0.001848 0.017208 -0.004400
# 6 -0.001955 -0.002052 0.003712 0.000566 -0.004400 0.019711
#
#
# Mechanical properties :
#
#
# Convention : Reuss Voigt Hill
#
# Bulk Modulus (GPa) = 101.12656 120.72412 110.92534
# Shear Modulus (GPa) = 54.60646 65.08839 59.84742
#
# Velocity S-wave (km/s) = 4.35666 4.75645 4.56094
# Velocity P-wave (km/s) = 7.77544 8.49277 8.14201
#
# Compressibility (1/GPa) = 0.00988860
#
# Stress axis : x y z
#
# Youngs Moduli (GPa) = 98.38633 171.76456 115.54820
#
# Poissons Ratio (x) = 0.34636 0.25839
# Poissons Ratio (y) = 0.19839 0.36088
# Poissons Ratio (z) = 0.22001 0.53645
#
# Static dielectric constant tensor:
#      x y z
#    x 1.759060 0.622840 -0.113070 
#    y 0.622840 1.238510 0.198150 
#    z -0.113070 0.198150 2.318920 
# 
# From -- ./inp_files/94985.got.cif
#   From: 2010.05.17/outbox.cif.g08.bks.cpg/sg2_48_cif.got.tgz:94985.got - 2010.06.03 11:33:40.
