data_PCOD9060213
_publ_section_title
;
Structure prediction by ZEFSAII (Michael W. Deem and Ramdas Pophale) SiO2 
 PCOD9060213
Probable space group: P -1
;
_chemical_formula_sum "Si O2"
_cell_formula_units_Z 10
_cell_length_a 13.409127
_cell_length_b 6.289009
_cell_length_c 10.499791
_cell_angle_alpha 65.395799
_cell_angle_beta 34.476683
_cell_angle_gamma 51.835984
_cell_volume 385.381005
_symmetry_space_group_name_H-M "P -1"
_symmetry_group_IT_number 2
_symmetry_cell_setting 'triclinic'
loop_
_space_group_symop_operation_xyz
x,y,z
-x,-y,-z
loop_
_atom_site_type_symbol
_atom_site_label
_atom_site_fract_x
_atom_site_fract_y
_atom_site_fract_z
Si Si1 0.453284 0.765071 0.816120
Si Si2 0.107638 0.326892 0.133263
Si Si3 0.721410 0.326668 0.235666
Si Si4 0.187389 0.148452 0.572221
Si Si5 0.808021 0.188212 0.564031
O O1 0.332366 0.734854 0.833151
O O2 0.614164 0.853544 0.583263
O O3 0.613900 0.449884 0.768950
O O4 0.297033 0.009808 0.013992
O O5 0.015446 0.541530 0.295965
O O6 0.907284 0.302968 0.328678
O O7 0.177220 0.487133 0.927125
O O8 0.500000 0.500000 0.500000
O O9 0.849544 0.036353 0.245885
O O10 0.247362 0.000456 0.410235
O O11 0.000000 0.000000 0.500000
#
# Coordination Sequence:
#
# PCOD9060213 Si02
#       5
#     2   2   2   2   2
#     4  11  23  43  67  99 130 169 213 264 325 383
#     4  11  25  40  69  99 129 170 216 260 327 381
#     4  12  22  41  69  98 137 165 206 265 327 390
#     4  11  24  43  66  99 134 169 210 264 324 385
#     4  11  26  47  66  91 130 174 222 268 313 376
#
# _framework density 25.948346999999998
#
# number of rings (size 3 to 8) (size 9 to 14) (size 15 to 20)
#    0.000    0.800    4.000    2.400    0.000    5.600 
#    0.000    5.000    0.000    0.000    0.000    0.000 
#    0.000    0.000    0.000    0.000    0.000    0.000 
#
# Total GULP energy -55869.645324 kJ/mol
# GULP energy per Si atom -5586.964532 kJ/mol
# Density = 2.588929 g / cm^3
# Si number density = 25.948347 Si / 1000 Ang^3
#
#
#
# Elastic Constant Matrix: (Units=GPa)
#
#
# Indices 1 2 3 4 5 6 
#
# 1 80.3762 53.5716 16.9076 -5.9207 -21.7030 0.3058
# 2 53.5716 212.9356 58.8753 60.8331 6.6748 4.4106
# 3 16.9076 58.8753 136.3985 24.4740 -2.9446 15.0616
# 4 -5.9207 60.8331 24.4740 66.6070 2.3771 -6.6013
# 5 -21.7030 6.6748 -2.9446 2.3771 18.7790 -3.8406
# 6 0.3058 4.4106 15.0616 -6.6013 -3.8406 31.8432
#
#
#
# Elastic Compliance Matrix: (Units=1/GPa)
#
#
# Indices 1 2 3 4 5 6 
#
# 1 0.038584 -0.016434 -0.001256 0.018327 0.050448 0.012384
# 2 -0.016434 0.013954 -0.001315 -0.013549 -0.023842 -0.006837
# 3 -0.001256 -0.001315 0.009049 -0.002692 -0.000179 -0.004666
# 4 0.018327 -0.013549 -0.002692 0.030349 0.024225 0.012187
# 5 0.050448 -0.023842 -0.000179 0.024225 0.121553 0.022585
# 6 0.012384 -0.006837 -0.004666 0.012187 0.022585 0.039689
#
#
# Mechanical properties :
#
#
# Convention : Reuss Voigt Hill
#
# Bulk Modulus (GPa) = 42.41254 76.49105 59.45179
# Shear Modulus (GPa) = 16.71982 43.46956 30.09469
#
# Velocity S-wave (km/s) = 2.54116 4.09740 3.40927
# Velocity P-wave (km/s) = 4.99905 7.20605 6.20152
#
# Compressibility (1/GPa) = 0.02357793
#
# Stress axis : x y z
#
# Youngs Moduli (GPa) = 25.91763 71.66446 110.50994
#
# Poissons Ratio (x) = 1.17770 0.13881
# Poissons Ratio (y) = 0.42592 0.14528
# Poissons Ratio (z) = 0.03256 0.09422
#
# Static dielectric constant tensor:
#      x y z
#    x 1.965740 -0.007490 0.044730 
#    y -0.007490 2.109290 -0.009670 
#    z 0.044730 -0.009670 2.081650 
# 
# From -- ./inp_files/18210.got.cif
#   From: 2010.05.17/outbox.cif.g08.bks.cpg/sg2_10_cif.got.tgz:18210.got - 2010.06.03 11:33:40.
