data_PCOD9060748
_publ_section_title
;
Structure prediction by ZEFSAII (Michael W. Deem and Ramdas Pophale) SiO2 
 PCOD9060748
Probable space group: P -1
;
_chemical_formula_sum "Si O2"
_cell_formula_units_Z 16
_cell_length_a 15.944775
_cell_length_b 15.279026
_cell_length_c 9.044300
_cell_angle_alpha 43.672939
_cell_angle_beta 143.109713
_cell_angle_gamma 143.260524
_cell_volume 770.082024
_symmetry_space_group_name_H-M "P -1"
_symmetry_group_IT_number 2
_symmetry_cell_setting 'triclinic'
loop_
_space_group_symop_operation_xyz
x,y,z
-x,-y,-z
loop_
_atom_site_type_symbol
_atom_site_label
_atom_site_fract_x
_atom_site_fract_y
_atom_site_fract_z
Si Si1 0.362091 0.068861 0.823564
Si Si2 0.595498 0.418794 0.295453
Si Si3 0.864020 0.761821 0.953674
Si Si4 0.460799 0.390676 0.445020
Si Si5 0.035074 0.422114 0.507048
Si Si6 0.727631 0.143362 0.310090
Si Si7 0.723891 0.901504 0.797118
Si Si8 0.897902 0.018631 0.201973
O O1 0.387291 0.223625 0.609238
O O2 0.259307 0.005522 0.905141
O O3 0.259530 0.941744 0.710751
O O4 0.546116 0.111958 0.065008
O O5 0.597027 0.432822 0.459725
O O6 0.462615 0.243758 0.285340
O O7 0.781157 0.474677 0.433090
O O8 0.500000 0.500000 0.000000
O O9 0.689160 0.616233 0.844807
O O10 0.820785 0.869834 0.845818
O O11 0.970407 0.825579 0.878832
O O12 0.953036 0.713926 0.248347
O O13 0.500000 0.500000 0.500000
O O14 0.867574 0.321510 0.296884
O O15 0.000000 0.500000 0.500000
O O16 0.720147 0.045146 0.561818
O O17 0.817578 0.917633 0.063741
O O18 0.000000 0.000000 0.500000
#
# Coordination Sequence:
#
# PCOD9060748 Si02
#       8
#     2   2   2   2   2   2   2   2
#     4  11  26  44  68 104 138 185 232 288 361 412
#     4  11  24  44  73 105 135 191 240 280 360 421
#     4  11  23  44  66 103 135 178 236 286 345 422
#     4  11  24  43  70 101 147 180 238 293 350 419
#     4  12  28  45  72 104 143 183 241 291 354 421
#     4  11  25  49  70  93 147 185 227 296 350 421
#     4  11  23  44  75  97 140 182 237 289 347 421
#     4  12  24  37  71 108 132 171 240 290 346 406
#
# _framework density 20.777007999999999
#
# number of rings (size 3 to 8) (size 9 to 14) (size 15 to 20)
#    0.000    0.750    7.500    0.375    7.000    2.500 
#    0.000    0.625    0.000    0.000    0.000    0.000 
#    0.000    0.000    0.000    0.000    0.000    0.000 
#
# Total GULP energy -89108.699311 kJ/mol
# GULP energy per Si atom -5569.293707 kJ/mol
# Density = 2.072972 g / cm^3
# Si number density = 20.777008 Si / 1000 Ang^3
#
#
#
# Elastic Constant Matrix: (Units=GPa)
#
#
# Indices 1 2 3 4 5 6 
#
# 1 150.2434 60.2043 11.9835 22.6123 -7.8119 19.3216
# 2 60.2043 120.2916 17.9330 32.1525 3.1350 5.7777
# 3 11.9835 17.9330 42.4146 24.6735 -9.0501 -3.0753
# 4 22.6123 32.1525 24.6735 30.4210 -2.2185 -9.6378
# 5 -7.8119 3.1350 -9.0501 -2.2185 28.8673 4.1529
# 6 19.3216 5.7777 -3.0753 -9.6378 4.1529 42.4676
#
#
#
# Elastic Compliance Matrix: (Units=1/GPa)
#
#
# Indices 1 2 3 4 5 6 
#
# 1 0.010009 -0.002853 0.004698 -0.009968 0.004666 -0.006544
# 2 -0.002853 0.014112 0.004693 -0.018057 -0.001614 -0.004222
# 3 0.004698 0.004693 0.055539 -0.056507 0.015718 -0.013115
# 4 -0.009968 -0.018057 -0.056507 0.113702 -0.014040 0.030077
# 5 0.004666 -0.001614 0.015718 -0.014040 0.041074 -0.007968
# 6 -0.006544 -0.004222 -0.013115 0.030077 -0.007968 0.033754
#
#
# Mechanical properties :
#
#
# Convention : Reuss Voigt Hill
#
# Bulk Modulus (GPa) = 10.78317 54.79903 32.79110
# Shear Modulus (GPa) = 17.48088 35.20643 26.34365
#
# Velocity S-wave (km/s) = 2.90376 4.12088 3.56465
# Velocity P-wave (km/s) = 4.05508 7.00531 5.72355
#
# Compressibility (1/GPa) = 0.09273714
#
# Stress axis : x y z
#
# Youngs Moduli (GPa) = 99.91420 70.85927 18.00525
#
# Poissons Ratio (x) = 0.20213 -0.08459
# Poissons Ratio (y) = 0.28501 -0.08450
# Poissons Ratio (z) = -0.46941 -0.33253
#
# Static dielectric constant tensor:
#      x y z
#    x 1.945610 -0.043950 -0.020010 
#    y -0.043950 1.808590 0.036450 
#    z -0.020010 0.036450 1.847260 
# 
# From -- ./inp_files/312589.got.cif
#   From: 2010.05.17/outbox.cif.g08.bks.cpg/sg2_157_cif.got.tgz:312589.got - 2010.06.03 11:33:40.
