data_PCOD9060917
_publ_section_title
;
Structure prediction by ZEFSAII (Michael W. Deem and Ramdas Pophale) SiO2 
 PCOD9060917
Probable space group: P -1
;
_chemical_formula_sum "Si O2"
_cell_formula_units_Z 15
_cell_length_a 13.415115
_cell_length_b 10.840729
_cell_length_c 7.051029
_cell_angle_alpha 75.112916
_cell_angle_beta 118.491010
_cell_angle_gamma 135.061454
_cell_volume 631.181244
_symmetry_space_group_name_H-M "P -1"
_symmetry_group_IT_number 2
_symmetry_cell_setting 'triclinic'
loop_
_space_group_symop_operation_xyz
x,y,z
-x,-y,-z
loop_
_atom_site_type_symbol
_atom_site_label
_atom_site_fract_x
_atom_site_fract_y
_atom_site_fract_z
Si Si1 0.510372 0.758228 0.656418
Si Si2 0.982086 0.043851 0.173311
Si Si3 0.769987 0.808713 0.386261
Si Si4 0.244965 0.609170 0.188260
Si Si5 0.377893 0.813457 0.862124
Si Si6 0.781739 0.081658 0.503740
Si Si7 0.091666 0.751395 0.081453
Si Si8 0.500000 0.500000 0.000000
O O1 0.360460 0.631043 0.430686
O O2 0.454316 0.805780 0.755969
O O3 0.554111 0.661015 0.840077
O O4 0.642172 0.930380 0.581293
O O5 0.152290 0.201643 0.358026
O O6 0.891315 0.879645 0.296381
O O7 0.877989 0.090107 0.051321
O O8 0.000000 0.000000 0.000000
O O9 0.782419 0.964590 0.406945
O O10 0.605461 0.642372 0.215986
O O11 0.216974 0.736058 0.174070
O O12 0.318106 0.668030 0.021372
O O13 0.071532 0.420274 0.086783
O O14 0.245840 0.808024 0.673136
O O15 0.500000 0.000000 0.000000
O O16 0.922446 0.221666 0.720486
#
# Coordination Sequence:
#
# PCOD9060917 Si02
#       8
#     2   2   2   2   2   2   2   1
#     4  12  26  47  68 103 142 184 229 286 354 412
#     4  11  23  47  72  98 139 188 238 282 345 419
#     4  11  26  46  70 103 136 190 234 286 351 411
#     4  11  25  45  69 104 141 180 229 289 354 398
#     4  12  23  43  72 102 136 184 230 284 342 418
#     4  12  23  46  74  99 140 185 234 288 345 418
#     4  11  23  44  70 100 140 179 229 292 340 412
#     4  12  28  46  68 104 146 178 236 288 348 426
#
# _framework density 23.764963000000002
#
# number of rings (size 3 to 8) (size 9 to 14) (size 15 to 20)
#    0.000    0.533    4.000    4.400    0.000    2.133 
#    2.400    0.000    0.000    0.000    0.000    0.000 
#    0.000    0.000    0.000    0.000    0.000    0.000 
#
# Total GULP energy -83599.611287 kJ/mol
# GULP energy per Si atom -5573.307419 kJ/mol
# Density = 2.371087 g / cm^3
# Si number density = 23.764963 Si / 1000 Ang^3
#
#
#
# Elastic Constant Matrix: (Units=GPa)
#
#
# Indices 1 2 3 4 5 6 
#
# 1 63.7356 8.7262 29.4038 1.5920 -21.6312 -5.4845
# 2 8.7262 43.2039 24.8498 14.2992 -5.1319 -9.6971
# 3 29.4038 24.8498 178.0607 13.8158 -1.2366 -8.1290
# 4 1.5920 14.2992 13.8158 44.9476 -2.6240 -3.2946
# 5 -21.6312 -5.1319 -1.2366 -2.6240 50.0000 -2.9913
# 6 -5.4845 -9.6971 -8.1290 -3.2946 -2.9913 19.7459
#
#
#
# Elastic Compliance Matrix: (Units=1/GPa)
#
#
# Indices 1 2 3 4 5 6 
#
# 1 0.020840 -0.000400 -0.003154 0.001337 0.009322 0.005929
# 2 -0.000400 0.030827 -0.003021 -0.007720 0.003289 0.012994
# 3 -0.003154 -0.003021 0.006628 -0.001059 -0.001569 -0.000046
# 4 0.001337 -0.007720 -0.001059 0.025083 0.001106 0.000497
# 5 0.009322 0.003289 -0.001569 0.001106 0.024839 0.007506
# 6 0.005929 0.012994 -0.000046 0.000497 0.007506 0.059873
#
#
# Mechanical properties :
#
#
# Convention : Reuss Voigt Hill
#
# Bulk Modulus (GPa) = 22.15087 45.66218 33.90652
# Shear Modulus (GPa) = 25.47291 37.74004 31.60648
#
# Velocity S-wave (km/s) = 3.27749 3.98936 3.65082
# Velocity P-wave (km/s) = 4.86453 6.36206 5.66301
#
# Compressibility (1/GPa) = 0.04514496
#
# Stress axis : x y z
#
# Youngs Moduli (GPa) = 47.98441 32.43952 150.88156
#
# Poissons Ratio (x) = 0.01297 0.47587
# Poissons Ratio (y) = 0.01918 0.45582
# Poissons Ratio (z) = 0.15134 0.09800
#
# Static dielectric constant tensor:
#      x y z
#    x 1.972260 -0.013140 0.092600 
#    y -0.013140 1.953240 -0.053310 
#    z 0.092600 -0.053310 2.014770 
# 
# From -- ./inp_files/94827.got.cif
#   From: 2010.05.17/outbox.cif.g08.bks.cpg/sg2_48_cif.got.tgz:94827.got - 2010.06.03 11:33:40.
