data_PCOD9060522
_publ_section_title
;
Structure prediction by ZEFSAII (Michael W. Deem and Ramdas Pophale) SiO2 
 PCOD9060522
Probable space group: P -1
;
_chemical_formula_sum "Si O2"
_cell_formula_units_Z 16
_cell_length_a 22.270119
_cell_length_b 5.334119
_cell_length_c 17.214186
_cell_angle_alpha 86.596730
_cell_angle_beta 160.808970
_cell_angle_gamma 102.443061
_cell_volume 586.516408
_symmetry_space_group_name_H-M "P -1"
_symmetry_group_IT_number 2
_symmetry_cell_setting 'triclinic'
loop_
_space_group_symop_operation_xyz
x,y,z
-x,-y,-z
loop_
_atom_site_type_symbol
_atom_site_label
_atom_site_fract_x
_atom_site_fract_y
_atom_site_fract_z
Si Si1 0.027740 0.280273 0.940730
Si Si2 0.564045 0.900155 0.156082
Si Si3 0.460222 0.047849 0.611868
Si Si4 0.446911 0.552166 0.520222
Si Si5 0.809312 0.637163 0.242915
Si Si6 0.440220 0.731534 0.742384
Si Si7 0.987016 0.770541 0.794951
Si Si8 0.944605 0.871782 0.568904
O O1 0.792366 0.117003 0.687613
O O2 0.060467 0.561035 0.927967
O O3 0.193933 0.383532 0.211603
O O4 0.054800 0.060433 0.920448
O O5 0.687262 0.167401 0.358667
O O6 0.706140 0.767547 0.304397
O O7 0.500000 0.000000 0.000000
O O8 0.351359 0.696333 0.944945
O O9 0.518068 0.880753 0.620399
O O10 0.523050 0.951051 0.768901
O O11 0.528357 0.379745 0.676933
O O12 0.500000 0.500000 0.500000
O O13 0.930763 0.716701 0.472267
O O14 0.635757 0.743538 0.024921
O O15 0.953150 0.797753 0.342391
O O16 0.269204 0.419180 0.508937
O O17 0.038492 0.831610 0.764667
#
# Coordination Sequence:
#
# PCOD9060522 Si02
#       8
#     2   2   2   2   2   2   2   2
#     4  11  24  45  73 103 136 180 241 286 354 432
#     4  12  23  43  70  96 137 192 233 296 345 420
#     4  11  24  43  72 101 135 185 232 292 341 434
#     4  12  26  45  70 101 143 182 230 290 366 420
#     4  11  25  42  65  99 140 182 244 290 353 425
#     4  11  24  43  68 100 136 182 239 287 360 411
#     4  11  23  43  72 103 139 186 233 300 355 422
#     4  11  23  44  65 100 138 186 237 294 358 411
#
# _framework density 27.279714999999999
#
# number of rings (size 3 to 8) (size 9 to 14) (size 15 to 20)
#    0.000    0.750    2.500    6.000    1.750    2.500 
#    4.500    0.000    0.000    0.000    0.000    0.000 
#    0.000    0.000    0.000    0.000    0.000    0.000 
#
# Total GULP energy -89643.003848 kJ/mol
# GULP energy per Si atom -5602.687740 kJ/mol
# Density = 2.721763 g / cm^3
# Si number density = 27.279715 Si / 1000 Ang^3
#
#
#
# Elastic Constant Matrix: (Units=GPa)
#
#
# Indices 1 2 3 4 5 6 
#
# 1 105.1316 38.4027 12.9590 -3.2413 -5.7058 3.8949
# 2 38.4027 171.3815 25.9500 -7.2763 -13.7483 13.9638
# 3 12.9590 25.9500 71.4238 11.9602 6.1327 -2.3455
# 4 -3.2413 -7.2763 11.9602 38.4451 4.1880 -3.9141
# 5 -5.7058 -13.7483 6.1327 4.1880 45.0582 1.4998
# 6 3.8949 13.9638 -2.3455 -3.9141 1.4998 44.6785
#
#
#
# Elastic Compliance Matrix: (Units=1/GPa)
#
#
# Indices 1 2 3 4 5 6 
#
# 1 0.010502 -0.002015 -0.001392 0.000814 0.000839 -0.000316
# 2 -0.002015 0.007120 -0.002745 0.001573 0.002216 -0.002130
# 3 -0.001392 -0.002745 0.016426 -0.005291 -0.002807 0.001472
# 4 0.000814 0.001573 -0.005291 0.028347 -0.001388 0.001689
# 5 0.000839 0.002216 -0.002807 -0.001388 0.023548 -0.001825
# 6 -0.000316 -0.002130 0.001472 0.001689 -0.001825 0.023362
#
#
# Mechanical properties :
#
#
# Convention : Reuss Voigt Hill
#
# Bulk Modulus (GPa) = 45.98893 55.84002 50.91447
# Shear Modulus (GPa) = 38.80279 43.67804 41.24042
#
# Velocity S-wave (km/s) = 3.77557 4.00574 3.89236
# Velocity P-wave (km/s) = 5.99178 6.47367 6.23738
#
# Compressibility (1/GPa) = 0.02174436
#
# Stress axis : x y z
#
# Youngs Moduli (GPa) = 95.22175 140.44599 60.87809
#
# Poissons Ratio (x) = 0.28297 0.08475
# Poissons Ratio (y) = 0.19185 0.16711
# Poissons Ratio (z) = 0.13256 0.38553
#
# Static dielectric constant tensor:
#      x y z
#    x 2.082200 -0.012740 0.030320 
#    y -0.012740 2.164520 0.020960 
#    z 0.030320 0.020960 2.180190 
# 
# From -- ./inp_files/578710.got.cif
#   From: 2010.05.17/outbox.cif.g08.bks.cpg/sg2_290_cif.got.tgz:578710.got - 2010.06.03 11:33:40.
