data_PCOD9060388
_publ_section_title
;
Structure prediction by ZEFSAII (Michael W. Deem and Ramdas Pophale) SiO2 
 PCOD9060388
Probable space group: P -1
;
_chemical_formula_sum "Si O2"
_cell_formula_units_Z 15
_cell_length_a 8.644854
_cell_length_b 8.126398
_cell_length_c 7.977940
_cell_angle_alpha 91.550751
_cell_angle_beta 88.325059
_cell_angle_gamma 93.367467
_cell_volume 559.075232
_symmetry_space_group_name_H-M "P -1"
_symmetry_group_IT_number 2
_symmetry_cell_setting 'triclinic'
loop_
_space_group_symop_operation_xyz
x,y,z
-x,-y,-z
loop_
_atom_site_type_symbol
_atom_site_label
_atom_site_fract_x
_atom_site_fract_y
_atom_site_fract_z
Si Si1 0.381834 0.690060 0.139854
Si Si2 0.500000 0.500000 0.500000
Si Si3 0.215231 0.554488 0.438719
Si Si4 0.022471 0.752307 0.655621
Si Si5 0.621614 0.871411 0.540699
Si Si6 0.734790 0.826323 0.181958
Si Si7 0.813690 0.998369 0.838097
Si Si8 0.837098 0.477874 0.105066
O O1 0.364635 0.586610 0.312270
O O2 0.551599 0.780261 0.139356
O O3 0.242045 0.815766 0.153829
O O4 0.320721 0.564509 0.996143
O O5 0.318936 0.508540 0.590122
O O6 0.542930 0.692612 0.550289
O O7 0.111501 0.398732 0.370094
O O8 0.121977 0.715710 0.483913
O O9 0.956831 0.921277 0.728484
O O10 0.130101 0.682405 0.792196
O O11 0.737452 0.887325 0.376850
O O12 0.681653 0.911574 0.723823
O O13 0.500000 0.000000 0.500000
O O14 0.828761 0.664054 0.172333
O O15 0.803350 0.935407 0.027772
O O16 0.000000 0.500000 0.000000
#
# Coordination Sequence:
#
# PCOD9060388 Si02
#       8
#     2   1   2   2   2   2   2   2
#     4  12  26  46  73 107 143 195 249 305 382 440
#     4  12  22  44  78 108 140 198 254 302 382 446
#     4  11  23  43  70 105 139 185 252 300 364 451
#     4  11  25  45  70 101 146 193 236 311 371 449
#     4  12  26  46  75 114 150 189 252 313 376 445
#     4  12  26  49  76 108 152 193 247 322 365 440
#     4  12  26  49  73 107 154 195 241 311 385 445
#     4  12  25  47  71 106 145 193 253 301 372 455
#
# _framework density 26.830022
#
# number of rings (size 3 to 8) (size 9 to 14) (size 15 to 20)
#    0.000    0.267    6.667    1.600    1.867    3.200 
#    2.400    0.000    0.000    0.000    0.000    0.000 
#    0.000    0.000    0.000    0.000    0.000    0.000 
#
# Total GULP energy -83609.307154 kJ/mol
# GULP energy per Si atom -5573.953810 kJ/mol
# Density = 2.676896 g / cm^3
# Si number density = 26.830022 Si / 1000 Ang^3
#
#
#
# Elastic Constant Matrix: (Units=GPa)
#
#
# Indices 1 2 3 4 5 6 
#
# 1 94.0383 5.4374 -1.4106 12.3443 -8.4845 -5.7378
# 2 5.4374 124.9709 27.1746 13.7164 -18.0837 -39.9246
# 3 -1.4106 27.1746 86.3282 5.0093 -0.7413 10.3056
# 4 12.3443 13.7164 5.0093 50.9157 -2.8213 -7.6578
# 5 -8.4845 -18.0837 -0.7413 -2.8213 45.0108 19.2046
# 6 -5.7378 -39.9246 10.3056 -7.6578 19.2046 54.1776
#
#
#
# Elastic Compliance Matrix: (Units=1/GPa)
#
#
# Indices 1 2 3 4 5 6 
#
# 1 0.011161 0.000041 0.000327 -0.002628 0.001919 0.000098
# 2 0.000041 0.012421 -0.004977 -0.001375 0.000709 0.009659
# 3 0.000327 -0.004977 0.014049 -0.001090 0.001156 -0.006869
# 4 -0.002628 -0.001375 -0.001090 0.021038 -0.000652 0.002121
# 5 0.001919 0.000709 0.001156 -0.000652 0.026704 -0.009052
# 6 0.000098 0.009659 -0.006869 0.002121 -0.009052 0.030401
#
#
# Mechanical properties :
#
#
# Convention : Reuss Voigt Hill
#
# Bulk Modulus (GPa) = 35.19545 40.86000 38.02773
# Shear Modulus (GPa) = 37.18507 48.29657 42.74082
#
# Velocity S-wave (km/s) = 3.72687 4.24735 3.99560
# Velocity P-wave (km/s) = 5.62724 6.27022 5.95741
#
# Compressibility (1/GPa) = 0.02841276
#
# Stress axis : x y z
#
# Youngs Moduli (GPa) = 89.60101 80.50590 71.18090
#
# Poissons Ratio (x) = -0.00329 -0.02326
# Poissons Ratio (y) = -0.00366 0.35424
# Poissons Ratio (z) = -0.02927 0.40064
#
# Static dielectric constant tensor:
#      x y z
#    x -3.463340 2.778110 -5.979620 
#    y 2.778110 0.675550 3.084360 
#    z -5.979620 3.084360 -3.795810 
# 
# From -- ./inp_files/155316.got.cif
#   From: 2010.05.17/outbox.cif.g08.bks.cpg/sg2_78_cif.got.tgz:155316.got - 2010.06.03 11:33:40.
