data_PCOD9060315
_publ_section_title
;
Structure prediction by ZEFSAII (Michael W. Deem and Ramdas Pophale) SiO2 
 PCOD9060315
Probable space group: P -1
;
_chemical_formula_sum "Si O2"
_cell_formula_units_Z 14
_cell_length_a 7.643360
_cell_length_b 14.186954
_cell_length_c 10.724350
_cell_angle_alpha 52.939677
_cell_angle_beta 62.049994
_cell_angle_gamma 44.024381
_cell_volume 643.614592
_symmetry_space_group_name_H-M "P -1"
_symmetry_group_IT_number 2
_symmetry_cell_setting 'triclinic'
loop_
_space_group_symop_operation_xyz
x,y,z
-x,-y,-z
loop_
_atom_site_type_symbol
_atom_site_label
_atom_site_fract_x
_atom_site_fract_y
_atom_site_fract_z
Si Si1 0.051136 0.503746 0.835246
Si Si2 0.115002 0.732368 0.223524
Si Si3 0.762406 0.350360 0.482756
Si Si4 0.584426 0.556527 0.816139
Si Si5 0.452212 0.829994 0.077265
Si Si6 0.282088 0.845738 0.522349
Si Si7 0.544263 0.931174 0.211435
O O1 0.379067 0.726020 0.698012
O O2 0.302356 0.339575 0.846616
O O3 0.818573 0.543887 0.800538
O O4 0.000000 0.500000 0.000000
O O5 0.072110 0.718431 0.393699
O O6 0.311956 0.567537 0.228854
O O7 0.236301 0.818830 0.114400
O O8 0.846029 0.818137 0.179441
O O9 0.500000 0.500000 0.500000
O O10 0.889549 0.383962 0.309136
O O11 0.709168 0.244026 0.527436
O O12 0.500000 0.500000 0.000000
O O13 0.406479 0.921359 0.146456
O O14 0.516214 0.907453 0.893234
O O15 0.464422 0.887266 0.394244
O O16 0.000000 0.000000 0.500000
#
# Coordination Sequence:
#
# PCOD9060315 Si02
#       7
#     2   2   2   2   2   2   2
#     4  12  25  45  72 104 148 190 251 305 368 441
#     4  12  23  46  76 104 142 188 259 300 361 452
#     4  12  23  45  76 104 138 195 247 301 364 437
#     4  12  27  46  75 110 143 197 252 310 370 445
#     4  11  23  43  69 107 142 190 237 303 366 435
#     4  12  27  48  72 108 155 189 242 312 379 436
#     4  11  25  43  71 103 146 190 240 301 370 440
#
# _framework density 21.752147999999998
#
# number of rings (size 3 to 8) (size 9 to 14) (size 15 to 20)
#    0.000    0.286    5.714    3.000    4.000    1.143 
#    5.143    1.429    0.000    0.000    0.000    0.000 
#    0.000    0.000    0.000    0.000    0.000    0.000 
#
# Total GULP energy -78270.234917 kJ/mol
# GULP energy per Si atom -5590.731065 kJ/mol
# Density = 2.170264 g / cm^3
# Si number density = 21.752148 Si / 1000 Ang^3
#
#
#
# Elastic Constant Matrix: (Units=GPa)
#
#
# Indices 1 2 3 4 5 6 
#
# 1 120.9186 31.7672 48.1592 -11.4084 -16.5563 -4.3161
# 2 31.7672 70.6890 24.7151 -17.3592 -2.0576 -11.1632
# 3 48.1592 24.7151 175.5611 -19.9933 -18.3198 -0.4636
# 4 -11.4084 -17.3592 -19.9933 35.1017 3.8458 5.0348
# 5 -16.5563 -2.0576 -18.3198 3.8458 43.8932 -0.4322
# 6 -4.3161 -11.1632 -0.4636 5.0348 -0.4322 31.2027
#
#
#
# Elastic Compliance Matrix: (Units=1/GPa)
#
#
# Indices 1 2 3 4 5 6 
#
# 1 0.010511 -0.003922 -0.002025 -0.000008 0.002937 0.000063
# 2 -0.003922 0.018663 -0.000915 0.006887 -0.001541 0.004988
# 3 -0.002025 -0.000915 0.006880 0.002741 0.001815 -0.000922
# 4 -0.000008 0.006887 0.002741 0.034055 -0.001549 -0.003013
# 5 0.002937 -0.001541 0.001815 -0.001549 0.024716 0.000474
# 6 0.000063 0.004988 -0.000922 -0.003013 0.000474 0.034321
#
#
# Mechanical properties :
#
#
# Convention : Reuss Voigt Hill
#
# Bulk Modulus (GPa) = 44.78447 64.05018 54.41732
# Shear Modulus (GPa) = 33.26405 39.54133 36.40269
#
# Velocity S-wave (km/s) = 3.91478 4.26821 4.09531
# Velocity P-wave (km/s) = 6.40837 7.33481 6.88719
#
# Compressibility (1/GPa) = 0.02232917
#
# Stress axis : x y z
#
# Youngs Moduli (GPa) = 95.14203 53.58214 145.35806
#
# Poissons Ratio (x) = 0.21014 0.29441
# Poissons Ratio (y) = 0.37313 0.13297
# Poissons Ratio (z) = 0.19270 0.04902
#
# Static dielectric constant tensor:
#      x y z
#    x 1.781750 -0.003630 0.002510 
#    y -0.003630 1.771110 -0.020400 
#    z 0.002510 -0.020400 1.864730 
# 
# From -- ./inp_files/363800.got.cif
#   From: 2010.05.17/outbox.cif.g08.bks.cpg/sg2_182_cif.got.tgz:363800.got - 2010.06.03 11:33:40.
