data_PCOD9060242
_publ_section_title
;
Structure prediction by ZEFSAII (Michael W. Deem and Ramdas Pophale) SiO2 
 PCOD9060242
Probable space group: P -1
;
_chemical_formula_sum "Si O2"
_cell_formula_units_Z 14
_cell_length_a 7.869033
_cell_length_b 8.622626
_cell_length_c 11.565505
_cell_angle_alpha 46.419269
_cell_angle_beta 87.475442
_cell_angle_gamma 93.455549
_cell_volume 563.444675
_symmetry_space_group_name_H-M "P -1"
_symmetry_group_IT_number 2
_symmetry_cell_setting 'triclinic'
loop_
_space_group_symop_operation_xyz
x,y,z
-x,-y,-z
loop_
_atom_site_type_symbol
_atom_site_label
_atom_site_fract_x
_atom_site_fract_y
_atom_site_fract_z
Si Si1 0.950862 0.720533 0.941924
Si Si2 0.376668 0.008264 0.608375
Si Si3 0.017770 0.784468 0.673419
Si Si4 0.255294 0.248603 0.845118
Si Si5 0.945971 0.413491 0.671093
Si Si6 0.399744 0.511127 0.300118
Si Si7 0.340259 0.839901 0.945023
O O1 0.901913 0.816001 0.773229
O O2 0.134924 0.807736 0.943724
O O3 0.803064 0.717531 0.040196
O O4 0.000000 0.500000 0.000000
O O5 0.341118 0.260529 0.467655
O O6 0.500000 0.000000 0.500000
O O7 0.215759 0.824453 0.685095
O O8 0.427861 0.938655 0.772321
O O9 0.977848 0.584181 0.690452
O O10 0.000000 0.000000 0.500000
O O11 0.076714 0.243920 0.783302
O O12 0.400549 0.436533 0.700970
O O13 0.344543 0.036542 0.933474
O O14 0.000000 0.500000 0.500000
O O15 0.741538 0.358264 0.702829
O O16 0.392067 0.618837 0.114318
#
# Coordination Sequence:
#
# PCOD9060242 Si02
#       7
#     2   2   2   2   2   2   2
#     4  11  23  45  74 102 144 193 248 305 362 442
#     4  11  26  45  73 110 151 191 249 314 367 446
#     4  11  23  43  68 104 141 186 245 298 362 438
#     4  12  26  47  77 108 151 196 248 312 367 441
#     4  12  26  46  75 108 150 197 243 305 375 443
#     4  12  26  48  76 110 148 195 252 301 377 444
#     4  11  26  48  73 109 150 196 252 303 374 446
#
# _framework density 24.847161
#
# number of rings (size 3 to 8) (size 9 to 14) (size 15 to 20)
#    0.000    0.571    4.286    2.571    4.000    5.143 
#    0.000    0.000    0.000    0.000    0.000    0.000 
#    0.000    0.000    0.000    0.000    0.000    0.000 
#
# Total GULP energy -78016.900394 kJ/mol
# GULP energy per Si atom -5572.635742 kJ/mol
# Density = 2.479061 g / cm^3
# Si number density = 24.847161 Si / 1000 Ang^3
#
#
#
# Elastic Constant Matrix: (Units=GPa)
#
#
# Indices 1 2 3 4 5 6 
#
# 1 92.9570 13.0134 9.1427 19.2307 -25.4007 -22.8555
# 2 13.0134 57.0707 15.3629 5.5219 -8.9183 -2.3123
# 3 9.1427 15.3629 166.1575 18.5751 -8.6112 -22.5351
# 4 19.2307 5.5219 18.5751 43.7714 -12.2799 -14.3410
# 5 -25.4007 -8.9183 -8.6112 -12.2799 47.4064 -2.7467
# 6 -22.8555 -2.3123 -22.5351 -14.3410 -2.7467 20.3281
#
#
#
# Elastic Compliance Matrix: (Units=1/GPa)
#
#
# Indices 1 2 3 4 5 6 
#
# 1 0.022650 -0.002850 0.004053 0.004471 0.015515 0.034885
# 2 -0.002850 0.018826 -0.001918 -0.001295 0.001101 -0.003955
# 3 0.004053 -0.001918 0.008065 0.001064 0.004399 0.014625
# 4 0.004471 -0.001295 0.001064 0.034981 0.013291 0.032534
# 5 0.015515 0.001101 0.004399 0.013291 0.035982 0.036684
# 6 0.034885 -0.003955 0.014625 0.032534 0.036684 0.132086
#
#
# Mechanical properties :
#
#
# Convention : Reuss Voigt Hill
#
# Bulk Modulus (GPa) = 20.78601 43.46925 32.12763
# Shear Modulus (GPa) = 18.51452 40.87893 29.69672
#
# Velocity S-wave (km/s) = 2.73268 4.06053 3.46088
# Velocity P-wave (km/s) = 4.28257 6.28621 5.37852
#
# Compressibility (1/GPa) = 0.04810929
#
# Stress axis : x y z
#
# Youngs Moduli (GPa) = 44.15011 53.11914 123.98989
#
# Poissons Ratio (x) = 0.15140 -0.50251
# Poissons Ratio (y) = 0.12584 0.23785
# Poissons Ratio (z) = -0.17893 0.10190
#
# Static dielectric constant tensor:
#      x y z
#    x 2.684800 -0.097430 0.624910 
#    y -0.097430 2.088940 -0.248410 
#    z 0.624910 -0.248410 2.597540 
# 
# From -- ./inp_files/381033.got.cif
#   From: 2010.05.17/outbox.cif.g08.bks.cpg/sg2_191_cif.got.tgz:381033.got - 2010.06.03 11:33:40.
