data_PCOD9060136
_publ_section_title
;
Structure prediction by ZEFSAII (Michael W. Deem and Ramdas Pophale) SiO2 
 PCOD9060136
Probable space group: P -1
;
_chemical_formula_sum "Si O2"
_cell_formula_units_Z 12
_cell_length_a 5.033346
_cell_length_b 23.806099
_cell_length_c 20.867360
_cell_angle_alpha 11.636952
_cell_angle_beta 97.762420
_cell_angle_gamma 97.367690
_cell_volume 499.633926
_symmetry_space_group_name_H-M "P -1"
_symmetry_group_IT_number 2
_symmetry_cell_setting 'triclinic'
loop_
_space_group_symop_operation_xyz
x,y,z
-x,-y,-z
loop_
_atom_site_type_symbol
_atom_site_label
_atom_site_fract_x
_atom_site_fract_y
_atom_site_fract_z
Si Si1 0.040620 0.446873 0.203216
Si Si2 0.051387 0.158426 0.078225
Si Si3 0.640233 0.913392 0.166687
Si Si4 0.067879 0.583480 0.336146
Si Si5 0.552646 0.466425 0.763068
Si Si6 0.499943 0.333815 0.118422
O O1 0.240924 0.474191 0.239831
O O2 0.242379 0.539713 0.050035
O O3 0.932053 0.137446 0.557364
O O4 0.767453 0.610498 0.994376
O O5 0.270397 0.349397 0.905869
O O6 0.114924 0.220007 0.936305
O O7 0.738981 0.245117 0.977751
O O8 0.873459 0.699125 0.386581
O O9 0.500172 0.723176 0.427086
O O10 0.500000 0.000000 0.000000
O O11 0.698400 0.201324 0.881784
O O12 0.000000 0.500000 0.500000
O O13 0.500000 0.000000 0.500000
O O14 0.500000 0.500000 0.000000
#
# Coordination Sequence:
#
# PCOD9060136 Si02
#       6
#     2   2   2   2   2   2
#     4  12  26  50  80 110 153 194 247 310 364 460
#     4  11  25  45  73 109 149 199 253 306 369 435
#     4  11  23  43  66 104 147 199 253 311 366 430
#     4  11  23  43  66 104 147 199 253 311 366 430
#     4  11  25  45  73 109 149 199 253 306 369 435
#     4  12  30  52  82 114 151 194 241 304 386 456
#
# _framework density 24.017582999999998
#
# number of rings (size 3 to 8) (size 9 to 14) (size 15 to 20)
#    0.000    0.667    1.667    5.000    7.000    2.667 
#    3.000    0.000    0.000    0.000    0.000    0.000 
#    0.000    0.000    0.000    0.000    0.000    0.000 
#
# Total GULP energy -66920.521722 kJ/mol
# GULP energy per Si atom -5576.710143 kJ/mol
# Density = 2.396292 g / cm^3
# Si number density = 24.017583 Si / 1000 Ang^3
#
#
#
# Elastic Constant Matrix: (Units=GPa)
#
#
# Indices 1 2 3 4 5 6 
#
# 1 110.5203 18.3844 52.7574 22.4556 -12.2807 12.1722
# 2 18.3844 105.0543 46.7505 17.0292 -15.5505 3.1409
# 3 52.7574 46.7505 184.4012 52.8608 -11.0270 -4.9527
# 4 22.4556 17.0292 52.8608 41.1284 1.1553 -0.6476
# 5 -12.2807 -15.5505 -11.0270 1.1553 39.4691 4.4311
# 6 12.1722 3.1409 -4.9527 -0.6476 4.4311 43.4091
#
#
#
# Elastic Compliance Matrix: (Units=1/GPa)
#
#
# Indices 1 2 3 4 5 6 
#
# 1 0.011677 0.000209 -0.002188 -0.003816 0.003662 -0.003970
# 2 0.000209 0.011465 -0.002091 -0.002318 0.004245 -0.001595
# 3 -0.002188 -0.002091 0.009680 -0.010394 0.001327 0.001579
# 4 -0.003816 -0.002318 -0.010394 0.040915 -0.006349 0.001310
# 5 0.003662 0.004245 0.001327 -0.006349 0.029182 -0.004256
# 6 -0.003970 -0.001595 0.001579 0.001310 -0.004256 0.024899
#
#
# Mechanical properties :
#
#
# Convention : Reuss Voigt Hill
#
# Bulk Modulus (GPa) = 40.51334 70.64005 55.57669
# Shear Modulus (GPa) = 34.67772 43.60690 39.14231
#
# Velocity S-wave (km/s) = 3.80392 4.26564 4.04138
# Velocity P-wave (km/s) = 6.01647 7.33052 6.70576
#
# Compressibility (1/GPa) = 0.02468323
#
# Stress axis : x y z
#
# Youngs Moduli (GPa) = 85.63849 87.22573 103.30330
#
# Poissons Ratio (x) = -0.01826 0.22599
# Poissons Ratio (y) = -0.01793 0.21600
# Poissons Ratio (z) = 0.18735 0.18238
#
# Static dielectric constant tensor:
#      x y z
#    x 1.949780 -0.052960 0.018510 
#    y -0.052960 2.077690 -0.019330 
#    z 0.018510 -0.019330 1.953820 
# 
# From -- ./inp_files/10125.got.cif
#   From: 2010.05.17/outbox.cif.g08.bks.cpg/sg2_6_cif.got.tgz:10125.got - 2010.06.03 11:33:40.
