data_PCOD9060517
_publ_section_title
;
Structure prediction by ZEFSAII (Michael W. Deem and Ramdas Pophale) SiO2 
 PCOD9060517
Probable space group: P -1
;
_chemical_formula_sum "Si O2"
_cell_formula_units_Z 14
_cell_length_a 12.755758
_cell_length_b 8.335488
_cell_length_c 8.828374
_cell_angle_alpha 112.007308
_cell_angle_beta 79.023665
_cell_angle_gamma 137.885960
_cell_volume 577.802458
_symmetry_space_group_name_H-M "P -1"
_symmetry_group_IT_number 2
_symmetry_cell_setting 'triclinic'
loop_
_space_group_symop_operation_xyz
x,y,z
-x,-y,-z
loop_
_atom_site_type_symbol
_atom_site_label
_atom_site_fract_x
_atom_site_fract_y
_atom_site_fract_z
Si Si1 0.903885 0.447062 0.861295
Si Si2 0.616504 0.289584 0.513621
Si Si3 0.104428 0.993180 0.573928
Si Si4 0.810178 0.223184 0.312881
Si Si5 0.643336 0.850957 0.661907
Si Si6 0.138663 0.256154 0.169415
Si Si7 0.641747 0.771022 0.978148
O O1 0.874973 0.616493 0.914075
O O2 0.021468 0.550904 0.728680
O O3 0.749705 0.149223 0.771521
O O4 0.000000 0.500000 0.000000
O O5 0.751884 0.344215 0.411033
O O6 0.509112 0.281770 0.438594
O O7 0.707143 0.495352 0.693140
O O8 0.500000 0.000000 0.500000
O O9 0.164454 0.878328 0.591818
O O10 0.007205 0.926627 0.736975
O O11 0.249833 0.155228 0.465092
O O12 0.000000 0.000000 0.500000
O O13 0.688384 0.992718 0.144621
O O14 0.595431 0.743345 0.807177
O O15 0.195394 0.143230 0.045499
O O16 0.500000 0.500000 0.000000
#
# Coordination Sequence:
#
# PCOD9060517 Si02
#       7
#     2   2   2   2   2   2   2
#     4  11  23  43  72 102 138 184 243 285 353 415
#     4  12  23  43  73 104 142 182 237 287 353 419
#     4  11  23  43  72 102 138 184 243 285 353 415
#     4  11  25  45  73 105 144 186 234 303 348 422
#     4  12  25  45  76 105 141 190 243 291 352 430
#     4  11  25  45  73 105 144 186 234 303 348 422
#     4  12  28  45  67 108 149 183 232 291 370 417
#
# _framework density 24.229733
#
# number of rings (size 3 to 8) (size 9 to 14) (size 15 to 20)
#    0.000    0.571    5.714    1.714    0.000    9.143 
#    0.000    0.000    0.000    0.000    0.000    0.000 
#    0.000    0.000    0.000    0.000    0.000    0.000 
#
# Total GULP energy -78027.385181 kJ/mol
# GULP energy per Si atom -5573.384656 kJ/mol
# Density = 2.417459 g / cm^3
# Si number density = 24.229733 Si / 1000 Ang^3
#
#
#
# Elastic Constant Matrix: (Units=GPa)
#
#
# Indices 1 2 3 4 5 6 
#
# 1 175.4543 -4.5143 49.6929 -1.5449 38.6723 2.9614
# 2 -4.5143 103.2225 54.0733 -1.5044 20.8018 -6.5527
# 3 49.6929 54.0733 114.2782 0.3321 45.3763 -8.2065
# 4 -1.5449 -1.5044 0.3321 54.1033 -0.4550 8.3952
# 5 38.6723 20.8018 45.3763 -0.4550 51.8306 -1.8760
# 6 2.9614 -6.5527 -8.2065 8.3952 -1.8760 15.8663
#
#
#
# Elastic Compliance Matrix: (Units=1/GPa)
#
#
# Indices 1 2 3 4 5 6 
#
# 1 0.007609 0.002630 -0.003136 0.000712 -0.004083 -0.002816
# 2 0.002630 0.013869 -0.007123 0.000301 -0.001245 0.001246
# 3 -0.003136 -0.007123 0.018099 -0.001506 -0.010422 0.006569
# 4 0.000712 0.000301 -0.001506 0.020306 0.000429 -0.011481
# 5 -0.004083 -0.001245 -0.010422 0.000429 0.031910 -0.001596
# 6 -0.002816 0.001246 0.006569 -0.011481 -0.001596 0.073351
#
#
# Mechanical properties :
#
#
# Convention : Reuss Voigt Hill
#
# Bulk Modulus (GPa) = 41.12123 65.71764 53.41943
# Shear Modulus (GPa) = 26.52393 43.94023 35.23208
#
# Velocity S-wave (km/s) = 3.31219 4.26312 3.81738
# Velocity P-wave (km/s) = 5.62456 7.17035 6.44397
#
# Compressibility (1/GPa) = 0.02431834
#
# Stress axis : x y z
#
# Youngs Moduli (GPa) = 131.41999 72.10511 55.25100
#
# Poissons Ratio (x) = -0.18965 0.17329
# Poissons Ratio (y) = -0.34566 0.39356
# Poissons Ratio (z) = 0.41219 0.51361
#
# Static dielectric constant tensor:
#      x y z
#    x 2.281200 -0.082900 0.013020 
#    y -0.082900 2.044860 0.090860 
#    z 0.013020 0.090860 2.057990 
# 
# From -- ./inp_files/186864.got.cif
#   From: 2010.05.17/outbox.cif.g08.bks.cpg/sg2_94_cif.got.tgz:186864.got - 2010.06.03 11:33:40.
