data_PCOD9060769
_publ_section_title
;
Structure prediction by ZEFSAII (Michael W. Deem and Ramdas Pophale) SiO2 
 PCOD9060769
Probable space group: P -1
;
_chemical_formula_sum "Si O2"
_cell_formula_units_Z 16
_cell_length_a 8.270158
_cell_length_b 11.145308
_cell_length_c 9.288247
_cell_angle_alpha 92.947659
_cell_angle_beta 85.956530
_cell_angle_gamma 50.498887
_cell_volume 653.780515
_symmetry_space_group_name_H-M "P -1"
_symmetry_group_IT_number 2
_symmetry_cell_setting 'triclinic'
loop_
_space_group_symop_operation_xyz
x,y,z
-x,-y,-z
loop_
_atom_site_type_symbol
_atom_site_label
_atom_site_fract_x
_atom_site_fract_y
_atom_site_fract_z
Si Si1 0.238330 0.581701 0.167384
Si Si2 0.436637 0.352544 0.896616
Si Si3 0.100318 0.073152 0.719316
Si Si4 0.785546 0.868855 0.568387
Si Si5 0.345173 0.966203 0.963616
Si Si6 0.519536 0.378900 0.381715
Si Si7 0.577685 0.775484 0.400810
Si Si8 0.030442 0.843870 0.795921
O O1 0.403164 0.615108 0.146908
O O2 0.316191 0.473157 0.296620
O O3 0.017707 0.750943 0.211195
O O4 0.256815 0.494146 0.017757
O O5 0.363027 0.326156 0.751561
O O6 0.560319 0.196567 0.976723
O O7 0.112198 0.089914 0.550959
O O8 0.987982 0.000218 0.752628
O O9 0.314123 0.966310 0.794651
O O10 0.752278 0.759767 0.483710
O O11 0.923274 0.798087 0.696336
O O12 0.569724 0.042896 0.628269
O O13 0.104187 0.097224 0.046277
O O14 0.500000 0.000000 0.000000
O O15 0.500000 0.500000 0.500000
O O16 0.537193 0.258893 0.482068
O O17 0.720306 0.291780 0.254880
#
# Coordination Sequence:
#
# PCOD9060769 Si02
#       8
#     2   2   2   2   2   2   2   2
#     4  11  25  42  72 103 143 182 239 292 350 419
#     4  11  23  44  67 101 143 183 230 291 359 408
#     4  12  24  45  73 108 136 187 244 291 348 426
#     4  11  24  42  71 104 139 180 239 295 357 405
#     4  12  27  45  71 104 146 183 236 292 359 421
#     4  12  25  44  73 109 144 189 234 292 356 424
#     4  11  23  44  70 100 145 184 226 298 356 414
#     4  12  25  43  73 104 140 185 247 291 341 427
#
# _framework density 24.473044000000002
#
# number of rings (size 3 to 8) (size 9 to 14) (size 15 to 20)
#    0.000    0.500    5.000    3.000    5.250    0.000 
#    0.000    6.250    0.000    0.000    0.000    0.000 
#    0.000    0.000    0.000    0.000    0.000    0.000 
#
# Total GULP energy -89534.208402 kJ/mol
# GULP energy per Si atom -5595.888025 kJ/mol
# Density = 2.441734 g / cm^3
# Si number density = 24.473044 Si / 1000 Ang^3
#
#
#
# Elastic Constant Matrix: (Units=GPa)
#
#
# Indices 1 2 3 4 5 6 
#
# 1 57.8068 8.7324 13.3728 13.1017 8.0705 17.6107
# 2 8.7324 97.5938 31.6120 13.3182 0.1005 6.6825
# 3 13.3728 31.6120 108.7321 23.4384 15.0286 14.2321
# 4 13.1017 13.3182 23.4384 41.4865 8.2354 7.7561
# 5 8.0705 0.1005 15.0286 8.2354 48.8547 3.5618
# 6 17.6107 6.6825 14.2321 7.7561 3.5618 18.8830
#
#
#
# Elastic Compliance Matrix: (Units=1/GPa)
#
#
# Indices 1 2 3 4 5 6 
#
# 1 0.024987 -0.000567 0.001087 -0.003778 -0.002224 -0.021951
# 2 -0.000567 0.011578 -0.002954 -0.001995 0.001372 -0.000782
# 3 0.001087 -0.002954 0.012138 -0.004456 -0.002662 -0.006784
# 4 -0.003778 -0.001995 -0.004456 0.029766 -0.002718 -0.004126
# 5 -0.002224 0.001372 -0.002662 -0.002718 0.022070 0.000548
# 6 -0.021951 -0.000782 -0.006784 -0.004126 0.000548 0.080411
#
#
# Mechanical properties :
#
#
# Convention : Reuss Voigt Hill
#
# Bulk Modulus (GPa) = 22.81226 41.28523 32.04875
# Shear Modulus (GPa) = 24.94620 35.87255 30.40937
#
# Velocity S-wave (km/s) = 3.19616 3.83273 3.52883
# Velocity P-wave (km/s) = 4.79189 6.04092 5.45229
#
# Compressibility (1/GPa) = 0.04383609
#
# Stress axis : x y z
#
# Youngs Moduli (GPa) = 40.02047 86.36750 82.38282
#
# Poissons Ratio (x) = 0.04896 -0.08951
# Poissons Ratio (y) = 0.02269 0.24333
# Poissons Ratio (z) = -0.04348 0.25510
#
# Static dielectric constant tensor:
#      x y z
#    x 1.973630 -0.032670 -0.041130 
#    y -0.032670 1.961080 0.023700 
#    z -0.041130 0.023700 1.931070 
# 
# From -- ./inp_files/187627.got.cif
#   From: 2010.05.17/outbox.cif.g08.bks.cpg/sg2_94_cif.got.tgz:187627.got - 2010.06.03 11:33:40.
