data_PCOD9060967
_publ_section_title
;
Structure prediction by ZEFSAII (Michael W. Deem and Ramdas Pophale) SiO2 
 PCOD9060967
Probable space group: P -1
;
_chemical_formula_sum "Si O2"
_cell_formula_units_Z 16
_cell_length_a 20.096747
_cell_length_b 11.732570
_cell_length_c 8.748666
_cell_angle_alpha 130.391985
_cell_angle_beta 145.685454
_cell_angle_gamma 44.313267
_cell_volume 803.809245
_symmetry_space_group_name_H-M "P -1"
_symmetry_group_IT_number 2
_symmetry_cell_setting 'triclinic'
loop_
_space_group_symop_operation_xyz
x,y,z
-x,-y,-z
loop_
_atom_site_type_symbol
_atom_site_label
_atom_site_fract_x
_atom_site_fract_y
_atom_site_fract_z
Si Si1 0.644613 0.423664 0.134968
Si Si2 0.387815 0.984507 0.671288
Si Si3 0.493756 0.618287 0.448567
Si Si4 0.103252 0.854933 0.467439
Si Si5 0.765784 0.479001 0.913039
Si Si6 0.010394 0.586986 0.938795
Si Si7 0.852818 0.088957 0.733402
Si Si8 0.738220 0.655638 0.344054
O O1 0.763204 0.271611 0.307448
O O2 0.690624 0.565343 0.303544
O O3 0.500000 0.500000 0.000000
O O4 0.613559 0.371554 0.865546
O O5 0.461494 0.804382 0.586296
O O6 0.254015 0.976640 0.472707
O O7 0.343004 0.149121 0.630761
O O8 0.500000 0.000000 0.000000
O O9 0.500000 0.500000 0.500000
O O10 0.643898 0.533221 0.612504
O O11 0.140681 0.928299 0.452315
O O12 0.031552 0.746053 0.170848
O O13 0.000000 0.000000 0.500000
O O14 0.873731 0.505414 0.041037
O O15 0.734092 0.583106 0.102082
O O16 0.806488 0.284488 0.853159
O O17 0.883543 0.623506 0.631655
O O18 0.000000 0.500000 0.000000
O O19 0.000000 0.000000 0.000000
#
# Coordination Sequence:
#
# PCOD9060967 Si02
#       8
#     2   2   2   2   2   2   2   2
#     4  12  26  46  72  97 139 190 230 275 348 427
#     4  12  24  42  69 107 136 167 230 300 340 393
#     4  12  23  44  74  97 134 179 233 276 338 423
#     4  11  27  45  68 100 138 182 231 282 346 417
#     4  11  23  44  70  98 130 183 229 273 344 413
#     4  11  24  44  66  97 137 173 222 283 348 405
#     4  11  25  44  74  98 134 179 240 280 336 427
#     4  12  25  43  70 100 137 175 227 289 346 403
#
# _framework density 19.905221000000001
#
# number of rings (size 3 to 8) (size 9 to 14) (size 15 to 20)
#    0.000    0.500    5.000    3.375    7.000    1.000 
#    0.000    0.625    0.000    0.000    0.000    0.000 
#    0.000    0.000    0.000    0.000    0.000    0.000 
#
# Total GULP energy -89207.237949 kJ/mol
# GULP energy per Si atom -5575.452372 kJ/mol
# Density = 1.985992 g / cm^3
# Si number density = 19.905221 Si / 1000 Ang^3
#
#
#
# Elastic Constant Matrix: (Units=GPa)
#
#
# Indices 1 2 3 4 5 6 
#
# 1 66.2943 31.5442 24.2851 -24.8283 6.6530 1.5001
# 2 31.5442 126.0668 37.3414 -20.9954 0.5689 0.7392
# 3 24.2851 37.3414 138.3161 -23.1917 19.5426 10.9557
# 4 -24.8283 -20.9954 -23.1917 38.8869 -7.2448 -4.9876
# 5 6.6530 0.5689 19.5426 -7.2448 38.9532 -1.8504
# 6 1.5001 0.7392 10.9557 -4.9876 -1.8504 24.4356
#
#
#
# Elastic Compliance Matrix: (Units=1/GPa)
#
#
# Indices 1 2 3 4 5 6 
#
# 1 0.021225 -0.003148 -0.000969 0.011289 -0.000924 0.001461
# 2 -0.003148 0.009737 -0.002038 0.002590 0.001971 0.001490
# 3 -0.000969 -0.002038 0.009268 0.002541 -0.004164 -0.003831
# 4 0.011289 0.002590 0.002541 0.037353 0.003992 0.006016
# 5 -0.000924 0.001971 -0.004164 0.003992 0.028863 0.004865
# 6 0.001461 0.001490 -0.003831 0.006016 0.004865 0.044103
#
#
# Mechanical properties :
#
#
# Convention : Reuss Voigt Hill
#
# Bulk Modulus (GPa) = 35.81720 57.44650 46.63185
# Shear Modulus (GPa) = 29.04163 36.28890 32.66527
#
# Velocity S-wave (km/s) = 3.82382 4.27439 4.05537
# Velocity P-wave (km/s) = 6.12605 7.29954 6.73839
#
# Compressibility (1/GPa) = 0.02791955
#
# Stress axis : x y z
#
# Youngs Moduli (GPa) = 47.11473 102.69589 107.89768
#
# Poissons Ratio (x) = 0.32330 0.10455
# Poissons Ratio (y) = 0.14832 0.21993
# Poissons Ratio (z) = 0.04565 0.20933
#
# Static dielectric constant tensor:
#      x y z
#    x 1.783690 -0.032550 0.030580 
#    y -0.032550 1.670260 -0.026030 
#    z 0.030580 -0.026030 1.691300 
# 
# From -- ./inp_files/306449.got.cif
#   From: 2010.05.17/outbox.cif.g08.bks.cpg/sg2_154_cif.got.tgz:306449.got - 2010.06.03 11:33:40.
