data_PCOD9060672
_publ_section_title
;
Structure prediction by ZEFSAII (Michael W. Deem and Ramdas Pophale) SiO2 
 PCOD9060672
Probable space group: P -1
;
_chemical_formula_sum "Si O2"
_cell_formula_units_Z 12
_cell_length_a 11.446093
_cell_length_b 8.626909
_cell_length_c 9.333430
_cell_angle_alpha 42.562043
_cell_angle_beta 81.935408
_cell_angle_gamma 62.006839
_cell_volume 516.860978
_symmetry_space_group_name_H-M "P -1"
_symmetry_group_IT_number 2
_symmetry_cell_setting 'triclinic'
loop_
_space_group_symop_operation_xyz
x,y,z
-x,-y,-z
loop_
_atom_site_type_symbol
_atom_site_label
_atom_site_fract_x
_atom_site_fract_y
_atom_site_fract_z
Si Si1 0.669380 0.338593 0.100684
Si Si2 0.360043 0.807452 0.481515
Si Si3 0.162138 0.393286 0.018586
Si Si4 0.881774 0.472428 0.384571
Si Si5 0.426300 0.239416 0.726820
Si Si6 0.076945 0.083900 0.823029
O O1 0.685849 0.179787 0.355321
O O2 0.760839 0.132207 0.096542
O O3 0.500000 0.500000 0.000000
O O4 0.742476 0.516131 0.976663
O O5 0.407332 0.508134 0.621270
O O6 0.487841 0.831994 0.387289
O O7 0.236505 0.066938 0.240587
O O8 0.159131 0.506321 0.785751
O O9 0.000000 0.500000 0.000000
O O10 0.732183 0.648313 0.368093
O O11 0.949738 0.645187 0.282006
O O12 0.989044 0.173571 0.629212
O O13 0.500000 0.000000 0.000000
O O14 0.000000 0.000000 0.000000
#
# Coordination Sequence:
#
# PCOD9060672 Si02
#       6
#     2   2   2   2   2   2
#     4  12  29  47  71 112 152 187 246 308 369 431
#     4  11  25  43  74 106 142 191 238 309 363 428
#     4  12  26  47  77 106 145 193 249 300 365 444
#     4  11  25  45  72 102 142 189 255 294 355 450
#     4  11  23  43  75 108 136 185 248 303 362 436
#     4  11  28  46  70 105 148 198 239 304 369 431
#
# _framework density 23.217074
#
# number of rings (size 3 to 8) (size 9 to 14) (size 15 to 20)
#    0.000    0.667    3.333    2.000   11.667    3.333 
#    0.000    0.000    0.000    0.000    0.000    0.000 
#    0.000    0.000    0.000    0.000    0.000    0.000 
#
# Total GULP energy -66896.309317 kJ/mol
# GULP energy per Si atom -5574.692443 kJ/mol
# Density = 2.316423 g / cm^3
# Si number density = 23.217074 Si / 1000 Ang^3
#
#
#
# Elastic Constant Matrix: (Units=GPa)
#
#
# Indices 1 2 3 4 5 6 
#
# 1 129.2800 20.4928 34.8827 -8.1158 -5.6623 -39.7940
# 2 20.4928 62.1972 10.6893 2.2592 -7.7595 -29.5615
# 3 34.8827 10.6893 86.6179 -7.8937 -0.0132 -21.3872
# 4 -8.1158 2.2592 -7.8937 32.7796 -12.7864 -1.6113
# 5 -5.6623 -7.7595 -0.0132 -12.7864 37.8014 2.9656
# 6 -39.7940 -29.5615 -21.3872 -1.6113 2.9656 56.1383
#
#
#
# Elastic Compliance Matrix: (Units=1/GPa)
#
#
# Indices 1 2 3 4 5 6 
#
# 1 0.010737 0.000275 -0.002373 0.003276 0.002236 0.006828
# 2 0.000275 0.021942 0.000107 0.000657 0.003857 0.011605
# 3 -0.002373 0.000107 0.013664 0.003035 0.000412 0.003645
# 4 0.003276 0.000657 0.003035 0.037240 0.012892 0.004212
# 5 0.002236 0.003857 0.000412 0.012892 0.031748 0.002466
# 6 0.006828 0.011605 0.003645 0.004212 0.002466 0.030144
#
#
# Mechanical properties :
#
#
# Convention : Reuss Voigt Hill
#
# Bulk Modulus (GPa) = 23.60593 45.58051 34.59322
# Shear Modulus (GPa) = 30.56666 39.47923 35.02294
#
# Velocity S-wave (km/s) = 3.63238 4.12811 3.88815
# Velocity P-wave (km/s) = 5.27084 6.51127 5.92362
#
# Compressibility (1/GPa) = 0.04236223
#
# Stress axis : x y z
#
# Youngs Moduli (GPa) = 93.13456 45.57470 73.18379
#
# Poissons Ratio (x) = -0.01255 0.17368
# Poissons Ratio (y) = -0.02565 -0.00785
# Poissons Ratio (z) = 0.22103 -0.00489
#
# Static dielectric constant tensor:
#      x y z
#    x 1.999810 0.010020 0.106460 
#    y 0.010020 1.939060 -0.053420 
#    z 0.106460 -0.053420 1.722450 
# 
# From -- ./inp_files/61213.got.cif
#   From: 2010.05.17/outbox.cif.g08.bks.cpg/sg2_31_cif.got.tgz:61213.got - 2010.06.03 11:33:40.
