data_PCOD9060642
_publ_section_title
;
Structure prediction by ZEFSAII (Michael W. Deem and Ramdas Pophale) SiO2 
 PCOD9060642
Probable space group: P -1
;
_chemical_formula_sum "Si O2"
_cell_formula_units_Z 16
_cell_length_a 11.526496
_cell_length_b 15.053740
_cell_length_c 14.981377
_cell_angle_alpha 37.268161
_cell_angle_beta 58.851921
_cell_angle_gamma 30.884489
_cell_volume 683.605241
_symmetry_space_group_name_H-M "P -1"
_symmetry_group_IT_number 2
_symmetry_cell_setting 'triclinic'
loop_
_space_group_symop_operation_xyz
x,y,z
-x,-y,-z
loop_
_atom_site_type_symbol
_atom_site_label
_atom_site_fract_x
_atom_site_fract_y
_atom_site_fract_z
Si Si1 0.306565 0.286347 0.797483
Si Si2 0.184354 0.736118 0.335869
Si Si3 0.193236 0.450013 0.434164
Si Si4 0.247881 0.335117 0.306921
Si Si5 0.855503 0.391443 0.155946
Si Si6 0.735455 0.369185 0.409163
Si Si7 0.247101 0.636532 0.968029
Si Si8 0.601075 0.939537 0.789904
O O1 0.412433 0.340926 0.746064
O O2 0.998199 0.534052 0.736558
O O3 0.369716 0.211583 0.729257
O O4 0.500000 0.000000 0.000000
O O5 0.130995 0.653857 0.353793
O O6 0.505089 0.462636 0.421359
O O7 0.115912 0.774758 0.438201
O O8 0.007961 0.045151 0.139820
O O9 0.160599 0.497874 0.303254
O O10 0.000000 0.500000 0.500000
O O11 0.488355 0.104208 0.609921
O O12 0.500000 0.000000 0.500000
O O13 0.297048 0.423235 0.150095
O O14 0.866195 0.286699 0.327324
O O15 0.797094 0.337771 0.140972
O O16 0.133742 0.216238 0.170855
O O17 0.651309 0.721086 0.965531
O O18 0.500000 0.500000 0.000000
#
# Coordination Sequence:
#
# PCOD9060642 Si02
#       8
#     2   2   2   2   2   2   2   2
#     4  12  22  44  78 107 144 192 253 312 366 436
#     4  11  27  48  71 107 148 189 252 301 380 450
#     4  12  26  46  77 105 142 198 250 307 371 453
#     4  12  29  49  78 110 153 199 254 310 376 449
#     4  11  26  44  74 108 146 189 248 314 374 433
#     4  11  24  44  75 105 142 192 239 313 370 442
#     4  12  31  48  69 106 157 198 245 311 377 449
#     4  11  23  43  74 110 142 182 255 313 366 435
#
# _framework density 23.405321000000001
#
# number of rings (size 3 to 8) (size 9 to 14) (size 15 to 20)
#    0.000    0.500    3.750    3.000   12.250    1.000 
#    0.000    0.000    0.000    0.000    0.000    0.000 
#    0.000    0.000    0.000    0.000    0.000    0.000 
#
# Total GULP energy -89319.888140 kJ/mol
# GULP energy per Si atom -5582.493009 kJ/mol
# Density = 2.335205 g / cm^3
# Si number density = 23.405321 Si / 1000 Ang^3
#
#
#
# Elastic Constant Matrix: (Units=GPa)
#
#
# Indices 1 2 3 4 5 6 
#
# 1 136.4797 41.2447 1.4566 2.5816 0.2883 13.7998
# 2 41.2447 81.9825 17.3729 12.6481 -0.6378 7.7517
# 3 1.4566 17.3729 78.2351 3.8610 -10.0704 10.4548
# 4 2.5816 12.6481 3.8610 43.7426 2.8084 6.0641
# 5 0.2883 -0.6378 -10.0704 2.8084 40.6616 -1.1739
# 6 13.7998 7.7517 10.4548 6.0641 -1.1739 35.3637
#
#
#
# Elastic Compliance Matrix: (Units=1/GPa)
#
#
# Indices 1 2 3 4 5 6 
#
# 1 0.009016 -0.004682 0.001223 0.001136 -0.000001 -0.003048
# 2 -0.004682 0.015862 -0.003269 -0.004005 -0.000251 -0.000005
# 3 0.001223 -0.003269 0.014450 -0.000080 0.003412 -0.003906
# 4 0.001136 -0.004005 -0.000080 0.024611 -0.001901 -0.003825
# 5 -0.000001 -0.000251 0.003412 -0.001901 0.025572 0.000222
# 6 -0.003048 -0.000005 -0.003906 -0.003825 0.000222 0.031286
#
#
# Mechanical properties :
#
#
# Convention : Reuss Voigt Hill
#
# Bulk Modulus (GPa) = 38.65217 46.31618 42.48418
# Shear Modulus (GPa) = 34.99488 39.72846 37.36167
#
# Velocity S-wave (km/s) = 3.87093 4.12444 3.99969
# Velocity P-wave (km/s) = 6.04392 6.52020 6.28657
#
# Compressibility (1/GPa) = 0.02587177
#
# Stress axis : x y z
#
# Youngs Moduli (GPa) = 110.91784 63.04242 69.20319
#
# Poissons Ratio (x) = 0.29516 -0.08463
# Poissons Ratio (y) = 0.51931 0.22624
# Poissons Ratio (z) = -0.13565 0.20610
#
# Static dielectric constant tensor:
#      x y z
#    x 1.913950 0.052460 0.043430 
#    y 0.052460 1.878820 -0.101210 
#    z 0.043430 -0.101210 1.769000 
# 
# From -- ./inp_files/522268.got.cif
#   From: 2010.05.17/outbox.cif.g08.bks.cpg/sg2_262_cif.got.tgz:522268.got - 2010.06.03 11:33:40.
