data_PCOD9060290
_publ_section_title
;
Structure prediction by ZEFSAII (Michael W. Deem and Ramdas Pophale) SiO2 
 PCOD9060290
Probable space group: P -1
;
_chemical_formula_sum "Si O2"
_cell_formula_units_Z 16
_cell_length_a 9.302867
_cell_length_b 14.447523
_cell_length_c 10.907769
_cell_angle_alpha 32.975959
_cell_angle_beta 97.871835
_cell_angle_gamma 106.273698
_cell_volume 752.347315
_symmetry_space_group_name_H-M "P -1"
_symmetry_group_IT_number 2
_symmetry_cell_setting 'triclinic'
loop_
_space_group_symop_operation_xyz
x,y,z
-x,-y,-z
loop_
_atom_site_type_symbol
_atom_site_label
_atom_site_fract_x
_atom_site_fract_y
_atom_site_fract_z
Si Si1 0.579053 0.246323 0.320648
Si Si2 0.891677 0.939768 0.216364
Si Si3 0.139341 0.440053 0.038847
Si Si4 0.649900 0.679965 0.624271
Si Si5 0.424695 0.113998 0.209703
Si Si6 0.901205 0.909988 0.704916
Si Si7 0.941480 0.678347 0.299292
Si Si8 0.412217 0.419122 0.704308
O O1 0.434418 0.301114 0.282121
O O2 0.561289 0.195355 0.231616
O O3 0.575075 0.084911 0.589131
O O4 0.733871 0.397764 0.186243
O O5 0.730161 0.856384 0.358261
O O6 0.907602 0.780165 0.306429
O O7 0.018126 0.980940 0.290340
O O8 0.931715 0.142484 0.940781
O O9 0.214020 0.385117 0.231819
O O10 0.096908 0.290248 0.095163
O O11 0.000000 0.500000 0.000000
O O12 0.514331 0.548708 0.675536
O O13 0.272296 0.096833 0.289685
O O14 0.425390 0.228090 0.962662
O O15 0.000000 0.000000 0.500000
O O16 0.770279 0.612445 0.291562
O O17 0.000000 0.500000 0.500000
O O18 0.500000 0.500000 0.500000
#
# Coordination Sequence:
#
# PCOD9060290 Si02
#       8
#     2   2   2   2   2   2   2   2
#     4  11  24  42  70 104 143 188 244 300 379 446
#     4  11  25  47  72 103 148 186 244 316 367 432
#     4  12  25  40  68 109 147 191 244 296 370 458
#     4  12  24  46  71 103 147 188 240 305 369 449
#     4  11  23  43  69 101 144 190 241 306 367 443
#     4  12  22  41  69 102 148 186 230 300 381 433
#     4  11  27  50  77 103 139 197 260 310 369 435
#     4  12  25  48  72 100 142 197 244 303 364 434
#
# _framework density 21.266773000000001
#
# number of rings (size 3 to 8) (size 9 to 14) (size 15 to 20)
#    0.000    0.500    6.250    1.875    0.000    4.000 
#    0.000    1.250    0.000    0.000    0.000    0.000 
#    0.000    0.000    0.000    0.000    0.000    0.000 
#
# Total GULP energy -89119.893506 kJ/mol
# GULP energy per Si atom -5569.993344 kJ/mol
# Density = 2.121837 g / cm^3
# Si number density = 21.266773 Si / 1000 Ang^3
#
#
#
# Elastic Constant Matrix: (Units=GPa)
#
#
# Indices 1 2 3 4 5 6 
#
# 1 103.8696 18.6489 49.8306 -15.4474 -0.1528 11.9155
# 2 18.6489 105.1333 30.9635 -16.9709 2.8065 20.3962
# 3 49.8306 30.9635 138.0019 -7.2597 -5.7674 17.3193
# 4 -15.4474 -16.9709 -7.2597 38.6811 2.8580 -6.8946
# 5 -0.1528 2.8065 -5.7674 2.8580 37.5643 0.8267
# 6 11.9155 20.3962 17.3193 -6.8946 0.8267 16.6678
#
#
#
# Elastic Compliance Matrix: (Units=1/GPa)
#
#
# Indices 1 2 3 4 5 6 
#
# 1 0.012435 0.000269 -0.003943 0.003774 -0.000784 -0.003521
# 2 0.000269 0.012978 -0.001199 0.003266 -0.001106 -0.013421
# 3 -0.003943 -0.001199 0.009761 -0.001581 0.001838 -0.006602
# 4 0.003774 0.003266 -0.001581 0.030053 -0.002923 0.007525
# 5 -0.000784 -0.001106 0.001838 -0.002923 0.027261 -0.002557
# 6 -0.003521 -0.013421 -0.006602 0.007525 -0.002557 0.089037
#
#
# Mechanical properties :
#
#
# Convention : Reuss Voigt Hill
#
# Bulk Modulus (GPa) = 39.32662 60.65453 49.99057
# Shear Modulus (GPa) = 25.03177 35.08676 30.05926
#
# Velocity S-wave (km/s) = 3.43452 4.06623 3.76365
# Velocity P-wave (km/s) = 5.85321 7.11536 6.51492
#
# Compressibility (1/GPa) = 0.02542807
#
# Stress axis : x y z
#
# Youngs Moduli (GPa) = 80.41996 77.05586 102.44734
#
# Poissons Ratio (x) = -0.02071 0.40391
# Poissons Ratio (y) = -0.02162 0.12282
# Poissons Ratio (z) = 0.31706 0.09238
#
# Static dielectric constant tensor:
#      x y z
#    x 1.667650 0.015510 0.047610 
#    y 0.015510 1.826460 -0.035770 
#    z 0.047610 -0.035770 1.826060 
# 
# From -- ./inp_files/398231.got.cif
#   From: 2010.05.17/outbox.cif.g08.bks.cpg/sg2_200_cif.got.tgz:398231.got - 2010.06.03 11:33:40.
