data_PCOD9060576
_publ_section_title
;
Structure prediction by ZEFSAII (Michael W. Deem and Ramdas Pophale) SiO2 
 PCOD9060576
Probable space group: P -1
;
_chemical_formula_sum "Si O2"
_cell_formula_units_Z 11
_cell_length_a 13.750688
_cell_length_b 13.121543
_cell_length_c 10.492749
_cell_angle_alpha 144.556400
_cell_angle_beta 33.404167
_cell_angle_gamma 147.650415
_cell_volume 517.796135
_symmetry_space_group_name_H-M "P -1"
_symmetry_group_IT_number 2
_symmetry_cell_setting 'triclinic'
loop_
_space_group_symop_operation_xyz
x,y,z
-x,-y,-z
loop_
_atom_site_type_symbol
_atom_site_label
_atom_site_fract_x
_atom_site_fract_y
_atom_site_fract_z
Si Si1 0.462248 0.906768 0.088207
Si Si2 0.003320 0.434316 0.785284
Si Si3 0.500000 0.500000 0.000000
Si Si4 0.162570 0.042366 0.973983
Si Si5 0.672514 0.228922 0.403104
Si Si6 0.137744 0.116471 0.345462
O O1 0.229277 0.721558 0.163645
O O2 0.512522 0.074195 0.313831
O O3 0.632727 0.841889 0.850218
O O4 0.500000 0.000000 0.000000
O O5 0.122657 0.621160 0.749410
O O6 0.127216 0.317016 0.540755
O O7 0.000000 0.500000 0.000000
O O8 0.674793 0.715382 0.960197
O O9 0.400503 0.631986 0.306989
O O10 0.270844 0.907406 0.707243
O O11 0.053706 0.988677 0.176717
O O12 0.000000 0.000000 0.000000
O O13 0.000000 0.000000 0.500000
#
# Coordination Sequence:
#
# PCOD9060576 Si02
#       6
#     2   2   1   2   2   2
#     4  11  23  43  73 103 152 194 238 317 372 433
#     4  12  23  45  73 110 152 193 249 309 382 446
#     4  12  26  46  74 104 148 196 254 294 378 446
#     4  11  27  48  74 106 150 198 247 315 368 449
#     4  11  26  48  70 111 149 193 259 303 371 459
#     4  11  23  45  73 111 147 191 253 305 372 448
#
# _framework density 21.243880999999998
#
# number of rings (size 3 to 8) (size 9 to 14) (size 15 to 20)
#    0.000    0.727    5.455    1.636    2.545    4.364 
#    0.000    0.000    0.000    0.000    0.000    0.000 
#    0.000    0.000    0.000    0.000    0.000    0.000 
#
# Total GULP energy -61238.732325 kJ/mol
# GULP energy per Si atom -5567.157484 kJ/mol
# Density = 2.119553 g / cm^3
# Si number density = 21.243881 Si / 1000 Ang^3
#
#
#
# Elastic Constant Matrix: (Units=GPa)
#
#
# Indices 1 2 3 4 5 6 
#
# 1 146.1941 56.1784 76.1213 4.0449 -10.8186 2.5973
# 2 56.1784 149.1452 57.0433 7.8573 1.5395 -1.4992
# 3 76.1213 57.0433 205.3344 27.3304 -11.1822 -3.4338
# 4 4.0449 7.8573 27.3304 36.2571 -20.8256 -4.2620
# 5 -10.8186 1.5395 -11.1822 -20.8256 31.4418 -0.1880
# 6 2.5973 -1.4992 -3.4338 -4.2620 -0.1880 31.4119
#
#
#
# Elastic Compliance Matrix: (Units=1/GPa)
#
#
# Indices 1 2 3 4 5 6 
#
# 1 0.009944 -0.002832 -0.003295 0.005313 0.005904 -0.000561
# 2 -0.002832 0.008376 -0.001110 -0.002694 -0.003563 0.000126
# 3 -0.003295 -0.001110 0.007090 -0.006283 -0.002719 0.000126
# 4 0.005313 -0.002694 -0.006283 0.053096 0.034931 0.006158
# 5 0.005904 -0.003563 -0.002719 0.034931 0.056205 0.004120
# 6 -0.000561 0.000126 0.000126 0.006158 0.004120 0.032761
#
#
# Mechanical properties :
#
#
# Convention : Reuss Voigt Hill
#
# Bulk Modulus (GPa) = 91.43893 97.70665 94.57279
# Shear Modulus (GPa) = 26.94076 40.57753 33.75915
#
# Velocity S-wave (km/s) = 3.56500 4.37519 3.99071
# Velocity P-wave (km/s) = 7.75123 8.46261 8.11472
#
# Compressibility (1/GPa) = 0.01093626
#
# Stress axis : x y z
#
# Youngs Moduli (GPa) = 100.56456 119.38471 141.03628
#
# Poissons Ratio (x) = 0.33809 0.46467
# Poissons Ratio (y) = 0.28479 0.15662
# Poissons Ratio (z) = 0.33133 0.13258
#
# Static dielectric constant tensor:
#      x y z
#    x 1.970410 -0.152690 0.051110 
#    y -0.152690 1.855890 -0.035490 
#    z 0.051110 -0.035490 1.801650 
# 
# From -- ./inp_files/453376.got.cif
#   From: 2010.05.17/outbox.cif.g08.bks.cpg/sg2_227_cif.got.tgz:453376.got - 2010.06.03 11:33:40.
