data_PCOD9060912
_publ_section_title
;
Structure prediction by ZEFSAII (Michael W. Deem and Ramdas Pophale) SiO2 
 PCOD9060912
Probable space group: P -1
;
_chemical_formula_sum "Si O2"
_cell_formula_units_Z 16
_cell_length_a 11.563086
_cell_length_b 13.371028
_cell_length_c 9.090785
_cell_angle_alpha 114.892565
_cell_angle_beta 122.242279
_cell_angle_gamma 113.992435
_cell_volume 613.057568
_symmetry_space_group_name_H-M "P -1"
_symmetry_group_IT_number 2
_symmetry_cell_setting 'triclinic'
loop_
_space_group_symop_operation_xyz
x,y,z
-x,-y,-z
loop_
_atom_site_type_symbol
_atom_site_label
_atom_site_fract_x
_atom_site_fract_y
_atom_site_fract_z
Si Si1 0.172947 0.889394 0.732398
Si Si2 0.739649 0.296356 0.759490
Si Si3 0.074826 0.432702 0.445775
Si Si4 0.792984 0.784014 0.552423
Si Si5 0.831568 0.773940 0.894807
Si Si6 0.555632 0.295662 0.363716
Si Si7 0.548472 0.304290 0.895627
Si Si8 0.850629 0.141941 0.627594
O O1 0.126629 0.801466 0.490254
O O2 0.140781 0.789176 0.789337
O O3 0.961594 0.837918 0.580605
O O4 0.424368 0.118578 0.061388
O O5 0.562464 0.244751 0.496999
O O6 0.698289 0.319765 0.905322
O O7 0.723659 0.154387 0.641164
O O8 0.000000 0.500000 0.000000
O O9 0.180892 0.508904 0.402533
O O10 0.000000 0.500000 0.500000
O O11 0.303384 0.553546 0.778496
O O12 0.787077 0.712808 0.656583
O O13 0.540080 0.651462 0.233433
O O14 0.934182 0.991611 0.810085
O O15 0.607855 0.703403 0.742592
O O16 0.909500 0.735958 0.045766
O O17 0.316148 0.076956 0.640048
#
# Coordination Sequence:
#
# PCOD9060912 Si02
#       8
#     2   2   2   2   2   2   2   2
#     4  11  25  44  71 103 138 177 227 286 343 405
#     4  12  26  46  66  99 143 180 229 283 338 410
#     4  12  27  44  67 103 141 180 235 278 336 417
#     4   9  20  40  69  99 134 175 230 284 339 406
#     4   9  20  41  69 101 131 177 233 279 339 407
#     4  11  24  47  73  97 141 185 224 283 345 402
#     4  11  23  44  69  99 137 183 229 283 344 400
#     4  11  24  42  72 102 135 181 229 281 346 409
#
# _framework density 26.098693000000001
#
# number of rings (size 3 to 8) (size 9 to 14) (size 15 to 20)
#    0.000    1.250    2.500    2.625    5.250    5.000 
#    2.250    1.250    0.000    0.000    0.000    0.000 
#    0.000    0.000    0.000    0.000    0.000    0.000 
#
# Total GULP energy -89619.001489 kJ/mol
# GULP energy per Si atom -5601.187593 kJ/mol
# Density = 2.603929 g / cm^3
# Si number density = 26.098693 Si / 1000 Ang^3
#
#
#
# Elastic Constant Matrix: (Units=GPa)
#
#
# Indices 1 2 3 4 5 6 
#
# 1 63.2541 7.2789 12.7308 -12.5613 0.7598 2.4698
# 2 7.2789 87.1718 21.1064 -2.2174 -0.2303 1.5674
# 3 12.7308 21.1064 74.1029 -11.1575 -5.0138 3.4768
# 4 -12.5613 -2.2174 -11.1575 38.7796 0.4518 -3.1439
# 5 0.7598 -0.2303 -5.0138 0.4518 40.3926 -4.9147
# 6 2.4698 1.5674 3.4768 -3.1439 -4.9147 38.9037
#
#
#
# Elastic Compliance Matrix: (Units=1/GPa)
#
#
# Indices 1 2 3 4 5 6 
#
# 1 0.017323 -0.000824 -0.002018 0.004945 -0.000706 -0.000576
# 2 -0.000824 0.012372 -0.003483 -0.000576 -0.000368 -0.000228
# 3 -0.002018 -0.003483 0.015519 0.003542 0.001832 -0.000601
# 4 0.004945 -0.000576 0.003542 0.028512 0.000235 0.001726
# 5 -0.000706 -0.000368 0.001832 0.000235 0.025373 0.003120
# 6 -0.000576 -0.000228 -0.000601 0.001726 0.003120 0.026338
#
#
# Mechanical properties :
#
#
# Convention : Reuss Voigt Hill
#
# Bulk Modulus (GPa) = 30.70778 34.08456 32.39617
# Shear Modulus (GPa) = 33.57034 35.84269 34.70651
#
# Velocity S-wave (km/s) = 3.59037 3.70990 3.65062
# Velocity P-wave (km/s) = 5.38324 5.60708 5.49630
#
# Compressibility (1/GPa) = 0.03256503
#
# Stress axis : x y z
#
# Youngs Moduli (GPa) = 57.72631 80.82601 64.43716
#
# Poissons Ratio (x) = 0.06658 0.13001
# Poissons Ratio (y) = 0.04755 0.22445
# Poissons Ratio (z) = 0.11647 0.28154
#
# Static dielectric constant tensor:
#      x y z
#    x 2.000070 -0.040600 0.002040 
#    y -0.040600 2.097320 -0.010540 
#    z 0.002040 -0.010540 2.036600 
# 
# From -- ./inp_files/273886.got.cif
#   From: 2010.05.17/outbox.cif.g08.bks.cpg/sg2_137_cif.got.tgz:273886.got - 2010.06.03 11:33:40.
