data_PCOD9060002
_publ_section_title
;
Structure prediction by ZEFSAII (Michael W. Deem and Ramdas Pophale) SiO2 
 PCOD9060002
Probable space group: P -1
;
_chemical_formula_sum "Si O2"
_cell_formula_units_Z 14
_cell_length_a 9.738032
_cell_length_b 18.686543
_cell_length_c 9.162354
_cell_angle_alpha 29.642113
_cell_angle_beta 63.759861
_cell_angle_gamma 54.979880
_cell_volume 668.675627
_symmetry_space_group_name_H-M "P -1"
_symmetry_group_IT_number 2
_symmetry_cell_setting 'triclinic'
loop_
_space_group_symop_operation_xyz
x,y,z
-x,-y,-z
loop_
_atom_site_type_symbol
_atom_site_label
_atom_site_fract_x
_atom_site_fract_y
_atom_site_fract_z
Si Si1 0.637670 0.863482 0.276426
Si Si2 0.934986 0.544149 0.614677
Si Si3 0.415264 0.681615 0.781689
Si Si4 0.370846 0.731303 0.049651
Si Si5 0.849517 0.326977 0.250075
Si Si6 0.270505 0.496877 0.707275
Si Si7 0.137995 0.044004 0.770028
O O1 0.790830 0.724378 0.364854
O O2 0.538075 0.769497 0.562565
O O3 0.731091 0.931939 0.224411
O O4 0.500000 0.000000 0.000000
O O5 0.000000 0.500000 0.500000
O O6 0.092402 0.519746 0.687503
O O7 0.865964 0.425878 0.929510
O O8 0.258820 0.764510 0.595918
O O9 0.500000 0.500000 0.000000
O O10 0.353610 0.693769 0.955440
O O11 0.321484 0.617672 0.377651
O O12 0.572223 0.676158 0.075416
O O13 0.248200 0.907456 0.846288
O O14 0.753556 0.447450 0.212595
O O15 0.026693 0.206010 0.448344
O O16 0.000000 0.000000 0.000000
#
# Coordination Sequence:
#
# PCOD9060002 Si02
#       7
#     2   2   2   2   2   2   2
#     4  12  28  45  74 107 151 190 240 306 371 422
#     4  12  26  43  70 108 144 188 251 296 359 435
#     4  12  25  46  72 107 145 188 242 300 360 431
#     4  11  25  42  73 103 143 187 241 295 368 429
#     4  12  24  45  76  97 149 193 234 302 365 426
#     4  11  23  42  73 102 136 195 248 289 358 435
#     4  12  26  48  72 108 149 189 240 306 368 431
#
# _framework density 20.936907999999999
#
# number of rings (size 3 to 8) (size 9 to 14) (size 15 to 20)
#    0.000    0.286    5.714    2.143    4.000    2.286 
#    0.000    0.000    0.000    0.000    0.000    0.000 
#    0.000    0.000    0.000    0.000    0.000    0.000 
#
# Total GULP energy -78276.145040 kJ/mol
# GULP energy per Si atom -5591.153217 kJ/mol
# Density = 2.088925 g / cm^3
# Si number density = 20.936908 Si / 1000 Ang^3
#
#
#
# Elastic Constant Matrix: (Units=GPa)
#
#
# Indices 1 2 3 4 5 6 
#
# 1 161.2429 47.8572 37.0627 0.1553 10.8328 3.7165
# 2 47.8572 185.7819 62.7728 2.5354 8.0507 3.5967
# 3 37.0627 62.7728 90.3408 0.5364 9.3180 2.8620
# 4 0.1553 2.5354 0.5364 41.3966 -9.4278 11.7758
# 5 10.8328 8.0507 9.3180 -9.4278 38.0837 -2.5859
# 6 3.7165 3.5967 2.8620 11.7758 -2.5859 34.6423
#
#
#
# Elastic Compliance Matrix: (Units=1/GPa)
#
#
# Indices 1 2 3 4 5 6 
#
# 1 0.007086 -0.001079 -0.001999 -0.000086 -0.001357 -0.000555
# 2 -0.001079 0.007212 -0.004540 -0.000387 -0.000212 -0.000142
# 3 -0.001999 -0.004540 0.015306 -0.000253 -0.002324 -0.000666
# 4 -0.000086 -0.000387 -0.000253 0.028247 0.006547 -0.009043
# 5 -0.001357 -0.000212 -0.002324 0.006547 0.028898 0.000291
# 6 -0.000555 -0.000142 -0.000666 -0.009043 0.000291 0.032092
#
#
# Mechanical properties :
#
#
# Convention : Reuss Voigt Hill
#
# Bulk Modulus (GPa) = 69.59973 81.41678 75.50825
# Shear Modulus (GPa) = 36.00621 42.13604 39.07113
#
# Velocity S-wave (km/s) = 4.15148 4.49098 4.32457
# Velocity P-wave (km/s) = 7.50297 8.11561 7.81529
#
# Compressibility (1/GPa) = 0.01436787
#
# Stress axis : x y z
#
# Youngs Moduli (GPa) = 141.13031 138.66301 65.33379
#
# Poissons Ratio (x) = 0.14963 0.13061
# Poissons Ratio (y) = 0.15229 0.29659
# Poissons Ratio (z) = 0.28213 0.62948
#
# Static dielectric constant tensor:
#      x y z
#    x 1.851210 -0.035200 -0.033100 
#    y -0.035200 1.722720 -0.000300 
#    z -0.033100 -0.000300 1.817250 
# 
# From -- ./inp_files/191001.got.cif
#   From: 2010.05.17/outbox.cif.g08.bks.cpg/sg2_96_cif.got.tgz:191001.got - 2010.06.03 11:33:40.
