data_PCOD9060502
_publ_section_title
;
Structure prediction by ZEFSAII (Michael W. Deem and Ramdas Pophale) SiO2 
 PCOD9060502
Probable space group: P -1
;
_chemical_formula_sum "Si O2"
_cell_formula_units_Z 16
_cell_length_a 10.861354
_cell_length_b 16.110901
_cell_length_c 7.930811
_cell_angle_alpha 122.222101
_cell_angle_beta 111.397118
_cell_angle_gamma 33.822795
_cell_volume 644.446194
_symmetry_space_group_name_H-M "P -1"
_symmetry_group_IT_number 2
_symmetry_cell_setting 'triclinic'
loop_
_space_group_symop_operation_xyz
x,y,z
-x,-y,-z
loop_
_atom_site_type_symbol
_atom_site_label
_atom_site_fract_x
_atom_site_fract_y
_atom_site_fract_z
Si Si1 0.750270 0.188830 0.543033
Si Si2 0.631431 0.058796 0.726818
Si Si3 0.410253 0.921790 0.679145
Si Si4 0.633071 0.284418 0.968525
Si Si5 0.826350 0.749474 0.138493
Si Si6 0.759554 0.400776 0.651325
Si Si7 0.914295 0.634376 0.726433
Si Si8 0.908947 0.287642 0.258766
O O1 0.636318 0.161252 0.373017
O O2 0.784698 0.268897 0.548019
O O3 0.626613 0.288711 0.766173
O O4 0.000000 0.000000 0.500000
O O5 0.612209 0.066741 0.523082
O O6 0.401847 0.151627 0.784849
O O7 0.658503 0.156250 0.892772
O O8 0.850660 0.873279 0.706043
O O9 0.655896 0.804323 0.732170
O O10 0.240568 0.110501 0.846959
O O11 0.422842 0.451935 0.148390
O O12 0.834911 0.233424 0.071106
O O13 0.018767 0.669727 0.271948
O O14 0.917190 0.615209 0.906409
O O15 0.729277 0.426381 0.463142
O O16 0.000000 0.500000 0.500000
O O17 0.067438 0.636324 0.771392
#
# Coordination Sequence:
#
# PCOD9060502 Si02
#       8
#     2   2   2   2   2   2   2   2
#     4  11  23  43  72 100 136 182 232 273 333 414
#     4  11  24  45  74 102 131 185 231 280 332 409
#     4  11  23  46  69 103 136 178 231 278 338 406
#     4  11  27  42  69 105 140 180 222 285 344 399
#     4  12  24  45  72  98 137 182 231 276 340 409
#     4  12  25  44  70 102 139 185 222 282 347 401
#     4  12  30  43  69 104 137 178 223 291 346 400
#     4  12  25  48  69  98 144 174 234 278 338 411
#
# _framework density 24.82752
#
# number of rings (size 3 to 8) (size 9 to 14) (size 15 to 20)
#    0.000    0.500    3.750    4.125    7.000    1.500 
#    0.000    0.000    0.000    0.000    0.000    0.000 
#    0.000    0.000    0.000    0.000    0.000    0.000 
#
# Total GULP energy -89679.724467 kJ/mol
# GULP energy per Si atom -5604.982779 kJ/mol
# Density = 2.477101 g / cm^3
# Si number density = 24.827520 Si / 1000 Ang^3
#
#
#
# Elastic Constant Matrix: (Units=GPa)
#
#
# Indices 1 2 3 4 5 6 
#
# 1 133.6623 13.9744 46.6668 3.7767 16.8112 -21.9217
# 2 13.9744 30.7893 6.9657 -8.2226 8.1940 -15.2041
# 3 46.6668 6.9657 128.4726 7.8816 14.5976 -8.5020
# 4 3.7767 -8.2226 7.8816 31.2689 -11.6946 9.7033
# 5 16.8112 8.1940 14.5976 -11.6946 40.8835 -4.9331
# 6 -21.9217 -15.2041 -8.5020 9.7033 -4.9331 26.4363
#
#
#
# Elastic Compliance Matrix: (Units=1/GPa)
#
#
# Indices 1 2 3 4 5 6 
#
# 1 0.010404 -0.000091 -0.002479 -0.004774 -0.003673 0.008845
# 2 -0.000091 0.047064 -0.000423 0.002746 -0.005463 0.024828
# 3 -0.002479 -0.000423 0.009405 -0.003848 -0.003168 0.001547
# 4 -0.004774 0.002746 -0.003848 0.044722 0.013465 -0.017519
# 5 -0.003673 -0.005463 -0.003168 0.013465 0.031286 -0.006311
# 6 0.008845 0.024828 0.001547 -0.017519 -0.006311 0.065191
#
#
# Mechanical properties :
#
#
# Convention : Reuss Voigt Hill
#
# Bulk Modulus (GPa) = 16.42396 47.57089 31.99743
# Shear Modulus (GPa) = 21.33529 34.73889 28.03709
#
# Velocity S-wave (km/s) = 2.93463 3.74466 3.36411
# Velocity P-wave (km/s) = 4.25586 6.15620 5.29203
#
# Compressibility (1/GPa) = 0.06088664
#
# Stress axis : x y z
#
# Youngs Moduli (GPa) = 96.11743 21.24786 106.32106
#
# Poissons Ratio (x) = 0.00194 0.26353
# Poissons Ratio (y) = 0.00877 0.04501
# Poissons Ratio (z) = 0.23824 0.00899
#
# Static dielectric constant tensor:
#      x y z
#    x 1.967640 0.013190 -0.007750 
#    y 0.013190 1.953910 0.031100 
#    z -0.007750 0.031100 1.949710 
# 
# From -- ./inp_files/216456.got.cif
#   From: 2010.05.17/outbox.cif.g08.bks.cpg/sg2_109_cif.got.tgz:216456.got - 2010.06.03 11:33:40.
