data_PCOD9060172
_publ_section_title
;
Structure prediction by ZEFSAII (Michael W. Deem and Ramdas Pophale) SiO2 
 PCOD9060172
Probable space group: P -1
;
_chemical_formula_sum "Si O2"
_cell_formula_units_Z 14
_cell_length_a 16.851181
_cell_length_b 10.769570
_cell_length_c 8.055382
_cell_angle_alpha 136.753709
_cell_angle_beta 46.919413
_cell_angle_gamma 138.536123
_cell_volume 632.159821
_symmetry_space_group_name_H-M "P -1"
_symmetry_group_IT_number 2
_symmetry_cell_setting 'triclinic'
loop_
_space_group_symop_operation_xyz
x,y,z
-x,-y,-z
loop_
_atom_site_type_symbol
_atom_site_label
_atom_site_fract_x
_atom_site_fract_y
_atom_site_fract_z
Si Si1 0.993716 0.213364 0.716220
Si Si2 0.629115 0.695582 0.441681
Si Si3 0.360880 0.904070 0.676361
Si Si4 0.632177 0.697202 0.052765
Si Si5 0.728038 0.134368 0.899814
Si Si6 0.841288 0.563336 0.988083
Si Si7 0.832111 0.545694 0.607523
O O1 0.073023 0.355470 0.584520
O O2 0.854851 0.171117 0.843326
O O3 0.052288 0.329276 0.919159
O O4 0.000000 0.000000 0.500000
O O5 0.500000 0.500000 0.500000
O O6 0.659877 0.903021 0.698751
O O7 0.621336 0.737076 0.299820
O O8 0.743091 0.645371 0.239885
O O9 0.256935 0.703828 0.530399
O O10 0.500000 0.000000 0.500000
O O11 0.353219 0.837562 0.813795
O O12 0.336477 0.097519 0.893358
O O13 0.738861 0.638227 0.818456
O O14 0.500000 0.500000 0.000000
O O15 0.767209 0.314516 0.883609
O O16 0.888316 0.602688 0.768821
#
# Coordination Sequence:
#
# PCOD9060172 Si02
#       7
#     2   2   2   2   2   2   2
#     4  12  25  50  77 102 147 191 240 299 358 427
#     4  11  26  43  70 102 139 190 235 294 357 421
#     4  12  25  42  71 103 142 190 234 293 360 420
#     4  11  23  43  67 100 142 183 234 289 354 421
#     4  12  26  47  73 104 144 191 237 299 359 420
#     4  11  26  47  71 108 143 184 246 292 355 431
#     4  11  26  47  71 105 143 188 239 295 357 424
#
# _framework density 22.146298999999999
#
# number of rings (size 3 to 8) (size 9 to 14) (size 15 to 20)
#    0.000    0.571    4.286    3.000    6.000    1.714 
#    2.571    0.000    0.000    0.000    0.000    0.000 
#    0.000    0.000    0.000    0.000    0.000    0.000 
#
# Total GULP energy -78429.707397 kJ/mol
# GULP energy per Si atom -5602.121957 kJ/mol
# Density = 2.209589 g / cm^3
# Si number density = 22.146299 Si / 1000 Ang^3
#
#
#
# Elastic Constant Matrix: (Units=GPa)
#
#
# Indices 1 2 3 4 5 6 
#
# 1 74.5420 26.6499 32.9206 -13.8120 35.7235 -3.6274
# 2 26.6499 116.5156 33.2638 0.5805 21.4871 -0.5952
# 3 32.9206 33.2638 80.6629 2.9950 23.4315 11.4403
# 4 -13.8120 0.5805 2.9950 48.5115 -0.1395 -3.6996
# 5 35.7235 21.4871 23.4315 -0.1395 37.7514 12.5931
# 6 -3.6274 -0.5952 11.4403 -3.6996 12.5931 33.7078
#
#
#
# Elastic Compliance Matrix: (Units=1/GPa)
#
#
# Indices 1 2 3 4 5 6 
#
# 1 0.040791 0.000974 -0.008918 0.013906 -0.041760 0.024561
# 2 0.000974 0.010488 -0.003557 0.000643 -0.005944 0.003788
# 3 -0.008918 -0.003557 0.018305 -0.004263 0.001891 -0.008410
# 4 0.013906 0.000643 -0.004263 0.025640 -0.014518 0.011192
# 5 -0.041760 -0.005944 0.001891 -0.014518 0.080470 -0.036898
# 6 0.024561 0.003788 -0.008410 0.011192 -0.036898 0.050244
#
#
# Mechanical properties :
#
#
# Convention : Reuss Voigt Hill
#
# Bulk Modulus (GPa) = 21.46797 50.82100 36.14449
# Shear Modulus (GPa) = 18.90589 35.91989 27.41289
#
# Velocity S-wave (km/s) = 2.92495 4.03170 3.52207
# Velocity P-wave (km/s) = 4.59585 6.68359 5.73552
#
# Compressibility (1/GPa) = 0.04658102
#
# Stress axis : x y z
#
# Youngs Moduli (GPa) = 24.51530 95.35056 54.62891
#
# Poissons Ratio (x) = -0.09283 0.48720
# Poissons Ratio (y) = -0.02387 0.19430
# Poissons Ratio (z) = 0.21863 0.33913
#
# Static dielectric constant tensor:
#      x y z
#    x 1.808280 -0.037280 0.005200 
#    y -0.037280 1.870650 -0.089020 
#    z 0.005200 -0.089020 1.984990 
# 
# From -- ./inp_files/332519.got.cif
#   From: 2010.05.17/outbox.cif.g08.bks.cpg/sg2_167_cif.got.tgz:332519.got - 2010.06.03 11:33:40.
