data_PCOD9060587
_publ_section_title
;
Structure prediction by ZEFSAII (Michael W. Deem and Ramdas Pophale) SiO2 
 PCOD9060587
Probable space group: P -1
;
_chemical_formula_sum "Si O2"
_cell_formula_units_Z 14
_cell_length_a 7.926832
_cell_length_b 16.428492
_cell_length_c 11.585007
_cell_angle_alpha 34.305903
_cell_angle_beta 137.813871
_cell_angle_gamma 128.798617
_cell_volume 570.592765
_symmetry_space_group_name_H-M "P -1"
_symmetry_group_IT_number 2
_symmetry_cell_setting 'triclinic'
loop_
_space_group_symop_operation_xyz
x,y,z
-x,-y,-z
loop_
_atom_site_type_symbol
_atom_site_label
_atom_site_fract_x
_atom_site_fract_y
_atom_site_fract_z
Si Si1 0.757581 0.232997 0.865831
Si Si2 0.454693 0.357878 0.891932
Si Si3 0.564574 0.664711 0.584639
Si Si4 0.041871 0.572855 0.077729
Si Si5 0.828763 0.948142 0.367563
Si Si6 0.977357 0.170598 0.799452
Si Si7 0.834298 0.253734 0.384031
O O1 0.510006 0.319504 0.607411
O O2 0.960722 0.329885 0.924122
O O3 0.860888 0.205271 0.823409
O O4 0.715536 0.085466 0.086805
O O5 0.389053 0.523610 0.697733
O O6 0.689433 0.383861 0.892800
O O7 0.241071 0.262383 0.832299
O O8 0.573043 0.276042 0.157457
O O9 0.614421 0.835729 0.436242
O O10 0.828423 0.615183 0.829865
O O11 0.980531 0.408621 0.270421
O O12 0.004710 0.864256 0.464319
O O13 0.000000 0.000000 0.500000
O O14 0.818820 0.216144 0.554451
O O15 0.000000 0.000000 0.000000
#
# Coordination Sequence:
#
# PCOD9060587 Si02
#       7
#     2   2   2   2   2   2   2
#     4  12  27  43  69 105 147 185 231 284 349 419
#     4  11  24  45  76 102 135 189 236 289 345 412
#     4  11  23  43  73 107 138 176 234 295 353 395
#     4  11  23  45  77 106 135 179 242 296 340 406
#     4  12  22  44  72 106 138 173 231 298 345 399
#     4  12  29  47  66 102 149 192 227 278 357 426
#     4  11  23  46  73 100 142 180 235 286 349 412
#
# _framework density 24.535889000000001
#
# number of rings (size 3 to 8) (size 9 to 14) (size 15 to 20)
#    0.000    0.571    5.714    2.143    2.000    7.429 
#    0.000    2.857    0.000    0.000    0.000    0.000 
#    0.000    0.000    0.000    0.000    0.000    0.000 
#
# Total GULP energy -78222.710022 kJ/mol
# GULP energy per Si atom -5587.336430 kJ/mol
# Density = 2.448004 g / cm^3
# Si number density = 24.535889 Si / 1000 Ang^3
#
#
#
# Elastic Constant Matrix: (Units=GPa)
#
#
# Indices 1 2 3 4 5 6 
#
# 1 71.0653 31.0250 23.6009 8.8298 -19.9632 -17.4821
# 2 31.0250 161.1576 45.4874 -1.9350 -9.6674 -6.8910
# 3 23.6009 45.4874 195.6507 1.3255 -25.2783 -3.6707
# 4 8.8298 -1.9350 1.3255 37.6922 -5.8675 0.0789
# 5 -19.9632 -9.6674 -25.2783 -5.8675 31.7649 7.0941
# 6 -17.4821 -6.8910 -3.6707 0.0789 7.0941 39.5656
#
#
#
# Elastic Compliance Matrix: (Units=1/GPa)
#
#
# Indices 1 2 3 4 5 6 
#
# 1 0.020200 -0.002973 -0.000388 -0.003429 0.009351 0.006702
# 2 -0.002973 0.007142 -0.001387 0.001020 -0.000589 -0.000095
# 3 -0.000388 -0.001387 0.006029 0.000489 0.004364 -0.000637
# 4 -0.003429 0.001020 0.000489 0.028026 0.004190 -0.002099
# 5 0.009351 -0.000589 0.004364 0.004190 0.042124 -0.003127
# 6 0.006702 -0.000095 -0.000637 -0.002099 -0.003127 0.028725
#
#
# Mechanical properties :
#
#
# Convention : Reuss Voigt Hill
#
# Bulk Modulus (GPa) = 41.88454 69.78892 55.83673
# Shear Modulus (GPa) = 33.40023 43.65521 38.52772
#
# Velocity S-wave (km/s) = 3.69356 4.22268 3.96695
# Velocity P-wave (km/s) = 5.94118 7.23049 6.61731
#
# Compressibility (1/GPa) = 0.02387516
#
# Stress axis : x y z
#
# Youngs Moduli (GPa) = 49.50501 140.02359 165.86608
#
# Poissons Ratio (x) = 0.41626 0.06442
# Poissons Ratio (y) = 0.14717 0.22997
# Poissons Ratio (z) = 0.01923 0.19414
#
# Static dielectric constant tensor:
#      x y z
#    x 2.187990 -0.002570 0.235730 
#    y -0.002570 1.949380 0.035010 
#    z 0.235730 0.035010 2.131140 
# 
# From -- ./inp_files/402766.got.cif
#   From: 2010.05.17/outbox.cif.g08.bks.cpg/sg2_202_cif.got.tgz:402766.got - 2010.06.03 11:33:40.
