data_PCOD9060358
_publ_section_title
;
Structure prediction by ZEFSAII (Michael W. Deem and Ramdas Pophale) SiO2 
 PCOD9060358
Probable space group: P -1
;
_chemical_formula_sum "Si O2"
_cell_formula_units_Z 16
_cell_length_a 16.706783
_cell_length_b 6.017976
_cell_length_c 13.480976
_cell_angle_alpha 92.244959
_cell_angle_beta 147.715710
_cell_angle_gamma 79.078528
_cell_volume 691.651410
_symmetry_space_group_name_H-M "P -1"
_symmetry_group_IT_number 2
_symmetry_cell_setting 'triclinic'
loop_
_space_group_symop_operation_xyz
x,y,z
-x,-y,-z
loop_
_atom_site_type_symbol
_atom_site_label
_atom_site_fract_x
_atom_site_fract_y
_atom_site_fract_z
Si Si1 0.163737 0.040485 0.138175
Si Si2 0.011862 0.624257 0.184374
Si Si3 0.315335 0.141353 0.927004
Si Si4 0.343639 0.833689 0.131962
Si Si5 0.298909 0.200457 0.467866
Si Si6 0.391393 0.737834 0.844007
Si Si7 0.871097 0.395094 0.208510
Si Si8 0.868044 0.038198 0.555714
O O1 0.274632 0.044696 0.347143
O O2 0.256759 0.869111 0.146980
O O3 0.107516 0.290448 0.028759
O O4 0.000000 0.000000 0.000000
O O5 0.178193 0.452176 0.325233
O O6 0.041181 0.852766 0.267434
O O7 0.949303 0.484800 0.199128
O O8 0.187196 0.387366 0.775030
O O9 0.316954 0.929078 0.853168
O O10 0.485397 0.172537 0.088428
O O11 0.297622 0.066370 0.019664
O O12 0.528621 0.777245 0.338571
O O13 0.283185 0.656100 0.998895
O O14 0.240596 0.091228 0.502107
O O15 0.243369 0.749019 0.619946
O O16 0.500000 0.500000 0.000000
O O17 0.999618 0.155775 0.369693
#
# Coordination Sequence:
#
# PCOD9060358 Si02
#       8
#     2   2   2   2   2   2   2   2
#     4  12  22  46  70 101 148 188 240 287 347 423
#     4  11  23  43  70 100 141 191 232 288 352 414
#     4  11  24  45  70 104 143 184 231 299 354 420
#     4  12  24  45  68 106 144 185 236 294 353 413
#     4  11  25  40  71 104 142 188 238 291 349 420
#     4  11  26  44  75 108 141 182 235 295 365 427
#     4  11  23  44  71  99 142 192 233 286 354 417
#     4  11  23  46  71 104 141 188 235 293 358 419
#
# _framework density 23.133042
#
# number of rings (size 3 to 8) (size 9 to 14) (size 15 to 20)
#    0.000    0.750    5.000    2.250    3.500    1.500 
#    0.000    5.625    0.000    0.000    0.000    0.000 
#    0.000    0.000    0.000    0.000    0.000    0.000 
#
# Total GULP energy -89454.854773 kJ/mol
# GULP energy per Si atom -5590.928423 kJ/mol
# Density = 2.308039 g / cm^3
# Si number density = 23.133042 Si / 1000 Ang^3
#
#
#
# Elastic Constant Matrix: (Units=GPa)
#
#
# Indices 1 2 3 4 5 6 
#
# 1 94.9843 20.1682 24.5601 4.1830 22.9766 -6.3450
# 2 20.1682 81.1642 25.8281 -9.3882 2.8308 -20.1716
# 3 24.5601 25.8281 117.4842 -1.4671 5.6167 -4.5852
# 4 4.1830 -9.3882 -1.4671 30.7620 14.5407 7.4176
# 5 22.9766 2.8308 5.6167 14.5407 23.1397 4.0907
# 6 -6.3450 -20.1716 -4.5852 7.4176 4.0907 36.6981
#
#
#
# Elastic Compliance Matrix: (Units=1/GPa)
#
#
# Indices 1 2 3 4 5 6 
#
# 1 0.015902 -0.001304 -0.001935 0.005800 -0.019296 0.002770
# 2 -0.001304 0.016234 -0.002695 0.005392 -0.004806 0.007807
# 3 -0.001935 -0.002695 0.009482 0.000026 0.000047 -0.000641
# 4 0.005800 0.005392 0.000026 0.052292 -0.038884 -0.002265
# 5 -0.019296 -0.004806 0.000047 -0.038884 0.088803 -0.008011
# 6 0.002770 0.007807 -0.000641 -0.002265 -0.008011 0.033290
#
#
# Mechanical properties :
#
#
# Convention : Reuss Voigt Hill
#
# Bulk Modulus (GPa) = 33.61138 48.30504 40.95821
# Shear Modulus (GPa) = 21.02737 32.99172 27.00954
#
# Velocity S-wave (km/s) = 3.01819 3.78057 3.42069
# Velocity P-wave (km/s) = 5.16789 6.32326 5.77455
#
# Compressibility (1/GPa) = 0.02975183
#
# Stress axis : x y z
#
# Youngs Moduli (GPa) = 62.88397 61.60049 105.46642
#
# Poissons Ratio (x) = 0.08030 0.20405
# Poissons Ratio (y) = 0.08197 0.28418
# Poissons Ratio (z) = 0.12167 0.16599
#
# Static dielectric constant tensor:
#      x y z
#    x 1.896370 -0.007350 -0.013550 
#    y -0.007350 1.897470 -0.025700 
#    z -0.013550 -0.025700 1.843860 
# 
# From -- ./inp_files/90973.got.cif
#   From: 2010.05.17/outbox.cif.g08.bks.cpg/sg2_46_cif.got.tgz:90973.got - 2010.06.03 11:33:40.
