data_PCOD9060877
_publ_section_title
;
Structure prediction by ZEFSAII (Michael W. Deem and Ramdas Pophale) SiO2 
 PCOD9060877
Probable space group: P -1
;
_chemical_formula_sum "Si O2"
_cell_formula_units_Z 12
_cell_length_a 16.450140
_cell_length_b 5.213999
_cell_length_c 5.244743
_cell_angle_alpha 83.948060
_cell_angle_beta 93.570101
_cell_angle_gamma 105.836343
_cell_volume 430.097150
_symmetry_space_group_name_H-M "P -1"
_symmetry_group_IT_number 2
_symmetry_cell_setting 'triclinic'
loop_
_space_group_symop_operation_xyz
x,y,z
-x,-y,-z
loop_
_atom_site_type_symbol
_atom_site_label
_atom_site_fract_x
_atom_site_fract_y
_atom_site_fract_z
Si Si1 0.076196 0.469440 0.695701
Si Si2 0.224910 0.038524 0.211534
Si Si3 0.354978 0.835221 0.959833
Si Si4 0.946607 0.155765 0.999716
Si Si5 0.750670 0.622513 0.333017
Si Si6 0.492822 0.325521 0.766203
O O1 0.159628 0.436863 0.575511
O O2 0.000000 0.500000 0.500000
O O3 0.039549 0.150101 0.856419
O O4 0.110832 0.764119 0.797532
O O5 0.123888 0.918956 0.226682
O O6 0.263346 0.195861 0.455797
O O7 0.277479 0.845284 0.128329
O O8 0.232550 0.243331 0.956797
O O9 0.323022 0.633131 0.740382
O O10 0.403939 0.108427 0.802755
O O11 0.573145 0.208860 0.830392
O O12 0.000000 0.500000 0.000000
O O13 0.500000 0.500000 0.500000
O O14 0.500000 0.500000 0.000000
#
# Coordination Sequence:
#
# PCOD9060877 Si02
#       6
#     2   2   2   2   2   2
#     4  11  25  42  70 105 154 214 271 326 392 453
#     4  12  28  47  78 116 159 216 271 323 398 469
#     4  11  28  54  84 121 167 205 262 343 403 483
#     4  11  23  44  69 103 154 214 265 323 382 452
#     4  12  28  48  75 117 161 209 272 330 393 476
#     4  11  28  55  89 121 157 208 261 324 418 503
#
# _framework density 27.900673000000001
#
# number of rings (size 3 to 8) (size 9 to 14) (size 15 to 20)
#    0.000    0.667    3.333    2.000    4.667   13.333 
#    0.000    2.500    0.000    0.000    0.000    0.000 
#    0.000    0.000    0.000    0.000    0.000    0.000 
#
# Total GULP energy -67074.291219 kJ/mol
# GULP energy per Si atom -5589.524268 kJ/mol
# Density = 2.783717 g / cm^3
# Si number density = 27.900673 Si / 1000 Ang^3
#
#
#
# Elastic Constant Matrix: (Units=GPa)
#
#
# Indices 1 2 3 4 5 6 
#
# 1 153.3390 51.2222 62.0326 6.4872 17.3037 5.4219
# 2 51.2222 120.5122 72.4847 11.7609 -4.8398 9.8826
# 3 62.0326 72.4847 208.4296 5.0003 11.5739 23.4105
# 4 6.4872 11.7609 5.0003 70.2413 2.0918 3.2278
# 5 17.3037 -4.8398 11.5739 2.0918 46.7555 3.1509
# 6 5.4219 9.8826 23.4105 3.2278 3.1509 76.1786
#
#
#
# Elastic Compliance Matrix: (Units=1/GPa)
#
#
# Indices 1 2 3 4 5 6 
#
# 1 0.008373 -0.002885 -0.001351 -0.000117 -0.003079 0.000326
# 2 -0.002885 0.011861 -0.003367 -0.001559 0.003223 -0.000366
# 3 -0.001351 -0.003367 0.006604 0.000327 -0.001400 -0.001452
# 4 -0.000117 -0.001559 0.000327 0.014531 -0.000817 -0.000472
# 5 -0.003079 0.003223 -0.001400 -0.000817 0.023291 -0.000698
# 6 0.000326 -0.000366 -0.001452 -0.000472 -0.000698 0.013647
#
#
# Mechanical properties :
#
#
# Convention : Reuss Voigt Hill
#
# Bulk Modulus (GPa) = 85.97397 94.86221 90.41809
# Shear Modulus (GPa) = 51.34040 58.40452 54.87246
#
# Velocity S-wave (km/s) = 4.29431 4.58022 4.43957
# Velocity P-wave (km/s) = 7.44777 7.87687 7.66532
#
# Compressibility (1/GPa) = 0.01163143
#
# Stress axis : x y z
#
# Youngs Moduli (GPa) = 119.43371 84.31280 151.42777
#
# Poissons Ratio (x) = 0.24323 0.20465
# Poissons Ratio (y) = 0.34455 0.50979
# Poissons Ratio (z) = 0.16141 0.28385
#
# Static dielectric constant tensor:
#      x y z
#    x 1.420930 0.124460 0.720920 
#    y 0.124460 2.390800 -0.206130 
#    z 0.720920 -0.206130 1.579700 
# 
# From -- ./inp_files/102945.got.cif
#   From: 2010.05.17/outbox.cif.g08.bks.cpg/sg2_52_cif.got.tgz:102945.got - 2010.06.03 11:33:40.
