data_PCOD9060308
_publ_section_title
;
Structure prediction by ZEFSAII (Michael W. Deem and Ramdas Pophale) SiO2 
 PCOD9060308
Probable space group: P -1
;
_chemical_formula_sum "Si O2"
_cell_formula_units_Z 15
_cell_length_a 9.568151
_cell_length_b 14.646611
_cell_length_c 9.689496
_cell_angle_alpha 88.264938
_cell_angle_beta 137.123402
_cell_angle_gamma 120.557859
_cell_volume 645.735121
_symmetry_space_group_name_H-M "P -1"
_symmetry_group_IT_number 2
_symmetry_cell_setting 'triclinic'
loop_
_space_group_symop_operation_xyz
x,y,z
-x,-y,-z
loop_
_atom_site_type_symbol
_atom_site_label
_atom_site_fract_x
_atom_site_fract_y
_atom_site_fract_z
Si Si1 0.878511 0.864045 0.458810
Si Si2 0.080266 0.126601 0.002550
Si Si3 0.478633 0.285364 0.535495
Si Si4 0.500000 0.500000 0.500000
Si Si5 0.885844 0.238158 0.466679
Si Si6 0.887842 0.251125 0.783834
Si Si7 0.410563 0.513460 0.737185
Si Si8 0.497700 0.727353 0.938792
O O1 0.788562 0.826959 0.553283
O O2 0.113671 0.862129 0.589362
O O3 0.586046 0.752454 0.160478
O O4 0.000000 0.000000 0.500000
O O5 0.352237 0.241388 0.290878
O O6 0.195441 0.161978 0.927672
O O7 0.861608 0.144730 0.847461
O O8 0.000000 0.000000 0.000000
O O9 0.550232 0.413411 0.607788
O O10 0.722573 0.284628 0.727614
O O11 0.320862 0.476228 0.513568
O O12 0.786622 0.208460 0.554632
O O13 0.699021 0.249475 0.243148
O O14 0.222942 0.380291 0.691829
O O15 0.235958 0.382616 0.023301
O O16 0.360127 0.592657 0.778347
#
# Coordination Sequence:
#
# PCOD9060308 Si02
#       8
#     2   2   2   1   2   2   2   2
#     4  12  28  47  69 103 143 185 239 291 347 417
#     4  11  23  44  70  98 136 178 235 294 339 410
#     4  12  26  45  69 107 142 182 232 298 352 412
#     4  12  22  44  66 106 148 174 232 292 354 414
#     4  12  23  44  73 100 140 184 234 286 346 431
#     4  11  24  44  73 104 135 188 240 275 359 422
#     4  11  23  43  69 105 140 179 229 290 351 419
#     4  11  24  45  71 101 135 183 236 282 352 421
#
# _framework density 23.229339
#
# number of rings (size 3 to 8) (size 9 to 14) (size 15 to 20)
#    0.000    0.533    8.000    1.600    0.000    4.800 
#    0.000    0.000    0.000    0.000    0.000    0.000 
#    0.000    0.000    0.000    0.000    0.000    0.000 
#
# Total GULP energy -83583.929410 kJ/mol
# GULP energy per Si atom -5572.261961 kJ/mol
# Density = 2.317647 g / cm^3
# Si number density = 23.229339 Si / 1000 Ang^3
#
#
#
# Elastic Constant Matrix: (Units=GPa)
#
#
# Indices 1 2 3 4 5 6 
#
# 1 85.9390 49.4966 2.1034 -0.0740 11.7138 -39.7286
# 2 49.4966 149.1153 -1.0785 -14.8400 10.7611 -46.7481
# 3 2.1034 -1.0785 42.6978 -13.6203 7.1791 -23.0791
# 4 -0.0740 -14.8400 -13.6203 24.6020 -9.2164 4.7407
# 5 11.7138 10.7611 7.1791 -9.2164 29.6566 -21.2852
# 6 -39.7286 -46.7481 -23.0791 4.7407 -21.2852 54.7016
#
#
#
# Elastic Compliance Matrix: (Units=1/GPa)
#
#
# Indices 1 2 3 4 5 6 
#
# 1 0.020461 -0.000024 0.010881 0.004174 0.005934 0.021378
# 2 -0.000024 0.015172 0.016971 0.018955 0.013237 0.023617
# 3 0.010881 0.016971 0.063427 0.045287 0.028770 0.056436
# 4 0.004174 0.018955 0.045287 0.083089 0.039793 0.046621
# 5 0.005934 0.013237 0.028770 0.039793 0.068575 0.050995
# 6 0.021378 0.023617 0.056436 0.046621 0.050995 0.093604
#
#
# Mechanical properties :
#
#
# Convention : Reuss Voigt Hill
#
# Bulk Modulus (GPa) = 6.46348 42.08835 24.27591
# Shear Modulus (GPa) = 14.69530 36.94074 25.81802
#
# Velocity S-wave (km/s) = 2.51792 3.99214 3.33744
# Velocity P-wave (km/s) = 3.35287 6.27754 5.03236
#
# Compressibility (1/GPa) = 0.15471549
#
# Stress axis : x y z
#
# Youngs Moduli (GPa) = 48.87315 65.91105 15.76612
#
# Poissons Ratio (x) = 0.00157 -0.17155
# Poissons Ratio (y) = 0.00116 -0.26756
# Poissons Ratio (z) = -0.53177 -1.11856
#
# Static dielectric constant tensor:
#      x y z
#    x 1.898760 -0.119090 0.024450 
#    y -0.119090 2.183170 -0.052210 
#    z 0.024450 -0.052210 1.961080 
# 
# From -- ./inp_files/202344.got.cif
#   From: 2010.05.17/outbox.cif.g08.bks.cpg/sg2_102_cif.got.tgz:202344.got - 2010.06.03 11:33:40.
