data_PCOD9060416
_publ_section_title
;
Structure prediction by ZEFSAII (Michael W. Deem and Ramdas Pophale) SiO2 
 PCOD9060416
Probable space group: P -1
;
_chemical_formula_sum "Si O2"
_cell_formula_units_Z 12
_cell_length_a 8.836593
_cell_length_b 13.559855
_cell_length_c 10.449732
_cell_angle_alpha 33.694559
_cell_angle_beta 42.938274
_cell_angle_gamma 56.783944
_cell_volume 466.922408
_symmetry_space_group_name_H-M "P -1"
_symmetry_group_IT_number 2
_symmetry_cell_setting 'triclinic'
loop_
_space_group_symop_operation_xyz
x,y,z
-x,-y,-z
loop_
_atom_site_type_symbol
_atom_site_label
_atom_site_fract_x
_atom_site_fract_y
_atom_site_fract_z
Si Si1 0.366495 0.123802 0.364302
Si Si2 0.043158 0.583383 0.025886
Si Si3 0.957291 0.722518 0.438478
Si Si4 0.471792 0.457722 0.258674
Si Si5 0.644571 0.737527 0.218713
Si Si6 0.401287 0.923586 0.959865
O O1 0.135581 0.132649 0.569729
O O2 0.500000 0.000000 0.500000
O O3 0.466055 0.337844 0.051979
O O4 0.380506 0.047900 0.295479
O O5 0.313964 0.637166 0.808105
O O6 0.994150 0.431486 0.329039
O O7 0.000000 0.500000 0.000000
O O8 0.871289 0.717514 0.023875
O O9 0.760035 0.635365 0.560756
O O10 0.187636 0.817036 0.131015
O O11 0.446458 0.437311 0.449768
O O12 0.461424 0.801513 0.170437
O O13 0.669897 0.896406 0.136546
#
# Coordination Sequence:
#
# PCOD9060416 Si02
#       6
#     2   2   2   2   2   2
#     4  11  24  43  67  99 138 175 221 278 336 400
#     4  11  23  43  70  97 131 178 228 278 334 400
#     4  11  25  43  68 101 136 177 226 279 336 399
#     4  11  25  44  70 102 133 178 228 276 338 400
#     4  11  25  46  70  98 137 179 227 278 333 404
#     4  11  26  44  67 102 137 178 225 278 338 396
#
# _framework density 25.700201
#
# number of rings (size 3 to 8) (size 9 to 14) (size 15 to 20)
#    0.000    1.000    0.000    7.000    0.000   12.667 
#    0.000    4.167    0.000    0.000    0.000    0.000 
#    0.000    0.000    0.000    0.000    0.000    0.000 
#
# Total GULP energy -67175.230746 kJ/mol
# GULP energy per Si atom -5597.935896 kJ/mol
# Density = 2.564171 g / cm^3
# Si number density = 25.700201 Si / 1000 Ang^3
#
#
#
# Elastic Constant Matrix: (Units=GPa)
#
#
# Indices 1 2 3 4 5 6 
#
# 1 80.5991 4.0253 31.9739 -18.1015 24.4468 -16.7498
# 2 4.0253 155.9015 23.3465 5.6663 -5.6790 -16.0995
# 3 31.9739 23.3465 81.8919 -7.8561 19.0364 -16.3490
# 4 -18.1015 5.6663 -7.8561 41.6019 -0.1169 1.4851
# 5 24.4468 -5.6790 19.0364 -0.1169 45.4318 6.2378
# 6 -16.7498 -16.0995 -16.3490 1.4851 6.2378 39.3029
#
#
#
# Elastic Compliance Matrix: (Units=1/GPa)
#
#
# Indices 1 2 3 4 5 6 
#
# 1 0.020613 0.000149 -0.002934 0.008040 -0.011070 0.009079
# 2 0.000149 0.007028 -0.002154 -0.001362 0.001441 0.001869
# 3 -0.002934 -0.002154 0.016848 0.001972 -0.006547 0.005840
# 4 0.008040 -0.001362 0.001972 0.027951 -0.005737 0.003543
# 5 -0.011070 0.001441 -0.006547 -0.005737 0.032495 -0.011791
# 6 0.009079 0.001869 0.005840 0.003543 -0.011791 0.034245
#
#
# Mechanical properties :
#
#
# Convention : Reuss Voigt Hill
#
# Bulk Modulus (GPa) = 28.89213 48.56487 38.72850
# Shear Modulus (GPa) = 31.13420 42.53711 36.83565
#
# Velocity S-wave (km/s) = 3.48435 4.07274 3.78998
# Velocity P-wave (km/s) = 5.23965 6.40734 5.85269
#
# Compressibility (1/GPa) = 0.03461151
#
# Stress axis : x y z
#
# Youngs Moduli (GPa) = 48.51199 142.28676 59.35514
#
# Poissons Ratio (x) = -0.02123 0.17414
# Poissons Ratio (y) = -0.00724 0.12787
# Poissons Ratio (z) = 0.14232 0.30653
#
# Static dielectric constant tensor:
#      x y z
#    x 2.001110 0.043320 -0.036410 
#    y 0.043320 2.094930 -0.045570 
#    z -0.036410 -0.045570 2.036630 
# 
# From -- ./inp_files/395025.got.cif
#   From: 2010.05.17/outbox.cif.g08.bks.cpg/sg2_198_cif.got.tgz:395025.got - 2010.06.03 11:33:40.
