data_PCOD9060055
_publ_section_title
;
Structure prediction by ZEFSAII (Michael W. Deem and Ramdas Pophale) SiO2 
 PCOD9060055
Probable space group: P -1
;
_chemical_formula_sum "Si O2"
_cell_formula_units_Z 16
_cell_length_a 9.730805
_cell_length_b 8.886202
_cell_length_c 21.306648
_cell_angle_alpha 67.300720
_cell_angle_beta 43.332137
_cell_angle_gamma 43.287583
_cell_volume 825.524509
_symmetry_space_group_name_H-M "P -1"
_symmetry_group_IT_number 2
_symmetry_cell_setting 'triclinic'
loop_
_space_group_symop_operation_xyz
x,y,z
-x,-y,-z
loop_
_atom_site_type_symbol
_atom_site_label
_atom_site_fract_x
_atom_site_fract_y
_atom_site_fract_z
Si Si1 0.521701 0.065678 0.740286
Si Si2 0.115542 0.956825 0.769858
Si Si3 0.240024 0.307222 0.384269
Si Si4 0.709887 0.963945 0.486292
Si Si5 0.194591 0.932789 0.888230
Si Si6 0.686508 0.612707 0.350957
Si Si7 0.832745 0.454397 0.744647
Si Si8 0.973481 0.127773 0.313603
O O1 0.418953 0.279711 0.700585
O O2 0.709311 0.856190 0.661180
O O3 0.272973 0.080836 0.836320
O O4 0.719703 0.999192 0.742570
O O5 0.940899 0.215018 0.764636
O O6 0.449608 0.809403 0.678897
O O7 0.062977 0.959048 0.860467
O O8 0.047564 0.860609 0.756509
O O9 0.106014 0.527469 0.350936
O O10 0.132490 0.263409 0.486009
O O11 0.516798 0.181375 0.564422
O O12 0.899729 0.990709 0.385654
O O13 0.500000 0.000000 0.500000
O O14 0.500647 0.669142 0.831805
O O15 0.000000 0.000000 0.000000
O O16 0.743120 0.389016 0.374268
O O17 0.987933 0.526482 0.275034
#
# Coordination Sequence:
#
# PCOD9060055 Si02
#       8
#     2   2   2   2   2   2   2   2
#     4   9  20  37  58  82 118 149 196 236 297 347
#     4  10  20  38  59  86 121 153 193 239 296 352
#     4   9  18  35  57  77 116 156 198 237 276 341
#     4  11  21  38  56  86 124 158 211 245 273 339
#     4  10  21  39  67  93 112 146 198 243 293 375
#     4  11  20  38  59  83 121 165 195 238 295 342
#     4  10  17  38  64  79 117 158 190 237 302 345
#     4  12  22  37  59  85 121 163 194 248 291 333
#
# _framework density 19.381616999999999
#
# number of rings (size 3 to 8) (size 9 to 14) (size 15 to 20)
#    0.000    2.000    7.500    0.375    0.000    4.500 
#    2.250    1.875    0.000    1.500    0.000    0.000 
#    0.000    0.000    0.000    0.000    0.000    0.000 
#
# Total GULP energy -89229.992722 kJ/mol
# GULP energy per Si atom -5576.874545 kJ/mol
# Density = 1.933750 g / cm^3
# Si number density = 19.381617 Si / 1000 Ang^3
#
#
#
# Elastic Constant Matrix: (Units=GPa)
#
#
# Indices 1 2 3 4 5 6 
#
# 1 126.7148 17.1517 33.4008 3.2341 22.5872 -6.6061
# 2 17.1517 64.9323 -9.6761 -9.8798 4.8630 -13.7771
# 3 33.4008 -9.6761 86.9592 -5.1965 22.7343 -4.4415
# 4 3.2341 -9.8798 -5.1965 12.8925 -2.0507 -1.5624
# 5 22.5872 4.8630 22.7343 -2.0507 21.6766 -5.7612
# 6 -6.6061 -13.7771 -4.4415 -1.5624 -5.7612 29.6154
#
#
#
# Elastic Compliance Matrix: (Units=1/GPa)
#
#
# Indices 1 2 3 4 5 6 
#
# 1 0.011000 -0.004634 -0.003164 -0.009237 -0.008599 -0.002337
# 2 -0.004634 0.023988 0.007158 0.023449 -0.002675 0.011916
# 3 -0.003164 0.007158 0.018491 0.011569 -0.015829 0.002928
# 4 -0.009237 0.023449 0.011569 0.105730 0.006884 0.017500
# 5 -0.008599 -0.002675 -0.015829 0.006884 0.075473 0.009509
# 6 -0.002337 0.011916 0.002928 0.017500 0.009509 0.042000
#
#
# Mechanical properties :
#
#
# Convention : Reuss Voigt Hill
#
# Bulk Modulus (GPa) = 19.15757 40.03989 29.59873
# Shear Modulus (GPa) = 16.92843 28.68556 22.80700
#
# Velocity S-wave (km/s) = 2.95859 3.85130 3.43408
# Velocity P-wave (km/s) = 4.64509 6.36241 5.57033
#
# Compressibility (1/GPa) = 0.05219870
#
# Stress axis : x y z
#
# Youngs Moduli (GPa) = 90.91209 41.68757 54.08126
#
# Poissons Ratio (x) = 0.19319 0.17111
# Poissons Ratio (y) = 0.42131 -0.38713
# Poissons Ratio (z) = 0.28764 -0.29841
#
# Static dielectric constant tensor:
#      x y z
#    x 1.688010 0.009360 0.031360 
#    y 0.009360 1.754120 0.007560 
#    z 0.031360 0.007560 1.677640 
# 
# From -- ./inp_files/586157.got.cif
#   From: 2010.05.17/outbox.cif.g08.bks.cpg/sg2_294_cif.got.tgz:586157.got - 2010.06.03 11:33:40.
