data_PCOD9060526
_publ_section_title
;
Structure prediction by ZEFSAII (Michael W. Deem and Ramdas Pophale) SiO2 
 PCOD9060526
Probable space group: P -1
;
_chemical_formula_sum "Si O2"
_cell_formula_units_Z 16
_cell_length_a 9.676745
_cell_length_b 19.966875
_cell_length_c 14.034259
_cell_angle_alpha 158.863685
_cell_angle_beta 68.773793
_cell_angle_gamma 123.351313
_cell_volume 707.121917
_symmetry_space_group_name_H-M "P -1"
_symmetry_group_IT_number 2
_symmetry_cell_setting 'triclinic'
loop_
_space_group_symop_operation_xyz
x,y,z
-x,-y,-z
loop_
_atom_site_type_symbol
_atom_site_label
_atom_site_fract_x
_atom_site_fract_y
_atom_site_fract_z
Si Si1 0.404363 0.489093 0.412564
Si Si2 0.743516 0.998351 0.254112
Si Si3 0.622685 0.779292 0.551749
Si Si4 0.890743 0.667763 0.271752
Si Si5 0.220274 0.721806 0.740861
Si Si6 0.978181 0.203226 0.790849
Si Si7 0.368011 0.834531 0.225349
Si Si8 0.749843 0.339885 0.564986
O O1 0.500000 0.500000 0.500000
O O2 0.533601 0.613113 0.449207
O O3 0.324454 0.629758 0.639442
O O4 0.247531 0.207182 0.055082
O O5 0.522293 0.864243 0.156482
O O6 0.792351 0.195620 0.427629
O O7 0.892609 0.135652 0.485314
O O8 0.768746 0.757816 0.435475
O O9 0.446811 0.702528 0.426472
O O10 0.729172 0.047275 0.916056
O O11 0.904101 0.622468 0.098213
O O12 0.782513 0.432125 0.050052
O O13 0.278573 0.762083 0.669081
O O14 0.000000 0.500000 0.500000
O O15 0.760939 0.103459 0.704320
O O16 0.000000 0.000000 0.500000
O O17 0.080985 0.376345 0.085923
O O18 0.500000 0.000000 0.500000
#
# Coordination Sequence:
#
# PCOD9060526 Si02
#       8
#     2   2   2   2   2   2   2   2
#     4  11  23  43  72 104 135 185 239 286 354 423
#     4  12  24  45  74 102 144 184 234 296 351 425
#     4  11  25  45  71 105 147 187 235 296 358 422
#     4  12  26  48  69 108 144 187 242 286 356 429
#     4  11  25  45  72 102 146 190 233 299 358 419
#     4  12  29  45  73 107 144 189 240 293 354 431
#     4  12  25  47  73 100 142 188 236 292 355 410
#     4  11  26  46  69 104 146 185 241 295 356 425
#
# _framework density 22.626933000000001
#
# number of rings (size 3 to 8) (size 9 to 14) (size 15 to 20)
#    0.000    0.500    3.750    4.875    8.750    2.500 
#    0.000    2.500    0.000    0.000    0.000    0.000 
#    0.000    0.000    0.000    0.000    0.000    0.000 
#
# Total GULP energy -89538.514048 kJ/mol
# GULP energy per Si atom -5596.157128 kJ/mol
# Density = 2.257543 g / cm^3
# Si number density = 22.626933 Si / 1000 Ang^3
#
#
#
# Elastic Constant Matrix: (Units=GPa)
#
#
# Indices 1 2 3 4 5 6 
#
# 1 123.1420 6.9666 31.4024 -4.1323 -4.0950 15.6268
# 2 6.9666 25.4725 -12.5370 6.2256 -3.9092 7.4057
# 3 31.4024 -12.5370 131.5829 1.8249 -5.8467 0.1143
# 4 -4.1323 6.2256 1.8249 30.6495 0.9755 1.2815
# 5 -4.0950 -3.9092 -5.8467 0.9755 43.5027 -1.2148
# 6 15.6268 7.4057 0.1143 1.2815 -1.2148 39.8039
#
#
#
# Elastic Compliance Matrix: (Units=1/GPa)
#
#
# Indices 1 2 3 4 5 6 
#
# 1 0.009462 -0.003510 -0.002618 0.002273 0.000085 -0.003125
# 2 -0.003510 0.048486 0.005825 -0.010523 0.004845 -0.007173
# 3 -0.002618 0.005825 0.008876 -0.002114 0.001518 0.000033
# 4 0.002273 -0.010523 -0.002114 0.035259 -0.001810 -0.000119
# 5 0.000085 0.004845 0.001518 -0.001810 0.023671 -0.000159
# 6 -0.003125 -0.007173 0.000033 -0.000119 -0.000159 0.027683
#
#
# Mechanical properties :
#
#
# Convention : Reuss Voigt Hill
#
# Bulk Modulus (GPa) = 15.10155 36.87349 25.98752
# Shear Modulus (GPa) = 28.39029 39.74891 34.06960
#
# Velocity S-wave (km/s) = 3.54603 4.19586 3.88456
# Velocity P-wave (km/s) = 4.84298 6.30914 5.62404
#
# Compressibility (1/GPa) = 0.06621835
#
# Stress axis : x y z
#
# Youngs Moduli (GPa) = 105.68071 20.62464 112.66063
#
# Poissons Ratio (x) = 0.07239 0.29491
# Poissons Ratio (y) = 0.37095 -0.65622
# Poissons Ratio (z) = 0.27664 -0.12013
#
# Static dielectric constant tensor:
#      x y z
#    x 1.848470 0.010710 -0.006010 
#    y 0.010710 1.903610 0.004300 
#    z -0.006010 0.004300 1.835060 
# 
# From -- ./inp_files/207545.got.cif
#   From: 2010.05.17/outbox.cif.g08.bks.cpg/sg2_104_cif.got.tgz:207545.got - 2010.06.03 11:33:40.
