data_PCOD9060031
_publ_section_title
;
Structure prediction by ZEFSAII (Michael W. Deem and Ramdas Pophale) SiO2 
 PCOD9060031
Probable space group: P -1
;
_chemical_formula_sum "Si O2"
_cell_formula_units_Z 14
_cell_length_a 8.480723
_cell_length_b 19.472856
_cell_length_c 12.440996
_cell_angle_alpha 159.295289
_cell_angle_beta 74.794442
_cell_angle_gamma 105.202472
_cell_volume 700.101949
_symmetry_space_group_name_H-M "P -1"
_symmetry_group_IT_number 2
_symmetry_cell_setting 'triclinic'
loop_
_space_group_symop_operation_xyz
x,y,z
-x,-y,-z
loop_
_atom_site_type_symbol
_atom_site_label
_atom_site_fract_x
_atom_site_fract_y
_atom_site_fract_z
Si Si1 0.853194 0.239547 0.142840
Si Si2 0.497994 0.023859 0.907038
Si Si3 0.200473 0.063056 0.858967
Si Si4 0.023980 0.776344 0.143794
Si Si5 0.847950 0.363613 0.866054
Si Si6 0.530471 0.580244 0.230087
Si Si7 0.262518 0.402437 0.175157
O O1 0.825433 0.437131 0.502455
O O2 0.670705 0.138832 0.022807
O O3 0.010501 0.129601 0.004059
O O4 0.901407 0.259520 0.038725
O O5 0.330427 0.089735 0.974556
O O6 0.512887 0.805750 0.547535
O O7 0.500000 0.000000 0.000000
O O8 0.187184 0.835637 0.489610
O O9 0.272345 0.210172 0.967155
O O10 0.126024 0.706831 0.121557
O O11 0.849579 0.661869 0.000075
O O12 0.000000 0.000000 0.500000
O O13 0.708413 0.513092 0.120489
O O14 0.000000 0.500000 0.000000
O O15 0.421665 0.498964 0.230871
O O16 0.500000 0.500000 0.000000
#
# Coordination Sequence:
#
# PCOD9060031 Si02
#       7
#     2   2   2   2   2   2   2
#     4  11  25  48  73 102 149 182 237 297 350 427
#     4  12  27  47  70 107 143 185 239 290 359 423
#     4  11  25  46  74 102 140 191 235 290 359 416
#     4  11  23  42  74 103 134 187 239 290 348 421
#     4  12  25  43  70 107 140 186 236 290 361 416
#     4  12  26  44  69 102 143 183 234 297 346 418
#     4  11  25  47  70 103 144 184 236 293 358 419
#
# _framework density 19.997088000000002
#
# number of rings (size 3 to 8) (size 9 to 14) (size 15 to 20)
#    0.000    0.571    5.714    3.429    4.000    4.000 
#    0.000    0.000    0.000    0.000    0.000    0.000 
#    0.000    0.000    0.000    0.000    0.000    0.000 
#
# Total GULP energy -77989.037503 kJ/mol
# GULP energy per Si atom -5570.645536 kJ/mol
# Density = 1.995157 g / cm^3
# Si number density = 19.997088 Si / 1000 Ang^3
#
#
#
# Elastic Constant Matrix: (Units=GPa)
#
#
# Indices 1 2 3 4 5 6 
#
# 1 141.2758 46.2043 12.6468 -2.6135 -0.6803 -3.4598
# 2 46.2043 65.4688 17.5213 -8.6797 -3.4035 -0.1642
# 3 12.6468 17.5213 98.1223 -11.8168 11.8733 11.9060
# 4 -2.6135 -8.6797 -11.8168 31.1494 0.2678 5.4978
# 5 -0.6803 -3.4035 11.8733 0.2678 35.5187 1.0781
# 6 -3.4598 -0.1642 11.9060 5.4978 1.0781 48.9588
#
#
#
# Elastic Compliance Matrix: (Units=1/GPa)
#
#
# Indices 1 2 3 4 5 6 
#
# 1 0.009278 -0.006683 -0.000213 -0.001310 -0.000407 0.000841
# 2 -0.006683 0.021456 -0.002746 0.004403 0.002821 -0.000289
# 3 -0.000213 -0.002746 0.012176 0.004472 -0.004268 -0.003393
# 4 -0.001310 0.004403 0.004472 0.035838 -0.001211 -0.005163
# 5 -0.000407 0.002821 -0.004268 -0.001211 0.029838 0.000498
# 6 0.000841 -0.000289 -0.003393 -0.005163 0.000498 0.021878
#
#
# Mechanical properties :
#
#
# Convention : Reuss Voigt Hill
#
# Bulk Modulus (GPa) = 42.32813 50.84574 46.58693
# Shear Modulus (GPa) = 31.72142 38.35833 35.03987
#
# Velocity S-wave (km/s) = 3.98716 4.38447 4.19053
# Velocity P-wave (km/s) = 6.51227 7.14935 6.83824
#
# Compressibility (1/GPa) = 0.02362495
#
# Stress axis : x y z
#
# Youngs Moduli (GPa) = 107.78642 46.60748 82.12979
#
# Poissons Ratio (x) = 0.31149 0.01748
# Poissons Ratio (y) = 0.72037 0.22553
# Poissons Ratio (z) = 0.02294 0.12798
#
# Static dielectric constant tensor:
#      x y z
#    x 1.691740 0.040280 0.012700 
#    y 0.040280 1.686190 -0.000990 
#    z 0.012700 -0.000990 1.650390 
# 
# From -- ./inp_files/155615.got.cif
#   From: 2010.05.17/outbox.cif.g08.bks.cpg/sg2_78_cif.got.tgz:155615.got - 2010.06.03 11:33:40.
