data_PCOD9060682
_publ_section_title
;
Structure prediction by ZEFSAII (Michael W. Deem and Ramdas Pophale) SiO2 
 PCOD9060682
Probable space group: P -1
;
_chemical_formula_sum "Si O2"
_cell_formula_units_Z 16
_cell_length_a 9.907208
_cell_length_b 18.665689
_cell_length_c 12.029167
_cell_angle_alpha 49.235135
_cell_angle_beta 60.341976
_cell_angle_gamma 28.829133
_cell_volume 794.057529
_symmetry_space_group_name_H-M "P -1"
_symmetry_group_IT_number 2
_symmetry_cell_setting 'triclinic'
loop_
_space_group_symop_operation_xyz
x,y,z
-x,-y,-z
loop_
_atom_site_type_symbol
_atom_site_label
_atom_site_fract_x
_atom_site_fract_y
_atom_site_fract_z
Si Si1 0.798385 0.711909 0.385677
Si Si2 0.831415 0.841925 0.559023
Si Si3 0.889605 0.495141 0.729843
Si Si4 0.194690 0.661378 0.394434
Si Si5 0.128844 0.039074 0.373638
Si Si6 0.885837 0.508321 0.149653
Si Si7 0.239355 0.802431 0.059973
Si Si8 0.357788 0.676129 0.886720
O O1 0.810881 0.603437 0.550395
O O2 0.900718 0.679289 0.250224
O O3 0.023762 0.655855 0.427042
O O4 0.454800 0.896233 0.347142
O O5 0.894240 0.882060 0.590471
O O6 0.983468 0.808921 0.423835
O O7 0.971808 0.668270 0.709595
O O8 0.500000 0.000000 0.500000
O O9 0.597994 0.612903 0.787385
O O10 0.051670 0.464177 0.793709
O O11 0.500000 0.500000 0.500000
O O12 0.203467 0.723328 0.221777
O O13 0.926478 0.177046 0.218159
O O14 0.000000 0.000000 0.500000
O O15 0.548440 0.678129 0.099878
O O16 0.000000 0.500000 0.000000
O O17 0.279494 0.757415 0.958112
O O18 0.000000 0.000000 0.000000
O O19 0.500000 0.500000 0.000000
#
# Coordination Sequence:
#
# PCOD9060682 Si02
#       8
#     2   2   2   2   2   2   2   2
#     4  11  24  45  70 112 137 186 246 299 359 432
#     4  12  26  47  77 108 145 194 250 304 370 445
#     4  11  23  43  75  99 145 185 240 298 364 434
#     4  12  25  47  75 104 147 189 251 306 366 442
#     4  12  27  45  75 108 146 190 247 305 366 440
#     4  12  25  47  73 105 146 194 239 300 377 441
#     4  12  29  46  71 110 147 193 245 309 376 439
#     4  12  27  50  69 103 154 197 244 297 378 450
#
# _framework density 20.149674000000001
#
# number of rings (size 3 to 8) (size 9 to 14) (size 15 to 20)
#    0.000    0.250    6.250    1.500    7.000    0.000 
#    0.000    1.250    0.000    0.000    0.000    0.000 
#    0.000    0.000    0.000    0.000    0.000    0.000 
#
# Total GULP energy -89108.378865 kJ/mol
# GULP energy per Si atom -5569.273679 kJ/mol
# Density = 2.010381 g / cm^3
# Si number density = 20.149674 Si / 1000 Ang^3
#
#
#
# Elastic Constant Matrix: (Units=GPa)
#
#
# Indices 1 2 3 4 5 6 
#
# 1 127.8512 64.0888 27.8460 3.7427 28.3073 1.9430
# 2 64.0888 150.7447 51.3207 20.9780 18.9958 -11.0760
# 3 27.8460 51.3207 86.8176 15.6371 11.4437 3.6984
# 4 3.7427 20.9780 15.6371 49.1697 1.3690 11.0007
# 5 28.3073 18.9958 11.4437 1.3690 35.4311 12.0945
# 6 1.9430 -11.0760 3.6984 11.0007 12.0945 39.9019
#
#
#
# Elastic Compliance Matrix: (Units=1/GPa)
#
#
# Indices 1 2 3 4 5 6 
#
# 1 0.011419 -0.003902 -0.000658 0.001152 -0.006933 0.000206
# 2 -0.003902 0.011265 -0.004439 -0.004333 -0.003348 0.005938
# 3 -0.000658 -0.004439 0.015038 -0.002464 -0.001341 -0.001508
# 4 0.001152 -0.004333 -0.002464 0.024819 0.004380 -0.009200
# 5 -0.006933 -0.003348 -0.001341 0.004380 0.040594 -0.013979
# 6 0.000206 0.005938 -0.001508 -0.009200 -0.013979 0.033613
#
#
# Mechanical properties :
#
#
# Convention : Reuss Voigt Hill
#
# Bulk Modulus (GPa) = 50.69978 72.43607 61.56793
# Shear Modulus (GPa) = 30.99405 39.71106 35.35255
#
# Velocity S-wave (km/s) = 3.92623 4.44419 4.19322
# Velocity P-wave (km/s) = 6.76535 7.89693 7.35294
#
# Compressibility (1/GPa) = 0.01972395
#
# Stress axis : x y z
#
# Youngs Moduli (GPa) = 87.57065 88.77017 66.49692
#
# Poissons Ratio (x) = 0.34641 0.04377
# Poissons Ratio (y) = 0.34173 0.29517
# Poissons Ratio (z) = 0.05764 0.39403
#
# Static dielectric constant tensor:
#      x y z
#    x 3.069270 -3.212490 1.124540 
#    y -3.212490 9.363150 -2.866190 
#    z 1.124540 -2.866190 2.887430 
# 
# From -- ./inp_files/402962.got.cif
#   From: 2010.05.17/outbox.cif.g08.bks.cpg/sg2_202_cif.got.tgz:402962.got - 2010.06.03 11:33:40.
