data_PCOD9060371
_publ_section_title
;
Structure prediction by ZEFSAII (Michael W. Deem and Ramdas Pophale) SiO2 
 PCOD9060371
Probable space group: P -1
;
_chemical_formula_sum "Si O2"
_cell_formula_units_Z 14
_cell_length_a 8.593816
_cell_length_b 13.079363
_cell_length_c 9.849736
_cell_angle_alpha 131.271656
_cell_angle_beta 106.331893
_cell_angle_gamma 53.775177
_cell_volume 660.405498
_symmetry_space_group_name_H-M "P -1"
_symmetry_group_IT_number 2
_symmetry_cell_setting 'triclinic'
loop_
_space_group_symop_operation_xyz
x,y,z
-x,-y,-z
loop_
_atom_site_type_symbol
_atom_site_label
_atom_site_fract_x
_atom_site_fract_y
_atom_site_fract_z
Si Si1 0.891329 0.067770 0.388267
Si Si2 0.814651 0.681894 0.655750
Si Si3 0.506381 0.596874 0.458943
Si Si4 0.676855 0.767509 0.239332
Si Si5 0.675214 0.475349 0.109215
Si Si6 0.756886 0.941253 0.645881
Si Si7 0.111324 0.226031 0.951782
O O1 0.710445 0.257712 0.515581
O O2 0.058189 0.047053 0.311157
O O3 0.807461 0.962322 0.225487
O O4 0.000000 0.000000 0.500000
O O5 0.625657 0.674966 0.597709
O O6 0.791482 0.815274 0.660986
O O7 0.000000 0.500000 0.500000
O O8 0.838824 0.733997 0.856068
O O9 0.500000 0.500000 0.500000
O O10 0.623883 0.479389 0.257393
O O11 0.695282 0.625951 0.212484
O O12 0.734348 0.868368 0.435540
O O13 0.815142 0.708277 0.090556
O O14 0.451884 0.886236 0.239286
O O15 0.500000 0.500000 0.000000
O O16 0.878276 0.315625 0.973031
#
# Coordination Sequence:
#
# PCOD9060371 Si02
#       7
#     2   2   2   2   2   2   2
#     4  12  25  46  74 106 142 183 240 297 351 419
#     4  12  25  48  68  99 146 187 232 291 354 427
#     4  12  27  47  73 102 144 192 231 292 363 417
#     4  11  23  43  70 103 133 188 233 286 349 419
#     4  12  26  45  69 104 141 179 239 294 349 423
#     4  11  23  43  72  96 144 180 231 290 352 413
#     4  12  26  44  74 104 139 186 237 287 356 422
#
# _framework density 21.199093999999999
#
# number of rings (size 3 to 8) (size 9 to 14) (size 15 to 20)
#    0.000    0.286    4.286    4.714    2.000    2.857 
#    0.000    0.000    0.000    0.000    0.000    0.000 
#    0.000    0.000    0.000    0.000    0.000    0.000 
#
# Total GULP energy -78381.166425 kJ/mol
# GULP energy per Si atom -5598.654745 kJ/mol
# Density = 2.115084 g / cm^3
# Si number density = 21.199094 Si / 1000 Ang^3
#
#
#
# Elastic Constant Matrix: (Units=GPa)
#
#
# Indices 1 2 3 4 5 6 
#
# 1 109.1696 24.4866 15.3429 -19.2220 -16.3892 13.6125
# 2 24.4866 103.1080 14.4476 -6.7996 -29.9200 13.7866
# 3 15.3429 14.4476 85.5143 -23.0041 -16.2446 8.3020
# 4 -19.2220 -6.7996 -23.0041 39.5557 0.0144 -4.5966
# 5 -16.3892 -29.9200 -16.2446 0.0144 43.7186 -3.9245
# 6 13.6125 13.7866 8.3020 -4.5966 -3.9245 48.5432
#
#
#
# Elastic Compliance Matrix: (Units=1/GPa)
#
#
# Indices 1 2 3 4 5 6 
#
# 1 0.011019 -0.001080 0.000442 0.005181 0.003366 -0.002096
# 2 -0.001080 0.012732 0.000249 0.001509 0.008172 -0.002552
# 3 0.000442 0.000249 0.015236 0.008944 0.005861 -0.001480
# 4 0.005181 0.001509 0.008944 0.033287 0.006310 0.000251
# 5 0.003366 0.008172 0.005861 0.006310 0.031805 -0.001098
# 6 -0.002096 -0.002552 -0.001480 0.000251 -0.001098 0.022101
#
#
# Mechanical properties :
#
#
# Convention : Reuss Voigt Hill
#
# Bulk Modulus (GPa) = 26.17206 45.14956 35.66081
# Shear Modulus (GPa) = 35.79246 42.59783 39.19514
#
# Velocity S-wave (km/s) = 4.11347 4.48752 4.30456
# Velocity P-wave (km/s) = 5.91045 6.94223 6.44701
#
# Compressibility (1/GPa) = 0.03820868
#
# Stress axis : x y z
#
# Youngs Moduli (GPa) = 90.75071 78.54096 65.63521
#
# Poissons Ratio (x) = 0.08483 -0.02903
# Poissons Ratio (y) = 0.09802 -0.01632
# Poissons Ratio (z) = -0.04013 -0.01953
#
# Static dielectric constant tensor:
#      x y z
#    x 1.749530 -0.009100 0.004050 
#    y -0.009100 1.760160 0.033710 
#    z 0.004050 0.033710 1.773700 
# 
# From -- ./inp_files/152866.got.cif
#   From: 2010.05.17/outbox.cif.g08.bks.cpg/sg2_77_cif.got.tgz:152866.got - 2010.06.03 11:33:40.
