data_PCOD9060488
_publ_section_title
;
Structure prediction by ZEFSAII (Michael W. Deem and Ramdas Pophale) SiO2 
 PCOD9060488
Probable space group: P -1
;
_chemical_formula_sum "Si O2"
_cell_formula_units_Z 15
_cell_length_a 11.558473
_cell_length_b 11.073560
_cell_length_c 12.160170
_cell_angle_alpha 35.997772
_cell_angle_beta 51.860337
_cell_angle_gamma 38.841922
_cell_volume 573.400896
_symmetry_space_group_name_H-M "P -1"
_symmetry_group_IT_number 2
_symmetry_cell_setting 'triclinic'
loop_
_space_group_symop_operation_xyz
x,y,z
-x,-y,-z
loop_
_atom_site_type_symbol
_atom_site_label
_atom_site_fract_x
_atom_site_fract_y
_atom_site_fract_z
Si Si1 0.617952 0.218435 0.523161
Si Si2 0.927286 0.494118 0.408887
Si Si3 0.863751 0.405658 0.260467
Si Si4 0.653010 0.817137 0.634574
Si Si5 0.718700 0.298659 0.762917
Si Si6 0.500000 0.500000 0.000000
Si Si7 0.244140 0.090173 0.133104
Si Si8 0.191294 0.949640 0.892654
O O1 0.771923 0.262396 0.410294
O O2 0.444161 0.470535 0.382935
O O3 0.661871 0.987282 0.593712
O O4 0.596935 0.142027 0.713541
O O5 0.895530 0.445509 0.338474
O O6 0.872484 0.344698 0.625653
O O7 0.139832 0.367839 0.396209
O O8 0.818312 0.800337 0.265938
O O9 0.057061 0.238221 0.205626
O O10 0.737412 0.688906 0.071432
O O11 0.597015 0.648815 0.842740
O O12 0.500000 0.000000 0.500000
O O13 0.665475 0.292901 0.925386
O O14 0.779887 0.033356 0.868422
O O15 0.696196 0.221101 0.151153
O O16 0.000000 0.000000 0.000000
#
# Coordination Sequence:
#
# PCOD9060488 Si02
#       8
#     2   2   2   2   2   1   2   2
#     4  12  25  45  71 112 152 198 251 309 384 457
#     4  12  25  49  80 112 156 200 257 320 385 463
#     4  11  24  45  76 111 152 199 247 317 386 454
#     4  12  28  48  78 113 151 206 261 316 381 452
#     4  12  27  45  74 109 155 200 253 317 381 461
#     4  12  28  54  76 106 154 196 258 320 382 456
#     4  11  23  43  71 108 151 199 248 308 383 454
#     4  12  28  52  77 111 149 204 261 318 386 456
#
# _framework density 26.159706
#
# number of rings (size 3 to 8) (size 9 to 14) (size 15 to 20)
#    0.000    0.267    5.333    3.200    1.867    4.267 
#    2.400    0.000    0.000    0.000    0.000    0.000 
#    0.000    0.000    0.000    0.000    0.000    0.000 
#
# Total GULP energy -83981.449652 kJ/mol
# GULP energy per Si atom -5598.763310 kJ/mol
# Density = 2.610017 g / cm^3
# Si number density = 26.159706 Si / 1000 Ang^3
#
#
#
# Elastic Constant Matrix: (Units=GPa)
#
#
# Indices 1 2 3 4 5 6 
#
# 1 114.5403 40.7495 61.4153 -2.7077 -20.3222 6.2661
# 2 40.7495 111.9187 52.3355 -13.8422 -28.9227 -0.8676
# 3 61.4153 52.3355 208.3511 -4.5636 -29.1005 1.5002
# 4 -2.7077 -13.8422 -4.5636 51.5830 15.3647 -12.7573
# 5 -20.3222 -28.9227 -29.1005 15.3647 49.2216 -9.5950
# 6 6.2661 -0.8676 1.5002 -12.7573 -9.5950 62.3309
#
#
#
# Elastic Compliance Matrix: (Units=1/GPa)
#
#
# Indices 1 2 3 4 5 6 
#
# 1 0.011341 -0.002669 -0.002435 -0.001144 0.001822 -0.001072
# 2 -0.002669 0.012132 -0.001557 0.001943 0.004814 0.001613
# 3 -0.002435 -0.001557 0.006166 -0.000511 0.001937 0.000268
# 4 -0.001144 0.001943 -0.000511 0.022516 -0.005910 0.003853
# 5 0.001822 0.004814 0.001937 -0.005910 0.027443 0.002852
# 6 -0.001072 0.001613 0.000268 0.003853 0.002852 0.017395
#
#
# Mechanical properties :
#
#
# Convention : Reuss Voigt Hill
#
# Bulk Modulus (GPa) = 61.29284 82.64564 71.96924
# Shear Modulus (GPa) = 43.19475 51.31440 47.25458
#
# Velocity S-wave (km/s) = 4.06790 4.43378 4.25477
# Velocity P-wave (km/s) = 6.74869 7.60740 7.19087
#
# Compressibility (1/GPa) = 0.01631512
#
# Stress axis : x y z
#
# Youngs Moduli (GPa) = 88.17641 82.42612 162.18059
#
# Poissons Ratio (x) = 0.22003 0.39495
# Poissons Ratio (y) = 0.23538 0.25256
# Poissons Ratio (z) = 0.21473 0.12836
#
# Static dielectric constant tensor:
#      x y z
#    x 2.309210 1.497070 0.179840 
#    y 1.497070 16.302040 0.725850 
#    z 0.179840 0.725850 2.060210 
# 
# From -- ./inp_files/518536.got.cif
#   From: 2010.05.17/outbox.cif.g08.bks.cpg/sg2_260_cif.got.tgz:518536.got - 2010.06.03 11:33:40.
