data_PCOD9060344
_publ_section_title
;
Structure prediction by ZEFSAII (Michael W. Deem and Ramdas Pophale) SiO2 
 PCOD9060344
Probable space group: P -1
;
_chemical_formula_sum "Si O2"
_cell_formula_units_Z 16
_cell_length_a 14.513141
_cell_length_b 8.660572
_cell_length_c 8.630053
_cell_angle_alpha 70.862596
_cell_angle_beta 84.703743
_cell_angle_gamma 131.811910
_cell_volume 685.342003
_symmetry_space_group_name_H-M "P -1"
_symmetry_group_IT_number 2
_symmetry_cell_setting 'triclinic'
loop_
_space_group_symop_operation_xyz
x,y,z
-x,-y,-z
loop_
_atom_site_type_symbol
_atom_site_label
_atom_site_fract_x
_atom_site_fract_y
_atom_site_fract_z
Si Si1 0.588025 0.464967 0.685194
Si Si2 0.339673 0.106796 0.624116
Si Si3 0.210055 0.401600 0.921014
Si Si4 0.867667 0.034672 0.787907
Si Si5 0.461047 0.810642 0.942272
Si Si6 0.727706 0.123781 0.591131
Si Si7 0.828397 0.605928 0.430628
Si Si8 0.062779 0.751303 0.969108
O O1 0.462768 0.227294 0.681377
O O2 0.602384 0.671005 0.565439
O O3 0.730674 0.566959 0.580166
O O4 0.554680 0.376206 0.894521
O O5 0.296778 0.910584 0.576977
O O6 0.202117 0.975767 0.781249
O O7 0.320722 0.648666 0.921043
O O8 0.227350 0.429323 0.723092
O O9 0.057676 0.272804 0.017959
O O10 0.216315 0.223525 0.038004
O O11 0.796203 0.045803 0.662871
O O12 0.010780 0.145304 0.670083
O O13 0.900627 0.201322 0.870028
O O14 0.584124 0.956825 0.755071
O O15 0.500000 0.000000 0.000000
O O16 0.818221 0.398774 0.526959
O O17 0.000000 0.500000 0.000000
#
# Coordination Sequence:
#
# PCOD9060344 Si02
#       8
#     2   2   2   2   2   2   2   2
#     4  11  24  42  69  93 137 174 221 276 328 392
#     4  11  24  42  66 103 130 175 222 270 331 399
#     4  11  25  44  71  96 135 182 220 271 336 398
#     4  11  24  45  68 100 138 175 220 271 334 401
#     4  12  27  44  67  96 132 173 228 277 336 390
#     4  12  26  42  68  96 136 172 221 279 332 391
#     4  11  23  43  69  99 132 174 220 271 331 394
#     4  11  24  41  71 102 139 175 220 271 331 398
#
# _framework density 23.346005999999999
#
# number of rings (size 3 to 8) (size 9 to 14) (size 15 to 20)
#    0.000    0.750    1.250    7.125    5.250    6.000 
#    0.000    2.500    0.000    0.000    0.000    0.000 
#    0.000    0.000    0.000    0.000    0.000    0.000 
#
# Total GULP energy -89627.835133 kJ/mol
# GULP energy per Si atom -5601.739696 kJ/mol
# Density = 2.329287 g / cm^3
# Si number density = 23.346006 Si / 1000 Ang^3
#
#
#
# Elastic Constant Matrix: (Units=GPa)
#
#
# Indices 1 2 3 4 5 6 
#
# 1 40.1837 16.8147 14.6961 3.2260 15.5677 12.4897
# 2 16.8147 62.4436 -2.2128 8.0891 -6.9259 18.0770
# 3 14.6961 -2.2128 90.1148 -9.8096 -0.8261 15.8063
# 4 3.2260 8.0891 -9.8096 28.2312 -3.3673 5.9770
# 5 15.5677 -6.9259 -0.8261 -3.3673 44.4226 -4.2227
# 6 12.4897 18.0770 15.8063 5.9770 -4.2227 40.1165
#
#
#
# Elastic Compliance Matrix: (Units=1/GPa)
#
#
# Indices 1 2 3 4 5 6 
#
# 1 0.040584 -0.010582 -0.006387 -0.004477 -0.016945 -0.006467
# 2 -0.010582 0.021933 0.003369 -0.001660 0.006400 -0.006995
# 3 -0.006387 0.003369 0.013900 0.006134 0.002954 -0.005610
# 4 -0.004477 -0.001660 0.006134 0.040248 0.003918 -0.005859
# 5 -0.016945 0.006400 0.002954 0.003918 0.030162 0.003819
# 6 -0.006467 -0.006995 -0.005610 -0.005859 0.003819 0.033578
#
#
# Mechanical properties :
#
#
# Convention : Reuss Voigt Hill
#
# Bulk Modulus (GPa) = 20.31761 27.92644 24.12203
# Shear Modulus (GPa) = 22.32035 33.45032 27.88534
#
# Velocity S-wave (km/s) = 3.09539 3.78935 3.45981
# Velocity P-wave (km/s) = 4.63648 5.57974 5.12984
#
# Compressibility (1/GPa) = 0.04921839
#
# Stress axis : x y z
#
# Youngs Moduli (GPa) = 24.64048 45.59254 71.94233
#
# Poissons Ratio (x) = 0.48246 0.45947
# Poissons Ratio (y) = 0.26075 -0.24239
# Poissons Ratio (z) = 0.15737 -0.15361
#
# Static dielectric constant tensor:
#      x y z
#    x 1.838750 -0.014190 0.023000 
#    y -0.014190 1.892660 -0.017930 
#    z 0.023000 -0.017930 1.828360 
# 
# From -- ./inp_files/189898.got.cif
#   From: 2010.05.17/outbox.cif.g08.bks.cpg/sg2_95_cif.got.tgz:189898.got - 2010.06.03 11:33:40.
