data_PCOD9060098
_publ_section_title
;
Structure prediction by ZEFSAII (Michael W. Deem and Ramdas Pophale) SiO2 
 PCOD9060098
Probable space group: P -1
;
_chemical_formula_sum "Si O2"
_cell_formula_units_Z 16
_cell_length_a 11.389399
_cell_length_b 8.946478
_cell_length_c 13.430724
_cell_angle_alpha 56.705387
_cell_angle_beta 58.090209
_cell_angle_gamma 37.895627
_cell_volume 690.372476
_symmetry_space_group_name_H-M "P -1"
_symmetry_group_IT_number 2
_symmetry_cell_setting 'triclinic'
loop_
_space_group_symop_operation_xyz
x,y,z
-x,-y,-z
loop_
_atom_site_type_symbol
_atom_site_label
_atom_site_fract_x
_atom_site_fract_y
_atom_site_fract_z
Si Si1 0.228096 0.394710 0.789489
Si Si2 0.721531 0.341737 0.490367
Si Si3 0.562505 0.004225 0.317982
Si Si4 0.775844 0.901674 0.627963
Si Si5 0.517045 0.737066 0.086358
Si Si6 0.780654 0.752912 0.885569
Si Si7 0.027977 0.364208 0.636901
Si Si8 0.299440 0.576076 0.291558
O O1 0.211878 0.560124 0.648416
O O2 0.336782 0.128240 0.785598
O O3 0.349840 0.369793 0.834209
O O4 0.011108 0.542968 0.867716
O O5 0.500000 0.500000 0.500000
O O6 0.720250 0.391684 0.590647
O O7 0.833389 0.051550 0.525751
O O8 0.746918 0.847560 0.363505
O O9 0.408040 0.982296 0.400407
O O10 0.431936 0.291802 0.298058
O O11 0.721924 0.939045 0.753962
O O12 0.919388 0.600988 0.671661
O O13 0.406760 0.650147 0.171569
O O14 0.338481 0.041309 0.048422
O O15 0.674266 0.657226 0.961671
O O16 0.914571 0.281099 0.706970
O O17 0.000000 0.500000 0.500000
#
# Coordination Sequence:
#
# PCOD9060098 Si02
#       8
#     2   2   2   2   2   2   2   2
#     4  12  23  41  70  99 129 170 220 264 329 388
#     4  12  22  40  68  99 136 166 212 272 325 387
#     4  11  23  43  63  89 138 171 209 262 317 397
#     4  11  23  43  67  95 129 175 214 261 330 381
#     4  11  24  46  68  96 129 169 220 281 319 375
#     4  11  23  43  72  94 128 169 224 271 324 379
#     4  11  26  39  63  95 133 176 212 258 324 397
#     4  11  25  42  63  98 131 173 214 258 336 380
#
# _framework density 23.175896000000002
#
# number of rings (size 3 to 8) (size 9 to 14) (size 15 to 20)
#    0.000    0.750    6.250    1.125    1.750    4.000 
#    0.000    3.125    0.000    0.000    0.000    0.000 
#    0.000    0.000    0.000    0.000    0.000    0.000 
#
# Total GULP energy -89306.234861 kJ/mol
# GULP energy per Si atom -5581.639679 kJ/mol
# Density = 2.312315 g / cm^3
# Si number density = 23.175896 Si / 1000 Ang^3
#
#
#
# Elastic Constant Matrix: (Units=GPa)
#
#
# Indices 1 2 3 4 5 6 
#
# 1 178.3860 43.0508 38.7863 -4.5601 -33.7641 -17.3132
# 2 43.0508 86.1470 14.3451 9.2528 -14.9300 -0.5819
# 3 38.7863 14.3451 94.7693 0.2935 -29.4547 4.2924
# 4 -4.5601 9.2528 0.2935 29.5240 -3.5522 -9.3687
# 5 -33.7641 -14.9300 -29.4547 -3.5522 44.2653 -0.8861
# 6 -17.3132 -0.5819 4.2924 -9.3687 -0.8861 42.8600
#
#
#
# Elastic Compliance Matrix: (Units=1/GPa)
#
#
# Indices 1 2 3 4 5 6 
#
# 1 0.008185 -0.003484 -0.001673 0.004316 0.004390 0.004461
# 2 -0.003484 0.014221 -0.000114 -0.005562 0.001569 -0.002386
# 3 -0.001673 -0.000114 0.013766 -0.000023 0.007806 -0.001900
# 4 0.004316 -0.005562 -0.000023 0.040214 0.004839 0.010561
# 5 0.004390 0.001569 0.007806 0.004839 0.032106 0.002734
# 6 0.004461 -0.002386 -0.001900 0.010561 0.002734 0.027657
#
#
# Mechanical properties :
#
#
# Convention : Reuss Voigt Hill
#
# Bulk Modulus (GPa) = 39.01689 61.29631 50.15660
# Shear Modulus (GPa) = 32.20924 40.87120 36.54022
#
# Velocity S-wave (km/s) = 3.73201 4.20399 3.97501
# Velocity P-wave (km/s) = 5.95334 7.07604 6.53883
#
# Compressibility (1/GPa) = 0.02562993
#
# Stress axis : x y z
#
# Youngs Moduli (GPa) = 122.17872 70.31622 72.64217
#
# Poissons Ratio (x) = 0.24500 0.12155
# Poissons Ratio (y) = 0.42570 0.00826
# Poissons Ratio (z) = 0.20444 0.00799
#
# Static dielectric constant tensor:
#      x y z
#    x 1.831120 -0.158870 -0.124540 
#    y -0.158870 1.691740 -0.178030 
#    z -0.124540 -0.178030 1.795090 
# 
# From -- ./inp_files/515184.got.cif
#   From: 2010.05.17/outbox.cif.g08.bks.cpg/sg2_258_cif.got.tgz:515184.got - 2010.06.03 11:33:40.
