data_PCOD9060866
_publ_section_title
;
Structure prediction by ZEFSAII (Michael W. Deem and Ramdas Pophale) SiO2 
 PCOD9060866
Probable space group: P -1
;
_chemical_formula_sum "Si O2"
_cell_formula_units_Z 16
_cell_length_a 9.761101
_cell_length_b 14.109583
_cell_length_c 14.002012
_cell_angle_alpha 117.001638
_cell_angle_beta 152.585902
_cell_angle_gamma 73.656777
_cell_volume 755.520655
_symmetry_space_group_name_H-M "P -1"
_symmetry_group_IT_number 2
_symmetry_cell_setting 'triclinic'
loop_
_space_group_symop_operation_xyz
x,y,z
-x,-y,-z
loop_
_atom_site_type_symbol
_atom_site_label
_atom_site_fract_x
_atom_site_fract_y
_atom_site_fract_z
Si Si1 0.264361 0.239675 0.468643
Si Si2 0.094096 0.622661 0.164544
Si Si3 0.671099 0.833129 0.310748
Si Si4 0.387452 0.899006 0.809274
Si Si5 0.191341 0.965895 0.019778
Si Si6 0.790197 0.468737 0.613483
Si Si7 0.762874 0.361137 0.163002
Si Si8 0.529646 0.334070 0.201436
O O1 0.577519 0.301268 0.634788
O O2 0.351757 0.217186 0.619840
O O3 0.044201 0.318511 0.357159
O O4 0.055336 0.125068 0.239334
O O5 0.108033 0.602291 0.275958
O O6 0.000000 0.500000 0.000000
O O7 0.832088 0.682218 0.013089
O O8 0.453049 0.913055 0.198711
O O9 0.040307 0.889222 0.553787
O O10 0.529109 0.736490 0.102004
O O11 0.396461 0.783459 0.809036
O O12 0.627346 0.930053 0.884894
O O13 0.500000 0.000000 0.000000
O O14 0.000000 0.000000 0.000000
O O15 0.500000 0.500000 0.500000
O O16 0.687225 0.401278 0.422033
O O17 0.083731 0.567582 0.802201
O O18 0.640310 0.402972 0.203349
#
# Coordination Sequence:
#
# PCOD9060866 Si02
#       8
#     2   2   2   2   2   2   2   2
#     4  11  23  44  69 102 140 182 236 289 353 416
#     4  12  26  44  71 106 144 188 230 286 358 419
#     4  11  24  45  75  95 139 194 227 292 362 413
#     4  12  25  51  70 100 145 186 238 293 353 410
#     4  11  27  42  69 105 136 180 238 299 349 416
#     4  12  25  46  72 102 148 188 227 295 355 421
#     4  11  24  46  71 104 139 179 241 286 348 426
#     4  12  28  44  73 108 139 189 240 291 346 428
#
# _framework density 21.177448999999999
#
# number of rings (size 3 to 8) (size 9 to 14) (size 15 to 20)
#    0.000    0.500    5.000    2.250    5.250    2.000 
#    0.000    0.000    0.000    0.000    0.000    0.000 
#    0.000    0.000    0.000    0.000    0.000    0.000 
#
# Total GULP energy -89441.646993 kJ/mol
# GULP energy per Si atom -5590.102937 kJ/mol
# Density = 2.112925 g / cm^3
# Si number density = 21.177449 Si / 1000 Ang^3
#
#
#
# Elastic Constant Matrix: (Units=GPa)
#
#
# Indices 1 2 3 4 5 6 
#
# 1 138.6105 8.9312 37.9324 12.2644 11.7485 18.7461
# 2 8.9312 28.7177 14.0447 1.5487 8.6249 3.8671
# 3 37.9324 14.0447 126.2108 -2.7400 17.2969 -6.1541
# 4 12.2644 1.5487 -2.7400 26.0711 9.7310 0.2018
# 5 11.7485 8.6249 17.2969 9.7310 43.3526 2.5955
# 6 18.7461 3.8671 -6.1541 0.2018 2.5955 42.8162
#
#
#
# Elastic Compliance Matrix: (Units=1/GPa)
#
#
# Indices 1 2 3 4 5 6 
#
# 1 0.009043 -0.000566 -0.002983 -0.004550 0.000132 -0.004324
# 2 -0.000566 0.038977 -0.003522 -0.000171 -0.005953 -0.003417
# 3 -0.002983 -0.003522 0.009941 0.003953 -0.003539 0.003249
# 4 -0.004550 -0.000171 0.003953 0.044839 -0.010555 0.003004
# 5 0.000132 -0.005953 -0.003539 -0.010555 0.028097 -0.001682
# 6 -0.004324 -0.003417 0.003249 0.003004 -0.001682 0.026112
#
#
# Mechanical properties :
#
#
# Convention : Reuss Voigt Hill
#
# Bulk Modulus (GPa) = 22.82020 46.15064 34.48542
# Shear Modulus (GPa) = 26.91693 37.95671 32.43682
#
# Velocity S-wave (km/s) = 3.56900 4.23817 3.91790
# Velocity P-wave (km/s) = 5.27094 6.76676 6.06514
#
# Compressibility (1/GPa) = 0.04382082
#
# Stress axis : x y z
#
# Youngs Moduli (GPa) = 110.57944 25.65595 100.59525
#
# Poissons Ratio (x) = 0.01452 0.30004
# Poissons Ratio (y) = 0.06257 0.35428
# Poissons Ratio (z) = 0.32982 0.09035
#
# Static dielectric constant tensor:
#      x y z
#    x 1.777050 0.000870 -0.003340 
#    y 0.000870 1.773500 -0.012410 
#    z -0.003340 -0.012410 1.698670 
# 
# From -- ./inp_files/399367.got.cif
#   From: 2010.05.17/outbox.cif.g08.bks.cpg/sg2_200_cif.got.tgz:399367.got - 2010.06.03 11:33:40.
