data_PCOD9060845
_publ_section_title
;
Structure prediction by ZEFSAII (Michael W. Deem and Ramdas Pophale) SiO2 
 PCOD9060845
Probable space group: P -1
;
_chemical_formula_sum "Si O2"
_cell_formula_units_Z 14
_cell_length_a 7.133497
_cell_length_b 10.325510
_cell_length_c 14.401366
_cell_angle_alpha 114.603848
_cell_angle_beta 37.641169
_cell_angle_gamma 114.793955
_cell_volume 581.273094
_symmetry_space_group_name_H-M "P -1"
_symmetry_group_IT_number 2
_symmetry_cell_setting 'triclinic'
loop_
_space_group_symop_operation_xyz
x,y,z
-x,-y,-z
loop_
_atom_site_type_symbol
_atom_site_label
_atom_site_fract_x
_atom_site_fract_y
_atom_site_fract_z
Si Si1 0.900633 0.578979 0.913158
Si Si2 0.467007 0.610082 0.855315
Si Si3 0.312498 0.114693 0.892998
Si Si4 0.138121 0.648863 0.643872
Si Si5 0.317551 0.975773 0.662269
Si Si6 0.614264 0.592498 0.298453
Si Si7 0.820570 0.154242 0.865577
O O1 0.027714 0.566397 0.756802
O O2 0.220962 0.553770 0.838074
O O3 0.658110 0.448287 0.008780
O O4 0.802015 0.730994 0.011381
O O5 0.540425 0.431724 0.746371
O O6 0.830575 0.672801 0.717257
O O7 0.323003 0.764117 0.970258
O O8 0.442334 0.077252 0.730279
O O9 0.572631 0.116354 0.870258
O O10 0.000000 0.000000 0.000000
O O11 0.371666 0.573608 0.469066
O O12 0.306802 0.810812 0.647860
O O13 0.975679 0.017880 0.793925
O O14 0.500000 0.000000 0.500000
O O15 0.874630 0.728552 0.249507
#
# Coordination Sequence:
#
# PCOD9060845 Si02
#       7
#     2   2   2   2   2   2   2
#     4  11  23  44  68  98 142 174 234 292 341 418
#     4  11  23  44  72 102 138 185 238 289 354 415
#     4  12  25  46  75 105 137 186 243 289 351 425
#     4  12  24  44  66 107 141 183 235 289 354 416
#     4  12  26  48  70 102 150 183 237 298 350 421
#     4  11  24  43  70 104 141 185 230 290 361 415
#     4  11  24  46  75 103 139 190 237 289 357 418
#
# _framework density 24.085063999999999
#
# number of rings (size 3 to 8) (size 9 to 14) (size 15 to 20)
#    0.000    0.571    4.286    4.714    2.000    4.000 
#    0.000    0.000    0.000    0.000    0.000    0.000 
#    0.000    0.000    0.000    0.000    0.000    0.000 
#
# Total GULP energy -78040.210751 kJ/mol
# GULP energy per Si atom -5574.300768 kJ/mol
# Density = 2.403024 g / cm^3
# Si number density = 24.085064 Si / 1000 Ang^3
#
#
#
# Elastic Constant Matrix: (Units=GPa)
#
#
# Indices 1 2 3 4 5 6 
#
# 1 101.6428 15.8090 36.6580 14.5357 14.5333 23.3135
# 2 15.8090 80.5081 31.4653 13.6612 8.0138 9.1353
# 3 36.6580 31.4653 147.7936 13.6872 22.7282 12.0442
# 4 14.5357 13.6612 13.6872 38.3473 -5.7529 -4.6607
# 5 14.5333 8.0138 22.7282 -5.7529 40.9339 3.1455
# 6 23.3135 9.1353 12.0442 -4.6607 3.1455 38.3356
#
#
#
# Elastic Compliance Matrix: (Units=1/GPa)
#
#
# Indices 1 2 3 4 5 6 
#
# 1 0.013835 0.000390 -0.001546 -0.006518 -0.004397 -0.008453
# 2 0.000390 0.014716 -0.002073 -0.005437 -0.002359 -0.003560
# 3 -0.001546 -0.002073 0.008542 -0.002479 -0.004043 -0.001219
# 4 -0.006518 -0.005437 -0.002479 0.033834 0.008785 0.009431
# 5 -0.004397 -0.002359 -0.004043 0.008785 0.029691 0.003138
# 6 -0.008453 -0.003560 -0.001219 0.009431 0.003138 0.033346
#
#
# Mechanical properties :
#
#
# Convention : Reuss Voigt Hill
#
# Bulk Modulus (GPa) = 32.64301 55.31213 43.97757
# Shear Modulus (GPa) = 33.19319 39.92418 36.55869
#
# Velocity S-wave (km/s) = 3.71639 4.07582 3.90025
# Velocity P-wave (km/s) = 5.65668 6.72049 6.21140
#
# Compressibility (1/GPa) = 0.03063443
#
# Stress axis : x y z
#
# Youngs Moduli (GPa) = 72.28171 67.95206 117.07322
#
# Poissons Ratio (x) = -0.02653 0.18100
# Poissons Ratio (y) = -0.02822 0.24275
# Poissons Ratio (z) = 0.11175 0.14090
#
# Static dielectric constant tensor:
#      x y z
#    x 2.082760 -0.054040 -0.065880 
#    y -0.054040 2.034140 0.020590 
#    z -0.065880 0.020590 1.974800 
# 
# From -- ./inp_files/559893.got.cif
#   From: 2010.05.17/outbox.cif.g08.bks.cpg/sg2_280_cif.got.tgz:559893.got - 2010.06.03 11:33:40.
