data_PCOD9060225
_publ_section_title
;
Structure prediction by ZEFSAII (Michael W. Deem and Ramdas Pophale) SiO2 
 PCOD9060225
Probable space group: P -1
;
_chemical_formula_sum "Si O2"
_cell_formula_units_Z 16
_cell_length_a 18.294137
_cell_length_b 9.647940
_cell_length_c 11.257944
_cell_angle_alpha 106.648941
_cell_angle_beta 48.518508
_cell_angle_gamma 142.995064
_cell_volume 755.431646
_symmetry_space_group_name_H-M "P -1"
_symmetry_group_IT_number 2
_symmetry_cell_setting 'triclinic'
loop_
_space_group_symop_operation_xyz
x,y,z
-x,-y,-z
loop_
_atom_site_type_symbol
_atom_site_label
_atom_site_fract_x
_atom_site_fract_y
_atom_site_fract_z
Si Si1 0.510983 0.205578 0.313648
Si Si2 0.909457 0.991133 0.188549
Si Si3 0.325097 0.489352 0.537780
Si Si4 0.335747 0.197634 0.049044
Si Si5 0.003153 0.701468 0.443251
Si Si6 0.412159 0.757341 0.271586
Si Si7 0.083551 0.723823 0.630831
Si Si8 0.632108 0.646632 0.199311
O O1 0.608624 0.355301 0.371971
O O2 0.598071 0.432105 0.185356
O O3 0.505179 0.032302 0.237441
O O4 0.296738 0.978360 0.498787
O O5 0.002478 0.256674 0.192831
O O6 0.865501 0.831242 0.307203
O O7 0.730950 0.807887 0.256837
O O8 0.000000 0.000000 0.000000
O O9 0.353131 0.638605 0.440097
O O10 0.446080 0.503696 0.372977
O O11 0.437874 0.169854 0.918169
O O12 0.279660 0.185393 0.975788
O O13 0.500000 0.500000 0.000000
O O14 0.158219 0.981751 0.272297
O O15 0.072565 0.759680 0.515320
O O16 0.792090 0.492982 0.629393
O O17 0.995802 0.536680 0.343421
#
# Coordination Sequence:
#
# PCOD9060225 Si02
#       8
#     2   2   2   2   2   2   2   2
#     4  10  17  38  66  87 123 168 209 252 316 375
#     4  11  22  34  61  94 125 163 210 256 314 372
#     4  10  19  37  61  90 125 164 204 253 316 374
#     4  11  25  43  64  93 128 167 213 260 320 378
#     4  10  24  42  67  91 129 169 213 260 321 375
#     4  10  24  39  63  97 125 166 208 263 316 373
#     4  10  20  42  63  91 128 171 205 265 317 372
#     4  10  20  38  62  90 120 167 206 254 311 376
#
# _framework density 21.179943999999999
#
# number of rings (size 3 to 8) (size 9 to 14) (size 15 to 20)
#    0.000    1.750    2.500    1.875    3.500    3.500 
#    0.000    9.375    0.000    0.000    0.000    0.000 
#    0.000    0.000    0.000    0.000    0.000    0.000 
#
# Total GULP energy -89210.796441 kJ/mol
# GULP energy per Si atom -5575.674778 kJ/mol
# Density = 2.113174 g / cm^3
# Si number density = 21.179944 Si / 1000 Ang^3
#
#
#
# Elastic Constant Matrix: (Units=GPa)
#
#
# Indices 1 2 3 4 5 6 
#
# 1 23.5124 38.4732 10.0148 6.0300 4.1583 -33.1005
# 2 38.4732 75.6077 -20.9465 -1.6628 -16.2834 -6.5740
# 3 10.0148 -20.9465 19.4986 -3.5424 -8.4031 -3.7064
# 4 6.0300 -1.6628 -3.5424 21.9504 -10.9768 0.4733
# 5 4.1583 -16.2834 -8.4031 -10.9768 20.4263 4.0667
# 6 -33.1005 -6.5740 -3.7064 0.4733 4.0667 19.4137
#
#
#
# Elastic Compliance Matrix: (Units=1/GPa)
#
#
# Indices 1 2 3 4 5 6 
#
# 1 0.007447 0.017921 0.040278 0.025096 0.039321 0.017606
# 2 0.017921 0.014467 0.018073 0.003136 0.009678 0.036800
# 3 0.040278 0.018073 0.084424 0.019601 0.034924 0.083119
# 4 0.025096 0.003136 0.019601 0.054514 0.026650 0.040681
# 5 0.039321 0.009678 0.034924 0.026650 0.064863 0.062750
# 6 0.017606 0.036800 0.083119 0.040681 0.062750 0.095722
#
#
# Mechanical properties :
#
#
# Convention : Reuss Voigt Hill
#
# Bulk Modulus (GPa) = 3.86278 19.30021 11.58150
# Shear Modulus (GPa) = 19.59348 18.42989 19.01169
#
# Velocity S-wave (km/s) = 3.04484 2.95304 2.99929
# Velocity P-wave (km/s) = 3.76685 4.55627 4.18023
#
# Compressibility (1/GPa) = 0.25888075
#
# Stress axis : x y z
#
# Youngs Moduli (GPa) = 134.29105 69.12180 11.84496
#
# Poissons Ratio (x) = -1.23870 -0.47709
# Poissons Ratio (y) = -2.40658 -0.21407
# Poissons Ratio (z) = -5.40897 -1.24923
#
# Static dielectric constant tensor:
#      x y z
#    x 1.936810 -0.008070 -0.063730 
#    y -0.008070 1.778210 -0.015560 
#    z -0.063730 -0.015560 1.808940 
# 
# From -- ./inp_files/279288.got.cif
#   From: 2010.05.17/outbox.cif.g08.bks.cpg/sg2_140_cif.got.tgz:279288.got - 2010.06.03 11:33:40.
