data_PCOD9060919
_publ_section_title
;
Structure prediction by ZEFSAII (Michael W. Deem and Ramdas Pophale) SiO2 
 PCOD9060919
Probable space group: P -1
;
_chemical_formula_sum "Si O2"
_cell_formula_units_Z 16
_cell_length_a 7.247583
_cell_length_b 18.558436
_cell_length_c 9.559466
_cell_angle_alpha 144.707873
_cell_angle_beta 79.073188
_cell_angle_gamma 113.361071
_cell_volume 659.804359
_symmetry_space_group_name_H-M "P -1"
_symmetry_group_IT_number 2
_symmetry_cell_setting 'triclinic'
loop_
_space_group_symop_operation_xyz
x,y,z
-x,-y,-z
loop_
_atom_site_type_symbol
_atom_site_label
_atom_site_fract_x
_atom_site_fract_y
_atom_site_fract_z
Si Si1 0.801068 0.876114 0.764535
Si Si2 0.598882 0.575846 0.828647
Si Si3 0.635664 0.186788 0.386862
Si Si4 0.805551 0.378770 0.417495
Si Si5 0.315409 0.539564 0.029231
Si Si6 0.606114 0.753164 0.870954
Si Si7 0.322070 0.965376 0.584932
Si Si8 0.908527 0.734737 0.262106
O O1 0.594378 0.893681 0.775299
O O2 0.714360 0.768241 0.731086
O O3 0.858792 0.811675 0.519795
O O4 0.000000 0.000000 0.000000
O O5 0.686561 0.461281 0.640390
O O6 0.367268 0.540082 0.859448
O O7 0.627405 0.633837 0.762958
O O8 0.747167 0.699053 0.103257
O O9 0.799049 0.268180 0.365271
O O10 0.659393 0.086036 0.340869
O O11 0.647753 0.314740 0.684148
O O12 0.636396 0.284544 0.179348
O O13 0.000000 0.500000 0.500000
O O14 0.109717 0.410714 0.904758
O O15 0.500000 0.500000 0.000000
O O16 0.708349 0.896753 0.165559
O O17 0.131528 0.837316 0.343194
O O18 0.500000 0.000000 0.500000
#
# Coordination Sequence:
#
# PCOD9060919 Si02
#       8
#     2   2   2   2   2   2   2   2
#     4  11  22  44  68  99 128 179 236 274 331 411
#     4  11  22  44  75 100 132 176 229 300 328 399
#     4  11  23  45  71  96 142 178 221 290 343 394
#     4  11  25  44  70 107 138 176 225 284 355 406
#     4  10  17  39  74  97 120 168 235 282 325 386
#     4  11  26  45  67 100 143 177 231 280 342 403
#     4  12  29  44  63 103 146 185 222 276 345 421
#     4  11  23  43  72  99 127 176 240 271 340 408
#
# _framework density 24.249611999999999
#
# number of rings (size 3 to 8) (size 9 to 14) (size 15 to 20)
#    0.000    1.000    6.250    1.875    1.750    6.000 
#    0.000    0.000    0.000    0.000    0.000    0.000 
#    0.000    0.000    0.000    0.000    0.000    0.000 
#
# Total GULP energy -89332.841081 kJ/mol
# GULP energy per Si atom -5583.302568 kJ/mol
# Density = 2.419442 g / cm^3
# Si number density = 24.249612 Si / 1000 Ang^3
#
#
#
# Elastic Constant Matrix: (Units=GPa)
#
#
# Indices 1 2 3 4 5 6 
#
# 1 34.8503 35.3001 20.8861 11.8485 10.0576 14.0921
# 2 35.3001 150.8312 11.0594 9.2301 10.8741 14.2694
# 3 20.8861 11.0594 111.9451 14.5282 11.7287 10.8743
# 4 11.8485 9.2301 14.5282 37.4371 11.9998 5.3820
# 5 10.0576 10.8741 11.7287 11.9998 33.3718 10.1451
# 6 14.0921 14.2694 10.8743 5.3820 10.1451 53.6088
#
#
#
# Elastic Compliance Matrix: (Units=1/GPa)
#
#
# Indices 1 2 3 4 5 6 
#
# 1 0.049000 -0.009500 -0.005935 -0.008412 -0.004283 -0.007493
# 2 -0.009500 0.008786 0.000873 0.000677 -0.000556 0.000019
# 3 -0.005935 0.000873 0.010373 -0.001877 -0.001366 -0.000329
# 4 -0.008412 0.000677 -0.001877 0.032714 -0.009044 0.000839
# 5 -0.004283 -0.000556 -0.001366 -0.009044 0.036523 -0.004453
# 6 -0.007493 0.000019 -0.000329 0.000839 -0.004453 0.021444
#
#
# Mechanical properties :
#
#
# Convention : Reuss Voigt Hill
#
# Bulk Modulus (GPa) = 25.61863 48.01308 36.81585
# Shear Modulus (GPa) = 24.87871 40.24228 32.56050
#
# Velocity S-wave (km/s) = 3.20651 4.07812 3.66829
# Velocity P-wave (km/s) = 4.92914 6.48207 5.75820
#
# Compressibility (1/GPa) = 0.03903410
#
# Stress axis : x y z
#
# Youngs Moduli (GPa) = 20.40826 113.81546 96.40620
#
# Poissons Ratio (x) = 1.08126 0.57219
# Poissons Ratio (y) = 0.19388 -0.08416
# Poissons Ratio (z) = 0.12113 -0.09936
#
# Static dielectric constant tensor:
#      x y z
#    x 2.017780 0.014380 0.030560 
#    y 0.014380 2.052540 0.012310 
#    z 0.030560 0.012310 1.966770 
# 
# From -- ./inp_files/218863.got.cif
#   From: 2010.05.17/outbox.cif.g08.bks.cpg/sg2_110_cif.got.tgz:218863.got - 2010.06.03 11:33:40.
