data_PCOD9060583
_publ_section_title
;
Structure prediction by ZEFSAII (Michael W. Deem and Ramdas Pophale) SiO2 
 PCOD9060583
Probable space group: P -1
;
_chemical_formula_sum "Si O2"
_cell_formula_units_Z 16
_cell_length_a 11.668017
_cell_length_b 11.260916
_cell_length_c 14.060606
_cell_angle_alpha 130.252609
_cell_angle_beta 149.194673
_cell_angle_gamma 60.035549
_cell_volume 714.760981
_symmetry_space_group_name_H-M "P -1"
_symmetry_group_IT_number 2
_symmetry_cell_setting 'triclinic'
loop_
_space_group_symop_operation_xyz
x,y,z
-x,-y,-z
loop_
_atom_site_type_symbol
_atom_site_label
_atom_site_fract_x
_atom_site_fract_y
_atom_site_fract_z
Si Si1 0.841905 0.635636 0.475515
Si Si2 0.951926 0.306795 0.147557
Si Si3 0.847602 0.107754 0.269668
Si Si4 0.445713 0.834766 0.096434
Si Si5 0.692852 0.645828 0.742712
Si Si6 0.627466 0.552107 0.001642
Si Si7 0.695749 0.153871 0.401887
Si Si8 0.111254 0.259266 0.876867
O O1 0.582504 0.568917 0.246082
O O2 0.000000 0.500000 0.500000
O O3 0.893958 0.687179 0.646729
O O4 0.927349 0.778330 0.540536
O O5 0.118023 0.302747 0.175462
O O6 0.739263 0.174156 0.955127
O O7 0.835709 0.465188 0.136032
O O8 0.774572 0.150241 0.346306
O O9 0.868095 0.923863 0.186221
O O10 0.677819 0.143838 0.082366
O O11 0.648397 0.976551 0.315541
O O12 0.531951 0.666506 0.067659
O O13 0.500000 0.500000 0.500000
O O14 0.539823 0.780880 0.724767
O O15 0.835865 0.638293 0.937669
O O16 0.706205 0.667465 0.030923
O O17 0.874370 0.255377 0.650701
#
# Coordination Sequence:
#
# PCOD9060583 Si02
#       8
#     2   2   2   2   2   2   2   2
#     4  11  25  41  72 106 142 181 232 295 361 413
#     4  11  27  44  67 104 142 189 233 288 352 424
#     4  11  23  46  72 111 142 178 241 298 360 416
#     4  11  23  43  73 106 140 184 234 297 360 412
#     4  12  28  49  71  98 147 194 239 288 351 431
#     4  12  24  42  73 104 146 177 235 296 355 406
#     4  12  26  45  75 105 144 187 238 298 355 418
#     4  12  27  44  76 108 138 189 242 292 356 424
#
# _framework density 22.385104999999999
#
# number of rings (size 3 to 8) (size 9 to 14) (size 15 to 20)
#    0.000    0.500    5.000    3.375    5.250    3.500 
#    0.000    0.625    0.000    0.000    0.000    0.000 
#    0.000    0.000    0.000    0.000    0.000    0.000 
#
# Total GULP energy -89503.400786 kJ/mol
# GULP energy per Si atom -5593.962549 kJ/mol
# Density = 2.233416 g / cm^3
# Si number density = 22.385105 Si / 1000 Ang^3
#
#
#
# Elastic Constant Matrix: (Units=GPa)
#
#
# Indices 1 2 3 4 5 6 
#
# 1 110.4870 6.1003 57.5322 1.1021 19.4388 5.7338
# 2 6.1003 90.7601 24.4757 -2.1593 12.6324 14.7166
# 3 57.5322 24.4757 147.3149 4.8075 12.9606 11.5068
# 4 1.1021 -2.1593 4.8075 35.8624 8.0050 7.0967
# 5 19.4388 12.6324 12.9606 8.0050 35.5679 7.4636
# 6 5.7338 14.7166 11.5068 7.0967 7.4636 29.3955
#
#
#
# Elastic Compliance Matrix: (Units=1/GPa)
#
#
# Indices 1 2 3 4 5 6 
#
# 1 0.012393 0.001290 -0.004576 0.001662 -0.005901 -0.000175
# 2 0.001290 0.013029 -0.001962 0.003053 -0.004109 -0.005701
# 3 -0.004576 -0.001962 0.009013 -0.000984 0.000456 -0.001532
# 4 0.001662 0.003053 -0.000984 0.031164 -0.007142 -0.007178
# 5 -0.005901 -0.004109 0.000456 -0.007142 0.035114 -0.004162
# 6 -0.000175 -0.005701 -0.001532 -0.007178 -0.004162 0.040296
#
#
# Mechanical properties :
#
#
# Convention : Reuss Voigt Hill
#
# Bulk Modulus (GPa) = 41.76932 58.30870 50.03901
# Shear Modulus (GPa) = 31.35133 37.52875 34.44004
#
# Velocity S-wave (km/s) = 3.74644 4.09896 3.92666
# Velocity P-wave (km/s) = 6.11673 6.96466 6.55442
#
# Compressibility (1/GPa) = 0.02394102
#
# Stress axis : x y z
#
# Youngs Moduli (GPa) = 80.69063 76.75093 110.95465
#
# Poissons Ratio (x) = -0.09903 0.50770
# Poissons Ratio (y) = -0.10411 0.21764
# Poissons Ratio (z) = 0.36922 0.15055
#
# Static dielectric constant tensor:
#      x y z
#    x 1.819630 0.020000 -0.009600 
#    y 0.020000 1.858320 -0.001600 
#    z -0.009600 -0.001600 1.864910 
# 
# From -- ./inp_files/519178.got.cif
#   From: 2010.05.17/outbox.cif.g08.bks.cpg/sg2_260_cif.got.tgz:519178.got - 2010.06.03 11:33:40.
