data_PCOD9060361
_publ_section_title
;
Structure prediction by ZEFSAII (Michael W. Deem and Ramdas Pophale) SiO2 
 PCOD9060361
Probable space group: P -1
;
_chemical_formula_sum "Si O2"
_cell_formula_units_Z 16
_cell_length_a 23.213366
_cell_length_b 9.601811
_cell_length_c 9.557011
_cell_angle_alpha 150.102451
_cell_angle_beta 133.785107
_cell_angle_gamma 48.845646
_cell_volume 756.444034
_symmetry_space_group_name_H-M "P -1"
_symmetry_group_IT_number 2
_symmetry_cell_setting 'triclinic'
loop_
_space_group_symop_operation_xyz
x,y,z
-x,-y,-z
loop_
_atom_site_type_symbol
_atom_site_label
_atom_site_fract_x
_atom_site_fract_y
_atom_site_fract_z
Si Si1 0.665800 0.505550 0.324538
Si Si2 0.568672 0.011284 0.742066
Si Si3 0.967549 0.306750 0.158410
Si Si4 0.971508 0.226517 0.772402
Si Si5 0.353530 0.346708 0.897881
Si Si6 0.779668 0.535663 0.984619
Si Si7 0.785870 0.150428 0.415050
Si Si8 0.536537 0.247749 0.446337
O O1 0.645037 0.786179 0.626701
O O2 0.673635 0.615934 0.276637
O O3 0.740878 0.293565 0.328483
O O4 0.592906 0.321179 0.059107
O O5 0.534017 0.890547 0.718550
O O6 0.500000 0.000000 0.500000
O O7 0.870799 0.409028 0.075552
O O8 0.000000 0.500000 0.500000
O O9 0.998141 0.260413 0.008706
O O10 0.000000 0.000000 0.000000
O O11 0.877372 0.205351 0.609937
O O12 0.000000 0.000000 0.500000
O O13 0.000000 0.500000 0.000000
O O14 0.279728 0.410175 0.936611
O O15 0.402525 0.034259 0.743470
O O16 0.411980 0.582169 0.216897
O O17 0.783170 0.823155 0.154497
O O18 0.748365 0.317795 0.635502
O O19 0.500000 0.500000 0.500000
#
# Coordination Sequence:
#
# PCOD9060361 Si02
#       8
#     2   2   2   2   2   2   2   2
#     4  12  25  42  69  96 128 177 222 277 342 405
#     4  12  23  44  66  91 132 171 222 283 340 390
#     4  11  23  43  70 101 135 182 227 273 345 413
#     4  11  23  43  70 101 138 175 225 286 335 408
#     4  12  25  45  64  98 132 171 224 283 332 404
#     4  11  25  45  67  96 140 175 218 282 336 408
#     4  11  25  45  67  99 134 178 222 270 349 409
#     4  12  27  42  65  96 129 172 229 277 339 400
#
# _framework density 21.151598
#
# number of rings (size 3 to 8) (size 9 to 14) (size 15 to 20)
#    0.000    0.500    2.500    6.750    5.250    2.000 
#    0.000    0.000    0.000    0.000    0.000    0.000 
#    0.000    0.000    0.000    0.000    0.000    0.000 
#
# Total GULP energy -89298.170848 kJ/mol
# GULP energy per Si atom -5581.135678 kJ/mol
# Density = 2.110346 g / cm^3
# Si number density = 21.151598 Si / 1000 Ang^3
#
#
#
# Elastic Constant Matrix: (Units=GPa)
#
#
# Indices 1 2 3 4 5 6 
#
# 1 118.4341 51.2538 24.0772 5.6652 -29.3628 27.8558
# 2 51.2538 124.8275 33.8324 12.3314 -16.0613 17.4088
# 3 24.0772 33.8324 124.1785 16.6191 -17.7829 1.4178
# 4 5.6652 12.3314 16.6191 43.6868 0.7740 -1.4098
# 5 -29.3628 -16.0613 -17.7829 0.7740 36.4970 5.1082
# 6 27.8558 17.4088 1.4178 -1.4098 5.1082 29.5405
#
#
#
# Elastic Compliance Matrix: (Units=1/GPa)
#
#
# Indices 1 2 3 4 5 6 
#
# 1 0.017877 -0.002513 0.000038 -0.002494 0.015901 -0.018247
# 2 -0.002513 0.010655 -0.001713 -0.002215 0.002490 -0.004363
# 3 0.000038 -0.001713 0.009526 -0.003227 0.004033 -0.000335
# 4 -0.002494 -0.002215 -0.003227 0.025367 -0.005938 0.006049
# 5 0.015901 0.002490 0.004033 -0.005938 0.046885 -0.025047
# 6 -0.018247 -0.004363 -0.000335 0.006049 -0.025047 0.058265
#
#
# Mechanical properties :
#
#
# Convention : Reuss Voigt Hill
#
# Bulk Modulus (GPa) = 33.69187 65.08520 49.38854
# Shear Modulus (GPa) = 26.76018 39.16330 32.96174
#
# Velocity S-wave (km/s) = 3.56077 4.30764 3.95189
# Velocity P-wave (km/s) = 5.73313 7.45510 6.65009
#
# Compressibility (1/GPa) = 0.02968075
#
# Stress axis : x y z
#
# Youngs Moduli (GPa) = 55.93848 93.85305 104.98055
#
# Poissons Ratio (x) = 0.23588 -0.00397
# Poissons Ratio (y) = 0.14059 0.17981
# Poissons Ratio (z) = -0.00212 0.16075
#
# Static dielectric constant tensor:
#      x y z
#    x 1.739550 -0.026770 -0.017470 
#    y -0.026770 1.749120 -0.018270 
#    z -0.017470 -0.018270 1.745940 
# 
# From -- ./inp_files/223356.got.cif
#   From: 2010.05.17/outbox.cif.g08.bks.cpg/sg2_112_cif.got.tgz:223356.got - 2010.06.03 11:33:40.
