data_PCOD9060005
_publ_section_title
;
Structure prediction by ZEFSAII (Michael W. Deem and Ramdas Pophale) SiO2 
 PCOD9060005
Probable space group: P -1
;
_chemical_formula_sum "Si O2"
_cell_formula_units_Z 16
_cell_length_a 7.857375
_cell_length_b 8.960803
_cell_length_c 15.695663
_cell_angle_alpha 137.281940
_cell_angle_beta 89.901370
_cell_angle_gamma 109.853085
_cell_volume 649.795189
_symmetry_space_group_name_H-M "P -1"
_symmetry_group_IT_number 2
_symmetry_cell_setting 'triclinic'
loop_
_space_group_symop_operation_xyz
x,y,z
-x,-y,-z
loop_
_atom_site_type_symbol
_atom_site_label
_atom_site_fract_x
_atom_site_fract_y
_atom_site_fract_z
Si Si1 0.308116 0.078784 0.695477
Si Si2 0.313108 0.916681 0.819353
Si Si3 0.343759 0.365298 0.108806
Si Si4 0.999479 0.394874 0.048794
Si Si5 0.321765 0.138957 0.185644
Si Si6 0.959518 0.153079 0.654688
Si Si7 0.009981 0.611167 0.424103
Si Si8 0.275342 0.294458 0.429644
O O1 0.333345 0.034764 0.775372
O O2 0.496455 0.339906 0.777411
O O3 0.129517 0.131137 0.695954
O O4 0.234123 0.806218 0.534245
O O5 0.453717 0.793359 0.774636
O O6 0.090013 0.680484 0.727375
O O7 0.387273 0.147980 0.982698
O O8 0.160617 0.313115 0.028727
O O9 0.301620 0.307898 0.184296
O O10 0.050971 0.614765 0.207320
O O11 0.000000 0.500000 0.000000
O O12 0.792255 0.151912 0.965089
O O13 0.223989 0.148603 0.278630
O O14 0.010192 0.233998 0.590888
O O15 0.758531 0.901892 0.576475
O O16 0.871404 0.604701 0.500042
O O17 0.500000 0.500000 0.500000
#
# Coordination Sequence:
#
# PCOD9060005 Si02
#       8
#     2   2   2   2   2   2   2   2
#     4  11  24  44  71 107 138 185 238 288 350 426
#     4  12  24  46  71 105 140 191 234 290 354 427
#     4  12  27  44  73 107 141 185 244 291 349 424
#     4  12  24  47  71 105 140 186 234 298 354 412
#     4  12  25  44  71 100 144 184 236 292 358 415
#     4  11  24  47  75 101 143 188 236 289 355 423
#     4  11  25  46  75 102 143 189 238 287 359 422
#     4  11  23  42  73 102 140 185 237 290 353 416
#
# _framework density 24.623142000000001
#
# number of rings (size 3 to 8) (size 9 to 14) (size 15 to 20)
#    0.000    0.500    2.500    6.750    3.500    0.000 
#    2.250    0.625    0.000    0.000    0.000    0.000 
#    0.000    0.000    0.000    0.000    0.000    0.000 
#
# Total GULP energy -89501.953746 kJ/mol
# GULP energy per Si atom -5593.872109 kJ/mol
# Density = 2.456710 g / cm^3
# Si number density = 24.623142 Si / 1000 Ang^3
#
#
#
# Elastic Constant Matrix: (Units=GPa)
#
#
# Indices 1 2 3 4 5 6 
#
# 1 73.1565 17.2525 20.1631 -14.1103 6.1388 -0.8936
# 2 17.2525 193.8699 45.2405 -2.5085 2.1824 10.1359
# 3 20.1631 45.2405 90.8298 27.1304 9.0635 27.6660
# 4 -14.1103 -2.5085 27.1304 48.2736 4.1986 6.3888
# 5 6.1388 2.1824 9.0635 4.1986 22.2697 0.9462
# 6 -0.8936 10.1359 27.6660 6.3888 0.9462 29.3857
#
#
#
# Elastic Compliance Matrix: (Units=1/GPa)
#
#
# Indices 1 2 3 4 5 6 
#
# 1 0.018288 0.000232 -0.008766 0.009707 -0.003613 0.006735
# 2 0.000232 0.006107 -0.004358 0.002598 0.000561 0.001421
# 3 -0.008766 -0.004358 0.025877 -0.014341 -0.004140 -0.019874
# 4 0.009707 0.002598 -0.014341 0.031206 -0.003241 0.006221
# 5 -0.003613 0.000561 -0.004140 -0.003241 0.048024 0.002752
# 6 0.006735 0.001421 -0.019874 0.006221 0.002752 0.051015
#
#
# Mechanical properties :
#
#
# Convention : Reuss Voigt Hill
#
# Bulk Modulus (GPa) = 40.83502 58.12980 49.48241
# Shear Modulus (GPa) = 23.31396 38.33246 30.82321
#
# Velocity S-wave (km/s) = 3.08040 3.94987 3.54191
# Velocity P-wave (km/s) = 5.41034 6.66791 6.07177
#
# Compressibility (1/GPa) = 0.02448879
#
# Stress axis : x y z
#
# Youngs Moduli (GPa) = 54.68002 163.73394 38.64507
#
# Poissons Ratio (x) = -0.03802 0.33875
# Poissons Ratio (y) = -0.01270 0.16842
# Poissons Ratio (z) = 0.47931 0.71359
#
# Static dielectric constant tensor:
#      x y z
#    x 1.982940 -0.016210 -0.007910 
#    y -0.016210 1.920530 0.005260 
#    z -0.007910 0.005260 2.054070 
# 
# From -- ./inp_files/495744.got.cif
#   From: 2010.05.17/outbox.cif.g08.bks.cpg/sg2_248_cif.got.tgz:495744.got - 2010.06.03 11:33:40.
