data_PCOD9060859
_publ_section_title
;
Structure prediction by ZEFSAII (Michael W. Deem and Ramdas Pophale) SiO2 
 PCOD9060859
Probable space group: P -1
;
_chemical_formula_sum "Si O2"
_cell_formula_units_Z 16
_cell_length_a 16.644039
_cell_length_b 8.584744
_cell_length_c 14.481825
_cell_angle_alpha 44.087130
_cell_angle_beta 30.993195
_cell_angle_gamma 46.430325
_cell_volume 725.569062
_symmetry_space_group_name_H-M "P -1"
_symmetry_group_IT_number 2
_symmetry_cell_setting 'triclinic'
loop_
_space_group_symop_operation_xyz
x,y,z
-x,-y,-z
loop_
_atom_site_type_symbol
_atom_site_label
_atom_site_fract_x
_atom_site_fract_y
_atom_site_fract_z
Si Si1 0.767720 0.770670 0.004726
Si Si2 0.044190 0.867921 0.414940
Si Si3 0.768796 0.093978 0.474977
Si Si4 0.472608 0.773336 0.176484
Si Si5 0.479188 0.979295 0.711042
Si Si6 0.311581 0.437743 0.368519
Si Si7 0.077136 0.738709 0.918969
Si Si8 0.244424 0.059110 0.742961
O O1 0.844996 0.971560 0.804334
O O2 0.639042 0.695027 0.096060
O O3 0.890085 0.534077 0.997103
O O4 0.662448 0.888863 0.142816
O O5 0.148398 0.612115 0.428822
O O6 0.889411 0.882537 0.495677
O O7 0.000000 0.000000 0.500000
O O8 0.626111 0.097080 0.540917
O O9 0.667575 0.198240 0.620145
O O10 0.888291 0.194922 0.248243
O O11 0.423963 0.595648 0.231018
O O12 0.500000 0.000000 0.000000
O O13 0.573682 0.720972 0.750348
O O14 0.399844 0.985911 0.685693
O O15 0.267694 0.257209 0.563409
O O16 0.189896 0.854157 0.827468
O O17 0.901668 0.839534 0.087771
#
# Coordination Sequence:
#
# PCOD9060859 Si02
#       8
#     2   2   2   2   2   2   2   2
#     4  11  25  43  70 103 138 184 233 290 344 411
#     4  12  24  45  71  99 137 186 237 288 345 415
#     4  11  25  44  69 107 135 179 243 280 348 411
#     4  11  23  44  69 101 138 183 231 280 347 419
#     4  11  26  44  68 105 143 179 230 289 349 412
#     4  12  24  44  75  99 140 186 231 287 348 419
#     4  11  25  46  73 104 142 181 234 291 343 421
#     4  11  25  47  71 107 141 185 229 284 365 401
#
# _framework density 22.051656999999999
#
# number of rings (size 3 to 8) (size 9 to 14) (size 15 to 20)
#    0.000    0.750    3.750    2.625    3.500    3.000 
#    0.000    0.000    0.000    0.000    0.000    0.000 
#    0.000    0.000    0.000    0.000    0.000    0.000 
#
# Total GULP energy -89160.709345 kJ/mol
# GULP energy per Si atom -5572.544334 kJ/mol
# Density = 2.200147 g / cm^3
# Si number density = 22.051657 Si / 1000 Ang^3
#
#
#
# Elastic Constant Matrix: (Units=GPa)
#
#
# Indices 1 2 3 4 5 6 
#
# 1 83.4647 22.6881 29.7094 11.0934 -18.4088 -31.3583
# 2 22.6881 131.4365 43.2832 11.7723 5.6337 -10.1553
# 3 29.7094 43.2832 89.1887 4.1925 3.7736 13.6264
# 4 11.0934 11.7723 4.1925 31.8027 2.2210 2.1689
# 5 -18.4088 5.6337 3.7736 2.2210 24.0610 2.3642
# 6 -31.3583 -10.1553 13.6264 2.1689 2.3642 31.1914
#
#
#
# Elastic Compliance Matrix: (Units=1/GPa)
#
#
# Indices 1 2 3 4 5 6 
#
# 1 0.107450 0.014595 -0.065113 -0.049334 0.079940 0.138594
# 2 0.014595 0.012350 -0.014596 -0.010080 0.009030 0.025087
# 3 -0.065113 -0.014596 0.054750 0.030613 -0.048717 -0.092568
# 4 -0.049334 -0.010080 0.030613 0.055634 -0.038720 -0.067187
# 5 0.079940 0.009030 -0.048717 -0.038720 0.102041 0.099548
# 6 0.138594 0.025087 -0.092568 -0.067187 0.099548 0.217129
#
#
# Mechanical properties :
#
#
# Convention : Reuss Voigt Hill
#
# Bulk Modulus (GPa) = 22.56230 55.05013 38.80621
# Shear Modulus (GPa) = 7.20092 31.30497 19.25294
#
# Velocity S-wave (km/s) = 1.80902 3.77187 2.95800
# Velocity P-wave (km/s) = 3.82324 6.63232 5.41317
#
# Compressibility (1/GPa) = 0.04432173
#
# Stress axis : x y z
#
# Youngs Moduli (GPa) = 9.30667 80.97445 18.26479
#
# Poissons Ratio (x) = -1.18184 1.18928
# Poissons Ratio (y) = -0.13583 0.26659
# Poissons Ratio (z) = 0.60599 1.18191
#
# Static dielectric constant tensor:
#      x y z
#    x 1.930760 0.077570 0.093530 
#    y 0.077570 1.940840 0.126280 
#    z 0.093530 0.126280 1.901810 
# 
# From -- ./inp_files/279694.got.cif
#   From: 2010.05.17/outbox.cif.g08.bks.cpg/sg2_140_cif.got.tgz:279694.got - 2010.06.03 11:33:40.
