data_PCOD9060554
_publ_section_title
;
Structure prediction by ZEFSAII (Michael W. Deem and Ramdas Pophale) SiO2 
 PCOD9060554
Probable space group: P -1
;
_chemical_formula_sum "Si O2"
_cell_formula_units_Z 14
_cell_length_a 6.887741
_cell_length_b 10.080555
_cell_length_c 13.879411
_cell_angle_alpha 45.954616
_cell_angle_beta 59.021756
_cell_angle_gamma 51.142914
_cell_volume 534.064089
_symmetry_space_group_name_H-M "P -1"
_symmetry_group_IT_number 2
_symmetry_cell_setting 'triclinic'
loop_
_space_group_symop_operation_xyz
x,y,z
-x,-y,-z
loop_
_atom_site_type_symbol
_atom_site_label
_atom_site_fract_x
_atom_site_fract_y
_atom_site_fract_z
Si Si1 0.061496 0.922263 0.805362
Si Si2 0.570695 0.642134 0.484726
Si Si3 0.022209 0.430699 0.257308
Si Si4 0.534417 0.696336 0.920010
Si Si5 0.754406 0.994083 0.483668
Si Si6 0.091406 0.653165 0.289947
Si Si7 0.321338 0.234417 0.951467
O O1 0.119645 0.934280 0.671733
O O2 0.935093 0.773711 0.940471
O O3 0.312690 0.867984 0.830236
O O4 0.889749 0.146565 0.778457
O O5 0.500000 0.500000 0.500000
O O6 0.802440 0.681574 0.363472
O O7 0.707736 0.520521 0.607157
O O8 0.341702 0.849985 0.479375
O O9 0.204524 0.320164 0.178722
O O10 0.068458 0.241986 0.412159
O O11 0.130264 0.573354 0.211793
O O12 0.759148 0.592370 0.198034
O O13 0.542477 0.715431 0.021248
O O14 0.500000 0.500000 0.000000
O O15 0.500000 0.000000 0.500000
O O16 0.500000 0.000000 0.000000
#
# Coordination Sequence:
#
# PCOD9060554 Si02
#       7
#     2   2   2   2   2   2   2
#     4  12  26  49  84 113 159 211 263 330 396 471
#     4  11  24  45  71 113 160 203 251 317 392 478
#     4  12  25  48  83 114 161 206 265 326 391 478
#     4  12  26  50  81 112 156 207 268 329 395 464
#     4  12  22  49  84 118 159 207 261 326 404 474
#     4  11  23  43  72 112 155 201 254 318 396 458
#     4  12  31  53  79 117 157 213 277 320 392 479
#
# _framework density 26.214081
#
# number of rings (size 3 to 8) (size 9 to 14) (size 15 to 20)
#    0.000    0.286    5.714    2.143    2.000    5.714 
#    0.000    2.857    3.143    0.000    0.000    0.000 
#    0.000    0.000    0.000    0.000    0.000    0.000 
#
# Total GULP energy -78407.202153 kJ/mol
# GULP energy per Si atom -5600.514439 kJ/mol
# Density = 2.615442 g / cm^3
# Si number density = 26.214081 Si / 1000 Ang^3
#
#
#
# Elastic Constant Matrix: (Units=GPa)
#
#
# Indices 1 2 3 4 5 6 
#
# 1 144.9155 55.2053 59.2983 2.9102 2.1994 20.5432
# 2 55.2053 138.5655 51.5906 -1.8429 22.9673 16.4106
# 3 59.2983 51.5906 144.4075 -8.6928 28.5252 -7.8375
# 4 2.9102 -1.8429 -8.6928 48.7612 -0.8512 10.1952
# 5 2.1994 22.9673 28.5252 -0.8512 55.6387 -1.5639
# 6 20.5432 16.4106 -7.8375 10.1952 -1.5639 49.9767
#
#
#
# Elastic Compliance Matrix: (Units=1/GPa)
#
#
# Indices 1 2 3 4 5 6 
#
# 1 0.009957 -0.002493 -0.003935 -0.000573 0.002540 -0.003695
# 2 -0.002493 0.009777 -0.001987 0.000683 -0.002985 -0.002730
# 3 -0.003935 -0.001987 0.010345 0.001195 -0.004211 0.003517
# 4 -0.000573 0.000683 0.001195 0.021656 -0.000660 -0.004240
# 5 0.002540 -0.002985 -0.004211 -0.000660 0.021256 0.000075
# 6 -0.003695 -0.002730 0.003517 -0.004240 0.000075 0.023843
#
#
# Mechanical properties :
#
#
# Convention : Reuss Voigt Hill
#
# Bulk Modulus (GPa) = 75.47137 84.45299 79.96218
# Shear Modulus (GPa) = 42.34425 48.32828 45.33627
#
# Velocity S-wave (km/s) = 4.02347 4.29837 4.16319
# Velocity P-wave (km/s) = 7.10192 7.54462 7.32662
#
# Compressibility (1/GPa) = 0.01325006
#
# Stress axis : x y z
#
# Youngs Moduli (GPa) = 100.43019 102.28280 96.66548
#
# Poissons Ratio (x) = 0.25499 0.38037
# Poissons Ratio (y) = 0.25037 0.19203
# Poissons Ratio (z) = 0.39518 0.20319
#
# Static dielectric constant tensor:
#      x y z
#    x 2.084280 -0.098640 -0.058860 
#    y -0.098640 2.089720 -0.006420 
#    z -0.058860 -0.006420 2.043080 
# 
# From -- ./inp_files/480216.got.cif
#   From: 2010.05.17/outbox.cif.g08.bks.cpg/sg2_241_cif.got.tgz:480216.got - 2010.06.03 11:33:40.
