data_PCOD9060150
_publ_section_title
;
Structure prediction by ZEFSAII (Michael W. Deem and Ramdas Pophale) SiO2 
 PCOD9060150
Probable space group: P -1
;
_chemical_formula_sum "Si O2"
_cell_formula_units_Z 16
_cell_length_a 12.499784
_cell_length_b 12.061104
_cell_length_c 21.504405
_cell_angle_alpha 152.991856
_cell_angle_beta 31.523509
_cell_angle_gamma 140.096332
_cell_volume 769.368490
_symmetry_space_group_name_H-M "P -1"
_symmetry_group_IT_number 2
_symmetry_cell_setting 'triclinic'
loop_
_space_group_symop_operation_xyz
x,y,z
-x,-y,-z
loop_
_atom_site_type_symbol
_atom_site_label
_atom_site_fract_x
_atom_site_fract_y
_atom_site_fract_z
Si Si1 0.605851 0.462176 0.607337
Si Si2 0.351750 0.503353 0.879066
Si Si3 0.891858 0.000377 0.243917
Si Si4 0.039115 0.839670 0.340460
Si Si5 0.137424 0.015020 0.001770
Si Si6 0.345725 0.520367 0.644652
Si Si7 0.856480 0.969948 0.742297
Si Si8 0.510566 0.375440 0.998566
O O1 0.496469 0.489741 0.741400
O O2 0.451854 0.434345 0.612001
O O3 0.729212 0.720773 0.665181
O O4 0.732914 0.216646 0.424634
O O5 0.192779 0.274736 0.837787
O O6 0.456118 0.469284 0.877606
O O7 0.264981 0.777810 0.060958
O O8 0.003527 0.988615 0.116607
O O9 0.032704 0.072749 0.268841
O O10 0.279418 0.776099 0.186085
O O11 0.876998 0.615001 0.316751
O O12 0.001270 0.970070 0.358115
O O13 0.000000 0.000000 0.500000
O O14 0.296489 0.801062 0.814195
O O15 0.287591 0.248056 0.050875
O O16 0.000000 0.000000 0.000000
O O17 0.500000 0.500000 0.500000
O O18 0.500000 0.500000 0.000000
#
# Coordination Sequence:
#
# PCOD9060150 Si02
#       8
#     2   2   2   2   2   2   2   2
#     4  12  25  42  66 100 134 173 219 274 332 394
#     4  11  23  43  66  94 131 177 222 270 327 393
#     4  12  25  42  66 100 134 173 219 274 332 394
#     4  11  24  42  65  94 127 169 217 269 325 388
#     4  12  24  43  67  96 132 175 221 273 330 395
#     4  12  24  43  67  96 132 175 221 273 330 395
#     4  11  23  43  66  94 131 177 222 270 327 393
#     4  11  24  42  65  94 127 169 217 269 325 388
#
# _framework density 20.796278000000001
#
# number of rings (size 3 to 8) (size 9 to 14) (size 15 to 20)
#    0.000    0.500    0.000   10.500    0.000    3.000 
#    0.000    0.000    0.000    0.000    0.000    0.000 
#    0.000    0.000    0.000    0.000    0.000    0.000 
#
# Total GULP energy -89366.175025 kJ/mol
# GULP energy per Si atom -5585.385939 kJ/mol
# Density = 2.074894 g / cm^3
# Si number density = 20.796278 Si / 1000 Ang^3
#
#
#
# Elastic Constant Matrix: (Units=GPa)
#
#
# Indices 1 2 3 4 5 6 
#
# 1 118.3599 -22.3468 29.0377 -8.1371 3.5011 -13.7963
# 2 -22.3468 63.5025 -21.8002 -17.0680 7.1804 -1.9948
# 3 29.0377 -21.8002 93.1033 -17.1190 13.5252 -27.1400
# 4 -8.1371 -17.0680 -17.1190 33.3071 -13.2736 8.7755
# 5 3.5011 7.1804 13.5252 -13.2736 42.8630 -5.8604
# 6 -13.7963 -1.9948 -27.1400 8.7755 -5.8604 46.7267
#
#
#
# Elastic Compliance Matrix: (Units=1/GPa)
#
#
# Indices 1 2 3 4 5 6 
#
# 1 0.009939 0.004224 -0.000896 0.003693 0.000170 0.001922
# 2 0.004224 0.025258 0.009196 0.016914 -0.001655 0.004282
# 3 -0.000896 0.009196 0.017885 0.010422 -0.002760 0.008212
# 4 0.003693 0.016914 0.010422 0.048394 0.008542 -0.000152
# 5 0.000170 -0.001655 -0.002760 0.008542 0.027134 0.000175
# 6 0.001922 0.004282 0.008212 -0.000152 0.000175 0.026972
#
#
# Mechanical properties :
#
#
# Convention : Reuss Voigt Hill
#
# Bulk Modulus (GPa) = 12.79945 27.19412 19.99678
# Shear Modulus (GPa) = 31.93303 43.91770 37.92537
#
# Velocity S-wave (km/s) = 3.92282 4.60042 4.27507
# Velocity P-wave (km/s) = 5.16585 6.42833 5.83136
#
# Compressibility (1/GPa) = 0.07812838
#
# Stress axis : x y z
#
# Youngs Moduli (GPa) = 100.61319 39.59096 55.91402
#
# Poissons Ratio (x) = -0.16722 0.05011
# Poissons Ratio (y) = -0.42497 -0.51416
# Poissons Ratio (z) = 0.09017 -0.36406
#
# Static dielectric constant tensor:
#      x y z
#    x -0.595620 -2.805490 -0.987360 
#    y -2.805490 -1.625500 -1.137360 
#    z -0.987360 -1.137360 1.361050 
# 
# From -- ./inp_files/595148.got.cif
#   From: 2010.05.17/outbox.cif.g08.bks.cpg/sg2_298_cif.got.tgz:595148.got - 2010.06.03 11:33:40.
