data_PCOD9060794
_publ_section_title
;
Structure prediction by ZEFSAII (Michael W. Deem and Ramdas Pophale) SiO2 
 PCOD9060794
Probable space group: P -1
;
_chemical_formula_sum "Si O2"
_cell_formula_units_Z 14
_cell_length_a 13.819400
_cell_length_b 5.969503
_cell_length_c 21.766557
_cell_angle_alpha 77.046994
_cell_angle_beta 159.980342
_cell_angle_gamma 107.738148
_cell_volume 574.777648
_symmetry_space_group_name_H-M "P -1"
_symmetry_group_IT_number 2
_symmetry_cell_setting 'triclinic'
loop_
_space_group_symop_operation_xyz
x,y,z
-x,-y,-z
loop_
_atom_site_type_symbol
_atom_site_label
_atom_site_fract_x
_atom_site_fract_y
_atom_site_fract_z
Si Si1 0.691256 0.321969 0.636934
Si Si2 0.277323 0.470425 0.043274
Si Si3 0.297581 0.968902 0.564413
Si Si4 0.221500 0.781630 0.664904
Si Si5 0.435586 0.939774 0.035954
Si Si6 0.422211 0.476585 0.660291
Si Si7 0.890837 0.093741 0.669036
O O1 0.500000 0.500000 0.500000
O O2 0.441784 0.077322 0.516933
O O3 0.868378 0.323493 0.678583
O O4 0.934661 0.364478 0.832146
O O5 0.491750 0.305700 0.173106
O O6 0.349195 0.563590 0.149680
O O7 0.383244 0.671216 0.042600
O O8 0.479035 0.768502 0.667998
O O9 0.410025 0.264984 0.615482
O O10 0.047685 0.889957 0.367517
O O11 0.194989 0.918327 0.577284
O O12 0.907917 0.593433 0.502953
O O13 0.324244 0.913001 0.782360
O O14 0.117369 0.993575 0.849022
O O15 0.500000 0.000000 0.000000
#
# Coordination Sequence:
#
# PCOD9060794 Si02
#       7
#     2   2   2   2   2   2   2
#     4  11  24  47  71  93 141 191 239 300 351 418
#     4  11  23  44  68 100 134 190 240 285 357 420
#     4  11  24  44  71 102 139 186 237 289 354 420
#     4  11  24  43  67  98 148 190 227 285 362 429
#     4  12  25  39  70 107 145 179 235 293 359 434
#     4  11  25  42  73 100 151 188 230 286 362 434
#     4  11  26  44  71 104 137 184 246 296 358 419
#
# _framework density 24.357244000000001
#
# number of rings (size 3 to 8) (size 9 to 14) (size 15 to 20)
#    0.000    0.857    4.286    3.000    8.000    1.714 
#    0.000    3.571    0.000    0.000    0.000    0.000 
#    0.000    0.000    0.000    0.000    0.000    0.000 
#
# Total GULP energy -78056.267897 kJ/mol
# GULP energy per Si atom -5575.447707 kJ/mol
# Density = 2.430181 g / cm^3
# Si number density = 24.357244 Si / 1000 Ang^3
#
#
#
# Elastic Constant Matrix: (Units=GPa)
#
#
# Indices 1 2 3 4 5 6 
#
# 1 78.2546 21.1547 30.5457 -7.9135 -27.2244 -14.6907
# 2 21.1547 82.5450 23.9591 -3.3292 -14.2672 -8.4268
# 3 30.5457 23.9591 187.4519 14.4059 -33.7698 -3.5980
# 4 -7.9135 -3.3292 14.4059 33.1924 2.7683 -11.5441
# 5 -27.2244 -14.2672 -33.7698 2.7683 45.0440 2.3468
# 6 -14.6907 -8.4268 -3.5980 -11.5441 2.3468 33.3239
#
#
#
# Elastic Compliance Matrix: (Units=1/GPa)
#
#
# Indices 1 2 3 4 5 6 
#
# 1 0.019859 -0.001601 -0.001828 0.008213 0.009081 0.010358
# 2 -0.001601 0.013692 -0.001238 0.002517 0.002112 0.003346
# 3 -0.001828 -0.001238 0.006830 -0.004652 0.004028 -0.002277
# 4 0.008213 0.002517 -0.004652 0.040691 -0.001162 0.017933
# 5 0.009081 0.002112 0.004028 -0.001162 0.031327 0.002364
# 6 0.010358 0.003346 -0.002277 0.017933 0.002364 0.041221
#
#
# Mechanical properties :
#
#
# Convention : Reuss Voigt Hill
#
# Bulk Modulus (GPa) = 32.20704 55.50783 43.85743
# Shear Modulus (GPa) = 28.85117 40.48485 34.66801
#
# Velocity S-wave (km/s) = 3.44539 4.08134 3.77678
# Velocity P-wave (km/s) = 5.39250 6.71181 6.08800
#
# Compressibility (1/GPa) = 0.03104912
#
# Stress axis : x y z
#
# Youngs Moduli (GPa) = 50.35394 73.03356 146.40568
#
# Poissons Ratio (x) = 0.11691 0.26761
# Poissons Ratio (y) = 0.08060 0.18123
# Poissons Ratio (z) = 0.09204 0.09041
#
# Static dielectric constant tensor:
#      x y z
#    x 2.108000 -0.051140 -0.143120 
#    y -0.051140 2.098930 -0.132320 
#    z -0.143120 -0.132320 2.585390 
# 
# From -- ./inp_files/370369.got.cif
#   From: 2010.05.17/outbox.cif.g08.bks.cpg/sg2_186_cif.got.tgz:370369.got - 2010.06.03 11:33:40.
