data_PCOD9060726
_publ_section_title
;
Structure prediction by ZEFSAII (Michael W. Deem and Ramdas Pophale) SiO2 
 PCOD9060726
Probable space group: P -1
;
_chemical_formula_sum "Si O2"
_cell_formula_units_Z 12
_cell_length_a 10.467143
_cell_length_b 10.684452
_cell_length_c 7.294453
_cell_angle_alpha 136.221837
_cell_angle_beta 58.698753
_cell_angle_gamma 122.325907
_cell_volume 464.349329
_symmetry_space_group_name_H-M "P -1"
_symmetry_group_IT_number 2
_symmetry_cell_setting 'triclinic'
loop_
_space_group_symop_operation_xyz
x,y,z
-x,-y,-z
loop_
_atom_site_type_symbol
_atom_site_label
_atom_site_fract_x
_atom_site_fract_y
_atom_site_fract_z
Si Si1 0.414955 0.855592 0.561926
Si Si2 0.184339 0.587476 0.951047
Si Si3 0.776622 0.697003 0.656268
Si Si4 0.763518 0.052682 0.883325
Si Si5 0.937914 0.276278 0.304481
Si Si6 0.527354 0.514898 0.271550
O O1 0.381808 0.948817 0.877815
O O2 0.236654 0.771796 0.539665
O O3 0.500065 0.698454 0.391783
O O4 0.500000 0.000000 0.500000
O O5 0.217042 0.504033 0.640047
O O6 0.232260 0.813055 0.148767
O O7 0.304505 0.519027 0.918435
O O8 0.000000 0.500000 0.000000
O O9 0.622856 0.655148 0.850856
O O10 0.932759 0.786305 0.743422
O O11 0.770210 0.839716 0.646279
O O12 0.911368 0.173957 0.019638
O O13 0.000000 0.500000 0.500000
O O14 0.500000 0.500000 0.500000
#
# Coordination Sequence:
#
# PCOD9060726 Si02
#       6
#     2   2   2   2   2   2
#     4  10  21  39  65  99 132 161 218 271 315 383
#     4  11  24  43  63  92 129 172 221 269 318 387
#     4  11  20  40  69  91 126 176 212 264 331 380
#     4  10  22  39  66  94 128 171 214 268 321 383
#     4  10  17  39  66  89 130 171 204 261 326 378
#     4  10  19  42  66  85 130 177 209 263 325 387
#
# _framework density 25.842611999999999
#
# number of rings (size 3 to 8) (size 9 to 14) (size 15 to 20)
#    1.000    0.667    6.667    0.500    0.000    2.667 
#    3.000    0.833    0.000    0.000    0.000    0.000 
#    0.000    0.000    0.000    0.000    0.000    0.000 
#
# Total GULP energy -66979.892687 kJ/mol
# GULP energy per Si atom -5581.657724 kJ/mol
# Density = 2.578379 g / cm^3
# Si number density = 25.842612 Si / 1000 Ang^3
#
#
#
# Elastic Constant Matrix: (Units=GPa)
#
#
# Indices 1 2 3 4 5 6 
#
# 1 155.4025 67.2871 38.8578 -11.9985 -54.8507 8.2739
# 2 67.2871 173.6916 27.7583 7.7089 -44.8699 -5.2617
# 3 38.8578 27.7583 46.7305 4.0092 -24.1317 -4.1881
# 4 -11.9985 7.7089 4.0092 49.6491 -1.5529 -19.3038
# 5 -54.8507 -44.8699 -24.1317 -1.5529 60.2556 -0.8672
# 6 8.2739 -5.2617 -4.1881 -19.3038 -0.8672 45.8040
#
#
#
# Elastic Compliance Matrix: (Units=1/GPa)
#
#
# Indices 1 2 3 4 5 6 
#
# 1 0.011279 -0.001974 -0.005062 0.003163 0.006833 -0.001265
# 2 -0.001974 0.007651 -0.000924 -0.001205 0.003510 0.000710
# 3 -0.005062 -0.000924 0.030069 -0.002230 0.006728 0.002745
# 4 0.003163 -0.001205 -0.002230 0.025104 0.001876 0.009702
# 5 0.006833 0.003510 0.006728 0.001876 0.028189 0.001108
# 6 -0.001265 0.000710 0.002745 0.009702 0.001108 0.026503
#
#
# Mechanical properties :
#
#
# Convention : Reuss Voigt Hill
#
# Bulk Modulus (GPa) = 30.23046 71.51455 50.87251
# Shear Modulus (GPa) = 32.10453 47.26981 39.68717
#
# Velocity S-wave (km/s) = 3.52847 4.28149 3.92309
# Velocity P-wave (km/s) = 5.32197 7.22321 6.34421
#
# Compressibility (1/GPa) = 0.03307922
#
# Stress axis : x y z
#
# Youngs Moduli (GPa) = 88.66317 130.69582 33.25637
#
# Poissons Ratio (x) = 0.25796 0.16835
# Poissons Ratio (y) = 0.17500 0.03074
# Poissons Ratio (z) = 0.44882 0.12079
#
# Static dielectric constant tensor:
#      x y z
#    x 2.381500 -0.044490 -0.098460 
#    y -0.044490 2.056500 0.011130 
#    z -0.098460 0.011130 2.185120 
# 
# From -- ./inp_files/424379.got.cif
#   From: 2010.05.17/outbox.cif.g08.bks.cpg/sg2_213_cif.got.tgz:424379.got - 2010.06.03 11:33:40.
