data_PCOD9060935
_publ_section_title
;
Structure prediction by ZEFSAII (Michael W. Deem and Ramdas Pophale) SiO2 
 PCOD9060935
Probable space group: P -1
;
_chemical_formula_sum "Si O2"
_cell_formula_units_Z 14
_cell_length_a 6.515188
_cell_length_b 23.413981
_cell_length_c 14.527486
_cell_angle_alpha 19.274935
_cell_angle_beta 66.299586
_cell_angle_gamma 66.602351
_cell_volume 668.697069
_symmetry_space_group_name_H-M "P -1"
_symmetry_group_IT_number 2
_symmetry_cell_setting 'triclinic'
loop_
_space_group_symop_operation_xyz
x,y,z
-x,-y,-z
loop_
_atom_site_type_symbol
_atom_site_label
_atom_site_fract_x
_atom_site_fract_y
_atom_site_fract_z
Si Si1 0.833235 0.603143 0.803888
Si Si2 0.664241 0.285769 0.227538
Si Si3 0.076556 0.021984 0.849215
Si Si4 0.865996 0.986774 0.749454
Si Si5 0.255857 0.550747 0.354026
Si Si6 0.713580 0.118089 0.283071
Si Si7 0.487345 0.756045 0.161104
O O1 0.601137 0.666865 0.799458
O O2 0.920921 0.776298 0.482479
O O3 0.776987 0.466847 0.942324
O O4 0.000000 0.500000 0.000000
O O5 0.729738 0.169978 0.481418
O O6 0.748507 0.168150 0.306320
O O7 0.930695 0.949927 0.900289
O O8 0.319966 0.920571 0.959732
O O9 0.000000 0.000000 0.000000
O O10 0.093254 0.986325 0.650600
O O11 0.714747 0.839281 0.959696
O O12 0.352749 0.644636 0.283217
O O13 0.417687 0.377293 0.575229
O O14 0.000000 0.500000 0.500000
O O15 0.291116 0.693313 0.052685
O O16 0.500000 0.000000 0.500000
#
# Coordination Sequence:
#
# PCOD9060935 Si02
#       7
#     2   2   2   2   2   2   2
#     4  11  24  47  69  98 145 188 237 303 349 423
#     4  11  25  42  73 103 137 188 239 291 361 427
#     4  12  26  45  71 101 140 193 246 295 365 428
#     4  12  23  48  71 101 149 183 240 311 357 432
#     4  11  23  44  70 103 148 186 228 298 366 429
#     4  12  25  44  75 110 142 187 241 298 368 431
#     4  11  23  44  72  96 143 192 233 289 372 421
#
# _framework density 20.936236999999998
#
# number of rings (size 3 to 8) (size 9 to 14) (size 15 to 20)
#    0.000    0.571    5.714    2.143    0.000    4.000 
#    0.000    0.000    0.000    0.000    0.000    0.000 
#    0.000    0.000    0.000    0.000    0.000    0.000 
#
# Total GULP energy -78098.145421 kJ/mol
# GULP energy per Si atom -5578.438959 kJ/mol
# Density = 2.088859 g / cm^3
# Si number density = 20.936237 Si / 1000 Ang^3
#
#
#
# Elastic Constant Matrix: (Units=GPa)
#
#
# Indices 1 2 3 4 5 6 
#
# 1 128.1341 52.2600 67.4424 14.6423 0.4315 -8.1141
# 2 52.2600 79.9676 19.2386 6.8961 0.4315 6.1249
# 3 67.4424 19.2386 154.1054 2.0431 9.3543 -7.6777
# 4 14.6423 6.8961 2.0431 28.3249 -3.0891 2.1041
# 5 0.4315 0.4315 9.3543 -3.0891 62.2694 -9.8269
# 6 -8.1141 6.1249 -7.6777 2.1041 -9.8269 28.5175
#
#
#
# Elastic Compliance Matrix: (Units=1/GPa)
#
#
# Indices 1 2 3 4 5 6 
#
# 1 0.015017 -0.008505 -0.005241 -0.005581 0.001343 0.005563
# 2 -0.008505 0.018260 0.001194 0.000208 -0.001258 -0.006469
# 3 -0.005241 0.001194 0.008686 0.001658 -0.001185 0.000060
# 4 -0.005581 0.000208 0.001658 0.038412 0.001120 -0.003634
# 5 0.001343 -0.001258 -0.001185 0.001120 0.017271 0.006202
# 6 0.005563 -0.006469 0.000060 -0.003634 0.006202 0.040460
#
#
# Mechanical properties :
#
#
# Convention : Reuss Voigt Hill
#
# Bulk Modulus (GPa) = 59.31184 71.12100 65.21642
# Shear Modulus (GPa) = 29.61547 38.70676 34.16111
#
# Velocity S-wave (km/s) = 3.76514 4.30442 4.04378
# Velocity P-wave (km/s) = 6.87699 7.66473 7.28152
#
# Compressibility (1/GPa) = 0.01686004
#
# Stress axis : x y z
#
# Youngs Moduli (GPa) = 66.59082 54.76321 115.12121
#
# Poissons Ratio (x) = 0.46577 0.60331
# Poissons Ratio (y) = 0.56637 -0.13743
# Poissons Ratio (z) = 0.34898 -0.06538
#
# Static dielectric constant tensor:
#      x y z
#    x 1.908660 0.071330 -0.117160 
#    y 0.071330 1.807590 -0.093250 
#    z -0.117160 -0.093250 1.938960 
# 
# From -- ./inp_files/101070.got.cif
#   From: 2010.05.17/outbox.cif.g08.bks.cpg/sg2_51_cif.got.tgz:101070.got - 2010.06.03 11:33:40.
