data_PCOD9060329
_publ_section_title
;
Structure prediction by ZEFSAII (Michael W. Deem and Ramdas Pophale) SiO2 
 PCOD9060329
Probable space group: P -1
;
_chemical_formula_sum "Si O2"
_cell_formula_units_Z 14
_cell_length_a 9.500026
_cell_length_b 27.399120
_cell_length_c 12.506924
_cell_angle_alpha 156.293411
_cell_angle_beta 33.558387
_cell_angle_gamma 151.694094
_cell_volume 614.293194
_symmetry_space_group_name_H-M "P -1"
_symmetry_group_IT_number 2
_symmetry_cell_setting 'triclinic'
loop_
_space_group_symop_operation_xyz
x,y,z
-x,-y,-z
loop_
_atom_site_type_symbol
_atom_site_label
_atom_site_fract_x
_atom_site_fract_y
_atom_site_fract_z
Si Si1 0.681652 0.995546 0.206223
Si Si2 0.347823 0.351486 0.085710
Si Si3 0.175617 0.779901 0.246384
Si Si4 0.148738 0.505808 0.801893
Si Si5 0.787947 0.279421 0.391707
Si Si6 0.640477 0.902087 0.536716
Si Si7 0.489448 0.581104 0.272021
O O1 0.399432 0.851948 0.148761
O O2 0.725195 0.111963 0.500554
O O3 0.546909 0.032113 0.261978
O O4 0.000000 0.000000 0.000000
O O5 0.526234 0.448910 0.270268
O O6 0.401218 0.468837 0.198471
O O7 0.009542 0.245116 0.124278
O O8 0.441139 0.242705 0.766635
O O9 0.822628 0.720507 0.343776
O O10 0.182821 0.641104 0.992030
O O11 0.960520 0.374083 0.577776
O O12 0.000000 0.500000 0.000000
O O13 0.479157 0.150233 0.372830
O O14 0.737471 0.370596 0.518384
O O15 0.000000 0.000000 0.500000
O O16 0.500000 0.500000 0.000000
#
# Coordination Sequence:
#
# PCOD9060329 Si02
#       7
#     2   2   2   2   2   2   2
#     4  11  27  44  68  99 131 183 235 284 332 406
#     4  12  26  43  71 104 138 175 232 281 347 412
#     4  11  23  43  69  93 139 173 224 278 343 398
#     4  12  20  45  71 101 132 178 220 281 344 411
#     4  12  26  42  73 104 138 177 229 283 347 412
#     4  12  26  46  70  95 141 188 232 281 345 403
#     4  12  22  45  70 103 140 178 216 284 353 411
#
# _framework density 22.790420999999998
#
# number of rings (size 3 to 8) (size 9 to 14) (size 15 to 20)
#    0.000    0.286    7.143    1.714    2.000    2.857 
#    0.000    0.000    0.000    0.000    0.000    0.000 
#    0.000    0.000    0.000    0.000    0.000    0.000 
#
# Total GULP energy -78122.160747 kJ/mol
# GULP energy per Si atom -5580.154339 kJ/mol
# Density = 2.273855 g / cm^3
# Si number density = 22.790421 Si / 1000 Ang^3
#
#
#
# Elastic Constant Matrix: (Units=GPa)
#
#
# Indices 1 2 3 4 5 6 
#
# 1 99.9304 26.9122 14.8574 -5.2817 -16.2944 -0.5829
# 2 26.9122 150.3096 38.2778 -11.1388 -16.5384 4.0712
# 3 14.8574 38.2778 49.1642 -16.5666 -16.4834 -8.5870
# 4 -5.2817 -11.1388 -16.5666 24.2480 12.0239 -2.1183
# 5 -16.2944 -16.5384 -16.4834 12.0239 27.5596 10.0593
# 6 -0.5829 4.0712 -8.5870 -2.1183 10.0593 31.3544
#
#
#
# Elastic Compliance Matrix: (Units=1/GPa)
#
#
# Indices 1 2 3 4 5 6 
#
# 1 0.011583 -0.000945 -0.001754 -0.003133 0.007620 -0.002799
# 2 -0.000945 0.008981 -0.007446 -0.003290 0.003477 -0.004561
# 3 -0.001754 -0.007446 0.036704 0.020614 0.003325 0.011312
# 4 -0.003133 -0.003290 0.020614 0.069268 -0.029020 0.020005
# 5 0.007620 0.003477 0.003325 -0.029020 0.065719 -0.022444
# 6 -0.002799 -0.004561 0.011312 0.020005 -0.022444 0.044084
#
#
# Mechanical properties :
#
#
# Convention : Reuss Voigt Hill
#
# Bulk Modulus (GPa) = 27.04367 51.05544 39.04956
# Shear Modulus (GPa) = 18.59051 31.25619 24.92335
#
# Velocity S-wave (km/s) = 2.85917 3.70734 3.31053
# Velocity P-wave (km/s) = 4.77408 6.38566 5.63775
#
# Compressibility (1/GPa) = 0.03697722
#
# Stress axis : x y z
#
# Youngs Moduli (GPa) = 86.33382 111.35106 27.24507
#
# Poissons Ratio (x) = 0.10523 0.04779
# Poissons Ratio (y) = 0.08159 0.20286
# Poissons Ratio (z) = 0.15144 0.82911
#
# Static dielectric constant tensor:
#      x y z
#    x 1.837710 0.061540 0.022680 
#    y 0.061540 1.921780 -0.003020 
#    z 0.022680 -0.003020 1.773960 
# 
# From -- ./inp_files/305662.got.cif
#   From: 2010.05.17/outbox.cif.g08.bks.cpg/sg2_153_cif.got.tgz:305662.got - 2010.06.03 11:33:40.
