data_PCOD9060886
_publ_section_title
;
Structure prediction by ZEFSAII (Michael W. Deem and Ramdas Pophale) SiO2 
 PCOD9060886
Probable space group: P -1
;
_chemical_formula_sum "Si O2"
_cell_formula_units_Z 14
_cell_length_a 12.791206
_cell_length_b 7.856206
_cell_length_c 9.019434
_cell_angle_alpha 68.546640
_cell_angle_beta 122.344486
_cell_angle_gamma 70.277251
_cell_volume 523.847390
_symmetry_space_group_name_H-M "P -1"
_symmetry_group_IT_number 2
_symmetry_cell_setting 'triclinic'
loop_
_space_group_symop_operation_xyz
x,y,z
-x,-y,-z
loop_
_atom_site_type_symbol
_atom_site_label
_atom_site_fract_x
_atom_site_fract_y
_atom_site_fract_z
Si Si1 0.729046 0.393950 0.798413
Si Si2 0.505382 0.556368 0.157126
Si Si3 0.499206 0.925881 0.356381
Si Si4 0.963394 0.378181 0.203845
Si Si5 0.863833 0.876086 0.024543
Si Si6 0.842638 0.429073 0.427762
Si Si7 0.296842 0.059168 0.705563
O O1 0.574333 0.488868 0.760451
O O2 0.642957 0.627638 0.552153
O O3 0.816357 0.134515 0.866416
O O4 0.867232 0.359183 0.013711
O O5 0.695714 0.435144 0.354950
O O6 0.500000 0.500000 0.000000
O O7 0.368261 0.855228 0.947716
O O8 0.321131 0.023720 0.151261
O O9 0.546097 0.036037 0.242974
O O10 0.500000 0.000000 0.500000
O O11 0.874505 0.415610 0.281036
O O12 0.156524 0.129218 0.461288
O O13 0.955048 0.607682 0.099740
O O14 0.982083 0.784371 0.287424
O O15 0.783270 0.686469 0.356806
#
# Coordination Sequence:
#
# PCOD9060886 Si02
#       7
#     2   2   2   2   2   2   2
#     4  12  25  44  74 102 144 186 234 289 354 415
#     4  12  23  40  68 106 137 178 236 282 344 416
#     4  12  25  50  71  99 145 191 237 287 352 424
#     4  11  23  45  70 109 146 181 226 298 355 414
#     4  11  24  44  69 100 138 185 231 290 343 414
#     4  11  23  44  69 106 144 178 233 294 352 414
#     4  11  25  43  74 101 139 191 232 285 358 415
#
# _framework density 26.725338000000001
#
# number of rings (size 3 to 8) (size 9 to 14) (size 15 to 20)
#    0.000    0.571    2.857    6.857    2.000    1.714 
#    0.000    3.571    0.000    0.000    0.000    0.000 
#    0.000    0.000    0.000    0.000    0.000    0.000 
#
# Total GULP energy -78478.742483 kJ/mol
# GULP energy per Si atom -5605.624463 kJ/mol
# Density = 2.666451 g / cm^3
# Si number density = 26.725338 Si / 1000 Ang^3
#
#
#
# Elastic Constant Matrix: (Units=GPa)
#
#
# Indices 1 2 3 4 5 6 
#
# 1 94.4971 39.0683 45.8070 11.6385 22.8779 9.3034
# 2 39.0683 98.1336 39.3132 1.7547 2.6798 7.9093
# 3 45.8070 39.3132 168.3686 22.7602 30.0841 17.8953
# 4 11.6385 1.7547 22.7602 42.5025 23.5394 0.3383
# 5 22.8779 2.6798 30.0841 23.5394 50.3895 -0.0371
# 6 9.3034 7.9093 17.8953 0.3383 -0.0371 26.4547
#
#
#
# Elastic Compliance Matrix: (Units=1/GPa)
#
#
# Indices 1 2 3 4 5 6 
#
# 1 0.015053 -0.004959 -0.001659 0.000114 -0.005635 -0.002698
# 2 -0.004959 0.013001 -0.002149 0.000544 0.002588 -0.000693
# 3 -0.001659 -0.002149 0.008175 -0.002126 -0.003023 -0.004281
# 4 0.000114 0.000544 -0.002126 0.032306 -0.013902 0.000803
# 5 -0.005635 0.002588 -0.003023 -0.013902 0.030568 0.003473
# 6 -0.002698 -0.000693 -0.004281 0.000803 0.003473 0.041847
#
#
# Mechanical properties :
#
#
# Convention : Reuss Voigt Hill
#
# Bulk Modulus (GPa) = 53.49054 67.70850 60.59952
# Shear Modulus (GPa) = 30.35552 39.65672 35.00612
#
# Velocity S-wave (km/s) = 3.37387 3.85627 3.62311
# Velocity P-wave (km/s) = 5.93597 6.72441 6.34245
#
# Compressibility (1/GPa) = 0.01869489
#
# Stress axis : x y z
#
# Youngs Moduli (GPa) = 66.43388 76.91964 122.32208
#
# Poissons Ratio (x) = 0.38142 0.20295
# Poissons Ratio (y) = 0.32942 0.26285
# Poissons Ratio (z) = 0.11023 0.16529
#
# Static dielectric constant tensor:
#      x y z
#    x 2.077080 -0.040830 0.038120 
#    y -0.040830 2.269510 -0.114550 
#    z 0.038120 -0.114550 2.078390 
# 
# From -- ./inp_files/447201.got.cif
#   From: 2010.05.17/outbox.cif.g08.bks.cpg/sg2_224_cif.got.tgz:447201.got - 2010.06.03 11:33:40.
