data_PCOD9060505
_publ_section_title
;
Structure prediction by ZEFSAII (Michael W. Deem and Ramdas Pophale) SiO2 
 PCOD9060505
Probable space group: P -1
;
_chemical_formula_sum "Si O2"
_cell_formula_units_Z 13
_cell_length_a 11.846486
_cell_length_b 11.346805
_cell_length_c 9.272056
_cell_angle_alpha 59.037385
_cell_angle_beta 140.062339
_cell_angle_gamma 142.759758
_cell_volume 469.191704
_symmetry_space_group_name_H-M "P -1"
_symmetry_group_IT_number 2
_symmetry_cell_setting 'triclinic'
loop_
_space_group_symop_operation_xyz
x,y,z
-x,-y,-z
loop_
_atom_site_type_symbol
_atom_site_label
_atom_site_fract_x
_atom_site_fract_y
_atom_site_fract_z
Si Si1 0.977949 0.106881 0.218625
Si Si2 0.340726 0.025199 0.410502
Si Si3 0.682464 0.390794 0.356095
Si Si4 0.000000 0.000000 0.000000
Si Si5 0.159885 0.516225 0.875711
Si Si6 0.666780 0.668477 0.311841
Si Si7 0.366274 0.843070 0.099227
O O1 0.203452 0.276455 0.441117
O O2 0.792381 0.884707 0.247768
O O3 0.818386 0.153962 0.006301
O O4 0.062502 0.086962 0.168780
O O5 0.389934 0.187596 0.248830
O O6 0.432761 0.087945 0.624714
O O7 0.500000 0.000000 0.500000
O O8 0.041734 0.852469 0.196879
O O9 0.722744 0.378451 0.236723
O O10 0.732684 0.575404 0.334905
O O11 0.866988 0.397236 0.627573
O O12 0.362262 0.511841 0.115941
O O13 0.215493 0.641273 0.993155
O O14 0.500000 0.000000 0.000000
#
# Coordination Sequence:
#
# PCOD9060505 Si02
#       7
#     2   2   2   1   2   2   2
#     4  11  24  44  74 105 142 188 234 288 349 417
#     4  12  27  47  72 102 144 183 235 297 350 417
#     4  11  26  45  68 108 138 183 238 289 357 413
#     4  12  26  46  72 112 138 182 236 294 356 412
#     4  11  23  43  72 100 141 189 225 294 346 417
#     4  11  23  45  72 105 140 185 238 284 344 425
#     4  12  23  47  75 103 141 190 242 282 352 422
#
# _framework density 27.707225000000001
#
# number of rings (size 3 to 8) (size 9 to 14) (size 15 to 20)
#    0.000    0.615    4.615    3.231    2.154    4.308 
#    0.000    1.538    0.000    0.000    0.000    0.000 
#    0.000    0.000    0.000    0.000    0.000    0.000 
#
# Total GULP energy -72586.376646 kJ/mol
# GULP energy per Si atom -5583.567434 kJ/mol
# Density = 2.764416 g / cm^3
# Si number density = 27.707225 Si / 1000 Ang^3
#
#
#
# Elastic Constant Matrix: (Units=GPa)
#
#
# Indices 1 2 3 4 5 6 
#
# 1 153.9835 14.5587 34.1234 3.3097 -5.0323 -24.0384
# 2 14.5587 66.1243 34.8702 24.4431 0.9904 -9.1496
# 3 34.1234 34.8702 237.7113 11.9803 -7.4902 -28.0936
# 4 3.3097 24.4431 11.9803 40.1232 -13.1435 3.1688
# 5 -5.0323 0.9904 -7.4902 -13.1435 69.3395 -6.0200
# 6 -24.0384 -9.1496 -28.0936 3.1688 -6.0200 28.3256
#
#
#
# Elastic Compliance Matrix: (Units=1/GPa)
#
#
# Indices 1 2 3 4 5 6 
#
# 1 0.007625 -0.000560 -0.000211 -0.000393 0.001015 0.006340
# 2 -0.000560 0.022435 -0.001868 -0.014445 -0.002785 0.005943
# 3 -0.000211 -0.001868 0.005093 -0.000436 0.000870 0.004502
# 4 -0.000393 -0.014445 -0.000436 0.036615 0.006361 -0.008176
# 5 0.001015 -0.002785 0.000870 0.006361 0.016143 0.003543
# 6 0.006340 0.005943 0.004502 -0.008176 0.003543 0.048737
#
#
# Mechanical properties :
#
#
# Convention : Reuss Voigt Hill
#
# Bulk Modulus (GPa) = 33.47355 69.43596 51.45476
# Shear Modulus (GPa) = 32.91971 52.50876 42.71424
#
# Velocity S-wave (km/s) = 3.45066 4.35803 3.93062
# Velocity P-wave (km/s) = 5.28994 7.10199 6.26186
#
# Compressibility (1/GPa) = 0.02987433
#
# Stress axis : x y z
#
# Youngs Moduli (GPa) = 131.14091 44.57277 196.36590
#
# Poissons Ratio (x) = 0.02496 0.04151
# Poissons Ratio (y) = 0.07344 0.36682
# Poissons Ratio (z) = 0.02772 0.08326
#
# Static dielectric constant tensor:
#      x y z
#    x 1.730510 -0.344050 -0.306960 
#    y -0.344050 2.157820 -0.472740 
#    z -0.306960 -0.472740 1.647280 
# 
# From -- ./inp_files/191177.got.cif
#   From: 2010.05.17/outbox.cif.g08.bks.cpg/sg2_96_cif.got.tgz:191177.got - 2010.06.03 11:33:40.
