data_PCOD9060104
_publ_section_title
;
Structure prediction by ZEFSAII (Michael W. Deem and Ramdas Pophale) SiO2 
 PCOD9060104
Probable space group: P -1
;
_chemical_formula_sum "Si O2"
_cell_formula_units_Z 12
_cell_length_a 16.025348
_cell_length_b 7.414897
_cell_length_c 6.721373
_cell_angle_alpha 140.085335
_cell_angle_beta 63.607577
_cell_angle_gamma 106.028743
_cell_volume 456.123981
_symmetry_space_group_name_H-M "P -1"
_symmetry_group_IT_number 2
_symmetry_cell_setting 'triclinic'
loop_
_space_group_symop_operation_xyz
x,y,z
-x,-y,-z
loop_
_atom_site_type_symbol
_atom_site_label
_atom_site_fract_x
_atom_site_fract_y
_atom_site_fract_z
Si Si1 0.163308 0.696236 0.800904
Si Si2 0.049804 0.243477 0.361235
Si Si3 0.726562 0.670846 0.146711
Si Si4 0.579062 0.896740 0.170785
Si Si5 0.370579 0.547343 0.555104
Si Si6 0.148996 0.881680 0.430820
O O1 0.104811 0.429741 0.611243
O O2 0.271904 0.589279 0.576652
O O3 0.157625 0.810672 0.128739
O O4 0.120222 0.984257 0.976751
O O5 0.000000 0.500000 0.500000
O O6 0.962014 0.085866 0.390478
O O7 0.653609 0.574177 0.307541
O O8 0.669207 0.818429 0.150452
O O9 0.792145 0.867317 0.360059
O O10 0.796555 0.402505 0.770248
O O11 0.596253 0.146096 0.212171
O O12 0.500000 0.000000 0.500000
O O13 0.561706 0.642025 0.827049
#
# Coordination Sequence:
#
# PCOD9060104 Si02
#       6
#     2   2   2   2   2   2
#     4  11  23  43  64  91 135 184 224 274 332 391
#     4  12  25  37  62 101 136 176 227 280 324 385
#     4  11  25  45  70 103 135 183 228 277 341 406
#     4  12  27  46  75 105 136 175 220 287 352 415
#     4  11  25  46  72 100 139 180 227 278 343 408
#     4  11  23  43  66  94 135 183 229 274 328 392
#
# _framework density 26.308634999999999
#
# number of rings (size 3 to 8) (size 9 to 14) (size 15 to 20)
#    0.000    0.667    0.000    9.000    7.000    1.333 
#    0.000    0.000    0.000    0.000    0.000    0.000 
#    0.000    0.000    0.000    0.000    0.000    0.000 
#
# Total GULP energy -67263.107656 kJ/mol
# GULP energy per Si atom -5605.258971 kJ/mol
# Density = 2.624875 g / cm^3
# Si number density = 26.308635 Si / 1000 Ang^3
#
#
#
# Elastic Constant Matrix: (Units=GPa)
#
#
# Indices 1 2 3 4 5 6 
#
# 1 80.0547 12.0729 26.5397 14.8258 0.7029 1.7003
# 2 12.0729 93.0668 14.6827 9.2178 -0.6358 3.3981
# 3 26.5397 14.6827 132.7329 14.3773 -5.1362 5.3506
# 4 14.8258 9.2178 14.3773 51.0619 16.2658 1.7843
# 5 0.7029 -0.6358 -5.1362 16.2658 37.1312 -6.7936
# 6 1.7003 3.3981 5.3506 1.7843 -6.7936 24.5811
#
#
#
# Elastic Compliance Matrix: (Units=1/GPa)
#
#
# Indices 1 2 3 4 5 6 
#
# 1 0.014060 -0.001113 -0.002271 -0.003569 0.001003 0.000212
# 2 -0.001113 0.011216 -0.000773 -0.001655 0.000647 -0.001006
# 3 -0.002271 -0.000773 0.008421 -0.002176 0.001990 -0.000861
# 4 -0.003569 -0.001655 -0.002176 0.025586 -0.012256 -0.004295
# 5 0.001003 0.000647 0.001990 -0.012256 0.034360 0.009794
# 6 0.000212 -0.001006 -0.000861 -0.004295 0.009794 0.044012
#
#
# Mechanical properties :
#
#
# Convention : Reuss Voigt Hill
#
# Bulk Modulus (GPa) = 39.39796 45.82720 42.61258
# Shear Modulus (GPa) = 32.37693 39.39209 35.88451
#
# Velocity S-wave (km/s) = 3.51188 3.87370 3.69722
# Velocity P-wave (km/s) = 5.60823 6.12081 5.87012
#
# Compressibility (1/GPa) = 0.02538203
#
# Stress axis : x y z
#
# Youngs Moduli (GPa) = 71.12432 89.15494 118.75030
#
# Poissons Ratio (x) = 0.09923 0.26972
# Poissons Ratio (y) = 0.07916 0.09184
# Poissons Ratio (z) = 0.16155 0.06895
#
# Static dielectric constant tensor:
#      x y z
#    x 2.064970 -0.097080 -0.081170 
#    y -0.097080 2.146540 0.023980 
#    z -0.081170 0.023980 2.034770 
# 
# From -- ./inp_files/201689.got.cif
#   From: 2010.05.17/outbox.cif.g08.bks.cpg/sg2_101_cif.got.tgz:201689.got - 2010.06.03 11:33:40.
