data_PCOD9060894
_publ_section_title
;
Structure prediction by ZEFSAII (Michael W. Deem and Ramdas Pophale) SiO2 
 PCOD9060894
Probable space group: P -1
;
_chemical_formula_sum "Si O2"
_cell_formula_units_Z 14
_cell_length_a 4.817266
_cell_length_b 26.411416
_cell_length_c 4.849552
_cell_angle_alpha 84.101791
_cell_angle_beta 113.495381
_cell_angle_gamma 68.581206
_cell_volume 503.996959
_symmetry_space_group_name_H-M "P -1"
_symmetry_group_IT_number 2
_symmetry_cell_setting 'triclinic'
loop_
_space_group_symop_operation_xyz
x,y,z
-x,-y,-z
loop_
_atom_site_type_symbol
_atom_site_label
_atom_site_fract_x
_atom_site_fract_y
_atom_site_fract_z
Si Si1 0.510860 0.945093 0.684193
Si Si2 0.245651 0.474209 0.864351
Si Si3 0.623552 0.646145 0.182558
Si Si4 0.071468 0.194313 0.837535
Si Si5 0.726035 0.094265 0.912840
Si Si6 0.207438 0.748795 0.735927
Si Si7 0.934806 0.315388 0.775524
O O1 0.381819 0.914760 0.426224
O O2 0.500000 0.000000 0.500000
O O3 0.712233 0.045123 0.134683
O O4 0.905835 0.908228 0.940539
O O5 0.405846 0.406678 0.925910
O O6 0.000000 0.500000 0.500000
O O7 0.500000 0.500000 0.000000
O O8 0.000000 0.500000 0.000000
O O9 0.022257 0.630595 0.345028
O O10 0.223286 0.798922 0.493147
O O11 0.155636 0.696047 0.926110
O O12 0.433664 0.149353 0.908627
O O13 0.014937 0.257039 0.639354
O O14 0.981882 0.206653 0.108994
O O15 0.487199 0.661083 0.434453
O O16 0.614003 0.708232 0.982915
#
# Coordination Sequence:
#
# PCOD9060894 Si02
#       7
#     2   2   2   2   2   2   2
#     4  12  26  47  73 104 140 191 245 290 351 415
#     4  12  29  47  75 105 143 183 241 301 352 415
#     4  11  23  44  69  95 136 181 228 278 355 404
#     4   9  21  41  63 101 132 177 224 278 354 410
#     4  12  25  45  72 103 143 185 230 304 352 415
#     4   9  21  41  62  95 131 173 222 273 336 429
#     4   9  23  39  66  94 131 173 222 273 336 429
#
# _framework density 27.777941999999999
#
# number of rings (size 3 to 8) (size 9 to 14) (size 15 to 20)
#    0.857    0.571    0.000    4.286    4.000    5.714 
#    5.143    0.000    0.000    0.000    0.000    0.000 
#    0.000    0.000    0.000    0.000    0.000    0.000 
#
# Total GULP energy -77979.141974 kJ/mol
# GULP energy per Si atom -5569.938712 kJ/mol
# Density = 2.771472 g / cm^3
# Si number density = 27.777942 Si / 1000 Ang^3
#
#
#
# Elastic Constant Matrix: (Units=GPa)
#
#
# Indices 1 2 3 4 5 6 
#
# 1 206.3240 8.3561 53.7355 13.5647 24.9050 -8.1482
# 2 8.3561 104.5616 29.6945 13.5506 10.8077 -15.0361
# 3 53.7355 29.6945 198.0874 13.9484 -1.2689 -3.4255
# 4 13.5647 13.5506 13.9484 38.4427 10.0489 5.5993
# 5 24.9050 10.8077 -1.2689 10.0489 43.1703 4.6861
# 6 -8.1482 -15.0361 -3.4255 5.5993 4.6861 39.3737
#
#
#
# Elastic Compliance Matrix: (Units=1/GPa)
#
#
# Indices 1 2 3 4 5 6 
#
# 1 0.005810 0.000779 -0.001605 -0.001097 -0.003549 0.001939
# 2 0.000779 0.011524 -0.001605 -0.003721 -0.003093 0.005320
# 3 -0.001605 -0.001605 0.005827 -0.001406 0.001876 -0.000461
# 4 -0.001097 -0.003721 -0.001406 0.030312 -0.004936 -0.005494
# 5 -0.003549 -0.003093 0.001876 -0.004936 0.027662 -0.004343
# 6 0.001939 0.005320 -0.000461 -0.005494 -0.004343 0.029088
#
#
# Mechanical properties :
#
#
# Convention : Reuss Voigt Hill
#
# Bulk Modulus (GPa) = 54.64198 76.94945 65.79571
# Shear Modulus (GPa) = 41.25931 52.00982 46.63456
#
# Velocity S-wave (km/s) = 3.85817 4.33175 4.10180
# Velocity P-wave (km/s) = 6.28976 7.26502 6.79491
#
# Compressibility (1/GPa) = 0.01830095
#
# Stress axis : x y z
#
# Youngs Moduli (GPa) = 172.10768 86.77439 171.60824
#
# Poissons Ratio (x) = -0.06762 0.27542
# Poissons Ratio (y) = -0.13413 0.27539
# Poissons Ratio (z) = 0.27622 0.13925
#
# Static dielectric constant tensor:
#      x y z
#    x 2.125000 0.063840 0.053210 
#    y 0.063840 2.467740 -0.157580 
#    z 0.053210 -0.157580 2.195170 
# 
# From -- ./inp_files/14168.got.cif
#   From: 2010.05.17/outbox.cif.g08.bks.cpg/sg2_8_cif.got.tgz:14168.got - 2010.06.03 11:33:40.
