data_PCOD9060249
_publ_section_title
;
Structure prediction by ZEFSAII (Michael W. Deem and Ramdas Pophale) SiO2 
 PCOD9060249
Probable space group: P -1
;
_chemical_formula_sum "Si O2"
_cell_formula_units_Z 16
_cell_length_a 10.796715
_cell_length_b 10.360330
_cell_length_c 12.003433
_cell_angle_alpha 99.795401
_cell_angle_beta 115.800927
_cell_angle_gamma 37.702300
_cell_volume 701.276204
_symmetry_space_group_name_H-M "P -1"
_symmetry_group_IT_number 2
_symmetry_cell_setting 'triclinic'
loop_
_space_group_symop_operation_xyz
x,y,z
-x,-y,-z
loop_
_atom_site_type_symbol
_atom_site_label
_atom_site_fract_x
_atom_site_fract_y
_atom_site_fract_z
Si Si1 0.815731 0.715523 0.037519
Si Si2 0.116319 0.747573 0.829120
Si Si3 0.715391 0.246955 0.675668
Si Si4 0.412924 0.526071 0.116957
Si Si5 0.275574 0.407598 0.557623
Si Si6 0.036748 0.831611 0.435775
Si Si7 0.652186 0.064204 0.142164
Si Si8 0.952463 0.486117 0.293662
O O1 0.860746 0.628645 0.168192
O O2 0.805850 0.880059 0.076544
O O3 0.563702 0.867562 0.915181
O O4 0.000000 0.500000 0.000000
O O5 0.373730 0.543509 0.843853
O O6 0.996438 0.701349 0.752249
O O7 0.185162 0.716833 0.979899
O O8 0.961736 0.985122 0.758081
O O9 0.644969 0.399850 0.768368
O O10 0.526403 0.275244 0.607824
O O11 0.755585 0.301524 0.589751
O O12 0.523468 0.299351 0.102488
O O13 0.106377 0.665665 0.524228
O O14 0.236221 0.373887 0.658330
O O15 0.174004 0.389088 0.420652
O O16 0.000000 0.000000 0.500000
O O17 0.813277 0.959185 0.296805
#
# Coordination Sequence:
#
# PCOD9060249 Si02
#       8
#     2   2   2   2   2   2   2   2
#     4  11  26  48  75 108 144 189 245 296 364 434
#     4  11  23  43  68 106 143 182 234 295 368 416
#     4  12  25  44  73 105 136 194 246 289 362 429
#     4  11  23  43  72 104 145 177 235 306 358 427
#     4  11  25  45  72  98 146 192 240 291 357 427
#     4  12  25  45  73 105 148 187 244 300 358 428
#     4  11  24  46  75 107 141 190 234 306 365 411
#     4  11  23  48  69  99 148 186 233 303 347 429
#
# _framework density 22.815546999999999
#
# number of rings (size 3 to 8) (size 9 to 14) (size 15 to 20)
#    0.000    0.750    5.000    2.250    1.750    1.500 
#   11.250    0.000    0.000    0.000    0.000    0.000 
#    0.000    0.000    0.000    0.000    0.000    0.000 
#
# Total GULP energy -89471.525169 kJ/mol
# GULP energy per Si atom -5591.970323 kJ/mol
# Density = 2.276362 g / cm^3
# Si number density = 22.815547 Si / 1000 Ang^3
#
#
#
# Elastic Constant Matrix: (Units=GPa)
#
#
# Indices 1 2 3 4 5 6 
#
# 1 74.4935 19.7945 47.8278 11.1505 1.4072 -2.6184
# 2 19.7945 91.2387 38.6779 14.8636 6.0347 8.1714
# 3 47.8278 38.6779 131.1863 9.9006 13.8366 -12.5507
# 4 11.1505 14.8636 9.9006 43.8560 3.0640 2.6554
# 5 1.4072 6.0347 13.8366 3.0640 46.5981 6.5307
# 6 -2.6184 8.1714 -12.5507 2.6554 6.5307 41.6736
#
#
#
# Elastic Compliance Matrix: (Units=1/GPa)
#
#
# Indices 1 2 3 4 5 6 
#
# 1 0.018135 -0.000783 -0.006410 -0.002977 0.001754 -0.000723
# 2 -0.000783 0.013626 -0.003847 -0.003337 0.000138 -0.003689
# 3 -0.006410 -0.003847 0.011869 0.000227 -0.003472 0.004456
# 4 -0.002977 -0.003337 0.000227 0.024765 -0.001051 -0.000878
# 5 0.001754 0.000138 -0.003472 -0.001051 0.023123 -0.004519
# 6 -0.000723 -0.003689 0.004456 -0.000878 -0.004519 0.026780
#
#
# Mechanical properties :
#
#
# Convention : Reuss Voigt Hill
#
# Bulk Modulus (GPa) = 46.40684 56.61321 51.51003
# Shear Modulus (GPa) = 33.88396 39.13342 36.50869
#
# Velocity S-wave (km/s) = 3.85791 4.14600 4.00455
# Velocity P-wave (km/s) = 6.34262 6.91277 6.63382
#
# Compressibility (1/GPa) = 0.02154855
#
# Stress axis : x y z
#
# Youngs Moduli (GPa) = 55.14275 73.38892 84.24987
#
# Poissons Ratio (x) = 0.05749 0.54005
# Poissons Ratio (y) = 0.04320 0.32414
# Poissons Ratio (z) = 0.35347 0.28236
#
# Static dielectric constant tensor:
#      x y z
#    x 1.930970 0.014690 -0.011690 
#    y 0.014690 1.859830 -0.000440 
#    z -0.011690 -0.000440 1.867410 
# 
# From -- ./inp_files/428574.got.cif
#   From: 2010.05.17/outbox.cif.g08.bks.cpg/sg2_215_cif.got.tgz:428574.got - 2010.06.03 11:33:40.
