data_PCOD9060789
_publ_section_title
;
Structure prediction by ZEFSAII (Michael W. Deem and Ramdas Pophale) SiO2 
 PCOD9060789
Probable space group: P -1
;
_chemical_formula_sum "Si O2"
_cell_formula_units_Z 16
_cell_length_a 22.307582
_cell_length_b 5.738027
_cell_length_c 9.393576
_cell_angle_alpha 53.979698
_cell_angle_beta 48.029017
_cell_angle_gamma 48.860206
_cell_volume 649.268981
_symmetry_space_group_name_H-M "P -1"
_symmetry_group_IT_number 2
_symmetry_cell_setting 'triclinic'
loop_
_space_group_symop_operation_xyz
x,y,z
-x,-y,-z
loop_
_atom_site_type_symbol
_atom_site_label
_atom_site_fract_x
_atom_site_fract_y
_atom_site_fract_z
Si Si1 0.341968 0.788444 0.684485
Si Si2 0.993554 0.357326 0.908073
Si Si3 0.789987 0.726294 0.078732
Si Si4 0.455372 0.170934 0.363136
Si Si5 0.049532 0.639932 0.484815
Si Si6 0.766012 0.698629 0.804000
Si Si7 0.427063 0.135456 0.944079
Si Si8 0.728068 0.271877 0.481702
O O1 0.411787 0.446328 0.760099
O O2 0.281760 0.820661 0.630964
O O3 0.272460 0.938479 0.871291
O O4 0.398506 0.977940 0.480937
O O5 0.065224 0.403426 0.678355
O O6 0.894117 0.609009 0.926632
O O7 0.000000 0.500000 0.000000
O O8 0.000000 0.000000 0.000000
O O9 0.779695 0.489202 0.296655
O O10 0.751595 0.705749 0.992918
O O11 0.376339 0.523458 0.382618
O O12 0.500000 0.000000 0.500000
O O13 0.532853 0.137753 0.143253
O O14 0.142696 0.595902 0.282457
O O15 0.000000 0.500000 0.500000
O O16 0.000000 0.000000 0.500000
O O17 0.776047 0.007259 0.618880
O O18 0.670344 0.760444 0.870592
O O19 0.500000 0.000000 0.000000
#
# Coordination Sequence:
#
# PCOD9060789 Si02
#       8
#     2   2   2   2   2   2   2   2
#     4  11  24  45  70 101 147 197 251 321 376 461
#     4  12  28  50  84 120 159 208 265 332 411 487
#     4  11  26  48  76 108 152 199 254 324 388 474
#     4  11  23  44  67  98 141 199 249 315 380 451
#     4  12  28  53  83 117 164 207 266 339 407 480
#     4  12  27  49  76 112 152 203 257 323 392 476
#     4  12  26  42  71 109 149 201 256 313 390 461
#     4  11  25  47  73 106 149 196 262 311 389 459
#
# _framework density 24.643101999999999
#
# number of rings (size 3 to 8) (size 9 to 14) (size 15 to 20)
#    0.000    0.500    3.750    3.375    8.750    0.500 
#    2.250    0.000    0.000    0.000    0.000    0.000 
#    0.000    0.000    0.000    0.000    0.000    0.000 
#
# Total GULP energy -89378.647307 kJ/mol
# GULP energy per Si atom -5586.165457 kJ/mol
# Density = 2.458701 g / cm^3
# Si number density = 24.643102 Si / 1000 Ang^3
#
#
#
# Elastic Constant Matrix: (Units=GPa)
#
#
# Indices 1 2 3 4 5 6 
#
# 1 81.8395 16.4511 2.9643 13.3355 -2.0259 -2.3736
# 2 16.4511 134.6323 38.6734 21.4628 0.1125 -0.0473
# 3 2.9643 38.6734 110.6495 18.7944 -0.0256 4.6727
# 4 13.3355 21.4628 18.7944 64.5395 -9.4251 -5.7943
# 5 -2.0259 0.1125 -0.0256 -9.4251 41.7146 6.6830
# 6 -2.3736 -0.0473 4.6727 -5.7943 6.6830 34.4387
#
#
#
# Elastic Compliance Matrix: (Units=1/GPa)
#
#
# Indices 1 2 3 4 5 6 
#
# 1 0.012862 -0.001347 0.000501 -0.002312 0.000039 0.000420
# 2 -0.001347 0.008663 -0.002672 -0.001896 -0.000529 0.000065
# 3 0.000501 -0.002672 0.010448 -0.002449 -0.000235 -0.001753
# 4 -0.002312 -0.001896 -0.002449 0.018063 0.003569 0.002517
# 5 0.000039 -0.000529 -0.000235 0.003569 0.025472 -0.004309
# 6 0.000420 0.000065 -0.001753 0.002517 -0.004309 0.030564
#
#
# Mechanical properties :
#
#
# Convention : Reuss Voigt Hill
#
# Bulk Modulus (GPa) = 40.10275 49.25544 44.67909
# Shear Modulus (GPa) = 41.17958 46.07406 43.62682
#
# Velocity S-wave (km/s) = 4.09227 4.32864 4.21211
# Velocity P-wave (km/s) = 6.21592 6.70923 6.46728
#
# Compressibility (1/GPa) = 0.02493595
#
# Stress axis : x y z
#
# Youngs Moduli (GPa) = 77.75123 115.43936 95.71064
#
# Poissons Ratio (x) = 0.15548 -0.04797
# Poissons Ratio (y) = 0.10472 0.25579
# Poissons Ratio (z) = -0.03897 0.30851
#
# Static dielectric constant tensor:
#      x y z
#    x 2.038250 0.021370 -0.018890 
#    y 0.021370 2.086430 -0.042410 
#    z -0.018890 -0.042410 2.025060 
# 
# From -- ./inp_files/350943.got.cif
#   From: 2010.05.17/outbox.cif.g08.bks.cpg/sg2_176_cif.got.tgz:350943.got - 2010.06.03 11:33:40.
