data_PCOD9060011
_publ_section_title
;
Structure prediction by ZEFSAII (Michael W. Deem and Ramdas Pophale) SiO2 
 PCOD9060011
Probable space group: P -1
;
_chemical_formula_sum "Si O2"
_cell_formula_units_Z 16
_cell_length_a 9.187132
_cell_length_b 9.981010
_cell_length_c 10.344813
_cell_angle_alpha 54.199009
_cell_angle_beta 120.801538
_cell_angle_gamma 122.404063
_cell_volume 621.643213
_symmetry_space_group_name_H-M "P -1"
_symmetry_group_IT_number 2
_symmetry_cell_setting 'triclinic'
loop_
_space_group_symop_operation_xyz
x,y,z
-x,-y,-z
loop_
_atom_site_type_symbol
_atom_site_label
_atom_site_fract_x
_atom_site_fract_y
_atom_site_fract_z
Si Si1 0.111357 0.520901 0.167633
Si Si2 0.381375 0.335023 0.444683
Si Si3 0.166071 0.033316 0.658152
Si Si4 0.998100 0.610330 0.336897
Si Si5 0.704177 0.583349 0.344471
Si Si6 0.364857 0.315562 0.999094
Si Si7 0.909110 0.994108 0.819828
Si Si8 0.379913 0.824149 0.979740
O O1 0.199951 0.374423 0.311389
O O2 0.006863 0.551640 0.227688
O O3 0.284287 0.693434 0.124661
O O4 0.000000 0.500000 0.000000
O O5 0.526432 0.419565 0.346943
O O6 0.256040 0.247491 0.647250
O O7 0.343435 0.135701 0.567985
O O8 0.000000 0.000000 0.500000
O O9 0.235645 0.862744 0.802702
O O10 0.036944 0.978722 0.773148
O O11 0.874912 0.510151 0.474810
O O12 0.778815 0.644458 0.194000
O O13 0.110900 0.812093 0.306779
O O14 0.500000 0.500000 0.500000
O O15 0.500000 0.500000 0.000000
O O16 0.482561 0.246875 0.994192
O O17 0.265677 0.178582 0.139550
O O18 0.000000 0.000000 0.000000
O O19 0.500000 0.000000 0.000000
#
# Coordination Sequence:
#
# PCOD9060011 Si02
#       8
#     2   2   2   2   2   2   2   2
#     4  12  26  44  71 109 147 191 254 313 374 457
#     4  11  23  45  71 103 146 196 243 308 380 460
#     4  12  27  47  73 109 152 194 247 322 388 446
#     4  12  24  43  73 111 147 198 255 312 381 464
#     4  11  23  42  73 103 144 192 253 302 381 452
#     4  12  28  47  74 113 154 196 253 325 386 445
#     4  12  24  48  75 107 147 204 258 314 375 468
#     4  12  27  48  76 111 146 202 258 311 378 469
#
# _framework density 25.738237000000002
#
# number of rings (size 3 to 8) (size 9 to 14) (size 15 to 20)
#    0.000    0.250    5.000    3.750    5.250    1.000 
#    0.000    0.625    0.000    0.000    0.000    0.000 
#    0.000    0.000    0.000    0.000    0.000    0.000 
#
# Total GULP energy -89102.706374 kJ/mol
# GULP energy per Si atom -5568.919148 kJ/mol
# Density = 2.567966 g / cm^3
# Si number density = 25.738237 Si / 1000 Ang^3
#
#
#
# Elastic Constant Matrix: (Units=GPa)
#
#
# Indices 1 2 3 4 5 6 
#
# 1 124.8342 49.6926 35.3089 14.8163 4.5278 -21.2754
# 2 49.6926 139.4419 56.2033 -23.0590 -14.9898 18.3112
# 3 35.3089 56.2033 168.3110 -12.5782 1.3461 -0.5298
# 4 14.8163 -23.0590 -12.5782 46.1454 3.8461 1.9495
# 5 4.5278 -14.9898 1.3461 3.8461 48.0861 -3.8618
# 6 -21.2754 18.3112 -0.5298 1.9495 -3.8618 41.6802
#
#
#
# Elastic Compliance Matrix: (Units=1/GPa)
#
#
# Indices 1 2 3 4 5 6 
#
# 1 0.014573 -0.008017 -0.001019 -0.009251 -0.002205 0.011176
# 2 -0.008017 0.014325 -0.002478 0.009192 0.003711 -0.010504
# 3 -0.001019 -0.002478 0.007071 0.001071 -0.000918 0.000523
# 4 -0.009251 0.009192 0.001071 0.029911 0.000503 -0.010099
# 5 -0.002205 0.003711 -0.000918 0.000503 0.022086 -0.000745
# 6 0.011176 -0.010504 0.000523 -0.010099 -0.000745 0.034722
#
#
# Mechanical properties :
#
#
# Convention : Reuss Voigt Hill
#
# Bulk Modulus (GPa) = 77.26247 79.44408 78.35327
# Shear Modulus (GPa) = 33.32671 46.60782 39.96727
#
# Velocity S-wave (km/s) = 3.60228 4.26001 3.94488
# Velocity P-wave (km/s) = 6.88372 7.42497 7.15946
#
# Compressibility (1/GPa) = 0.01294289
#
# Stress axis : x y z
#
# Youngs Moduli (GPa) = 68.62002 69.80577 141.41515
#
# Poissons Ratio (x) = 0.55966 0.14403
# Poissons Ratio (y) = 0.55016 0.35036
# Poissons Ratio (z) = 0.06989 0.17295
#
# Static dielectric constant tensor:
#      x y z
#    x 1.835400 0.046840 0.436270 
#    y 0.046840 2.050380 0.369820 
#    z 0.436270 0.369820 3.185290 
# 
# From -- ./inp_files/490799.got.cif
#   From: 2010.05.17/outbox.cif.g08.bks.cpg/sg2_246_cif.got.tgz:490799.got - 2010.06.03 11:33:40.
