data_PCOD9060910
_publ_section_title
;
Structure prediction by ZEFSAII (Michael W. Deem and Ramdas Pophale) SiO2 
 PCOD9060910
Probable space group: P -1
;
_chemical_formula_sum "Si O2"
_cell_formula_units_Z 14
_cell_length_a 14.432071
_cell_length_b 12.053592
_cell_length_c 9.540278
_cell_angle_alpha 75.168166
_cell_angle_beta 134.061269
_cell_angle_gamma 139.615533
_cell_volume 625.041932
_symmetry_space_group_name_H-M "P -1"
_symmetry_group_IT_number 2
_symmetry_cell_setting 'triclinic'
loop_
_space_group_symop_operation_xyz
x,y,z
-x,-y,-z
loop_
_atom_site_type_symbol
_atom_site_label
_atom_site_fract_x
_atom_site_fract_y
_atom_site_fract_z
Si Si1 0.866213 0.048324 0.583169
Si Si2 0.041780 0.414745 0.756930
Si Si3 0.324828 0.268385 0.941635
Si Si4 0.488086 0.038514 0.282634
Si Si5 0.239030 0.612585 0.188228
Si Si6 0.524859 0.844718 0.034178
Si Si7 0.383903 0.178877 0.309421
O O1 0.014918 0.273854 0.698566
O O2 0.663519 0.933996 0.296515
O O3 0.764730 0.929938 0.665937
O O4 0.049387 0.097232 0.689568
O O5 0.773647 0.263024 0.533224
O O6 0.173012 0.494454 0.017855
O O7 0.239746 0.639287 0.816988
O O8 0.340756 0.246047 0.130198
O O9 0.500000 0.500000 0.000000
O O10 0.407358 0.218699 0.959742
O O11 0.580076 0.143649 0.703001
O O12 0.361863 0.040209 0.247038
O O13 0.410923 0.005186 0.052398
O O14 0.343655 0.611128 0.418537
O O15 0.000000 0.500000 0.000000
#
# Coordination Sequence:
#
# PCOD9060910 Si02
#       7
#     2   2   2   2   2   2   2
#     4  12  24  45  70  95 137 175 228 276 325 393
#     4  12  22  40  70  97 139 173 222 263 336 392
#     4  11  25  47  71  94 131 176 228 280 332 389
#     4  11  24  42  67 101 142 174 215 272 335 401
#     4  12  23  40  67 100 139 174 220 266 334 402
#     4  11  25  43  69 100 133 180 220 272 339 393
#     4  11  23  44  69  99 132 178 218 275 334 392
#
# _framework density 22.398498
#
# number of rings (size 3 to 8) (size 9 to 14) (size 15 to 20)
#    0.000    0.571    5.714    2.571    0.000    4.571 
#    0.000    4.286    0.000    0.000    0.000    0.000 
#    0.000    0.000    0.000    0.000    0.000    0.000 
#
# Total GULP energy -78161.074614 kJ/mol
# GULP energy per Si atom -5582.933901 kJ/mol
# Density = 2.234752 g / cm^3
# Si number density = 22.398498 Si / 1000 Ang^3
#
#
#
# Elastic Constant Matrix: (Units=GPa)
#
#
# Indices 1 2 3 4 5 6 
#
# 1 56.4627 16.9741 15.0145 8.5645 2.0296 14.4256
# 2 16.9741 86.2484 54.0757 -13.4160 -7.7494 11.8181
# 3 15.0145 54.0757 133.1296 -3.8629 -8.0201 14.4580
# 4 8.5645 -13.4160 -3.8629 37.9840 9.4658 2.6515
# 5 2.0296 -7.7494 -8.0201 9.4658 45.1096 0.7086
# 6 14.4256 11.8181 14.4580 2.6515 0.7086 30.5947
#
#
#
# Elastic Compliance Matrix: (Units=1/GPa)
#
#
# Indices 1 2 3 4 5 6 
#
# 1 0.021939 -0.004031 -0.000133 -0.005717 -0.000374 -0.008220
# 2 -0.004031 0.017735 -0.006231 0.006523 0.000792 -0.002589
# 3 -0.000133 -0.006231 0.010340 -0.001222 0.001067 -0.002336
# 4 -0.005717 0.006523 -0.001222 0.031262 -0.005371 -0.001831
# 5 -0.000374 0.000792 0.001067 -0.005371 0.023649 -0.000716
# 6 -0.008220 -0.002589 -0.002336 -0.001831 -0.000716 0.038841
#
#
# Mechanical properties :
#
#
# Convention : Reuss Voigt Hill
#
# Bulk Modulus (GPa) = 34.21802 49.77436 41.99619
# Shear Modulus (GPa) = 28.68695 35.38942 32.03818
#
# Velocity S-wave (km/s) = 3.58264 3.97922 3.78613
# Velocity P-wave (km/s) = 5.69420 6.58655 6.15656
#
# Compressibility (1/GPa) = 0.02922436
#
# Stress axis : x y z
#
# Youngs Moduli (GPa) = 45.58155 56.38595 96.71333
#
# Poissons Ratio (x) = 0.22729 0.01283
# Poissons Ratio (y) = 0.18374 0.60261
# Poissons Ratio (z) = 0.00605 0.35134
#
# Static dielectric constant tensor:
#      x y z
#    x 1.888910 0.092580 -0.008010 
#    y 0.092580 1.864010 0.044110 
#    z -0.008010 0.044110 1.940540 
# 
# From -- ./inp_files/315136.got.cif
#   From: 2010.05.17/outbox.cif.g08.bks.cpg/sg2_158_cif.got.tgz:315136.got - 2010.06.03 11:33:40.
