data_PCOD9060993
_publ_section_title
;
Structure prediction by ZEFSAII (Michael W. Deem and Ramdas Pophale) SiO2 
 PCOD9060993
Probable space group: P -1
;
_chemical_formula_sum "Si O2"
_cell_formula_units_Z 16
_cell_length_a 14.480277
_cell_length_b 17.750943
_cell_length_c 11.501470
_cell_angle_alpha 126.121203
_cell_angle_beta 33.320134
_cell_angle_gamma 149.799864
_cell_volume 716.512569
_symmetry_space_group_name_H-M "P -1"
_symmetry_group_IT_number 2
_symmetry_cell_setting 'triclinic'
loop_
_space_group_symop_operation_xyz
x,y,z
-x,-y,-z
loop_
_atom_site_type_symbol
_atom_site_label
_atom_site_fract_x
_atom_site_fract_y
_atom_site_fract_z
Si Si1 0.246652 0.738315 0.404355
Si Si2 0.965445 0.060704 0.991059
Si Si3 0.152419 0.309888 0.656115
Si Si4 0.295643 0.267882 0.255331
Si Si5 0.180891 0.296327 0.163060
Si Si6 0.129939 0.096716 0.598836
Si Si7 0.218030 0.679077 0.875800
Si Si8 0.980775 0.543014 0.751393
O O1 0.118163 0.605688 0.324143
O O2 0.097459 0.767904 0.562772
O O3 0.120066 0.652260 0.587574
O O4 0.612517 0.907640 0.183376
O O5 0.092888 0.212069 0.056167
O O6 0.153411 0.124398 0.737238
O O7 0.000000 0.000000 0.000000
O O8 0.500000 0.500000 0.500000
O O9 0.157765 0.288479 0.493717
O O10 0.089808 0.180323 0.663096
O O11 0.916368 0.281802 0.913654
O O12 0.225021 0.242161 0.169582
O O13 0.662186 0.441343 0.035320
O O14 0.154204 0.105836 0.303668
O O15 0.500000 0.500000 0.000000
O O16 0.438947 0.185245 0.319496
O O17 0.196787 0.653753 0.735988
O O18 0.000000 0.500000 0.000000
#
# Coordination Sequence:
#
# PCOD9060993 Si02
#       8
#     2   2   2   2   2   2   2   2
#     4  11  25  43  72 105 144 193 234 292 363 440
#     4  12  25  48  71 105 148 186 236 296 372 426
#     4  12  27  48  77 103 141 194 244 299 367 427
#     4  12  25  50  69 107 146 190 240 299 361 425
#     4  12  27  42  72 109 148 188 240 298 359 441
#     4  12  27  48  77 104 148 188 241 311 357 430
#     4  12  27  46  75 108 140 188 245 300 363 434
#     4  11  23  44  71 102 146 187 236 290 363 429
#
# _framework density 22.330383999999999
#
# number of rings (size 3 to 8) (size 9 to 14) (size 15 to 20)
#    0.000    0.250    6.250    1.500    8.750    1.500 
#    0.000    0.000    0.000    0.000    0.000    0.000 
#    0.000    0.000    0.000    0.000    0.000    0.000 
#
# Total GULP energy -89538.864028 kJ/mol
# GULP energy per Si atom -5596.179002 kJ/mol
# Density = 2.227956 g / cm^3
# Si number density = 22.330384 Si / 1000 Ang^3
#
#
#
# Elastic Constant Matrix: (Units=GPa)
#
#
# Indices 1 2 3 4 5 6 
#
# 1 73.4607 20.7918 34.2920 10.2024 -4.1362 1.1454
# 2 20.7918 96.7580 44.9496 14.5793 -1.5744 1.3937
# 3 34.2920 44.9496 144.2759 5.2762 -17.8038 -0.1776
# 4 10.2024 14.5793 5.2762 40.1895 8.2774 8.4776
# 5 -4.1362 -1.5744 -17.8038 8.2774 43.8872 7.5239
# 6 1.1454 1.3937 -0.1776 8.4776 7.5239 35.6615
#
#
#
# Elastic Compliance Matrix: (Units=1/GPa)
#
#
# Indices 1 2 3 4 5 6 
#
# 1 0.015989 -0.001476 -0.003122 -0.003307 0.000785 0.000149
# 2 -0.001476 0.012879 -0.003582 -0.003839 -0.000500 0.000544
# 3 -0.003122 -0.003582 0.009189 0.000303 0.003332 -0.000489
# 4 -0.003307 -0.003839 0.000303 0.029275 -0.004875 -0.005673
# 5 0.000785 -0.000500 0.003332 -0.004875 0.025847 -0.004283
# 6 0.000149 0.000544 -0.000489 -0.005673 -0.004283 0.030265
#
#
# Mechanical properties :
#
#
# Convention : Reuss Voigt Hill
#
# Bulk Modulus (GPa) = 46.09342 57.17348 51.63345
# Shear Modulus (GPa) = 34.00476 38.24505 36.12490
#
# Velocity S-wave (km/s) = 3.90654 4.14296 4.02649
# Velocity P-wave (km/s) = 6.40582 6.96739 6.69249
#
# Compressibility (1/GPa) = 0.02169507
#
# Stress axis : x y z
#
# Youngs Moduli (GPa) = 62.54185 77.64642 108.82854
#
# Poissons Ratio (x) = 0.11464 0.33980
# Poissons Ratio (y) = 0.09234 0.38984
# Poissons Ratio (z) = 0.19528 0.27814
#
# Static dielectric constant tensor:
#      x y z
#    x 1.881960 0.053810 0.003610 
#    y 0.053810 1.820270 0.012370 
#    z 0.003610 0.012370 1.813200 
# 
# From -- ./inp_files/226732.got.cif
#   From: 2010.05.17/outbox.cif.g08.bks.cpg/sg2_114_cif.got.tgz:226732.got - 2010.06.03 11:33:40.
