data_PCOD9060579
_publ_section_title
;
Structure prediction by ZEFSAII (Michael W. Deem and Ramdas Pophale) SiO2 
 PCOD9060579
Probable space group: P -1
;
_chemical_formula_sum "Si O2"
_cell_formula_units_Z 14
_cell_length_a 16.704866
_cell_length_b 9.279075
_cell_length_c 10.185906
_cell_angle_alpha 111.231964
_cell_angle_beta 35.887579
_cell_angle_gamma 134.298189
_cell_volume 579.125890
_symmetry_space_group_name_H-M "P -1"
_symmetry_group_IT_number 2
_symmetry_cell_setting 'triclinic'
loop_
_space_group_symop_operation_xyz
x,y,z
-x,-y,-z
loop_
_atom_site_type_symbol
_atom_site_label
_atom_site_fract_x
_atom_site_fract_y
_atom_site_fract_z
Si Si1 0.085534 0.745959 0.474429
Si Si2 0.764810 0.552123 0.048383
Si Si3 0.456581 0.024139 0.252332
Si Si4 0.485264 0.492779 0.223574
Si Si5 0.722506 0.148977 0.305315
Si Si6 0.341835 0.130493 0.080655
Si Si7 0.882680 0.625730 0.221912
O O1 0.314074 0.918841 0.281904
O O2 0.000000 0.500000 0.500000
O O3 0.124291 0.878412 0.334759
O O4 0.946206 0.716048 0.755760
O O5 0.594944 0.533265 0.224939
O O6 0.834326 0.610356 0.125810
O O7 0.655133 0.295639 0.083338
O O8 0.314900 0.957309 0.539421
O O9 0.521025 0.902210 0.146856
O O10 0.441692 0.309915 0.128001
O O11 0.267102 0.387669 0.506278
O O12 0.634700 0.731591 0.024632
O O13 0.823955 0.402200 0.267884
O O14 0.500000 0.000000 0.500000
O O15 0.872576 0.169949 0.026580
#
# Coordination Sequence:
#
# PCOD9060579 Si02
#       7
#     2   2   2   2   2   2   2
#     4  12  24  42  73 107 138 190 248 294 350 419
#     4  12  24  43  73 106 143 189 239 299 350 425
#     4  12  22  45  71 104 143 181 249 300 348 415
#     4  11  25  46  68 105 155 189 229 290 367 430
#     4  11  23  43  73 105 136 182 239 305 350 416
#     4  11  24  45  70 101 147 191 233 301 349 427
#     4  11  24  45  71 105 141 185 242 288 362 431
#
# _framework density 24.174363
#
# number of rings (size 3 to 8) (size 9 to 14) (size 15 to 20)
#    0.000    0.571    7.143    1.714    0.000    0.571 
#    2.571    1.429    0.000    0.000    0.000    0.000 
#    0.000    0.000    0.000    0.000    0.000    0.000 
#
# Total GULP energy -78321.686371 kJ/mol
# GULP energy per Si atom -5594.406169 kJ/mol
# Density = 2.411934 g / cm^3
# Si number density = 24.174363 Si / 1000 Ang^3
#
#
#
# Elastic Constant Matrix: (Units=GPa)
#
#
# Indices 1 2 3 4 5 6 
#
# 1 69.6408 24.9173 16.8909 -12.4908 3.7377 -7.5339
# 2 24.9173 91.0702 31.2663 -20.2234 7.6539 -15.9027
# 3 16.8909 31.2663 144.6785 -14.2055 12.9822 -6.2004
# 4 -12.4908 -20.2234 -14.2055 24.3915 -5.8459 3.1732
# 5 3.7377 7.6539 12.9822 -5.8459 44.8036 -7.2191
# 6 -7.5339 -15.9027 -6.2004 3.1732 -7.2191 33.7846
#
#
#
# Elastic Compliance Matrix: (Units=1/GPa)
#
#
# Indices 1 2 3 4 5 6 
#
# 1 0.016730 -0.002768 -0.000749 0.005677 0.000329 0.001827
# 2 -0.002768 0.015454 -0.001857 0.009668 0.000271 0.005466
# 3 -0.000749 -0.001857 0.007756 0.002232 -0.001604 -0.000170
# 4 0.005677 0.009668 0.002232 0.054051 0.004625 0.002138
# 5 0.000329 0.000271 -0.001604 0.004625 0.024057 0.004613
# 6 0.001827 0.005466 -0.000170 0.002138 0.004613 0.033333
#
#
# Mechanical properties :
#
#
# Convention : Reuss Voigt Hill
#
# Bulk Modulus (GPa) = 34.25626 50.17094 42.21360
# Shear Modulus (GPa) = 29.09319 36.08359 32.58839
#
# Velocity S-wave (km/s) = 3.47287 3.86766 3.67557
# Velocity P-wave (km/s) = 5.50294 6.38309 5.95929
#
# Compressibility (1/GPa) = 0.02919175
#
# Stress axis : x y z
#
# Youngs Moduli (GPa) = 59.77380 64.70733 128.92498
#
# Poissons Ratio (x) = 0.17912 0.09653
# Poissons Ratio (y) = 0.16546 0.23947
# Poissons Ratio (z) = 0.04476 0.12019
#
# Static dielectric constant tensor:
#      x y z
#    x 1.901640 0.019510 -0.010450 
#    y 0.019510 1.898180 -0.004050 
#    z -0.010450 -0.004050 1.946040 
# 
# From -- ./inp_files/405304.got.cif
#   From: 2010.05.17/outbox.cif.g08.bks.cpg/sg2_203_cif.got.tgz:405304.got - 2010.06.03 11:33:40.
