data_PCOD9060181
_publ_section_title
;
Structure prediction by ZEFSAII (Michael W. Deem and Ramdas Pophale) SiO2 
 PCOD9060181
Probable space group: P -1
;
_chemical_formula_sum "Si O2"
_cell_formula_units_Z 14
_cell_length_a 28.671832
_cell_length_b 23.579175
_cell_length_c 8.631930
_cell_angle_alpha 144.023536
_cell_angle_beta 144.113838
_cell_angle_gamma 10.449547
_cell_volume 616.107403
_symmetry_space_group_name_H-M "P -1"
_symmetry_group_IT_number 2
_symmetry_cell_setting 'triclinic'
loop_
_space_group_symop_operation_xyz
x,y,z
-x,-y,-z
loop_
_atom_site_type_symbol
_atom_site_label
_atom_site_fract_x
_atom_site_fract_y
_atom_site_fract_z
Si Si1 0.638691 0.239407 0.851113
Si Si2 0.144750 0.750053 0.244378
Si Si3 0.766143 0.331843 0.030019
Si Si4 0.734950 0.578762 0.589111
Si Si5 0.822197 0.825390 0.281012
Si Si6 0.714529 0.591748 0.934557
Si Si7 0.118131 0.284751 0.456498
O O1 0.487338 0.390845 0.935795
O O2 0.680098 0.091276 0.541287
O O3 0.500000 0.500000 0.000000
O O4 0.923962 0.943404 0.997889
O O5 0.267477 0.534631 0.218631
O O6 0.293956 0.616923 0.200006
O O7 0.000000 0.000000 0.500000
O O8 0.839884 0.356710 0.316857
O O9 0.000000 0.000000 0.000000
O O10 0.748313 0.559494 0.768659
O O11 0.928687 0.435310 0.726565
O O12 0.432606 0.928651 0.495848
O O13 0.908194 0.675932 0.341970
O O14 0.591932 0.030381 0.032769
O O15 0.944994 0.390245 0.181248
O O16 0.000000 0.500000 0.500000
#
# Coordination Sequence:
#
# PCOD9060181 Si02
#       7
#     2   2   2   2   2   2   2
#     4  12  21  39  62  90 136 180 220 279 332 394
#     4  12  24  37  63  97 136 180 231 276 337 408
#     4  12  21  38  64  91 135 183 224 273 338 398
#     4  11  23  43  70  99 136 182 224 284 348 403
#     4  11  23  44  68  97 137 176 223 288 339 401
#     4  11  23  43  67 102 134 174 235 279 341 411
#     4  11  25  47  71  98 140 181 225 288 348 406
#
# _framework density 22.723310999999999
#
# number of rings (size 3 to 8) (size 9 to 14) (size 15 to 20)
#    0.000    0.571    7.143    1.714    0.000    6.857 
#    0.000    1.429    0.000    0.000    0.000    0.000 
#    0.000    0.000    0.000    0.000    0.000    0.000 
#
# Total GULP energy -78086.370275 kJ/mol
# GULP energy per Si atom -5577.597877 kJ/mol
# Density = 2.267159 g / cm^3
# Si number density = 22.723311 Si / 1000 Ang^3
#
#
#
# Elastic Constant Matrix: (Units=GPa)
#
#
# Indices 1 2 3 4 5 6 
#
# 1 177.1640 78.7610 25.5513 0.9831 -5.0360 -3.8568
# 2 78.7610 136.4316 37.0219 -19.0037 -11.2524 6.9068
# 3 25.5513 37.0219 55.8160 -5.5404 1.6021 -4.4984
# 4 0.9831 -19.0037 -5.5404 32.9661 8.0997 6.3035
# 5 -5.0360 -11.2524 1.6021 8.0997 14.3360 2.6899
# 6 -3.8568 6.9068 -4.4984 6.3035 2.6899 61.5979
#
#
#
# Elastic Compliance Matrix: (Units=1/GPa)
#
#
# Indices 1 2 3 4 5 6 
#
# 1 0.008019 -0.004963 -0.000658 -0.003669 0.000814 0.001350
# 2 -0.004963 0.013515 -0.006581 0.005734 0.006960 -0.003197
# 3 -0.000658 -0.006581 0.023267 0.002000 -0.009616 0.002611
# 4 -0.003669 0.005734 0.002000 0.039392 -0.018527 -0.003949
# 5 0.000814 0.006960 -0.009616 -0.018527 0.087677 -0.003365
# 6 0.001350 -0.003197 0.002611 -0.003949 -0.003365 0.017419
#
#
# Mechanical properties :
#
#
# Convention : Reuss Voigt Hill
#
# Bulk Modulus (GPa) = 49.02419 72.45333 60.73876
# Shear Modulus (GPa) = 22.67666 36.98515 29.83091
#
# Velocity S-wave (km/s) = 3.16246 4.03877 3.62717
# Velocity P-wave (km/s) = 5.91237 7.32824 6.65805
#
# Compressibility (1/GPa) = 0.02039809
#
# Stress axis : x y z
#
# Youngs Moduli (GPa) = 124.71093 73.99136 42.97930
#
# Poissons Ratio (x) = 0.36721 0.02827
# Poissons Ratio (y) = 0.61892 0.28284
# Poissons Ratio (z) = 0.08202 0.48692
#
# Static dielectric constant tensor:
#      x y z
#    x 1.010790 0.222350 -0.451700 
#    y 0.222350 1.832780 0.330520 
#    z -0.451700 0.330520 -0.450580 
# 
# From -- ./inp_files/315243.got.cif
#   From: 2010.05.17/outbox.cif.g08.bks.cpg/sg2_158_cif.got.tgz:315243.got - 2010.06.03 11:33:40.
