data_PCOD9060093
_publ_section_title
;
Structure prediction by ZEFSAII (Michael W. Deem and Ramdas Pophale) SiO2 
 PCOD9060093
Probable space group: P -1
;
_chemical_formula_sum "Si O2"
_cell_formula_units_Z 15
_cell_length_a 9.099118
_cell_length_b 9.557435
_cell_length_c 11.912514
_cell_angle_alpha 105.481730
_cell_angle_beta 141.142466
_cell_angle_gamma 69.086113
_cell_volume 607.020849
_symmetry_space_group_name_H-M "P -1"
_symmetry_group_IT_number 2
_symmetry_cell_setting 'triclinic'
loop_
_space_group_symop_operation_xyz
x,y,z
-x,-y,-z
loop_
_atom_site_type_symbol
_atom_site_label
_atom_site_fract_x
_atom_site_fract_y
_atom_site_fract_z
Si Si1 0.228614 0.527139 0.569797
Si Si2 0.637741 0.404859 0.960882
Si Si3 0.864007 0.649415 0.844834
Si Si4 0.540684 0.104405 0.887404
Si Si5 0.500000 0.500000 0.500000
Si Si6 0.964648 0.848181 0.142278
Si Si7 0.674799 0.975603 0.703785
Si Si8 0.011974 0.838531 0.417476
O O1 0.454463 0.437795 0.756152
O O2 0.296370 0.476177 0.470677
O O3 0.000000 0.500000 0.500000
O O4 0.164777 0.708456 0.558865
O O5 0.679513 0.234361 0.989330
O O6 0.500000 0.500000 0.000000
O O7 0.884965 0.439366 0.078165
O O8 0.650246 0.566940 0.698880
O O9 0.779409 0.802598 0.756067
O O10 0.924335 0.709483 0.016553
O O11 0.262655 0.174877 0.765234
O O12 0.531196 0.040702 0.743408
O O13 0.705358 0.967947 0.026354
O O14 0.103040 0.814777 0.336775
O O15 0.122969 0.933734 0.179521
O O16 0.500000 0.000000 0.500000
O O17 0.000000 0.000000 0.500000
#
# Coordination Sequence:
#
# PCOD9060093 Si02
#       8
#     2   2   2   2   1   2   2   2
#     4  12  30  54  77 118 169 219 272 333 418 496
#     4  12  26  47  81 110 164 220 269 330 419 502
#     4  11  26  50  77 117 157 214 276 336 410 492
#     4  11  23  46  72 114 149 208 258 329 404 480
#     4  12  32  50  82 114 164 216 280 340 406 496
#     4  11  24  47  79 117 155 202 271 333 405 481
#     4  11  23  42  82 111 152 200 260 331 400 476
#     4  12  29  47  79 118 161 206 267 342 412 479
#
# _framework density 24.710846
#
# number of rings (size 3 to 8) (size 9 to 14) (size 15 to 20)
#    0.000    0.533    4.000    2.800   11.200    3.733 
#    0.000    0.000    0.000    0.000    0.000    0.000 
#    0.000    0.000    0.000    0.000    0.000    0.000 
#
# Total GULP energy -83751.509035 kJ/mol
# GULP energy per Si atom -5583.433936 kJ/mol
# Density = 2.465460 g / cm^3
# Si number density = 24.710846 Si / 1000 Ang^3
#
#
#
# Elastic Constant Matrix: (Units=GPa)
#
#
# Indices 1 2 3 4 5 6 
#
# 1 123.1046 34.8099 21.0847 -0.1659 6.8853 4.7890
# 2 34.8099 84.1579 21.9717 13.1309 -10.5561 3.0935
# 3 21.0847 21.9717 89.0945 23.7021 5.7771 5.8199
# 4 -0.1659 13.1309 23.7021 40.4289 8.0668 2.3107
# 5 6.8853 -10.5561 5.7771 8.0668 55.8955 0.3276
# 6 4.7890 3.0935 5.8199 2.3107 0.3276 30.2263
#
#
#
# Elastic Compliance Matrix: (Units=1/GPa)
#
#
# Indices 1 2 3 4 5 6 
#
# 1 0.009826 -0.004300 -0.001863 0.003036 -0.002262 -0.000966
# 2 -0.004300 0.015429 -0.001764 -0.004845 0.004326 -0.000235
# 3 -0.001863 -0.001764 0.014264 -0.007607 -0.000470 -0.001684
# 4 0.003036 -0.004845 -0.007607 0.031848 -0.005094 -0.000900
# 5 -0.002262 0.004326 -0.000470 -0.005094 0.019769 0.000181
# 6 -0.000966 -0.000235 -0.001684 -0.000900 0.000181 0.033652
#
#
# Mechanical properties :
#
#
# Convention : Reuss Voigt Hill
#
# Bulk Modulus (GPa) = 42.25447 50.23218 46.24332
# Shear Modulus (GPa) = 33.66325 39.87618 36.76971
#
# Velocity S-wave (km/s) = 3.69492 4.02146 3.86164
# Velocity P-wave (km/s) = 5.94474 6.47572 6.21590
#
# Compressibility (1/GPa) = 0.02366613
#
# Stress axis : x y z
#
# Youngs Moduli (GPa) = 101.76750 64.81460 70.10598
#
# Poissons Ratio (x) = 0.27870 0.13060
# Poissons Ratio (y) = 0.43760 0.12364
# Poissons Ratio (z) = 0.18958 0.11431
#
# Static dielectric constant tensor:
#      x y z
#    x 2.025790 -0.036060 -0.035350 
#    y -0.036060 2.010530 -0.012430 
#    z -0.035350 -0.012430 2.080790 
# 
# From -- ./inp_files/382812.got.cif
#   From: 2010.05.17/outbox.cif.g08.bks.cpg/sg2_192_cif.got.tgz:382812.got - 2010.06.03 11:33:40.
