data_PCOD9060200
_publ_section_title
;
Structure prediction by ZEFSAII (Michael W. Deem and Ramdas Pophale) SiO2 
 PCOD9060200
Probable space group: P -1
;
_chemical_formula_sum "Si O2"
_cell_formula_units_Z 14
_cell_length_a 20.290828
_cell_length_b 8.621447
_cell_length_c 8.979441
_cell_angle_alpha 147.974752
_cell_angle_beta 128.510150
_cell_angle_gamma 54.010502
_cell_volume 645.029785
_symmetry_space_group_name_H-M "P -1"
_symmetry_group_IT_number 2
_symmetry_cell_setting 'triclinic'
loop_
_space_group_symop_operation_xyz
x,y,z
-x,-y,-z
loop_
_atom_site_type_symbol
_atom_site_label
_atom_site_fract_x
_atom_site_fract_y
_atom_site_fract_z
Si Si1 0.500000 0.329392 0.210240
Si Si2 0.757613 0.626909 0.841315
Si Si3 0.056180 0.400993 0.851185
Si Si4 0.330666 0.715630 0.775355
Si Si5 0.056180 0.042827 0.261177
Si Si6 0.330665 0.453705 0.885975
Si Si7 0.757614 0.115477 0.673914
O O1 0.500000 0.500000 0.500000
O O2 0.584093 0.364673 0.265214
O O3 0.415906 0.448766 0.097028
O O4 0.500000 0.000000 0.000000
O O5 0.746141 0.443318 0.527345
O O6 0.742108 0.378945 0.742108
O O7 0.848858 0.740745 0.083798
O O8 0.692933 0.930321 0.986742
O O9 0.025503 0.237249 0.525504
O O10 0.000000 0.500000 0.000000
O O11 0.072859 0.713571 0.072859
O O12 0.346668 0.576667 0.846669
O O13 0.151142 0.089604 0.386082
O O14 0.000000 0.000000 0.000000
O O15 0.307066 0.123254 0.600873
O O16 0.253858 0.689459 0.035060
#
# Coordination Sequence:
#
# PCOD9060200 Si02
#       7
#     2   2   2   2   2   2   2
#     4  12  25  42  67  92 125 172 213 256 319 392
#     4  11  23  43  67  92 128 174 217 259 321 396
#     4  11  24  42  66  96 131 172 219 273 327 390
#     4  12  25  42  65  98 130 164 213 274 323 376
#     4  11  24  42  66  96 131 172 219 273 327 390
#     4  12  25  42  65  98 130 164 213 274 323 376
#     4  11  23  43  67  92 128 174 217 259 321 396
#
# _framework density 21.704423999999999
#
# number of rings (size 3 to 8) (size 9 to 14) (size 15 to 20)
#    0.000    0.571    0.000   10.714    0.000    3.429 
#    0.000    4.286    0.000    0.000    0.000    0.000 
#    0.000    0.000    0.000    0.000    0.000    0.000 
#
# Total GULP energy -78037.298875 kJ/mol
# GULP energy per Si atom -5574.092777 kJ/mol
# Density = 2.165502 g / cm^3
# Si number density = 21.704424 Si / 1000 Ang^3
#
#
#
# Elastic Constant Matrix: (Units=GPa)
#
#
# Indices 1 2 3 4 5 6 
#
# 1 164.7511 26.5279 43.9707 -3.6183 -12.2387 25.4044
# 2 26.5279 146.6944 51.4319 -29.6806 -14.3572 -0.5694
# 3 43.9707 51.4319 154.4604 0.4089 -17.4949 10.1274
# 4 -3.6183 -29.6806 0.4089 39.9643 1.1016 -9.4707
# 5 -12.2387 -14.3572 -17.4949 1.1016 35.8777 -4.4375
# 6 25.4044 -0.5694 10.1274 -9.4707 -4.4375 23.1694
#
#
#
# Elastic Compliance Matrix: (Units=1/GPa)
#
#
# Indices 1 2 3 4 5 6 
#
# 1 0.008042 -0.001612 -0.001073 -0.002699 0.000496 -0.009397
# 2 -0.001612 0.010453 -0.003251 0.009429 0.002726 0.007822
# 3 -0.001073 -0.003251 0.008340 -0.003503 0.002064 -0.003585
# 4 -0.002699 0.009429 -0.003503 0.036518 0.002513 0.020130
# 5 0.000496 0.002726 0.002064 0.002513 0.030747 0.005537
# 6 -0.009397 0.007822 -0.003585 0.020130 0.005537 0.064512
#
#
# Mechanical properties :
#
#
# Convention : Reuss Voigt Hill
#
# Bulk Modulus (GPa) = 66.82957 78.86298 72.84628
# Shear Modulus (GPa) = 28.49465 42.73397 35.61431
#
# Velocity S-wave (km/s) = 3.62726 4.44205 4.05517
# Velocity P-wave (km/s) = 6.95703 7.91978 7.45397
#
# Compressibility (1/GPa) = 0.01496344
#
# Stress axis : x y z
#
# Youngs Moduli (GPa) = 124.34287 95.66579 119.90037
#
# Poissons Ratio (x) = 0.15422 0.12868
# Poissons Ratio (y) = 0.20044 0.38977
# Poissons Ratio (z) = 0.13345 0.31099
#
# Static dielectric constant tensor:
#      x y z
#    x 1.818840 -0.052490 -0.000840 
#    y -0.052490 1.782760 -0.020690 
#    z -0.000840 -0.020690 1.813230 
# 
# From -- ./inp_files/343951.got.cif
#   From: 2010.05.17/outbox.cif.g08.bks.cpg/sg2_172_cif.got.tgz:343951.got - 2010.06.03 11:33:40.
