data_PCOD9060215
_publ_section_title
;
Structure prediction by ZEFSAII (Michael W. Deem and Ramdas Pophale) SiO2 
 PCOD9060215
Probable space group: P -1
;
_chemical_formula_sum "Si O2"
_cell_formula_units_Z 12
_cell_length_a 12.552133
_cell_length_b 8.777337
_cell_length_c 7.570727
_cell_angle_alpha 144.485916
_cell_angle_beta 101.749908
_cell_angle_gamma 74.083215
_cell_volume 465.668125
_symmetry_space_group_name_H-M "P -1"
_symmetry_group_IT_number 2
_symmetry_cell_setting 'triclinic'
loop_
_space_group_symop_operation_xyz
x,y,z
-x,-y,-z
loop_
_atom_site_type_symbol
_atom_site_label
_atom_site_fract_x
_atom_site_fract_y
_atom_site_fract_z
Si Si1 0.290566 0.445888 0.684898
Si Si2 0.591272 0.357579 0.531095
Si Si3 0.719525 0.788843 0.932562
Si Si4 0.925916 0.281612 0.286035
Si Si5 0.664545 0.124657 0.663434
Si Si6 0.878869 0.055369 0.422399
O O1 0.290899 0.321689 0.371344
O O2 0.169250 0.633900 0.810156
O O3 0.313981 0.181794 0.561347
O O4 0.358122 0.664446 0.985592
O O5 0.500000 0.500000 0.500000
O O6 0.654375 0.594683 0.832443
O O7 0.568484 0.212533 0.567937
O O8 0.660161 0.100170 0.208736
O O9 0.837630 0.805473 0.075833
O O10 0.882424 0.251914 0.442307
O O11 0.000000 0.500000 0.500000
O O12 0.000000 0.000000 0.000000
O O13 0.779780 0.144851 0.614928
O O14 0.000000 0.000000 0.500000
#
# Coordination Sequence:
#
# PCOD9060215 Si02
#       6
#     2   2   2   2   2   2
#     4  12  23  43  64  96 138 175 223 283 337 401
#     4  11  24  47  73 103 136 176 227 285 347 413
#     4  11  24  44  71 100 138 183 224 281 348 405
#     4  12  25  40  62  92 132 180 226 276 331 386
#     4  11  24  41  68  98 131 177 226 282 337 401
#     4  11  23  43  67  99 134 179 231 277 329 404
#
# _framework density 25.769423
#
# number of rings (size 3 to 8) (size 9 to 14) (size 15 to 20)
#    0.000    0.667    0.000   10.500    0.000    1.333 
#    0.000   19.167    0.000    0.000    0.000    0.000 
#    0.000    0.000    0.000    0.000    0.000    0.000 
#
# Total GULP energy -67061.561130 kJ/mol
# GULP energy per Si atom -5588.463427 kJ/mol
# Density = 2.571077 g / cm^3
# Si number density = 25.769423 Si / 1000 Ang^3
#
#
#
# Elastic Constant Matrix: (Units=GPa)
#
#
# Indices 1 2 3 4 5 6 
#
# 1 72.3361 26.7906 30.6469 12.8342 1.5312 -10.1553
# 2 26.7906 193.3759 69.2070 15.4181 7.2030 -24.9701
# 3 30.6469 69.2070 205.5239 5.6319 -6.4259 -14.8956
# 4 12.8342 15.4181 5.6319 68.0149 2.3813 -5.6099
# 5 1.5312 7.2030 -6.4259 2.3813 41.5656 6.1330
# 6 -10.1553 -24.9701 -14.8956 -5.6099 6.1330 48.4284
#
#
#
# Elastic Compliance Matrix: (Units=1/GPa)
#
#
# Indices 1 2 3 4 5 6 
#
# 1 0.015701 -0.001047 -0.001803 -0.002379 -0.000839 0.002029
# 2 -0.001047 0.006454 -0.001855 -0.000833 -0.001711 0.002658
# 3 -0.001803 -0.001855 0.005814 0.000264 0.001223 0.000329
# 4 -0.002379 -0.000833 0.000264 0.015431 -0.000764 0.001037
# 5 -0.000839 -0.001711 0.001223 -0.000764 0.025203 -0.003962
# 6 0.002029 0.002658 0.000329 0.001037 -0.003962 0.023168
#
#
# Mechanical properties :
#
#
# Convention : Reuss Voigt Hill
#
# Bulk Modulus (GPa) = 53.88376 80.50278 67.19327
# Shear Modulus (GPa) = 46.56975 54.57454 50.57215
#
# Velocity S-wave (km/s) = 4.25570 4.60695 4.43480
# Velocity P-wave (km/s) = 6.71590 7.72050 7.23566
#
# Compressibility (1/GPa) = 0.01855847
#
# Stress axis : x y z
#
# Youngs Moduli (GPa) = 63.69189 154.95389 171.99993
#
# Poissons Ratio (x) = 0.16226 0.31004
# Poissons Ratio (y) = 0.06670 0.31907
# Poissons Ratio (z) = 0.11481 0.28745
#
# Static dielectric constant tensor:
#      x y z
#    x 2.221370 0.035650 -0.056700 
#    y 0.035650 2.082600 -0.033190 
#    z -0.056700 -0.033190 2.016200 
# 
# From -- ./inp_files/297196.got.cif
#   From: 2010.05.17/outbox.cif.g08.bks.cpg/sg2_149_cif.got.tgz:297196.got - 2010.06.03 11:33:40.
