data_PCOD9060024
_publ_section_title
;
Structure prediction by ZEFSAII (Michael W. Deem and Ramdas Pophale) SiO2 
 PCOD9060024
Probable space group: P -1
;
_chemical_formula_sum "Si O2"
_cell_formula_units_Z 16
_cell_length_a 8.327737
_cell_length_b 9.810873
_cell_length_c 18.724183
_cell_angle_alpha 43.886862
_cell_angle_beta 114.245377
_cell_angle_gamma 133.878165
_cell_volume 752.244679
_symmetry_space_group_name_H-M "P -1"
_symmetry_group_IT_number 2
_symmetry_cell_setting 'triclinic'
loop_
_space_group_symop_operation_xyz
x,y,z
-x,-y,-z
loop_
_atom_site_type_symbol
_atom_site_label
_atom_site_fract_x
_atom_site_fract_y
_atom_site_fract_z
Si Si1 0.434017 0.183307 0.411077
Si Si2 0.075528 0.545526 0.861147
Si Si3 0.441163 0.943308 0.888336
Si Si4 0.728265 0.951719 0.054495
Si Si5 0.486133 0.286469 0.537556
Si Si6 0.962278 0.814285 0.644772
Si Si7 0.204274 0.632344 0.318601
Si Si8 0.226662 0.463681 0.775035
O O1 0.539259 0.344983 0.442023
O O2 0.175196 0.081785 0.404903
O O3 0.543091 0.341448 0.299182
O O4 0.500000 0.000000 0.500000
O O5 0.234585 0.714393 0.891715
O O6 0.214774 0.566387 0.809670
O O7 0.908088 0.251783 0.961385
O O8 0.947517 0.650420 0.769731
O O9 0.538879 0.855250 0.995919
O O10 0.633236 0.144855 0.792349
O O11 0.370616 0.078044 0.873701
O O12 0.820948 0.798680 0.122972
O O13 0.500000 0.500000 0.500000
O O14 0.667493 0.283109 0.614921
O O15 0.228886 0.028860 0.597219
O O16 0.850988 0.619864 0.631046
O O17 0.967561 0.578548 0.293986
#
# Coordination Sequence:
#
# PCOD9060024 Si02
#       8
#     2   2   2   2   2   2   2   2
#     4  12  27  46  68 104 142 179 227 290 342 396
#     4  11  23  45  70 100 136 184 227 272 346 413
#     4  11  23  42  73  98 137 179 237 269 334 418
#     4  11  24  44  69 103 140 179 223 287 337 399
#     4  12  26  45  77  98 129 188 239 275 342 406
#     4  11  23  46  74  96 137 179 228 286 336 403
#     4  11  23  46  72  99 137 184 226 281 342 412
#     4  11  26  45  67 101 151 177 220 288 346 398
#
# _framework density 21.269676
#
# number of rings (size 3 to 8) (size 9 to 14) (size 15 to 20)
#    0.000    0.750    5.000    3.375    3.500    1.000 
#    2.250    0.000    0.000    0.000    0.000    0.000 
#    0.000    0.000    0.000    0.000    0.000    0.000 
#
# Total GULP energy -89457.138493 kJ/mol
# GULP energy per Si atom -5591.071156 kJ/mol
# Density = 2.122127 g / cm^3
# Si number density = 21.269676 Si / 1000 Ang^3
#
#
#
# Elastic Constant Matrix: (Units=GPa)
#
#
# Indices 1 2 3 4 5 6 
#
# 1 80.8902 23.8565 16.7568 7.2163 21.8946 -2.1258
# 2 23.8565 95.1365 19.8931 18.6765 15.2891 15.2128
# 3 16.7568 19.8931 53.0844 -7.7859 7.6860 0.5515
# 4 7.2163 18.6765 -7.7859 37.7749 -6.0546 4.9527
# 5 21.8946 15.2891 7.6860 -6.0546 42.2766 -2.3839
# 6 -2.1258 15.2128 0.5515 4.9527 -2.3839 28.2914
#
#
#
# Elastic Compliance Matrix: (Units=1/GPa)
#
#
# Indices 1 2 3 4 5 6 
#
# 1 0.016211 -0.001351 -0.004226 -0.004826 -0.007704 0.002223
# 2 -0.001351 0.015914 -0.005925 -0.008756 -0.005654 -0.007487
# 3 -0.004226 -0.005925 0.023454 0.008657 0.001364 0.001011
# 4 -0.004826 -0.008756 0.008657 0.035117 0.009053 -0.001208
# 5 -0.007704 -0.005654 0.001364 0.009053 0.030932 0.003457
# 6 0.002223 -0.007487 0.001011 -0.001208 0.003457 0.040022
#
#
# Mechanical properties :
#
#
# Convention : Reuss Voigt Hill
#
# Bulk Modulus (GPa) = 30.69944 38.90265 34.80105
# Shear Modulus (GPa) = 25.57387 32.90889 29.24138
#
# Velocity S-wave (km/s) = 3.47127 3.93774 3.71184
# Velocity P-wave (km/s) = 5.52549 6.24534 5.89641
#
# Compressibility (1/GPa) = 0.03257388
#
# Stress axis : x y z
#
# Youngs Moduli (GPa) = 61.68779 62.83928 42.63669
#
# Poissons Ratio (x) = 0.08491 0.18019
# Poissons Ratio (y) = 0.08335 0.25261
# Poissons Ratio (z) = 0.26071 0.37231
#
# Static dielectric constant tensor:
#      x y z
#    x 1.812300 0.026160 0.004840 
#    y 0.026160 1.738820 -0.008410 
#    z 0.004840 -0.008410 1.804170 
# 
# From -- ./inp_files/556901.got.cif
#   From: 2010.05.17/outbox.cif.g08.bks.cpg/sg2_279_cif.got.tgz:556901.got - 2010.06.03 11:33:40.
