data_PCOD9060903
_publ_section_title
;
Structure prediction by ZEFSAII (Michael W. Deem and Ramdas Pophale) SiO2 
 PCOD9060903
Probable space group: P -1
;
_chemical_formula_sum "Si O2"
_cell_formula_units_Z 14
_cell_length_a 11.082218
_cell_length_b 13.618833
_cell_length_c 12.959876
_cell_angle_alpha 33.083902
_cell_angle_beta 33.454306
_cell_angle_gamma 41.901402
_cell_volume 581.910458
_symmetry_space_group_name_H-M "P -1"
_symmetry_group_IT_number 2
_symmetry_cell_setting 'triclinic'
loop_
_space_group_symop_operation_xyz
x,y,z
-x,-y,-z
loop_
_atom_site_type_symbol
_atom_site_label
_atom_site_fract_x
_atom_site_fract_y
_atom_site_fract_z
Si Si1 0.770195 0.079547 0.790914
Si Si2 0.987959 0.283070 0.982154
Si Si3 0.635348 0.998195 0.741045
Si Si4 0.875516 0.708010 0.704152
Si Si5 0.434330 0.603161 0.065143
Si Si6 0.524298 0.238723 0.405865
Si Si7 0.944356 0.798536 0.221557
O O1 0.672859 0.109640 0.719213
O O2 0.953657 0.208490 0.564218
O O3 0.876483 0.867177 0.909779
O O4 0.575075 0.100508 0.994314
O O5 0.749785 0.212733 0.201319
O O6 0.954001 0.493778 0.854325
O O7 0.099488 0.268455 0.803842
O O8 0.585683 0.128594 0.563538
O O9 0.843675 0.843871 0.704538
O O10 0.622809 0.731651 0.822642
O O11 0.483460 0.457364 0.250706
O O12 0.175753 0.677852 0.192383
O O13 0.500000 0.500000 0.000000
O O14 0.293372 0.198597 0.557442
O O15 0.000000 0.000000 0.000000
#
# Coordination Sequence:
#
# PCOD9060903 Si02
#       7
#     2   2   2   2   2   2   2
#     4  11  25  47  73  98 147 173 234 290 342 415
#     4  11  25  45  68 105 136 179 233 285 335 420
#     4  11  24  47  70 106 132 187 226 285 357 402
#     4  11  24  44  72 100 140 180 233 282 344 408
#     4  11  24  46  67 103 138 183 229 282 342 407
#     4  11  23  44  69  97 143 172 236 286 333 417
#     4  12  25  44  68 101 136 187 230 278 351 398
#
# _framework density 24.058682999999998
#
# number of rings (size 3 to 8) (size 9 to 14) (size 15 to 20)
#    0.000    0.857    5.714    1.714    0.000    4.571 
#    2.571    1.429    0.000    0.000    0.000    0.000 
#    0.000    0.000    0.000    0.000    0.000    0.000 
#
# Total GULP energy -78191.324910 kJ/mol
# GULP energy per Si atom -5585.094636 kJ/mol
# Density = 2.400392 g / cm^3
# Si number density = 24.058683 Si / 1000 Ang^3
#
#
#
# Elastic Constant Matrix: (Units=GPa)
#
#
# Indices 1 2 3 4 5 6 
#
# 1 53.3439 15.3120 23.2313 -11.3836 8.0451 -3.0316
# 2 15.3120 113.4699 40.5143 -4.1892 11.0873 -13.9507
# 3 23.2313 40.5143 153.0477 12.5348 -0.6032 -9.8559
# 4 -11.3836 -4.1892 12.5348 44.7436 -12.3064 2.6311
# 5 8.0451 11.0873 -0.6032 -12.3064 32.0273 3.3539
# 6 -3.0316 -13.9507 -9.8559 2.6311 3.3539 33.3270
#
#
#
# Elastic Compliance Matrix: (Units=1/GPa)
#
#
# Indices 1 2 3 4 5 6 
#
# 1 0.022328 -0.001196 -0.003527 0.005679 -0.003116 0.000352
# 2 -0.001196 0.010713 -0.002416 0.000080 -0.003846 0.004042
# 3 -0.003527 -0.002416 0.008065 -0.003331 0.000461 0.001270
# 4 0.005679 0.000080 -0.003331 0.027540 0.009438 -0.003559
# 5 -0.003116 -0.003846 0.000461 0.009438 0.037631 -0.006289
# 6 0.000352 0.004042 0.001270 -0.003559 -0.006289 0.033019
#
#
# Mechanical properties :
#
#
# Convention : Reuss Voigt Hill
#
# Bulk Modulus (GPa) = 37.27550 53.10851 45.19201
# Shear Modulus (GPa) = 30.76621 38.07319 34.41970
#
# Velocity S-wave (km/s) = 3.57991 3.98240 3.78650
# Velocity P-wave (km/s) = 5.71094 6.57788 6.15968
#
# Compressibility (1/GPa) = 0.02682727
#
# Stress axis : x y z
#
# Youngs Moduli (GPa) = 44.78768 93.34888 123.99051
#
# Poissons Ratio (x) = 0.11166 0.43734
# Poissons Ratio (y) = 0.05357 0.29952
# Poissons Ratio (z) = 0.15797 0.22550
#
# Static dielectric constant tensor:
#      x y z
#    x 1.956000 -0.029140 -0.039030 
#    y -0.029140 1.942400 0.017030 
#    z -0.039030 0.017030 1.947830 
# 
# From -- ./inp_files/520590.got.cif
#   From: 2010.05.17/outbox.cif.g08.bks.cpg/sg2_261_cif.got.tgz:520590.got - 2010.06.03 11:33:40.
