data_PCOD9060521
_publ_section_title
;
Structure prediction by ZEFSAII (Michael W. Deem and Ramdas Pophale) SiO2 
 PCOD9060521
Probable space group: P -1
;
_chemical_formula_sum "Si O2"
_cell_formula_units_Z 16
_cell_length_a 8.433987
_cell_length_b 11.026396
_cell_length_c 18.553754
_cell_angle_alpha 156.407090
_cell_angle_beta 96.973903
_cell_angle_gamma 81.412314
_cell_volume 682.318849
_symmetry_space_group_name_H-M "P -1"
_symmetry_group_IT_number 2
_symmetry_cell_setting 'triclinic'
loop_
_space_group_symop_operation_xyz
x,y,z
-x,-y,-z
loop_
_atom_site_type_symbol
_atom_site_label
_atom_site_fract_x
_atom_site_fract_y
_atom_site_fract_z
Si Si1 0.334432 0.702353 0.082227
Si Si2 0.422089 0.283186 0.323630
Si Si3 0.932195 0.966338 0.088603
Si Si4 0.078433 0.519202 0.738913
Si Si5 0.415847 0.176653 0.022585
Si Si6 0.793692 0.220224 0.502071
Si Si7 0.980566 0.146302 0.802823
Si Si8 0.645023 0.681337 0.261829
O O1 0.211726 0.808134 0.196992
O O2 0.350303 0.025903 0.224855
O O3 0.500000 0.500000 0.000000
O O4 0.277346 0.501253 0.903308
O O5 0.500000 0.500000 0.500000
O O6 0.295269 0.475349 0.371169
O O7 0.554938 0.083168 0.177404
O O8 0.775260 0.789563 0.967472
O O9 0.979571 0.971509 0.177698
O O10 0.906917 0.306659 0.240711
O O11 0.059475 0.784205 0.943058
O O12 0.239780 0.328385 0.668092
O O13 0.928443 0.319908 0.618354
O O14 0.499742 0.479802 0.168226
O O15 0.500000 0.000000 0.000000
O O16 0.900871 0.033229 0.344615
O O17 0.654670 0.026432 0.421427
O O18 0.000000 0.500000 0.000000
#
# Coordination Sequence:
#
# PCOD9060521 Si02
#       8
#     2   2   2   2   2   2   2   2
#     4  11  24  45  73  99 140 190 234 288 356 422
#     4  11  25  43  67 102 143 181 229 296 355 409
#     4  11  23  43  72 103 136 187 246 284 354 428
#     4  11  23  43  73  99 143 185 229 302 354 420
#     4  11  23  43  72  99 136 189 240 279 346 432
#     4  12  25  43  72 106 145 184 234 297 365 414
#     4  12  25  43  70 105 135 184 241 293 346 431
#     4  11  23  45  68  99 141 182 233 284 358 427
#
# _framework density 23.449448
#
# number of rings (size 3 to 8) (size 9 to 14) (size 15 to 20)
#    0.000    0.750    3.750    3.375    7.000    3.000 
#    0.000    2.500    0.000    0.000    0.000    0.000 
#    0.000    0.000    0.000    0.000    0.000    0.000 
#
# Total GULP energy -89222.315018 kJ/mol
# GULP energy per Si atom -5576.394689 kJ/mol
# Density = 2.339608 g / cm^3
# Si number density = 23.449448 Si / 1000 Ang^3
#
#
#
# Elastic Constant Matrix: (Units=GPa)
#
#
# Indices 1 2 3 4 5 6 
#
# 1 69.6447 29.6253 8.3945 21.1058 0.1851 -0.5307
# 2 29.6253 89.2751 26.5909 23.9952 6.0572 -9.5927
# 3 8.3945 26.5909 86.8410 18.1541 15.0116 7.9954
# 4 21.1058 23.9952 18.1541 49.1723 1.7111 2.8467
# 5 0.1851 6.0572 15.0116 1.7111 35.8320 -3.1473
# 6 -0.5307 -9.5927 7.9954 2.8467 -3.1473 37.0866
#
#
#
# Elastic Compliance Matrix: (Units=1/GPa)
#
#
# Indices 1 2 3 4 5 6 
#
# 1 0.018023 -0.004832 0.000894 -0.005687 0.000559 -0.000701
# 2 -0.004832 0.015721 -0.003821 -0.004471 -0.000367 0.005133
# 3 0.000894 -0.003821 0.014727 -0.003503 -0.005745 -0.004369
# 4 -0.005687 -0.004471 -0.003503 0.026367 0.000779 -0.002440
# 5 0.000559 -0.000367 -0.005745 0.000779 0.030661 0.003694
# 6 -0.000701 0.005133 -0.004369 -0.002440 0.003694 0.029724
#
#
# Mechanical properties :
#
#
# Convention : Reuss Voigt Hill
#
# Bulk Modulus (GPa) = 30.34649 41.66471 36.00560
# Shear Modulus (GPa) = 30.91670 36.49485 33.70578
#
# Velocity S-wave (km/s) = 3.63497 3.94930 3.79539
# Velocity P-wave (km/s) = 5.53052 6.21309 5.88172
#
# Compressibility (1/GPa) = 0.03295274
#
# Stress axis : x y z
#
# Youngs Moduli (GPa) = 55.48556 63.60858 67.90451
#
# Poissons Ratio (x) = 0.30734 -0.06071
# Poissons Ratio (y) = 0.26809 0.25947
# Poissons Ratio (z) = -0.04960 0.24306
#
# Static dielectric constant tensor:
#      x y z
#    x -0.189810 -0.339290 0.057080 
#    y -0.339290 1.949340 0.000990 
#    z 0.057080 0.000990 1.870260 
# 
# From -- ./inp_files/589791.got.cif
#   From: 2010.05.17/outbox.cif.g08.bks.cpg/sg2_295_cif.got.tgz:589791.got - 2010.06.03 11:33:40.
