data_PCOD9060951
_publ_section_title
;
Structure prediction by ZEFSAII (Michael W. Deem and Ramdas Pophale) SiO2 
 PCOD9060951
Probable space group: P -1
;
_chemical_formula_sum "Si O2"
_cell_formula_units_Z 16
_cell_length_a 16.618894
_cell_length_b 5.347879
_cell_length_c 13.135773
_cell_angle_alpha 90.008084
_cell_angle_beta 133.851552
_cell_angle_gamma 65.152879
_cell_volume 684.284868
_symmetry_space_group_name_H-M "P -1"
_symmetry_group_IT_number 2
_symmetry_cell_setting 'triclinic'
loop_
_space_group_symop_operation_xyz
x,y,z
-x,-y,-z
loop_
_atom_site_type_symbol
_atom_site_label
_atom_site_fract_x
_atom_site_fract_y
_atom_site_fract_z
Si Si1 0.448549 0.536971 0.270455
Si Si2 0.904994 0.278186 0.492386
Si Si3 0.216133 0.411806 0.807536
Si Si4 0.367585 0.145452 0.308405
Si Si5 0.231995 0.843016 0.456096
Si Si6 0.085275 0.713932 0.151554
Si Si7 0.003747 0.516731 0.253372
Si Si8 0.382228 0.694661 0.978341
O O1 0.390386 0.343521 0.249986
O O2 0.610637 0.339423 0.435529
O O3 0.432795 0.593575 0.137153
O O4 0.377043 0.858518 0.267550
O O5 0.838736 0.559451 0.355711
O O6 0.794720 0.261753 0.459910
O O7 0.000179 0.272048 0.662192
O O8 0.000000 0.000000 0.500000
O O9 0.103627 0.542760 0.799152
O O10 0.277056 0.608303 0.863362
O O11 0.321799 0.051313 0.919130
O O12 0.217035 0.394687 0.222888
O O13 0.500000 0.000000 0.500000
O O14 0.150872 0.801142 0.297268
O O15 0.156943 0.206701 0.395419
O O16 0.986771 0.650610 0.126755
O O17 0.000000 0.000000 0.000000
O O18 0.500000 0.500000 0.000000
#
# Coordination Sequence:
#
# PCOD9060951 Si02
#       8
#     2   2   2   2   2   2   2   2
#     4  12  28  48  80 107 151 203 256 310 377 461
#     4  11  23  44  70 112 152 199 244 310 382 462
#     4  12  26  46  77 108 157 197 248 312 383 447
#     4  12  26  52  79 110 150 200 260 314 387 455
#     4  11  25  45  76 111 146 196 256 310 381 461
#     4  11  28  49  77 111 152 197 252 330 387 452
#     4  11  26  44  78 110 149 195 256 310 390 463
#     4  12  29  50  73 112 154 202 251 309 376 456
#
# _framework density 23.382076999999999
#
# number of rings (size 3 to 8) (size 9 to 14) (size 15 to 20)
#    0.000    0.500    2.500    4.125   10.500    1.500 
#    0.000    0.000    0.000    0.000    0.000    0.000 
#    0.000    0.000    0.000    0.000    0.000    0.000 
#
# Total GULP energy -89620.701270 kJ/mol
# GULP energy per Si atom -5601.293829 kJ/mol
# Density = 2.332886 g / cm^3
# Si number density = 23.382077 Si / 1000 Ang^3
#
#
#
# Elastic Constant Matrix: (Units=GPa)
#
#
# Indices 1 2 3 4 5 6 
#
# 1 123.3127 19.5085 36.2338 -14.9124 -14.9701 -12.5858
# 2 19.5085 113.3828 20.9417 -23.7303 -0.2646 -25.0142
# 3 36.2338 20.9417 95.8657 -19.4875 -25.8297 -17.5907
# 4 -14.9124 -23.7303 -19.4875 29.9540 8.8492 -4.2423
# 5 -14.9701 -0.2646 -25.8297 8.8492 44.2505 -2.8832
# 6 -12.5858 -25.0142 -17.5907 -4.2423 -2.8832 38.8105
#
#
#
# Elastic Compliance Matrix: (Units=1/GPa)
#
#
# Indices 1 2 3 4 5 6 
#
# 1 0.009573 0.000038 -0.002020 0.003405 0.001555 0.002701
# 2 0.000038 0.013885 0.001524 0.013898 -0.001071 0.011092
# 3 -0.002020 0.001524 0.016777 0.010203 0.007705 0.009619
# 4 0.003405 0.013898 0.010203 0.056467 -0.002756 0.020654
# 5 0.001555 -0.001071 0.007705 -0.002756 0.028501 0.005122
# 6 0.002701 0.011092 0.009619 0.020654 0.005122 0.040789
#
#
# Mechanical properties :
#
#
# Convention : Reuss Voigt Hill
#
# Bulk Modulus (GPa) = 25.43203 53.99212 39.71208
# Shear Modulus (GPa) = 27.77577 39.66148 33.71862
#
# Velocity S-wave (km/s) = 3.45034 4.12300 3.80158
# Velocity P-wave (km/s) = 5.17431 6.76808 6.02414
#
# Compressibility (1/GPa) = 0.03932049
#
# Stress axis : x y z
#
# Youngs Moduli (GPa) = 104.45808 72.02072 59.60637
#
# Poissons Ratio (x) = -0.00276 0.12039
# Poissons Ratio (y) = -0.00400 -0.09086
# Poissons Ratio (z) = 0.21098 -0.10979
#
# Static dielectric constant tensor:
#      x y z
#    x 1.898260 0.023100 0.020560 
#    y 0.023100 1.912770 -0.005390 
#    z 0.020560 -0.005390 1.900420 
# 
# From -- ./inp_files/459529.got.cif
#   From: 2010.05.17/outbox.cif.g08.bks.cpg/sg2_230_cif.got.tgz:459529.got - 2010.06.03 11:33:40.
