data_PCOD9060294
_publ_section_title
;
Structure prediction by ZEFSAII (Michael W. Deem and Ramdas Pophale) SiO2 
 PCOD9060294
Probable space group: P -1
;
_chemical_formula_sum "Si O2"
_cell_formula_units_Z 16
_cell_length_a 14.839061
_cell_length_b 11.307727
_cell_length_c 15.906436
_cell_angle_alpha 120.947984
_cell_angle_beta 152.296155
_cell_angle_gamma 41.000175
_cell_volume 702.787952
_symmetry_space_group_name_H-M "P -1"
_symmetry_group_IT_number 2
_symmetry_cell_setting 'triclinic'
loop_
_space_group_symop_operation_xyz
x,y,z
-x,-y,-z
loop_
_atom_site_type_symbol
_atom_site_label
_atom_site_fract_x
_atom_site_fract_y
_atom_site_fract_z
Si Si1 0.748680 0.231195 0.703589
Si Si2 0.248873 0.464674 0.807684
Si Si3 0.293834 0.075638 0.433934
Si Si4 0.782677 0.313650 0.271050
Si Si5 0.329463 0.119810 0.816595
Si Si6 0.368805 0.812569 0.579602
Si Si7 0.322367 0.627975 0.609920
Si Si8 0.325050 0.105106 0.154784
O O1 0.766256 0.056212 0.663138
O O2 0.699061 0.267037 0.575077
O O3 0.485986 0.425440 0.616275
O O4 0.034006 0.169389 0.940484
O O5 0.186426 0.548493 0.690661
O O6 0.221680 0.329598 0.776032
O O7 0.584407 0.330041 0.050635
O O8 0.015750 0.684637 0.742642
O O9 0.459629 0.044910 0.643722
O O10 0.500000 0.000000 0.500000
O O11 0.605389 0.413047 0.247447
O O12 0.088961 0.067077 0.441722
O O13 0.027798 0.200033 0.612792
O O14 0.535419 0.980120 0.854702
O O15 0.500000 0.000000 0.000000
O O16 0.400106 0.728360 0.665055
O O17 0.665310 0.733613 0.768554
#
# Coordination Sequence:
#
# PCOD9060294 Si02
#       8
#     2   2   2   2   2   2   2   2
#     4  11  25  46  69 109 144 188 242 293 351 426
#     4  11  24  43  69  99 143 182 233 295 363 415
#     4  11  25  47  70  99 148 191 235 297 354 428
#     4  11  23  43  69 102 135 191 231 294 356 423
#     4  12  26  44  73 109 139 182 246 299 352 431
#     4  11  23  49  71  99 153 186 232 297 364 416
#     4  12  25  43  73 106 139 186 244 296 346 423
#     4  11  25  45  72 102 144 194 231 296 361 421
#
# _framework density 22.766470000000002
#
# number of rings (size 3 to 8) (size 9 to 14) (size 15 to 20)
#    0.000    0.750    3.750    3.750    5.250    4.000 
#    0.000    0.000    0.000    0.000    0.000    0.000 
#    0.000    0.000    0.000    0.000    0.000    0.000 
#
# Total GULP energy -89236.230348 kJ/mol
# GULP energy per Si atom -5577.264397 kJ/mol
# Density = 2.271465 g / cm^3
# Si number density = 22.766470 Si / 1000 Ang^3
#
#
#
# Elastic Constant Matrix: (Units=GPa)
#
#
# Indices 1 2 3 4 5 6 
#
# 1 128.7752 24.9143 27.8913 -0.8544 -15.1638 -3.7543
# 2 24.9143 68.0660 17.6147 -2.9463 -16.4384 -2.4074
# 3 27.8913 17.6147 100.2385 13.1964 3.7453 -6.1105
# 4 -0.8544 -2.9463 13.1964 22.3448 6.8139 4.0894
# 5 -15.1638 -16.4384 3.7453 6.8139 43.5228 1.1662
# 6 -3.7543 -2.4074 -6.1105 4.0894 1.1662 48.0366
#
#
#
# Elastic Compliance Matrix: (Units=1/GPa)
#
#
# Indices 1 2 3 4 5 6 
#
# 1 0.008958 -0.002063 -0.002295 0.000649 0.002433 0.000191
# 2 -0.002063 0.017763 -0.003068 0.002276 0.005898 0.000002
# 3 -0.002295 -0.003068 0.012336 -0.007554 -0.001889 0.001925
# 4 0.000649 0.002276 -0.007554 0.052404 -0.006332 -0.005104
# 5 0.002433 0.005898 -0.001889 -0.006332 0.027202 0.000124
# 6 0.000191 0.000002 0.001925 -0.005104 0.000124 0.021509
#
#
# Mechanical properties :
#
#
# Convention : Reuss Voigt Hill
#
# Bulk Modulus (GPa) = 41.30927 48.65781 44.98354
# Shear Modulus (GPa) = 30.65756 37.89147 34.27452
#
# Velocity S-wave (km/s) = 3.67360 4.08408 3.88426
# Velocity P-wave (km/s) = 6.01481 6.60746 6.31809
#
# Compressibility (1/GPa) = 0.02420764
#
# Stress axis : x y z
#
# Youngs Moduli (GPa) = 111.63352 56.29529 81.06220
#
# Poissons Ratio (x) = 0.11612 0.18602
# Poissons Ratio (y) = 0.23026 0.24866
# Poissons Ratio (z) = 0.25618 0.17269
#
# Static dielectric constant tensor:
#      x y z
#    x 1.921370 0.023500 -0.076320 
#    y 0.023500 1.948370 0.034180 
#    z -0.076320 0.034180 1.934530 
# 
# From -- ./inp_files/532647.got.cif
#   From: 2010.05.17/outbox.cif.g08.bks.cpg/sg2_267_cif.got.tgz:532647.got - 2010.06.03 11:33:40.
