data_PCOD9060390
_publ_section_title
;
Structure prediction by ZEFSAII (Michael W. Deem and Ramdas Pophale) SiO2 
 PCOD9060390
Probable space group: P -1
;
_chemical_formula_sum "Si O2"
_cell_formula_units_Z 14
_cell_length_a 9.497948
_cell_length_b 8.289574
_cell_length_c 8.513566
_cell_angle_alpha 95.221299
_cell_angle_beta 108.083040
_cell_angle_gamma 114.194772
_cell_volume 562.519222
_symmetry_space_group_name_H-M "P -1"
_symmetry_group_IT_number 2
_symmetry_cell_setting 'triclinic'
loop_
_space_group_symop_operation_xyz
x,y,z
-x,-y,-z
loop_
_atom_site_type_symbol
_atom_site_label
_atom_site_fract_x
_atom_site_fract_y
_atom_site_fract_z
Si Si1 0.661688 0.907537 0.440581
Si Si2 0.622707 0.107875 0.190381
Si Si3 0.480977 0.575749 0.167433
Si Si4 0.095499 0.908298 0.893844
Si Si5 0.422290 0.645381 0.596916
Si Si6 0.082164 0.848776 0.210830
Si Si7 0.164398 0.516947 0.220333
O O1 0.643587 0.765832 0.283532
O O2 0.555834 0.789108 0.537678
O O3 0.572618 0.010598 0.332781
O O4 0.831875 0.054214 0.588587
O O5 0.797788 0.118403 0.207332
O O6 0.631543 0.297803 0.252924
O O7 0.500000 0.000000 0.000000
O O8 0.481901 0.457439 0.305999
O O9 0.307863 0.586303 0.138979
O O10 0.500000 0.500000 0.000000
O O11 0.943402 0.702877 0.849010
O O12 0.189684 0.941061 0.097355
O O13 0.054014 0.075178 0.858686
O O14 0.257565 0.552934 0.424044
O O15 0.068795 0.644180 0.192042
#
# Coordination Sequence:
#
# PCOD9060390 Si02
#       7
#     2   2   2   2   2   2   2
#     4  11  23  46  72 101 142 189 240 297 370 432
#     4  12  26  43  71 106 141 184 244 309 361 427
#     4  11  25  42  74 113 144 186 246 308 357 432
#     4  11  27  46  70 106 149 192 247 304 362 445
#     4  11  23  43  70 105 142 187 238 301 365 438
#     4  11  24  47  73 102 143 201 240 291 375 442
#     4  11  24  48  73 103 148 199 241 294 378 439
#
# _framework density 24.888037000000001
#
# number of rings (size 3 to 8) (size 9 to 14) (size 15 to 20)
#    0.000    0.857    1.429    6.000    8.000    4.571 
#    2.571    0.000    0.000    0.000    0.000    0.000 
#    0.000    0.000    0.000    0.000    0.000    0.000 
#
# Total GULP energy -78060.322134 kJ/mol
# GULP energy per Si atom -5575.737295 kJ/mol
# Density = 2.483139 g / cm^3
# Si number density = 24.888037 Si / 1000 Ang^3
#
#
#
# Elastic Constant Matrix: (Units=GPa)
#
#
# Indices 1 2 3 4 5 6 
#
# 1 86.2300 53.0793 12.0622 8.1770 -10.9815 -34.8428
# 2 53.0793 81.5069 29.7443 1.1746 0.6195 -20.2943
# 3 12.0622 29.7443 137.4816 15.8086 3.8406 -15.1601
# 4 8.1770 1.1746 15.8086 50.7397 -17.8353 -3.9198
# 5 -10.9815 0.6195 3.8406 -17.8353 38.5340 1.3595
# 6 -34.8428 -20.2943 -15.1601 -3.9198 1.3595 40.9830
#
#
#
# Elastic Compliance Matrix: (Units=1/GPa)
#
#
# Indices 1 2 3 4 5 6 
#
# 1 0.028773 -0.015404 0.002693 -0.001327 0.006948 0.017473
# 2 -0.015404 0.023064 -0.004068 0.001788 -0.003425 -0.002895
# 3 0.002693 -0.004068 0.008714 -0.003413 -0.001729 0.003230
# 4 -0.001327 0.001788 -0.003413 0.025025 0.011498 0.000506
# 5 0.006948 -0.003425 -0.001729 0.011498 0.033355 0.003565
# 6 0.017473 -0.002895 0.003230 0.000506 0.003565 0.038947
#
#
# Mechanical properties :
#
#
# Convention : Reuss Voigt Hill
#
# Bulk Modulus (GPa) = 37.04262 54.99890 46.02076
# Shear Modulus (GPa) = 24.94600 40.07352 32.50976
#
# Velocity S-wave (km/s) = 3.16939 4.01702 3.61812
# Velocity P-wave (km/s) = 5.32066 6.60771 5.99880
#
# Compressibility (1/GPa) = 0.02699593
#
# Stress axis : x y z
#
# Youngs Moduli (GPa) = 34.75476 43.35763 114.75259
#
# Poissons Ratio (x) = 0.66786 -0.30908
# Poissons Ratio (y) = 0.53535 0.46677
# Poissons Ratio (z) = -0.09361 0.17636
#
# Static dielectric constant tensor:
#      x y z
#    x -0.860290 5.323110 -0.491680 
#    y 5.323110 -8.022980 0.989940 
#    z -0.491680 0.989940 1.924180 
# 
# From -- ./inp_files/158897.got.cif
#   From: 2010.05.17/outbox.cif.g08.bks.cpg/sg2_80_cif.got.tgz:158897.got - 2010.06.03 11:33:40.
