data_PCOD9060571
_publ_section_title
;
Structure prediction by ZEFSAII (Michael W. Deem and Ramdas Pophale) SiO2 
 PCOD9060571
Probable space group: P -1
;
_chemical_formula_sum "Si O2"
_cell_formula_units_Z 16
_cell_length_a 11.977546
_cell_length_b 15.100647
_cell_length_c 9.398033
_cell_angle_alpha 151.087762
_cell_angle_beta 71.330364
_cell_angle_gamma 101.683892
_cell_volume 767.278043
_symmetry_space_group_name_H-M "P -1"
_symmetry_group_IT_number 2
_symmetry_cell_setting 'triclinic'
loop_
_space_group_symop_operation_xyz
x,y,z
-x,-y,-z
loop_
_atom_site_type_symbol
_atom_site_label
_atom_site_fract_x
_atom_site_fract_y
_atom_site_fract_z
Si Si1 0.921410 0.872947 0.935562
Si Si2 0.591267 0.357081 0.855533
Si Si3 0.646239 0.982587 0.129387
Si Si4 0.048204 0.503861 0.762548
Si Si5 0.201841 0.410916 0.852501
Si Si6 0.297742 0.995627 0.183462
Si Si7 0.950935 0.111652 0.816250
Si Si8 0.474167 0.698356 0.868739
O O1 0.961073 0.662221 0.573741
O O2 0.943932 0.899975 0.129590
O O3 0.785314 0.928375 0.028050
O O4 0.000000 0.000000 0.000000
O O5 0.601625 0.162299 0.495495
O O6 0.500000 0.500000 0.000000
O O7 0.717099 0.434656 0.926278
O O8 0.546519 0.336123 0.005152
O O9 0.636112 0.024036 0.023099
O O10 0.581823 0.811711 0.957250
O O11 0.142861 0.437304 0.756202
O O12 0.089778 0.675309 0.908959
O O13 0.915817 0.572143 0.977152
O O14 0.284974 0.208313 0.541428
O O15 0.160606 0.966948 0.183511
O O16 0.362624 0.839589 0.044831
O O17 0.000000 0.000000 0.500000
O O18 0.500000 0.500000 0.500000
#
# Coordination Sequence:
#
# PCOD9060571 Si02
#       8
#     2   2   2   2   2   2   2   2
#     4  12  25  46  70 105 148 185 234 292 359 423
#     4  12  27  47  71 104 142 181 239 299 361 420
#     4  12  26  46  73 103 142 187 239 296 356 423
#     4  11  24  43  68 105 143 187 238 281 354 425
#     4  11  23  43  73 101 140 189 232 291 352 421
#     4  12  24  47  73 101 143 187 241 294 357 422
#     4  12  26  43  70 111 143 188 235 293 354 430
#     4  12  28  49  75 103 138 188 241 297 359 429
#
# _framework density 20.852934999999999
#
# number of rings (size 3 to 8) (size 9 to 14) (size 15 to 20)
#    0.000    0.250    3.750    4.875    7.000    1.000 
#    0.000    0.000    0.000    0.000    0.000    0.000 
#    0.000    0.000    0.000    0.000    0.000    0.000 
#
# Total GULP energy -89568.893184 kJ/mol
# GULP energy per Si atom -5598.055824 kJ/mol
# Density = 2.080547 g / cm^3
# Si number density = 20.852935 Si / 1000 Ang^3
#
#
#
# Elastic Constant Matrix: (Units=GPa)
#
#
# Indices 1 2 3 4 5 6 
#
# 1 112.1467 38.0821 28.1752 0.0106 12.5466 5.0239
# 2 38.0821 121.0452 60.9312 -0.8351 9.2443 -5.7943
# 3 28.1752 60.9312 172.0425 6.5237 19.9360 -2.2893
# 4 0.0106 -0.8351 6.5237 39.7781 2.9923 9.9332
# 5 12.5466 9.2443 19.9360 2.9923 31.2978 8.6438
# 6 5.0239 -5.7943 -2.2893 9.9332 8.6438 47.3009
#
#
#
# Elastic Compliance Matrix: (Units=1/GPa)
#
#
# Indices 1 2 3 4 5 6 
#
# 1 0.010359 -0.002903 -0.000375 0.000474 -0.002809 -0.001060
# 2 -0.002903 0.010970 -0.003363 0.000445 -0.000382 0.001466
# 3 -0.000375 -0.003363 0.007568 -0.001263 -0.003821 0.000958
# 4 0.000474 0.000445 -0.001263 0.026791 -0.000536 -0.005585
# 5 -0.002809 -0.000382 -0.003821 -0.000536 0.037519 -0.006677
# 6 -0.001060 0.001466 0.000958 -0.005585 -0.006677 0.023873
#
#
# Mechanical properties :
#
#
# Convention : Reuss Voigt Hill
#
# Bulk Modulus (GPa) = 64.04066 73.29013 68.66539
# Shear Modulus (GPa) = 36.88233 42.21177 39.54705
#
# Velocity S-wave (km/s) = 4.21014 4.50406 4.35958
# Velocity P-wave (km/s) = 7.37638 7.89121 7.63813
#
# Compressibility (1/GPa) = 0.01561508
#
# Stress axis : x y z
#
# Youngs Moduli (GPa) = 96.53814 91.15840 132.12954
#
# Poissons Ratio (x) = 0.26465 0.04952
# Poissons Ratio (y) = 0.28027 0.44433
# Poissons Ratio (z) = 0.03618 0.30655
#
# Static dielectric constant tensor:
#      x y z
#    x 1.740290 -0.012620 0.004160 
#    y -0.012620 1.728700 -0.001040 
#    z 0.004160 -0.001040 1.749640 
# 
# From -- ./inp_files/274818.got.cif
#   From: 2010.05.17/outbox.cif.g08.bks.cpg/sg2_138_cif.got.tgz:274818.got - 2010.06.03 11:33:40.
