data_PCOD9060712
_publ_section_title
;
Structure prediction by ZEFSAII (Michael W. Deem and Ramdas Pophale) SiO2 
 PCOD9060712
Probable space group: P -1
;
_chemical_formula_sum "Si O2"
_cell_formula_units_Z 14
_cell_length_a 5.086772
_cell_length_b 15.289597
_cell_length_c 9.111022
_cell_angle_alpha 114.786470
_cell_angle_beta 92.337481
_cell_angle_gamma 113.578135
_cell_volume 570.812628
_symmetry_space_group_name_H-M "P -1"
_symmetry_group_IT_number 2
_symmetry_cell_setting 'triclinic'
loop_
_space_group_symop_operation_xyz
x,y,z
-x,-y,-z
loop_
_atom_site_type_symbol
_atom_site_label
_atom_site_fract_x
_atom_site_fract_y
_atom_site_fract_z
Si Si1 0.600195 0.630073 0.918604
Si Si2 0.753801 0.238078 0.620200
Si Si3 0.716502 0.440360 0.843294
Si Si4 0.853037 0.964469 0.632743
Si Si5 0.385459 0.743358 0.798170
Si Si6 0.215715 0.834966 0.105956
Si Si7 0.932100 0.791068 0.637281
O O1 0.646588 0.525643 0.813591
O O2 0.348217 0.642198 0.828318
O O3 0.537429 0.620285 0.083852
O O4 0.898039 0.740942 0.980246
O O5 0.755948 0.352788 0.686069
O O6 0.469510 0.137432 0.472705
O O7 0.727464 0.209357 0.770801
O O8 0.046313 0.244588 0.554002
O O9 0.000000 0.500000 0.000000
O O10 0.035611 0.919071 0.703397
O O11 0.809638 0.057828 0.779203
O O12 0.000000 0.000000 0.500000
O O13 0.131277 0.747904 0.697470
O O14 0.637979 0.754647 0.698675
O O15 0.440982 0.836815 0.987081
#
# Coordination Sequence:
#
# PCOD9060712 Si02
#       7
#     2   2   2   2   2   2   2
#     4  11  23  44  77 111 147 187 257 307 363 428
#     4  12  25  47  75 113 149 195 248 309 373 443
#     4  11  23  43  78 115 141 191 257 312 359 437
#     4  12  27  45  77 112 151 196 251 308 371 437
#     4  12  26  50  74 109 156 198 246 307 372 447
#     4  12  25  45  80 108 149 200 252 303 363 451
#     4  12  28  48  73 109 159 195 244 307 382 440
#
# _framework density 24.526437000000001
#
# number of rings (size 3 to 8) (size 9 to 14) (size 15 to 20)
#    0.000    0.286    7.143    1.286    0.000    1.143 
#    0.000    1.429    0.000    0.000    0.000    0.000 
#    0.000    0.000    0.000    0.000    0.000    0.000 
#
# Total GULP energy -78299.870875 kJ/mol
# GULP energy per Si atom -5592.847920 kJ/mol
# Density = 2.447061 g / cm^3
# Si number density = 24.526437 Si / 1000 Ang^3
#
#
#
# Elastic Constant Matrix: (Units=GPa)
#
#
# Indices 1 2 3 4 5 6 
#
# 1 135.9934 42.0419 36.2510 10.9744 -27.0517 -16.1919
# 2 42.0419 89.1865 27.7155 22.2896 -1.3947 -33.6762
# 3 36.2510 27.7155 82.6759 11.1028 -31.5818 8.7218
# 4 10.9744 22.2896 11.1028 48.0535 -18.4106 -10.3363
# 5 -27.0517 -1.3947 -31.5818 -18.4106 56.8470 -5.6171
# 6 -16.1919 -33.6762 8.7218 -10.3363 -5.6171 59.7848
#
#
#
# Elastic Compliance Matrix: (Units=1/GPa)
#
#
# Indices 1 2 3 4 5 6 
#
# 1 0.009966 -0.004059 -0.001719 0.002032 0.004488 0.001437
# 2 -0.004059 0.021314 -0.008255 -0.007768 -0.007516 0.010062
# 3 -0.001719 -0.008255 0.019880 0.002018 0.010013 -0.006726
# 4 0.002032 -0.007768 0.002018 0.028159 0.011195 0.001801
# 5 0.004488 -0.007516 0.010013 0.011195 0.028746 0.000158
# 6 0.001437 0.010062 -0.006726 0.001801 0.000158 0.024091
#
#
# Mechanical properties :
#
#
# Convention : Reuss Voigt Hill
#
# Bulk Modulus (GPa) = 43.30122 57.76363 50.53242
# Shear Modulus (GPa) = 29.77587 46.39355 38.08471
#
# Velocity S-wave (km/s) = 3.48808 4.35394 3.94484
# Velocity P-wave (km/s) = 5.82370 6.99131 6.43405
#
# Compressibility (1/GPa) = 0.02309404
#
# Stress axis : x y z
#
# Youngs Moduli (GPa) = 100.33882 46.91722 50.30199
#
# Poissons Ratio (x) = 0.19044 0.08648
# Poissons Ratio (y) = 0.40728 0.41523
# Poissons Ratio (z) = 0.17251 0.38729
#
# Static dielectric constant tensor:
#      x y z
#    x 2.107300 0.011910 0.026400 
#    y 0.011910 1.974450 -0.028980 
#    z 0.026400 -0.028980 1.950090 
# 
# From -- ./inp_files/135851.got.cif
#   From: 2010.05.17/outbox.cif.g08.bks.cpg/sg2_68_cif.got.tgz:135851.got - 2010.06.03 11:33:40.
