data_PCOD9060426
_publ_section_title
;
Structure prediction by ZEFSAII (Michael W. Deem and Ramdas Pophale) SiO2 
 PCOD9060426
Probable space group: P -1
;
_chemical_formula_sum "Si O2"
_cell_formula_units_Z 16
_cell_length_a 14.132624
_cell_length_b 8.474026
_cell_length_c 18.309944
_cell_angle_alpha 75.041779
_cell_angle_beta 159.352472
_cell_angle_gamma 102.478166
_cell_volume 744.930277
_symmetry_space_group_name_H-M "P -1"
_symmetry_group_IT_number 2
_symmetry_cell_setting 'triclinic'
loop_
_space_group_symop_operation_xyz
x,y,z
-x,-y,-z
loop_
_atom_site_type_symbol
_atom_site_label
_atom_site_fract_x
_atom_site_fract_y
_atom_site_fract_z
Si Si1 0.350638 0.408795 0.470096
Si Si2 0.994296 0.899565 0.432757
Si Si3 0.703842 0.569600 0.803641
Si Si4 0.536625 0.266379 0.973798
Si Si5 0.919137 0.909810 0.666809
Si Si6 0.598250 0.347099 0.177150
Si Si7 0.889419 0.668925 0.081755
Si Si8 0.670656 0.139068 0.576520
O O1 0.500000 0.500000 0.500000
O O2 0.516237 0.427731 0.661646
O O3 0.284155 0.222553 0.437299
O O4 0.064556 0.510855 0.257677
O O5 0.160299 0.729204 0.590576
O O6 0.706796 0.850081 0.200823
O O7 0.131289 0.009149 0.458423
O O8 0.000000 0.000000 0.500000
O O9 0.545035 0.722302 0.628740
O O10 0.740212 0.621271 0.906589
O O11 0.000000 0.500000 0.000000
O O12 0.441362 0.456393 0.865340
O O13 0.625996 0.286123 0.120782
O O14 0.787136 0.186725 0.117139
O O15 0.869292 0.061051 0.667354
O O16 0.330205 0.276189 0.024089
O O17 0.122705 0.792085 0.224165
O O18 0.500000 0.000000 0.500000
#
# Coordination Sequence:
#
# PCOD9060426 Si02
#       8
#     2   2   2   2   2   2   2   2
#     4  11  23  46  72 100 139 182 240 286 339 418
#     4  12  26  43  69 106 146 176 230 296 349 412
#     4  11  24  44  71  96 129 183 232 281 338 417
#     4  11  25  46  73  98 140 189 235 278 348 430
#     4  12  24  48  70 105 141 189 228 288 359 409
#     4  11  24  46  71 102 137 185 234 288 345 417
#     4  11  23  43  70  99 134 182 229 280 349 410
#     4  11  27  44  68 100 144 178 228 296 344 407
#
# _framework density 21.478518999999999
#
# number of rings (size 3 to 8) (size 9 to 14) (size 15 to 20)
#    0.000    0.750    3.750    3.750    1.750    2.500 
#    2.250    0.000    0.000    0.000    0.000    0.000 
#    0.000    0.000    0.000    0.000    0.000    0.000 
#
# Total GULP energy -89284.568748 kJ/mol
# GULP energy per Si atom -5580.285547 kJ/mol
# Density = 2.142963 g / cm^3
# Si number density = 21.478519 Si / 1000 Ang^3
#
#
#
# Elastic Constant Matrix: (Units=GPa)
#
#
# Indices 1 2 3 4 5 6 
#
# 1 82.1167 22.4042 22.5924 1.6414 9.2395 -12.5731
# 2 22.4042 85.1013 40.0067 1.7894 5.4421 -5.9833
# 3 22.5924 40.0067 113.1950 -1.1039 -2.6424 -3.0360
# 4 1.6414 1.7894 -1.1039 41.4742 -7.9594 7.1127
# 5 9.2395 5.4421 -2.6424 -7.9594 27.2072 0.1506
# 6 -12.5731 -5.9833 -3.0360 7.1127 0.1506 38.7200
#
#
#
# Elastic Compliance Matrix: (Units=1/GPa)
#
#
# Indices 1 2 3 4 5 6 
#
# 1 0.014767 -0.002097 -0.002232 -0.002436 -0.005551 0.004765
# 2 -0.002097 0.014964 -0.004919 -0.001579 -0.003229 0.001548
# 3 -0.002232 -0.004919 0.011083 0.001365 0.003222 -0.000879
# 4 -0.002436 -0.001579 0.001365 0.027104 0.009238 -0.005943
# 5 -0.005551 -0.003229 0.003222 0.009238 0.042323 -0.003910
# 6 0.004765 0.001548 -0.000879 -0.005943 -0.003910 0.028651
#
#
# Mechanical properties :
#
#
# Convention : Reuss Voigt Hill
#
# Bulk Modulus (GPa) = 44.80763 50.04661 47.42712
# Shear Modulus (GPa) = 30.33466 34.50760 32.42113
#
# Velocity S-wave (km/s) = 3.76217 4.01260 3.88940
# Velocity P-wave (km/s) = 6.30704 6.69472 6.50377
#
# Compressibility (1/GPa) = 0.02231763
#
# Stress axis : x y z
#
# Youngs Moduli (GPa) = 67.71946 66.82696 90.22562
#
# Poissons Ratio (x) = 0.14016 0.20134
# Poissons Ratio (y) = 0.14203 0.44386
# Poissons Ratio (z) = 0.15112 0.32875
#
# Static dielectric constant tensor:
#      x y z
#    x 1.815860 -0.027750 0.020580 
#    y -0.027750 1.829050 -0.024550 
#    z 0.020580 -0.024550 1.773870 
# 
# From -- ./inp_files/572632.got.cif
#   From: 2010.05.17/outbox.cif.g08.bks.cpg/sg2_287_cif.got.tgz:572632.got - 2010.06.03 11:33:40.
