data_PCOD9060134
_publ_section_title
;
Structure prediction by ZEFSAII (Michael W. Deem and Ramdas Pophale) SiO2 
 PCOD9060134
Probable space group: P -1
;
_chemical_formula_sum "Si O2"
_cell_formula_units_Z 13
_cell_length_a 15.127814
_cell_length_b 10.931982
_cell_length_c 13.719584
_cell_angle_alpha 150.957585
_cell_angle_beta 39.004275
_cell_angle_gamma 151.582742
_cell_volume 523.841613
_symmetry_space_group_name_H-M "P -1"
_symmetry_group_IT_number 2
_symmetry_cell_setting 'triclinic'
loop_
_space_group_symop_operation_xyz
x,y,z
-x,-y,-z
loop_
_atom_site_type_symbol
_atom_site_label
_atom_site_fract_x
_atom_site_fract_y
_atom_site_fract_z
Si Si1 0.809311 0.284850 0.394183
Si Si2 0.216091 0.228507 0.152755
Si Si3 0.635547 0.315995 0.378481
Si Si4 0.000000 0.000000 0.000000
Si Si5 0.986376 0.525307 0.143912
Si Si6 0.373304 0.846096 0.098734
Si Si7 0.570626 0.635136 0.260833
O O1 0.869366 0.631354 0.619572
O O2 0.675189 0.179912 0.343026
O O3 0.968219 0.271894 0.226485
O O4 0.695209 0.018594 0.393401
O O5 0.419604 0.433214 0.164130
O O6 0.102126 0.844082 0.005042
O O7 0.191287 0.242094 0.069655
O O8 0.545590 0.452062 0.602083
O O9 0.496586 0.065074 0.238368
O O10 0.839116 0.564935 0.328732
O O11 0.000000 0.500000 0.000000
O O12 0.188794 0.790317 0.201548
O O13 0.312294 0.481881 0.912639
O O14 0.500000 0.000000 0.000000
#
# Coordination Sequence:
#
# PCOD9060134 Si02
#       7
#     2   2   2   1   2   2   2
#     4  11  25  44  69 103 144 186 231 289 349 421
#     4  11  23  43  66 102 143 177 238 282 344 419
#     4  11  24  49  71 102 142 184 236 284 360 401
#     4  12  22  40  68  98 144 180 232 280 358 402
#     4  12  24  48  74 101 141 186 232 295 347 413
#     4  12  25  48  74 101 140 185 239 287 347 420
#     4  11  25  46  71 102 145 186 231 292 343 422
#
# _framework density 24.816661
#
# number of rings (size 3 to 8) (size 9 to 14) (size 15 to 20)
#    0.000    0.615    4.615    3.231    0.000    6.769 
#   11.077    3.846    0.000    0.000    0.000    0.000 
#    0.000    0.000    0.000    0.000    0.000    0.000 
#
# Total GULP energy -72524.343190 kJ/mol
# GULP energy per Si atom -5578.795630 kJ/mol
# Density = 2.476018 g / cm^3
# Si number density = 24.816661 Si / 1000 Ang^3
#
#
#
# Elastic Constant Matrix: (Units=GPa)
#
#
# Indices 1 2 3 4 5 6 
#
# 1 87.7165 15.3630 32.5375 -8.4625 20.6861 15.3492
# 2 15.3630 61.0134 18.7756 -13.1307 8.7464 -2.2994
# 3 32.5375 18.7756 85.0941 -13.5513 3.8945 7.6261
# 4 -8.4625 -13.1307 -13.5513 39.5752 3.2486 -3.1001
# 5 20.6861 8.7464 3.8945 3.2486 41.1209 -0.6719
# 6 15.3492 -2.2994 7.6261 -3.1001 -0.6719 42.3882
#
#
#
# Elastic Compliance Matrix: (Units=1/GPa)
#
#
# Indices 1 2 3 4 5 6 
#
# 1 0.016298 -0.001356 -0.004870 0.001596 -0.007658 -0.005103
# 2 -0.001356 0.019453 -0.002928 0.005646 -0.003585 0.002429
# 3 -0.004870 -0.002928 0.014720 0.002846 0.001441 -0.000813
# 4 0.001596 0.005646 0.002846 0.028929 -0.004538 0.001260
# 5 -0.007658 -0.003585 0.001441 -0.004538 0.029196 0.002450
# 6 -0.005103 0.002429 -0.000813 0.001260 0.002450 0.025848
#
#
# Mechanical properties :
#
#
# Convention : Reuss Voigt Hill
#
# Bulk Modulus (GPa) = 31.09307 40.79735 35.94521
# Shear Modulus (GPa) = 30.58606 35.76004 33.17305
#
# Velocity S-wave (km/s) = 3.51448 3.80013 3.66009
# Velocity P-wave (km/s) = 5.38749 5.97744 5.69012
#
# Compressibility (1/GPa) = 0.03216150
#
# Stress axis : x y z
#
# Youngs Moduli (GPa) = 61.35867 51.40627 67.93406
#
# Poissons Ratio (x) = 0.06970 0.33087
# Poissons Ratio (y) = 0.08319 0.19893
# Poissons Ratio (z) = 0.29885 0.15053
#
# Static dielectric constant tensor:
#      x y z
#    x 1.965900 -0.071820 0.016620 
#    y -0.071820 2.004650 -0.052710 
#    z 0.016620 -0.052710 1.990030 
# 
# From -- ./inp_files/531383.got.cif
#   From: 2010.05.17/outbox.cif.g08.bks.cpg/sg2_266_cif.got.tgz:531383.got - 2010.06.03 11:33:40.
