data_PCOD9060234
_publ_section_title
;
Structure prediction by ZEFSAII (Michael W. Deem and Ramdas Pophale) SiO2 
 PCOD9060234
Probable space group: P -1
;
_chemical_formula_sum "Si O2"
_cell_formula_units_Z 16
_cell_length_a 14.458338
_cell_length_b 11.475019
_cell_length_c 9.670901
_cell_angle_alpha 60.023159
_cell_angle_beta 67.845377
_cell_angle_gamma 117.755462
_cell_volume 745.303641
_symmetry_space_group_name_H-M "P -1"
_symmetry_group_IT_number 2
_symmetry_cell_setting 'triclinic'
loop_
_space_group_symop_operation_xyz
x,y,z
-x,-y,-z
loop_
_atom_site_type_symbol
_atom_site_label
_atom_site_fract_x
_atom_site_fract_y
_atom_site_fract_z
Si Si1 0.195930 0.698790 0.631715
Si Si2 0.567078 0.857352 0.591805
Si Si3 0.106752 0.305304 0.008243
Si Si4 0.781001 0.591506 0.806442
Si Si5 0.460354 0.059326 0.747199
Si Si6 0.392894 0.513126 0.512801
Si Si7 0.745124 0.777373 0.500231
Si Si8 0.918308 0.479301 0.692111
O O1 0.372355 0.846318 0.366242
O O2 0.046034 0.584442 0.684054
O O3 0.267950 0.890546 0.581444
O O4 0.127977 0.488939 0.868346
O O5 0.522876 0.885481 0.458382
O O6 0.607486 0.746569 0.602615
O O7 0.403627 0.678193 0.891710
O O8 0.129771 0.295996 0.161586
O O9 0.254494 0.399097 0.776095
O O10 0.925427 0.049696 0.210703
O O11 0.753988 0.702526 0.680198
O O12 0.888634 0.607325 0.640092
O O13 0.481627 0.220942 0.723317
O O14 0.272630 0.792141 0.027307
O O15 0.500000 0.500000 0.500000
O O16 0.299724 0.376085 0.504031
O O17 0.000000 0.500000 0.500000
#
# Coordination Sequence:
#
# PCOD9060234 Si02
#       8
#     2   2   2   2   2   2   2   2
#     4  11  24  44  78 101 135 189 240 297 348 414
#     4  12  22  47  74 107 136 190 247 290 354 425
#     4  11  24  45  72 102 140 186 246 291 352 425
#     4  12  25  46  69 106 149 184 237 296 357 430
#     4  11  23  46  75  99 144 181 245 300 341 423
#     4  11  23  43  68 103 137 191 241 284 355 426
#     4  12  26  41  71 105 149 188 230 297 363 418
#     4  12  29  45  69 110 146 187 237 295 371 423
#
# _framework density 21.467760999999999
#
# number of rings (size 3 to 8) (size 9 to 14) (size 15 to 20)
#    0.000    0.500    5.000    3.750    3.500    4.000 
#    0.000    1.250    0.000    0.000    0.000    0.000 
#    0.000    0.000    0.000    0.000    0.000    0.000 
#
# Total GULP energy -89537.389538 kJ/mol
# GULP energy per Si atom -5596.086846 kJ/mol
# Density = 2.141890 g / cm^3
# Si number density = 21.467761 Si / 1000 Ang^3
#
#
#
# Elastic Constant Matrix: (Units=GPa)
#
#
# Indices 1 2 3 4 5 6 
#
# 1 67.2556 11.2104 19.8306 -0.6881 -15.2647 -7.6545
# 2 11.2104 133.5884 11.1517 -13.8076 -6.9150 -0.6789
# 3 19.8306 11.1517 68.6090 -7.4855 -16.8534 0.0196
# 4 -0.6881 -13.8076 -7.4855 40.4825 1.3720 -13.1835
# 5 -15.2647 -6.9150 -16.8534 1.3720 30.0873 -0.2297
# 6 -7.6545 -0.6789 0.0196 -13.1835 -0.2297 37.7930
#
#
#
# Elastic Compliance Matrix: (Units=1/GPa)
#
#
# Indices 1 2 3 4 5 6 
#
# 1 0.018030 -0.000806 -0.003282 0.000431 0.007134 0.003833
# 2 -0.000806 0.007952 -0.000494 0.002897 0.001018 0.000997
# 3 -0.003282 -0.000494 0.017922 0.002942 0.008129 0.000393
# 4 0.000431 0.002897 0.002942 0.029610 0.001262 0.010474
# 5 0.007134 0.001018 0.008129 0.001262 0.041602 0.002152
# 6 0.003833 0.000997 0.000393 0.010474 0.002152 0.030921
#
#
# Mechanical properties :
#
#
# Convention : Reuss Voigt Hill
#
# Bulk Modulus (GPa) = 28.78470 39.31535 34.05003
# Shear Modulus (GPa) = 29.97946 36.82326 33.40136
#
# Velocity S-wave (km/s) = 3.74101 4.14609 3.94875
# Velocity P-wave (km/s) = 5.66548 6.42445 6.05686
#
# Compressibility (1/GPa) = 0.03474068
#
# Stress axis : x y z
#
# Youngs Moduli (GPa) = 55.46171 125.75904 55.79716
#
# Poissons Ratio (x) = 0.10133 0.18314
# Poissons Ratio (y) = 0.04469 0.02755
# Poissons Ratio (z) = 0.18204 0.06210
#
# Static dielectric constant tensor:
#      x y z
#    x 1.784330 -0.012800 -0.031140 
#    y -0.012800 1.793630 0.003310 
#    z -0.031140 0.003310 1.780240 
# 
# From -- ./inp_files/306729.got.cif
#   From: 2010.05.17/outbox.cif.g08.bks.cpg/sg2_154_cif.got.tgz:306729.got - 2010.06.03 11:33:40.
