data_PCOD9060440
_publ_section_title
;
Structure prediction by ZEFSAII (Michael W. Deem and Ramdas Pophale) SiO2 
 PCOD9060440
Probable space group: P -1
;
_chemical_formula_sum "Si O2"
_cell_formula_units_Z 12
_cell_length_a 5.226276
_cell_length_b 18.504014
_cell_length_c 9.353978
_cell_angle_alpha 137.477682
_cell_angle_beta 115.015159
_cell_angle_gamma 82.610837
_cell_volume 528.723154
_symmetry_space_group_name_H-M "P -1"
_symmetry_group_IT_number 2
_symmetry_cell_setting 'triclinic'
loop_
_space_group_symop_operation_xyz
x,y,z
-x,-y,-z
loop_
_atom_site_type_symbol
_atom_site_label
_atom_site_fract_x
_atom_site_fract_y
_atom_site_fract_z
Si Si1 0.222932 0.085377 0.783794
Si Si2 0.750918 0.668171 0.895333
Si Si3 0.124034 0.627965 0.151413
Si Si4 0.880036 0.083015 0.995517
Si Si5 0.256192 0.461963 0.573595
Si Si6 0.174960 0.304425 0.565197
O O1 0.527101 0.055763 0.845759
O O2 0.043077 0.088193 0.890502
O O3 0.298192 0.211904 0.924789
O O4 0.000000 0.000000 0.500000
O O5 0.536231 0.569462 0.794106
O O6 0.694295 0.629659 0.660327
O O7 0.057469 0.658542 0.017954
O O8 0.475457 0.676070 0.323264
O O9 0.966547 0.697697 0.317203
O O10 0.000000 0.500000 0.000000
O O11 0.992610 0.200217 0.276529
O O12 0.000000 0.000000 0.000000
O O13 0.158319 0.413248 0.633339
O O14 0.000000 0.500000 0.500000
#
# Coordination Sequence:
#
# PCOD9060440 Si02
#       6
#     2   2   2   2   2   2
#     4  12  28  50  75 110 142 187 242 304 360 420
#     4  11  26  42  71 103 145 182 239 291 356 423
#     4  12  26  44  68 108 143 189 230 292 353 423
#     4  12  28  51  76 104 141 191 244 294 362 433
#     4  11  23  43  71 100 139 191 228 291 357 426
#     4  12  26  45  71 100 146 183 240 286 357 428
#
# _framework density 22.696186999999998
#
# number of rings (size 3 to 8) (size 9 to 14) (size 15 to 20)
#    0.000    0.333    3.333    4.500    9.333    0.000 
#    0.000    0.000    0.000    0.000    0.000    0.000 
#    0.000    0.000    0.000    0.000    0.000    0.000 
#
# Total GULP energy -67133.768489 kJ/mol
# GULP energy per Si atom -5594.480707 kJ/mol
# Density = 2.264453 g / cm^3
# Si number density = 22.696187 Si / 1000 Ang^3
#
#
#
# Elastic Constant Matrix: (Units=GPa)
#
#
# Indices 1 2 3 4 5 6 
#
# 1 128.0018 12.3066 58.1420 -13.0321 6.5134 -13.1736
# 2 12.3066 94.4452 37.4417 -3.9276 0.1710 -13.7366
# 3 58.1420 37.4417 142.6768 -5.4898 5.5865 -4.2667
# 4 -13.0321 -3.9276 -5.4898 34.9670 -4.6362 0.2648
# 5 6.5134 0.1710 5.5865 -4.6362 42.2575 -20.0537
# 6 -13.1736 -13.7366 -4.2667 0.2648 -20.0537 36.9611
#
#
#
# Elastic Compliance Matrix: (Units=1/GPa)
#
#
# Indices 1 2 3 4 5 6 
#
# 1 0.010402 0.001140 -0.004329 0.003481 0.001424 0.004379
# 2 0.001140 0.012975 -0.003744 0.001730 0.003672 0.006776
# 3 -0.004329 -0.003744 0.009720 -0.000761 -0.002079 -0.002935
# 4 0.003481 0.001730 -0.000761 0.030592 0.004931 0.004252
# 5 0.001424 0.003672 -0.002079 0.004931 0.033674 0.019868
# 6 0.004379 0.006776 -0.002935 0.004252 0.019868 0.041545
#
#
# Mechanical properties :
#
#
# Convention : Reuss Voigt Hill
#
# Bulk Modulus (GPa) = 52.00132 64.54493 58.27312
# Shear Modulus (GPa) = 31.41037 39.98601 35.69819
#
# Velocity S-wave (km/s) = 3.72418 4.20193 3.97025
# Velocity P-wave (km/s) = 6.43851 7.21401 6.83726
#
# Compressibility (1/GPa) = 0.01923028
#
# Stress axis : x y z
#
# Youngs Moduli (GPa) = 96.13878 77.07295 102.88393
#
# Poissons Ratio (x) = -0.08785 0.44536
# Poissons Ratio (y) = -0.10958 0.38519
# Poissons Ratio (z) = 0.41616 0.28856
#
# Static dielectric constant tensor:
#      x y z
#    x 1.909610 -0.037220 0.045830 
#    y -0.037220 1.874380 -0.058010 
#    z 0.045830 -0.058010 2.028120 
# 
# From -- ./inp_files/29653.got.cif
#   From: 2010.05.17/outbox.cif.g08.bks.cpg/sg2_15_cif.got.tgz:29653.got - 2010.06.03 11:33:40.
