data_PCOD9060349
_publ_section_title
;
Structure prediction by ZEFSAII (Michael W. Deem and Ramdas Pophale) SiO2 
 PCOD9060349
Probable space group: P -1
;
_chemical_formula_sum "Si O2"
_cell_formula_units_Z 16
_cell_length_a 9.286824
_cell_length_b 9.260258
_cell_length_c 12.056400
_cell_angle_alpha 76.484087
_cell_angle_beta 80.964144
_cell_angle_gamma 48.433991
_cell_volume 754.261319
_symmetry_space_group_name_H-M "P -1"
_symmetry_group_IT_number 2
_symmetry_cell_setting 'triclinic'
loop_
_space_group_symop_operation_xyz
x,y,z
-x,-y,-z
loop_
_atom_site_type_symbol
_atom_site_label
_atom_site_fract_x
_atom_site_fract_y
_atom_site_fract_z
Si Si1 0.043837 0.161824 0.155411
Si Si2 0.594553 0.212872 0.715608
Si Si3 0.351959 0.969985 0.486796
Si Si4 0.086621 0.407068 0.388127
Si Si5 0.691049 0.463261 0.755005
Si Si6 0.727716 0.150011 0.254872
Si Si7 0.931080 0.834464 0.093798
Si Si8 0.182594 0.413708 0.821994
O O1 0.893261 0.162591 0.241793
O O2 0.946358 0.387409 0.127810
O O3 0.251085 0.004638 0.212944
O O4 0.058678 0.095586 0.039370
O O5 0.571577 0.185182 0.593941
O O6 0.675168 0.325641 0.706405
O O7 0.397076 0.325971 0.787060
O O8 0.296133 0.917188 0.613095
O O9 0.500000 0.000000 0.500000
O O10 0.175803 0.184043 0.422017
O O11 0.239252 0.435011 0.335615
O O12 0.000000 0.500000 0.500000
O O13 0.922991 0.524661 0.294879
O O14 0.476385 0.641941 0.790122
O O15 0.854181 0.327941 0.852584
O O16 0.802556 0.994119 0.176140
O O17 0.832161 0.740813 0.100329
#
# Coordination Sequence:
#
# PCOD9060349 Si02
#       8
#     2   2   2   2   2   2   2   2
#     4  12  26  47  69 103 141 182 235 296 339 408
#     4  12  26  45  70 104 143 180 231 283 350 415
#     4  12  24  44  70 101 143 180 225 284 344 417
#     4  11  23  43  69  99 142 183 227 282 342 409
#     4  11  25  44  70 104 139 181 233 280 348 417
#     4  12  25  44  69 105 139 184 232 282 349 410
#     4  11  26  47  73  99 141 181 238 290 346 405
#     4  11  25  45  69 104 136 181 234 284 351 410
#
# _framework density 21.212807000000002
#
# number of rings (size 3 to 8) (size 9 to 14) (size 15 to 20)
#    0.000    0.500    5.000    3.750    0.000    4.000 
#    0.000    0.000    0.000    0.000    0.000    0.000 
#    0.000    0.000    0.000    0.000    0.000    0.000 
#
# Total GULP energy -89473.643112 kJ/mol
# GULP energy per Si atom -5592.102695 kJ/mol
# Density = 2.116453 g / cm^3
# Si number density = 21.212807 Si / 1000 Ang^3
#
#
#
# Elastic Constant Matrix: (Units=GPa)
#
#
# Indices 1 2 3 4 5 6 
#
# 1 79.7074 15.8784 21.5802 4.9127 0.2346 -3.7473
# 2 15.8784 106.5685 15.9201 15.5824 0.6485 -11.3016
# 3 21.5802 15.9201 108.3989 9.4204 2.4115 -10.4815
# 4 4.9127 15.5824 9.4204 24.2079 7.0660 -0.4351
# 5 0.2346 0.6485 2.4115 7.0660 21.4833 3.1113
# 6 -3.7473 -11.3016 -10.4815 -0.4351 3.1113 42.4204
#
#
#
# Elastic Compliance Matrix: (Units=1/GPa)
#
#
# Indices 1 2 3 4 5 6 
#
# 1 0.013559 -0.001505 -0.002387 -0.000987 0.000466 0.000163
# 2 -0.001505 0.010958 -0.000500 -0.007002 0.001687 0.002467
# 3 -0.002387 -0.000500 0.010258 -0.003019 -0.000435 0.002191
# 4 -0.000987 -0.007002 -0.003019 0.051957 -0.016388 -0.000964
# 5 0.000466 0.001687 -0.000435 -0.016388 0.052457 -0.003632
# 6 0.000163 0.002467 0.002191 -0.000964 -0.003632 0.025043
#
#
# Mechanical properties :
#
#
# Convention : Reuss Voigt Hill
#
# Bulk Modulus (GPa) = 38.47625 44.60357 41.53991
# Shear Modulus (GPa) = 27.52096 33.70874 30.61485
#
# Velocity S-wave (km/s) = 3.60582 3.99064 3.80310
# Velocity P-wave (km/s) = 5.95932 6.50431 6.23777
#
# Compressibility (1/GPa) = 0.02599006
#
# Stress axis : x y z
#
# Youngs Moduli (GPa) = 73.75120 91.25975 97.48649
#
# Poissons Ratio (x) = 0.13733 0.23272
# Poissons Ratio (y) = 0.11099 0.04877
# Poissons Ratio (z) = 0.17606 0.04565
#
# Static dielectric constant tensor:
#      x y z
#    x 1.779290 0.012090 0.008150 
#    y 0.012090 1.757420 -0.022910 
#    z 0.008150 -0.022910 1.724950 
# 
# From -- ./inp_files/187039.got.cif
#   From: 2010.05.17/outbox.cif.g08.bks.cpg/sg2_94_cif.got.tgz:187039.got - 2010.06.03 11:33:40.
