data_PCOD9060263
_publ_section_title
;
Structure prediction by ZEFSAII (Michael W. Deem and Ramdas Pophale) SiO2 
 PCOD9060263
Probable space group: P -1
;
_chemical_formula_sum "Si O2"
_cell_formula_units_Z 16
_cell_length_a 19.433645
_cell_length_b 15.973491
_cell_length_c 29.010765
_cell_angle_alpha 18.334859
_cell_angle_beta 163.061742
_cell_angle_gamma 161.657946
_cell_volume 737.514394
_symmetry_space_group_name_H-M "P -1"
_symmetry_group_IT_number 2
_symmetry_cell_setting 'triclinic'
loop_
_space_group_symop_operation_xyz
x,y,z
-x,-y,-z
loop_
_atom_site_type_symbol
_atom_site_label
_atom_site_fract_x
_atom_site_fract_y
_atom_site_fract_z
Si Si1 0.299523 0.609670 0.620041
Si Si2 0.527368 0.521700 0.107237
Si Si3 0.932860 0.249772 0.873578
Si Si4 0.359450 0.427580 0.322149
Si Si5 0.053925 0.235512 0.451809
Si Si6 0.127908 0.801247 0.032579
Si Si7 0.359283 0.248529 0.313856
Si Si8 0.352946 0.887105 0.662184
O O1 0.419583 0.489693 0.799027
O O2 0.380322 0.534404 0.661496
O O3 0.000000 0.500000 0.500000
O O4 0.410836 0.965921 0.506821
O O5 0.703241 0.406161 0.250326
O O6 0.221707 0.276660 0.034103
O O7 0.622057 0.869168 0.975825
O O8 0.942250 0.321362 0.896423
O O9 0.643707 0.980894 0.821110
O O10 0.928501 0.485280 0.711414
O O11 0.192286 0.572073 0.164225
O O12 0.297545 0.357975 0.265123
O O13 0.341494 0.137584 0.489933
O O14 0.663301 0.672296 0.392525
O O15 0.839444 0.151742 0.398267
O O16 0.000000 0.000000 0.500000
O O17 0.887530 0.835745 0.835182
#
# Coordination Sequence:
#
# PCOD9060263 Si02
#       8
#     2   2   2   2   2   2   2   2
#     4  11  23  43  68  97 133 174 217 270 330 388
#     4  12  24  42  68  99 132 172 221 272 332 388
#     4  11  24  43  65  99 133 173 220 271 334 383
#     4  11  25  43  68  99 133 175 221 269 325 392
#     4  11  24  45  68  97 134 178 221 267 330 393
#     4  12  25  43  68  97 138 174 215 275 329 387
#     4  11  24  43  69  98 131 174 220 267 329 395
#     4  11  25  43  70  96 133 174 224 273 321 396
#
# _framework density 21.694492
#
# number of rings (size 3 to 8) (size 9 to 14) (size 15 to 20)
#    0.000    0.750    3.750    3.750    1.750    6.000 
#    0.000    0.625    0.000    0.000    0.000    0.000 
#    0.000    0.000    0.000    0.000    0.000    0.000 
#
# Total GULP energy -89320.077808 kJ/mol
# GULP energy per Si atom -5582.504863 kJ/mol
# Density = 2.164511 g / cm^3
# Si number density = 21.694492 Si / 1000 Ang^3
#
#
#
# Elastic Constant Matrix: (Units=GPa)
#
#
# Indices 1 2 3 4 5 6 
#
# 1 187.5450 28.5046 25.8866 -3.1443 13.0136 9.7663
# 2 28.5046 33.2484 -4.1206 4.5839 -4.3384 9.8177
# 3 25.8866 -4.1206 49.3540 4.2977 2.5672 3.7774
# 4 -3.1443 4.5839 4.2977 26.5687 -9.8701 9.6471
# 5 13.0136 -4.3384 2.5672 -9.8701 37.1904 -0.6560
# 6 9.7663 9.8177 3.7774 9.6471 -0.6560 27.8865
#
#
#
# Elastic Compliance Matrix: (Units=1/GPa)
#
#
# Indices 1 2 3 4 5 6 
#
# 1 0.007286 -0.007382 -0.004465 0.001921 -0.002594 -0.000074
# 2 -0.007382 0.042226 0.008272 -0.002817 0.005973 -0.012286
# 3 -0.004465 0.008272 0.023974 -0.004969 -0.000497 -0.002889
# 4 0.001921 -0.002817 -0.004969 0.049424 0.012180 -0.015820
# 5 -0.002594 0.005973 -0.000497 0.012180 0.031679 -0.004596
# 6 -0.000074 -0.012286 -0.002889 -0.015820 -0.004596 0.045967
#
#
# Mechanical properties :
#
#
# Convention : Reuss Voigt Hill
#
# Bulk Modulus (GPa) = 15.07443 41.18764 28.13103
# Shear Modulus (GPa) = 21.75644 32.98758 27.37201
#
# Velocity S-wave (km/s) = 3.17023 3.90365 3.55590
# Velocity P-wave (km/s) = 4.51265 6.27252 5.46391
#
# Compressibility (1/GPa) = 0.06633752
#
# Stress axis : x y z
#
# Youngs Moduli (GPa) = 137.24460 23.68217 41.71212
#
# Poissons Ratio (x) = 0.17481 0.18623
# Poissons Ratio (y) = 1.01307 -0.34504
# Poissons Ratio (z) = 0.61276 -0.19590
#
# Static dielectric constant tensor:
#      x y z
#    x 1.792890 0.037960 0.037030 
#    y 0.037960 1.895670 0.033620 
#    z 0.037030 0.033620 1.751520 
# 
# From -- ./inp_files/77656.got.cif
#   From: 2010.05.17/outbox.cif.g08.bks.cpg/sg2_39_cif.got.tgz:77656.got - 2010.06.03 11:33:40.
