data_PCOD9060280
_publ_section_title
;
Structure prediction by ZEFSAII (Michael W. Deem and Ramdas Pophale) SiO2 
 PCOD9060280
Probable space group: P -1
;
_chemical_formula_sum "Si O2"
_cell_formula_units_Z 10
_cell_length_a 9.381403
_cell_length_b 18.607847
_cell_length_c 9.642841
_cell_angle_alpha 40.591116
_cell_angle_beta 128.895102
_cell_angle_gamma 151.669618
_cell_volume 515.269806
_symmetry_space_group_name_H-M "P -1"
_symmetry_group_IT_number 2
_symmetry_cell_setting 'triclinic'
loop_
_space_group_symop_operation_xyz
x,y,z
-x,-y,-z
loop_
_atom_site_type_symbol
_atom_site_label
_atom_site_fract_x
_atom_site_fract_y
_atom_site_fract_z
Si Si1 0.832972 0.116522 0.066088
Si Si2 0.090433 0.046468 0.146389
Si Si3 0.122376 0.231356 0.368872
Si Si4 0.214337 0.519239 0.685408
Si Si5 0.238109 0.546368 0.987099
O O1 0.895285 0.041919 0.118149
O O2 0.901142 0.120048 0.262982
O O3 0.070856 0.328109 0.867219
O O4 0.500000 0.000000 0.000000
O O5 0.432847 0.252237 0.066283
O O6 0.029996 0.902451 0.398691
O O7 0.000000 0.000000 0.000000
O O8 0.439645 0.324380 0.384598
O O9 0.194665 0.394180 0.205144
O O10 0.000000 0.500000 0.500000
O O11 0.206055 0.547806 0.800142
O O12 0.000000 0.500000 0.000000
#
# Coordination Sequence:
#
# PCOD9060280 Si02
#       5
#     2   2   2   2   2
#     4  11  23  43  69 101 132 174 231 273 328 403
#     4  12  27  43  67 100 137 176 222 276 336 390
#     4  11  24  48  69  93 138 179 223 282 325 393
#     4  11  23  43  73  98 129 183 225 271 336 394
#     4  11  26  46  65 100 140 172 222 276 333 398
#
# _framework density 19.407308
#
# number of rings (size 3 to 8) (size 9 to 14) (size 15 to 20)
#    0.000    0.800    4.000    3.000   11.200    3.200 
#    0.000    0.000    0.000    0.000    0.000    0.000 
#    0.000    0.000    0.000    0.000    0.000    0.000 
#
# Total GULP energy -55940.878300 kJ/mol
# GULP energy per Si atom -5594.087830 kJ/mol
# Density = 1.936314 g / cm^3
# Si number density = 19.407308 Si / 1000 Ang^3
#
#
#
# Elastic Constant Matrix: (Units=GPa)
#
#
# Indices 1 2 3 4 5 6 
#
# 1 135.0520 68.6004 71.9687 0.2205 -0.0624 6.2709
# 2 68.6004 161.5295 89.0483 14.0909 -10.5353 0.1181
# 3 71.9687 89.0483 172.3043 18.0685 -12.4022 -23.1117
# 4 0.2205 14.0909 18.0685 27.2433 5.0848 2.5353
# 5 -0.0624 -10.5353 -12.4022 5.0848 20.7492 6.7565
# 6 6.2709 0.1181 -23.1117 2.5353 6.7565 39.4179
#
#
#
# Elastic Compliance Matrix: (Units=1/GPa)
#
#
# Indices 1 2 3 4 5 6 
#
# 1 0.011754 -0.003154 -0.004804 0.005962 -0.004502 -0.004289
# 2 -0.003154 0.010045 -0.003457 -0.003535 0.004579 -0.002113
# 3 -0.004804 -0.003457 0.011699 -0.007486 0.004676 0.007314
# 4 0.005962 -0.003535 -0.007486 0.046947 -0.015927 -0.005617
# 5 -0.004502 0.004579 0.004676 -0.015927 0.059044 -0.005652
# 6 -0.004289 -0.002113 0.007314 -0.005617 -0.005652 0.031676
#
#
# Mechanical properties :
#
#
# Convention : Reuss Voigt Hill
#
# Bulk Modulus (GPa) = 93.73503 103.12449 98.42976
# Shear Modulus (GPa) = 25.30990 33.43331 29.37161
#
# Velocity S-wave (km/s) = 3.61521 4.15507 3.89450
# Velocity P-wave (km/s) = 8.11357 8.73337 8.42917
#
# Compressibility (1/GPa) = 0.01066837
#
# Stress axis : x y z
#
# Youngs Moduli (GPa) = 85.07752 99.55639 85.47474
#
# Poissons Ratio (x) = 0.31401 0.41061
# Poissons Ratio (y) = 0.26834 0.29547
# Poissons Ratio (z) = 0.40870 0.34415
#
# Static dielectric constant tensor:
#      x y z
#    x 1.635080 -0.017380 0.018010 
#    y -0.017380 1.641370 -0.014830 
#    z 0.018010 -0.014830 1.693470 
# 
# From -- ./inp_files/143885.got.cif
#   From: 2010.05.17/outbox.cif.g08.bks.cpg/sg2_72_cif.got.tgz:143885.got - 2010.06.03 11:33:40.
