data_PCOD9060360
_publ_section_title
;
Structure prediction by ZEFSAII (Michael W. Deem and Ramdas Pophale) SiO2 
 PCOD9060360
Probable space group: P -1
;
_chemical_formula_sum "Si O2"
_cell_formula_units_Z 16
_cell_length_a 5.333336
_cell_length_b 20.407583
_cell_length_c 8.052945
_cell_angle_alpha 49.333619
_cell_angle_beta 116.231005
_cell_angle_gamma 107.996014
_cell_volume 596.083065
_symmetry_space_group_name_H-M "P -1"
_symmetry_group_IT_number 2
_symmetry_cell_setting 'triclinic'
loop_
_space_group_symop_operation_xyz
x,y,z
-x,-y,-z
loop_
_atom_site_type_symbol
_atom_site_label
_atom_site_fract_x
_atom_site_fract_y
_atom_site_fract_z
Si Si1 0.950059 0.179234 0.021709
Si Si2 0.655239 0.132358 0.702615
Si Si3 0.053322 0.615332 0.322681
Si Si4 0.317057 0.292151 0.382327
Si Si5 0.303315 0.045465 0.497361
Si Si6 0.495343 0.607697 0.007886
Si Si7 0.302524 0.432224 0.393776
Si Si8 0.748939 0.220425 0.226382
O O1 0.883966 0.123933 0.926355
O O2 0.955838 0.281295 0.816708
O O3 0.729741 0.171588 0.124691
O O4 0.233095 0.139849 0.244530
O O5 0.472221 0.206000 0.613173
O O6 0.453382 0.055283 0.703888
O O7 0.753904 0.169941 0.488374
O O8 0.373720 0.589919 0.431094
O O9 0.824972 0.593693 0.149499
O O10 0.899384 0.567724 0.509506
O O11 0.196313 0.349578 0.394968
O O12 0.067691 0.258592 0.249432
O O13 0.531793 0.358485 0.242852
O O14 0.500000 0.000000 0.500000
O O15 0.000000 0.000000 0.500000
O O16 0.324796 0.521986 0.151500
O O17 0.423701 0.692587 0.953141
#
# Coordination Sequence:
#
# PCOD9060360 Si02
#       8
#     2   2   2   2   2   2   2   2
#     4  12  24  51  84 109 154 208 250 313 386 460
#     4  11  25  49  78 115 154 202 256 312 368 476
#     4  12  25  45  68 105 140 199 265 310 375 454
#     4  11  23  43  70 100 148 200 265 314 374 449
#     4  12  29  54  81 123 158 189 244 312 386 476
#     4  11  25  41  64  99 153 204 252 331 388 416
#     4  12  27  42  67 105 147 198 266 325 376 438
#     4  11  23  47  74 112 154 208 268 312 374 452
#
# _framework density 26.841895999999998
#
# number of rings (size 3 to 8) (size 9 to 14) (size 15 to 20)
#    0.000    0.500    3.750    4.125    3.500    2.500 
#    4.500    0.000    0.000    0.000    0.000    0.000 
#    0.000    0.000    0.000    0.000    0.000    0.000 
#
# Total GULP energy -89548.772076 kJ/mol
# GULP energy per Si atom -5596.798255 kJ/mol
# Density = 2.678080 g / cm^3
# Si number density = 26.841896 Si / 1000 Ang^3
#
#
#
# Elastic Constant Matrix: (Units=GPa)
#
#
# Indices 1 2 3 4 5 6 
#
# 1 122.6097 12.9035 29.1533 -3.7803 6.9730 -5.4725
# 2 12.9035 123.6851 19.4332 20.1364 1.0008 -8.5699
# 3 29.1533 19.4332 53.3319 5.7667 5.7405 -10.4046
# 4 -3.7803 20.1364 5.7667 57.2070 -2.8130 2.0410
# 5 6.9730 1.0008 5.7405 -2.8130 46.3475 -7.0488
# 6 -5.4725 -8.5699 -10.4046 2.0410 -7.0488 45.5214
#
#
#
# Elastic Compliance Matrix: (Units=1/GPa)
#
#
# Indices 1 2 3 4 5 6 
#
# 1 0.009492 -0.000399 -0.005155 0.001261 -0.000748 -0.000285
# 2 -0.000399 0.009102 -0.002550 -0.003008 0.000186 0.001246
# 3 -0.005155 -0.002550 0.023704 -0.002060 -0.001597 0.004163
# 4 0.001261 -0.003008 -0.002060 0.018938 0.001040 -0.001574
# 5 -0.000748 0.000186 -0.001597 0.001040 0.022402 0.003002
# 6 -0.000285 0.001246 0.004163 -0.001574 0.003002 0.023655
#
#
# Mechanical properties :
#
#
# Convention : Reuss Voigt Hill
#
# Bulk Modulus (GPa) = 38.32784 46.95629 42.64207
# Shear Modulus (GPa) = 37.82194 45.69094 41.75644
#
# Velocity S-wave (km/s) = 3.75782 4.13028 3.94844
# Velocity P-wave (km/s) = 5.75660 6.34643 6.05870
#
# Compressibility (1/GPa) = 0.02609070
#
# Stress axis : x y z
#
# Youngs Moduli (GPa) = 105.34807 109.86603 42.18650
#
# Poissons Ratio (x) = 0.04387 0.21746
# Poissons Ratio (y) = 0.04207 0.10757
# Poissons Ratio (z) = 0.54304 0.28015
#
# Static dielectric constant tensor:
#      x y z
#    x 2.161970 0.026480 -0.060850 
#    y 0.026480 2.203340 -0.000490 
#    z -0.060850 -0.000490 2.251670 
# 
# From -- ./inp_files/141189.got.cif
#   From: 2010.05.17/outbox.cif.g08.bks.cpg/sg2_71_cif.got.tgz:141189.got - 2010.06.03 11:33:40.
