data_PCOD9060239
_publ_section_title
;
Structure prediction by ZEFSAII (Michael W. Deem and Ramdas Pophale) SiO2 
 PCOD9060239
Probable space group: P -1
;
_chemical_formula_sum "Si O2"
_cell_formula_units_Z 14
_cell_length_a 13.369938
_cell_length_b 10.922554
_cell_length_c 5.082543
_cell_angle_alpha 124.717710
_cell_angle_beta 88.011590
_cell_angle_gamma 97.301884
_cell_volume 604.489402
_symmetry_space_group_name_H-M "P -1"
_symmetry_group_IT_number 2
_symmetry_cell_setting 'triclinic'
loop_
_space_group_symop_operation_xyz
x,y,z
-x,-y,-z
loop_
_atom_site_type_symbol
_atom_site_label
_atom_site_fract_x
_atom_site_fract_y
_atom_site_fract_z
Si Si1 0.570836 0.486135 0.729353
Si Si2 0.739719 0.756173 0.155308
Si Si3 0.621206 0.198630 0.171202
Si Si4 0.960005 0.326908 0.704049
Si Si5 0.845453 0.193630 0.064503
Si Si6 0.858502 0.839685 0.741363
Si Si7 0.431067 0.075616 0.794906
O O1 0.500000 0.500000 0.500000
O O2 0.617147 0.329322 0.541164
O O3 0.500000 0.500000 0.000000
O O4 0.668827 0.609734 0.886935
O O5 0.771932 0.758367 0.456809
O O6 0.666457 0.881989 0.283470
O O7 0.832029 0.797419 0.994459
O O8 0.728503 0.210434 0.035025
O O9 0.607072 0.035291 0.103938
O O10 0.515162 0.206706 0.044472
O O11 0.879059 0.302975 0.443331
O O12 0.045407 0.232937 0.461853
O O13 0.911808 0.245566 0.868851
O O14 0.000000 0.500000 0.000000
O O15 0.860403 0.019941 0.920807
O O16 0.500000 0.000000 0.500000
#
# Coordination Sequence:
#
# PCOD9060239 Si02
#       7
#     2   2   2   2   2   2   2
#     4  12  26  44  64 101 145 195 230 285 350 415
#     4  12  25  44  72 102 143 184 238 285 352 420
#     4  11  26  41  71 103 142 186 234 287 345 419
#     4  12  29  49  76 106 143 180 236 303 358 417
#     4  12  26  49  76 106 139 187 240 286 360 424
#     4  12  26  49  74 105 136 188 236 295 357 415
#     4  11  23  43  68 103 145 183 232 289 336 416
#
# _framework density 23.160043999999999
#
# number of rings (size 3 to 8) (size 9 to 14) (size 15 to 20)
#    0.000    0.286    2.857    5.571    8.000    0.000 
#    0.000    0.000    0.000    0.000    0.000    0.000 
#    0.000    0.000    0.000    0.000    0.000    0.000 
#
# Total GULP energy -78258.771891 kJ/mol
# GULP energy per Si atom -5589.912278 kJ/mol
# Density = 2.310733 g / cm^3
# Si number density = 23.160044 Si / 1000 Ang^3
#
#
#
# Elastic Constant Matrix: (Units=GPa)
#
#
# Indices 1 2 3 4 5 6 
#
# 1 89.8800 13.4360 17.7627 6.5509 -17.7248 12.4273
# 2 13.4360 71.3031 36.1065 -0.0953 -9.6311 28.2667
# 3 17.7627 36.1065 112.3941 7.9605 -7.5961 12.4979
# 4 6.5509 -0.0953 7.9605 40.4060 -1.7730 1.7263
# 5 -17.7248 -9.6311 -7.5961 -1.7730 54.8741 -10.3731
# 6 12.4273 28.2667 12.4979 1.7263 -10.3731 32.0235
#
#
#
# Elastic Compliance Matrix: (Units=1/GPa)
#
#
# Indices 1 2 3 4 5 6 
#
# 1 0.012577 0.000018 -0.001307 -0.001501 0.003219 -0.003263
# 2 0.000018 0.024859 -0.005944 0.002066 -0.000127 -0.019783
# 3 -0.001307 -0.005944 0.010992 -0.002026 0.000307 0.001673
# 4 -0.001501 0.002066 -0.002026 0.025476 0.000081 -0.001798
# 5 0.003219 -0.000127 0.000307 0.000081 0.020290 0.005311
# 6 -0.003263 -0.019783 0.001673 -0.001798 0.005311 0.051119
#
#
# Mechanical properties :
#
#
# Convention : Reuss Voigt Hill
#
# Bulk Modulus (GPa) = 29.44431 45.35419 37.39925
# Shear Modulus (GPa) = 29.22272 39.21218 34.21745
#
# Velocity S-wave (km/s) = 3.55600 4.11919 3.84791
# Velocity P-wave (km/s) = 5.44070 6.49993 5.99376
#
# Compressibility (1/GPa) = 0.03396242
#
# Stress axis : x y z
#
# Youngs Moduli (GPa) = 79.51067 40.22656 90.97930
#
# Poissons Ratio (x) = -0.00073 0.11889
# Poissons Ratio (y) = -0.00145 0.54078
# Poissons Ratio (z) = 0.10390 0.23911
#
# Static dielectric constant tensor:
#      x y z
#    x 1.849750 -0.033330 0.057600 
#    y -0.033330 1.934830 0.204070 
#    z 0.057600 0.204070 2.303580 
# 
# From -- ./inp_files/48555.got.cif
#   From: 2010.05.17/outbox.cif.g08.bks.cpg/sg2_25_cif.got.tgz:48555.got - 2010.06.03 11:33:40.
