data_PCOD9060511
_publ_section_title
;
Structure prediction by ZEFSAII (Michael W. Deem and Ramdas Pophale) SiO2 
 PCOD9060511
Probable space group: P -1
;
_chemical_formula_sum "Si O2"
_cell_formula_units_Z 16
_cell_length_a 14.654391
_cell_length_b 8.952241
_cell_length_c 12.699939
_cell_angle_alpha 66.807428
_cell_angle_beta 51.384820
_cell_angle_gamma 109.064582
_cell_volume 722.730853
_symmetry_space_group_name_H-M "P -1"
_symmetry_group_IT_number 2
_symmetry_cell_setting 'triclinic'
loop_
_space_group_symop_operation_xyz
x,y,z
-x,-y,-z
loop_
_atom_site_type_symbol
_atom_site_label
_atom_site_fract_x
_atom_site_fract_y
_atom_site_fract_z
Si Si1 0.202019 0.542413 0.761947
Si Si2 0.141633 0.859398 0.711824
Si Si3 0.056268 0.204881 0.324353
Si Si4 0.245505 0.176525 0.057429
Si Si5 0.468741 0.127428 0.917094
Si Si6 0.498650 0.606753 0.575445
Si Si7 0.866635 0.608431 0.377291
Si Si8 0.082786 0.566583 0.304629
O O1 0.208630 0.745102 0.684484
O O2 0.403140 0.677661 0.605951
O O3 0.135972 0.369150 0.752289
O O4 0.053030 0.354495 0.017807
O O5 0.096710 0.894693 0.622569
O O6 0.296677 0.135146 0.588879
O O7 0.224426 0.312622 0.104426
O O8 0.110278 0.411966 0.302493
O O9 0.000000 0.000000 0.500000
O O10 0.364974 0.167788 0.034699
O O11 0.365871 0.358484 0.819184
O O12 0.033052 0.883240 0.249743
O O13 0.660465 0.391895 0.643931
O O14 0.500000 0.000000 0.000000
O O15 0.287929 0.876175 0.044107
O O16 0.500000 0.500000 0.500000
O O17 0.924079 0.482167 0.375269
O O18 0.000000 0.500000 0.500000
#
# Coordination Sequence:
#
# PCOD9060511 Si02
#       8
#     2   2   2   2   2   2   2   2
#     4  11  24  46  73 100 142 192 238 296 354 426
#     4  11  26  47  72 102 145 192 243 289 364 429
#     4  12  26  47  73 103 147 191 230 309 362 412
#     4  11  27  43  67 106 148 177 243 298 355 426
#     4  11  24  41  72  97 135 191 239 290 349 433
#     4  12  26  45  73 111 144 186 238 299 359 427
#     4  11  23  43  72 101 138 191 237 285 361 431
#     4  11  23  47  70 101 140 185 246 291 350 440
#
# _framework density 22.138255999999998
#
# number of rings (size 3 to 8) (size 9 to 14) (size 15 to 20)
#    0.000    0.750    3.750    3.375    3.500    3.000 
#    0.000    1.250    0.000    0.000    0.000    0.000 
#    0.000    0.000    0.000    0.000    0.000    0.000 
#
# Total GULP energy -89327.885865 kJ/mol
# GULP energy per Si atom -5582.992867 kJ/mol
# Density = 2.208787 g / cm^3
# Si number density = 22.138256 Si / 1000 Ang^3
#
#
#
# Elastic Constant Matrix: (Units=GPa)
#
#
# Indices 1 2 3 4 5 6 
#
# 1 114.0303 25.6629 28.5830 8.9619 -1.9647 -13.5121
# 2 25.6629 120.0595 48.5951 10.5154 -8.3629 -17.4159
# 3 28.5830 48.5951 100.2728 1.3109 -2.5684 1.8016
# 4 8.9619 10.5154 1.3109 27.8080 -0.9499 -1.6880
# 5 -1.9647 -8.3629 -2.5684 -0.9499 36.3836 9.5725
# 6 -13.5121 -17.4159 1.8016 -1.6880 9.5725 39.3926
#
#
#
# Elastic Compliance Matrix: (Units=1/GPa)
#
#
# Indices 1 2 3 4 5 6 
#
# 1 0.010170 -0.000342 -0.002778 -0.002828 -0.000725 0.003519
# 2 -0.000342 0.011797 -0.005637 -0.003752 0.000887 0.004980
# 3 -0.002778 -0.005637 0.013560 0.002159 0.000655 -0.004132
# 4 -0.002828 -0.003752 0.002159 0.038132 0.000449 -0.001203
# 5 -0.000725 0.000887 0.000655 0.000449 0.029563 -0.007051
# 6 0.003519 0.004980 -0.004132 -0.001203 -0.007051 0.030645
#
#
# Mechanical properties :
#
#
# Convention : Reuss Voigt Hill
#
# Bulk Modulus (GPa) = 55.51933 60.00496 57.76214
# Shear Modulus (GPa) = 31.76937 36.15160 33.96049
#
# Velocity S-wave (km/s) = 3.79231 4.04541 3.92090
# Velocity P-wave (km/s) = 6.65645 6.99886 6.82980
#
# Compressibility (1/GPa) = 0.01801175
#
# Stress axis : x y z
#
# Youngs Moduli (GPa) = 98.33141 84.76848 73.74855
#
# Poissons Ratio (x) = 0.02895 0.20489
# Poissons Ratio (y) = 0.03358 0.41575
# Poissons Ratio (z) = 0.27319 0.47788
#
# Static dielectric constant tensor:
#      x y z
#    x 1.904660 -0.050910 -0.018910 
#    y -0.050910 1.845240 -0.048290 
#    z -0.018910 -0.048290 1.717350 
# 
# From -- ./inp_files/447101.got.cif
#   From: 2010.05.17/outbox.cif.g08.bks.cpg/sg2_224_cif.got.tgz:447101.got - 2010.06.03 11:33:40.
