data_PCOD9060811
_publ_section_title
;
Structure prediction by ZEFSAII (Michael W. Deem and Ramdas Pophale) SiO2 
 PCOD9060811
Probable space group: P -1
;
_chemical_formula_sum "Si O2"
_cell_formula_units_Z 16
_cell_length_a 18.773285
_cell_length_b 12.985733
_cell_length_c 9.386948
_cell_angle_alpha 143.706306
_cell_angle_beta 104.255721
_cell_angle_gamma 48.930366
_cell_volume 789.102095
_symmetry_space_group_name_H-M "P -1"
_symmetry_group_IT_number 2
_symmetry_cell_setting 'triclinic'
loop_
_space_group_symop_operation_xyz
x,y,z
-x,-y,-z
loop_
_atom_site_type_symbol
_atom_site_label
_atom_site_fract_x
_atom_site_fract_y
_atom_site_fract_z
Si Si1 0.059995 0.805435 0.956390
Si Si2 0.616682 0.314773 0.246165
Si Si3 0.673918 0.854140 0.606565
Si Si4 0.300005 0.209326 0.780617
Si Si5 0.096897 0.227345 0.132401
Si Si6 0.878385 0.147365 0.671163
Si Si7 0.128143 0.233383 0.839742
Si Si8 0.521846 0.859380 0.704718
O O1 0.185415 0.453039 0.618644
O O2 0.959408 0.857411 0.018717
O O3 0.096858 0.879264 0.175974
O O4 0.000000 0.000000 0.000000
O O5 0.500000 0.500000 0.500000
O O6 0.586089 0.554016 0.422988
O O7 0.624245 0.126873 0.948247
O O8 0.759332 0.062165 0.082457
O O9 0.655267 0.906300 0.486844
O O10 0.600490 0.833625 0.613464
O O11 0.220674 0.195183 0.775721
O O12 0.397802 0.056577 0.780139
O O13 0.222894 0.529199 0.074537
O O14 0.000000 0.500000 0.500000
O O15 0.103933 0.314953 0.084674
O O16 0.841805 0.024600 0.466062
O O17 0.000000 0.000000 0.500000
O O18 0.000000 0.500000 0.000000
O O19 0.500000 0.000000 0.000000
#
# Coordination Sequence:
#
# PCOD9060811 Si02
#       8
#     2   2   2   2   2   2   2   2
#     4  11  24  43  71 108 143 189 234 302 368 431
#     4  12  26  47  73 107 147 193 246 302 366 433
#     4  11  25  49  72 103 149 185 250 303 363 434
#     4  11  27  46  72 104 145 191 241 304 368 437
#     4  12  26  44  73 106 148 187 242 304 360 433
#     4  11  23  44  68 102 144 184 236 297 363 429
#     4  12  25  43  72 105 146 191 240 298 368 436
#     4  12  27  46  73 104 142 195 246 299 362 440
#
# _framework density 20.276212000000001
#
# number of rings (size 3 to 8) (size 9 to 14) (size 15 to 20)
#    0.000    0.500    5.000    2.625    3.500    4.500 
#    0.000    0.000    0.000    0.000    0.000    0.000 
#    0.000    0.000    0.000    0.000    0.000    0.000 
#
# Total GULP energy -89293.963876 kJ/mol
# GULP energy per Si atom -5580.872742 kJ/mol
# Density = 2.023006 g / cm^3
# Si number density = 20.276212 Si / 1000 Ang^3
#
#
#
# Elastic Constant Matrix: (Units=GPa)
#
#
# Indices 1 2 3 4 5 6 
#
# 1 176.5509 62.3108 51.1341 -12.9900 -2.6825 -0.4273
# 2 62.3108 173.6644 74.7645 -0.5798 -6.6319 -4.0954
# 3 51.1341 74.7645 135.6429 -11.3402 10.1671 -6.2692
# 4 -12.9900 -0.5798 -11.3402 23.6766 5.2308 -13.9410
# 5 -2.6825 -6.6319 10.1671 5.2308 38.8097 5.9150
# 6 -0.4273 -4.0954 -6.2692 -13.9410 5.9150 40.0720
#
#
#
# Elastic Compliance Matrix: (Units=1/GPa)
#
#
# Indices 1 2 3 4 5 6 
#
# 1 0.006984 -0.001987 -0.001137 0.003946 -0.000259 0.001104
# 2 -0.001987 0.008620 -0.004832 -0.005362 0.003676 -0.002304
# 3 -0.001137 -0.004832 0.012006 0.009725 -0.006225 0.005675
# 4 0.003946 -0.005362 0.009725 0.068721 -0.016626 0.027378
# 5 -0.000259 0.003676 -0.006225 -0.016626 0.031940 -0.011100
# 6 0.001104 -0.002304 0.005675 0.027378 -0.011100 0.036782
#
#
# Mechanical properties :
#
#
# Convention : Reuss Voigt Hill
#
# Bulk Modulus (GPa) = 85.49205 95.80857 90.65031
# Shear Modulus (GPa) = 27.04674 40.35490 33.70082
#
# Velocity S-wave (km/s) = 3.65624 4.46607 4.08129
# Velocity P-wave (km/s) = 7.75109 8.59934 8.18621
#
# Compressibility (1/GPa) = 0.01169699
#
# Stress axis : x y z
#
# Youngs Moduli (GPa) = 143.18960 116.01465 83.28844
#
# Poissons Ratio (x) = 0.23050 0.09472
# Poissons Ratio (y) = 0.28450 0.40248
# Poissons Ratio (z) = 0.16284 0.56062
#
# Static dielectric constant tensor:
#      x y z
#    x 1.616650 -0.018910 -0.055990 
#    y -0.018910 1.324080 0.195940 
#    z -0.055990 0.195940 1.594630 
# 
# From -- ./inp_files/285752.got.cif
#   From: 2010.05.17/outbox.cif.g08.bks.cpg/sg2_143_cif.got.tgz:285752.got - 2010.06.03 11:33:40.
