data_PCOD9060643
_publ_section_title
;
Structure prediction by ZEFSAII (Michael W. Deem and Ramdas Pophale) SiO2 
 PCOD9060643
Probable space group: P -1
;
_chemical_formula_sum "Si O2"
_cell_formula_units_Z 13
_cell_length_a 8.175349
_cell_length_b 9.407327
_cell_length_c 11.609857
_cell_angle_alpha 80.857346
_cell_angle_beta 71.537837
_cell_angle_gamma 134.603947
_cell_volume 497.713326
_symmetry_space_group_name_H-M "P -1"
_symmetry_group_IT_number 2
_symmetry_cell_setting 'triclinic'
loop_
_space_group_symop_operation_xyz
x,y,z
-x,-y,-z
loop_
_atom_site_type_symbol
_atom_site_label
_atom_site_fract_x
_atom_site_fract_y
_atom_site_fract_z
Si Si1 0.000000 0.500000 0.500000
Si Si2 0.232646 0.448786 0.275789
Si Si3 0.649636 0.981185 0.047229
Si Si4 0.288332 0.605400 0.598667
Si Si5 0.284867 0.983289 0.716081
Si Si6 0.925557 0.828729 0.255555
Si Si7 0.712605 0.837313 0.662113
O O1 0.874694 0.575023 0.570535
O O2 0.038669 0.588937 0.342477
O O3 0.370754 0.381536 0.257267
O O4 0.466585 0.711633 0.134467
O O5 0.944528 0.243828 0.286992
O O6 0.707394 0.073816 0.152059
O O7 0.946911 0.137909 0.897629
O O8 0.500000 0.000000 0.000000
O O9 0.397132 0.786177 0.445250
O O10 0.478968 0.768107 0.646557
O O11 0.304883 0.445461 0.619855
O O12 0.199584 0.094635 0.729632
O O13 0.185963 0.014758 0.265434
O O14 0.000000 0.000000 0.500000
#
# Coordination Sequence:
#
# PCOD9060643 Si02
#       7
#     1   2   2   2   2   2   2
#     4  12  26  40  68 102 140 190 212 294 356 404
#     4  11  25  46  70 103 143 177 243 287 352 421
#     4  12  27  47  66 100 148 192 232 282 348 432
#     4  12  24  43  72 106 144 175 238 293 347 423
#     4  11  25  44  74 101 135 186 235 301 339 407
#     4  11  25  43  74 105 141 187 233 285 362 407
#     4  11  23  43  74 111 135 181 234 302 346 406
#
# _framework density 26.119453
#
# number of rings (size 3 to 8) (size 9 to 14) (size 15 to 20)
#    0.000    0.615    4.615    3.692    0.000    6.154 
#    0.000    0.000    0.000    0.000    0.000    0.000 
#    0.000    0.000    0.000    0.000    0.000    0.000 
#
# Total GULP energy -72575.814030 kJ/mol
# GULP energy per Si atom -5582.754925 kJ/mol
# Density = 2.606000 g / cm^3
# Si number density = 26.119453 Si / 1000 Ang^3
#
#
#
# Elastic Constant Matrix: (Units=GPa)
#
#
# Indices 1 2 3 4 5 6 
#
# 1 104.5857 23.6644 29.6333 9.8963 25.6517 34.1832
# 2 23.6644 120.6803 36.8116 13.8747 21.2126 24.0803
# 3 29.6333 36.8116 126.3193 4.9868 15.9667 5.5276
# 4 9.8963 13.8747 4.9868 39.2442 4.4462 15.8487
# 5 25.6517 21.2126 15.9667 4.4462 50.3690 13.8790
# 6 34.1832 24.0803 5.5276 15.8487 13.8790 47.7956
#
#
#
# Elastic Compliance Matrix: (Units=1/GPa)
#
#
# Indices 1 2 3 4 5 6 
#
# 1 0.014081 0.000465 -0.002550 0.000733 -0.004129 -0.009054
# 2 0.000465 0.010414 -0.002583 -0.001557 -0.002558 -0.004021
# 3 -0.002550 -0.002583 0.009332 -0.000532 -0.001236 0.002581
# 4 0.000733 -0.001557 -0.000532 0.029774 0.000494 -0.009695
# 5 -0.004129 -0.002558 -0.001236 0.000494 0.024151 -0.002792
# 6 -0.009054 -0.004021 0.002581 -0.009695 -0.002792 0.033151
#
#
# Mechanical properties :
#
#
# Convention : Reuss Voigt Hill
#
# Bulk Modulus (GPa) = 40.83123 59.08932 49.96028
# Shear Modulus (GPa) = 36.12630 44.91350 40.51990
#
# Velocity S-wave (km/s) = 3.72306 4.15123 3.94297
# Velocity P-wave (km/s) = 5.84363 6.75639 6.31652
#
# Compressibility (1/GPa) = 0.02449106
#
# Stress axis : x y z
#
# Youngs Moduli (GPa) = 71.01531 96.02210 107.16267
#
# Poissons Ratio (x) = -0.04461 0.27323
# Poissons Ratio (y) = -0.03299 0.27681
# Poissons Ratio (z) = 0.18106 0.24803
#
# Static dielectric constant tensor:
#      x y z
#    x 5.503730 3.341600 -1.530420 
#    y 3.341600 5.449170 -1.548150 
#    z -1.530420 -1.548150 2.807680 
# 
# From -- ./inp_files/378660.got.cif
#   From: 2010.05.17/outbox.cif.g08.bks.cpg/sg2_190_cif.got.tgz:378660.got - 2010.06.03 11:33:40.
