data_PCOD9060631
_publ_section_title
;
Structure prediction by ZEFSAII (Michael W. Deem and Ramdas Pophale) SiO2 
 PCOD9060631
Probable space group: P -1
;
_chemical_formula_sum "Si O2"
_cell_formula_units_Z 12
_cell_length_a 14.491526
_cell_length_b 12.420579
_cell_length_c 9.730045
_cell_angle_alpha 50.199023
_cell_angle_beta 68.799188
_cell_angle_gamma 29.770958
_cell_volume 575.245921
_symmetry_space_group_name_H-M "P -1"
_symmetry_group_IT_number 2
_symmetry_cell_setting 'triclinic'
loop_
_space_group_symop_operation_xyz
x,y,z
-x,-y,-z
loop_
_atom_site_type_symbol
_atom_site_label
_atom_site_fract_x
_atom_site_fract_y
_atom_site_fract_z
Si Si1 0.889520 0.149856 0.586238
Si Si2 0.403499 0.815828 0.904432
Si Si3 0.414082 0.115219 0.295965
Si Si4 0.083564 0.188545 0.015225
Si Si5 0.582273 0.162159 0.656155
Si Si6 0.729815 0.151901 0.325840
O O1 0.636315 0.501876 0.434491
O O2 0.923411 0.962542 0.802527
O O3 0.000000 0.000000 0.500000
O O4 0.025038 0.106526 0.615159
O O5 0.493376 0.857997 0.838865
O O6 0.340083 0.867431 0.738818
O O7 0.584409 0.473696 0.124339
O O8 0.200222 0.045068 0.923436
O O9 0.500000 0.000000 0.500000
O O10 0.473103 0.908618 0.339218
O O11 0.155102 0.451098 0.160445
O O12 0.236119 0.081399 0.126288
O O13 0.678712 0.148142 0.503022
#
# Coordination Sequence:
#
# PCOD9060631 Si02
#       6
#     2   2   2   2   2   2
#     4  12  24  43  77 106 138 182 239 291 348 415
#     4  11  25  44  72 104 144 186 235 291 349 417
#     4  12  28  48  69 104 148 188 232 288 357 419
#     4  12  26  45  74 103 143 185 236 292 348 416
#     4  12  26  46  74 109 140 182 236 293 353 418
#     4  11  23  43  74 107 138 184 239 289 349 418
#
# _framework density 20.860644000000001
#
# number of rings (size 3 to 8) (size 9 to 14) (size 15 to 20)
#    0.000    0.333    6.667    2.000    2.333    3.333 
#    0.000    0.000    0.000    0.000    0.000    0.000 
#    0.000    0.000    0.000    0.000    0.000    0.000 
#
# Total GULP energy -67174.489840 kJ/mol
# GULP energy per Si atom -5597.874153 kJ/mol
# Density = 2.081316 g / cm^3
# Si number density = 20.860644 Si / 1000 Ang^3
#
#
#
# Elastic Constant Matrix: (Units=GPa)
#
#
# Indices 1 2 3 4 5 6 
#
# 1 95.5887 18.2117 8.1303 -4.9321 -5.6190 14.6400
# 2 18.2117 125.5440 41.3869 4.4595 2.4643 -3.6885
# 3 8.1303 41.3869 63.6016 -7.0076 16.3947 13.1389
# 4 -4.9321 4.4595 -7.0076 26.5490 -11.1691 0.0223
# 5 -5.6190 2.4643 16.3947 -11.1691 35.5527 0.7307
# 6 14.6400 -3.6885 13.1389 0.0223 0.7307 23.2484
#
#
#
# Elastic Compliance Matrix: (Units=1/GPa)
#
#
# Indices 1 2 3 4 5 6 
#
# 1 0.012790 -0.003090 0.002184 0.004704 0.002909 -0.009875
# 2 -0.003090 0.012362 -0.010704 -0.004677 0.001918 0.009900
# 3 0.002184 -0.010704 0.029774 0.005680 -0.010456 -0.019577
# 4 0.004704 -0.004677 0.005680 0.046371 0.013167 -0.007373
# 5 0.002909 0.001918 -0.010456 0.013167 0.037347 0.003195
# 6 -0.009875 0.009900 -0.019577 -0.007373 0.003195 0.061773
#
#
# Mechanical properties :
#
#
# Convention : Reuss Voigt Hill
#
# Bulk Modulus (GPa) = 31.53905 46.68800 39.11352
# Shear Modulus (GPa) = 21.34873 31.53705 26.44289
#
# Velocity S-wave (km/s) = 3.20253 3.89240 3.56420
# Velocity P-wave (km/s) = 5.36905 6.52921 5.97734
#
# Compressibility (1/GPa) = 0.03170673
#
# Stress axis : x y z
#
# Youngs Moduli (GPa) = 78.18321 80.89603 33.58583
#
# Poissons Ratio (x) = 0.24993 -0.07334
# Poissons Ratio (y) = 0.24155 0.35950
# Poissons Ratio (z) = -0.17072 0.86591
#
# Static dielectric constant tensor:
#      x y z
#    x 1.774030 0.007420 0.020940 
#    y 0.007420 1.705040 -0.002010 
#    z 0.020940 -0.002010 1.736220 
# 
# From -- ./inp_files/17126.got.cif
#   From: 2010.05.17/outbox.cif.g08.bks.cpg/sg2_9_cif.got.tgz:17126.got - 2010.06.03 11:33:40.
