data_PCOD9060958
_publ_section_title
;
Structure prediction by ZEFSAII (Michael W. Deem and Ramdas Pophale) SiO2 
 PCOD9060958
Probable space group: P -1
;
_chemical_formula_sum "Si O2"
_cell_formula_units_Z 14
_cell_length_a 9.633099
_cell_length_b 9.198259
_cell_length_c 8.248051
_cell_angle_alpha 119.020217
_cell_angle_beta 62.289724
_cell_angle_gamma 107.800642
_cell_volume 562.748138
_symmetry_space_group_name_H-M "P -1"
_symmetry_group_IT_number 2
_symmetry_cell_setting 'triclinic'
loop_
_space_group_symop_operation_xyz
x,y,z
-x,-y,-z
loop_
_atom_site_type_symbol
_atom_site_label
_atom_site_fract_x
_atom_site_fract_y
_atom_site_fract_z
Si Si1 0.917301 0.644365 0.324865
Si Si2 0.070450 0.159156 0.902387
Si Si3 0.630999 0.376272 0.308863
Si Si4 0.841078 0.846763 0.802779
Si Si5 0.840095 0.412337 0.621888
Si Si6 0.442594 0.374357 0.107344
Si Si7 0.338797 0.909990 0.612828
O O1 0.898525 0.717398 0.196579
O O2 0.799844 0.475702 0.300607
O O3 0.876737 0.773637 0.563656
O O4 0.095224 0.606358 0.242355
O O5 0.216348 0.046736 0.769152
O O6 0.068420 0.222620 0.124082
O O7 0.913810 0.039118 0.875706
O O8 0.500000 0.500000 0.500000
O O9 0.587831 0.357337 0.134777
O O10 0.617746 0.202921 0.319152
O O11 0.657346 0.807856 0.930827
O O12 0.705777 0.526963 0.708858
O O13 0.759465 0.229931 0.520696
O O14 0.000000 0.500000 0.500000
O O15 0.500000 0.500000 0.000000
O O16 0.500000 0.000000 0.500000
#
# Coordination Sequence:
#
# PCOD9060958 Si02
#       7
#     2   2   2   2   2   2   2
#     4  12  23  45  79  99 134 196 247 286 362 433
#     4  11  26  44  68 106 145 185 237 296 365 433
#     4  12  22  44  72 100 136 188 240 293 357 426
#     4  11  23  44  70  96 148 182 235 293 364 419
#     4  12  22  45  73 103 137 188 244 292 356 431
#     4  12  26  45  71 107 145 185 241 309 360 424
#     4  12  25  39  70 106 142 183 236 297 362 427
#
# _framework density 24.877917
#
# number of rings (size 3 to 8) (size 9 to 14) (size 15 to 20)
#    0.000    0.286    7.143    2.143    2.000    0.000 
#    5.143    2.143    0.000    0.000    0.000    0.000 
#    0.000    0.000    0.000    0.000    0.000    0.000 
#
# Total GULP energy -78130.157340 kJ/mol
# GULP energy per Si atom -5580.725524 kJ/mol
# Density = 2.482129 g / cm^3
# Si number density = 24.877917 Si / 1000 Ang^3
#
#
#
# Elastic Constant Matrix: (Units=GPa)
#
#
# Indices 1 2 3 4 5 6 
#
# 1 163.6967 64.6560 42.4552 -10.3821 20.6633 10.2886
# 2 64.6560 162.0182 61.3800 -38.1833 8.3130 5.7924
# 3 42.4552 61.3800 68.3222 -16.9900 14.7939 14.7888
# 4 -10.3821 -38.1833 -16.9900 47.7318 -2.5145 2.7930
# 5 20.6633 8.3130 14.7939 -2.5145 48.2975 -3.4938
# 6 10.2886 5.7924 14.7888 2.7930 -3.4938 70.8564
#
#
#
# Elastic Compliance Matrix: (Units=1/GPa)
#
#
# Indices 1 2 3 4 5 6 
#
# 1 0.007937 -0.002357 -0.002483 -0.001135 -0.002326 -0.000512
# 2 -0.002357 0.011334 -0.007875 0.005794 0.001838 0.000921
# 3 -0.002483 -0.007875 0.026173 0.002453 -0.005822 -0.004842
# 4 -0.001135 0.005794 0.002453 0.026319 -0.000027 -0.001860
# 5 -0.002326 0.001838 -0.005822 -0.000027 0.023350 0.002555
# 6 -0.000512 0.000921 -0.004842 -0.001860 0.002555 0.015322
#
#
# Mechanical properties :
#
#
# Convention : Reuss Voigt Hill
#
# Bulk Modulus (GPa) = 49.96075 81.22438 65.59257
# Shear Modulus (GPa) = 35.07877 48.41353 41.74615
#
# Velocity S-wave (km/s) = 3.75912 4.41619 4.10083
# Velocity P-wave (km/s) = 6.24238 7.66314 6.98895
#
# Compressibility (1/GPa) = 0.02001571
#
# Stress axis : x y z
#
# Youngs Moduli (GPa) = 125.98516 88.22833 38.20786
#
# Poissons Ratio (x) = 0.20794 0.09487
# Poissons Ratio (y) = 0.29693 0.30087
# Poissons Ratio (z) = 0.31281 0.69476
#
# Static dielectric constant tensor:
#      x y z
#    x 2.003770 0.056370 0.045180 
#    y 0.056370 2.155520 0.130140 
#    z 0.045180 0.130140 2.239810 
# 
# From -- ./inp_files/159597.got.cif
#   From: 2010.05.17/outbox.cif.g08.bks.cpg/sg2_80_cif.got.tgz:159597.got - 2010.06.03 11:33:40.
