data_PCOD9060396
_publ_section_title
;
Structure prediction by ZEFSAII (Michael W. Deem and Ramdas Pophale) SiO2 
 PCOD9060396
Probable space group: P -1
;
_chemical_formula_sum "Si O2"
_cell_formula_units_Z 14
_cell_length_a 10.833516
_cell_length_b 8.828057
_cell_length_c 19.228643
_cell_angle_alpha 140.428695
_cell_angle_beta 144.302486
_cell_angle_gamma 63.690548
_cell_volume 595.234962
_symmetry_space_group_name_H-M "P -1"
_symmetry_group_IT_number 2
_symmetry_cell_setting 'triclinic'
loop_
_space_group_symop_operation_xyz
x,y,z
-x,-y,-z
loop_
_atom_site_type_symbol
_atom_site_label
_atom_site_fract_x
_atom_site_fract_y
_atom_site_fract_z
Si Si1 0.750064 0.655622 0.627743
Si Si2 0.126099 0.673379 0.549079
Si Si3 0.738937 0.469650 0.962425
Si Si4 0.235952 0.943103 0.335024
Si Si5 0.898954 0.440696 0.173097
Si Si6 0.213830 0.085390 0.523328
Si Si7 0.471478 0.140218 0.967512
O O1 0.500000 0.500000 0.500000
O O2 0.799108 0.479138 0.528584
O O3 0.959691 0.723012 0.803673
O O4 0.762052 0.910768 0.683426
O O5 0.000000 0.500000 0.500000
O O6 0.954656 0.792090 0.484215
O O7 0.360884 0.925923 0.778946
O O8 0.497224 0.250676 0.733871
O O9 0.752776 0.360745 0.006045
O O10 0.689017 0.723043 0.038211
O O11 0.021316 0.628656 0.123286
O O12 0.500000 0.000000 0.500000
O O13 0.189241 0.093158 0.431549
O O14 0.716405 0.374221 0.129391
O O15 0.092285 0.764181 0.371487
O O16 0.500000 0.000000 0.000000
#
# Coordination Sequence:
#
# PCOD9060396 Si02
#       7
#     2   2   2   2   2   2   2
#     4  12  26  46  72 105 150 190 235 305 373 434
#     4  12  23  44  74 108 141 194 248 299 359 437
#     4  11  23  43  70 106 142 189 246 296 367 432
#     4  11  24  49  74 101 146 187 245 303 366 438
#     4  11  25  44  68 106 151 185 240 304 364 435
#     4  11  24  44  77 107 139 194 245 304 361 430
#     4  12  24  41  69 108 148 191 244 306 365 431
#
# _framework density 23.520122000000001
#
# number of rings (size 3 to 8) (size 9 to 14) (size 15 to 20)
#    0.000    0.571    4.286    5.571    2.000    1.714 
#    0.000    0.714    0.000    0.000    0.000    0.000 
#    0.000    0.000    0.000    0.000    0.000    0.000 
#
# Total GULP energy -78259.064661 kJ/mol
# GULP energy per Si atom -5589.933190 kJ/mol
# Density = 2.346659 g / cm^3
# Si number density = 23.520122 Si / 1000 Ang^3
#
#
#
# Elastic Constant Matrix: (Units=GPa)
#
#
# Indices 1 2 3 4 5 6 
#
# 1 95.7622 25.8041 37.3540 -1.1865 5.7454 15.2358
# 2 25.8041 133.8340 35.4288 -28.9686 7.1032 33.0507
# 3 37.3540 35.4288 162.2198 -25.3288 8.2444 17.7937
# 4 -1.1865 -28.9686 -25.3288 37.4241 5.4155 2.0660
# 5 5.7454 7.1032 8.2444 5.4155 41.5106 1.4190
# 6 15.2358 33.0507 17.7937 2.0660 1.4190 50.2116
#
#
#
# Elastic Compliance Matrix: (Units=1/GPa)
#
#
# Indices 1 2 3 4 5 6 
#
# 1 0.012195 -0.001864 -0.002646 -0.002705 -0.000442 -0.001412
# 2 -0.001864 0.012088 0.000441 0.010465 -0.002994 -0.007893
# 3 -0.002646 0.000441 0.008010 0.006109 -0.002011 -0.002521
# 4 -0.002705 0.010465 0.006109 0.040502 -0.007583 -0.009685
# 5 -0.000442 -0.002994 -0.002011 -0.007583 0.025970 0.002395
# 6 -0.001412 -0.007893 -0.002521 -0.009685 0.002395 0.026764
#
#
# Mechanical properties :
#
#
# Convention : Reuss Voigt Hill
#
# Bulk Modulus (GPa) = 41.39998 65.44332 53.42165
# Shear Modulus (GPa) = 35.28126 45.37787 40.32957
#
# Velocity S-wave (km/s) = 3.87724 4.39717 4.14537
# Velocity P-wave (km/s) = 6.13874 7.32564 6.75830
#
# Compressibility (1/GPa) = 0.02415460
#
# Stress axis : x y z
#
# Youngs Moduli (GPa) = 82.00363 82.72684 124.84513
#
# Poissons Ratio (x) = 0.15422 0.33034
# Poissons Ratio (y) = 0.15287 -0.05509
# Poissons Ratio (z) = 0.21698 -0.03650
#
# Static dielectric constant tensor:
#      x y z
#    x 1.965740 -0.028100 -0.007010 
#    y -0.028100 1.865000 0.035770 
#    z -0.007010 0.035770 1.922480 
# 
# From -- ./inp_files/467052.got.cif
#   From: 2010.05.17/outbox.cif.g08.bks.cpg/sg2_234_cif.got.tgz:467052.got - 2010.06.03 11:33:40.
