data_PCOD9060710
_publ_section_title
;
Structure prediction by ZEFSAII (Michael W. Deem and Ramdas Pophale) SiO2 
 PCOD9060710
Probable space group: P -1
;
_chemical_formula_sum "Si O2"
_cell_formula_units_Z 12
_cell_length_a 11.121814
_cell_length_b 8.473805
_cell_length_c 8.962043
_cell_angle_alpha 129.898486
_cell_angle_beta 81.651337
_cell_angle_gamma 124.952127
_cell_volume 496.814351
_symmetry_space_group_name_H-M "P -1"
_symmetry_group_IT_number 2
_symmetry_cell_setting 'triclinic'
loop_
_space_group_symop_operation_xyz
x,y,z
-x,-y,-z
loop_
_atom_site_type_symbol
_atom_site_label
_atom_site_fract_x
_atom_site_fract_y
_atom_site_fract_z
Si Si1 0.033662 0.885736 0.564901
Si Si2 0.063045 0.580809 0.869300
Si Si3 0.362516 0.825207 0.803876
Si Si4 0.361886 0.192869 0.804468
Si Si5 0.523229 0.704236 0.463181
Si Si6 0.769434 0.823965 0.734127
O O1 0.051316 0.666546 0.372112
O O2 0.892043 0.775476 0.640035
O O3 0.197387 0.124621 0.754632
O O4 0.000000 0.000000 0.500000
O O5 0.217976 0.620193 0.814623
O O6 0.000000 0.500000 0.000000
O O7 0.124468 0.881040 0.036357
O O8 0.429644 0.741411 0.619743
O O9 0.330244 0.991781 0.813647
O O10 0.500000 0.000000 0.000000
O O11 0.420108 0.147952 0.613064
O O12 0.500000 0.500000 0.000000
O O13 0.678205 0.794388 0.579478
O O14 0.383092 0.389975 0.268254
#
# Coordination Sequence:
#
# PCOD9060710 Si02
#       6
#     2   2   2   2   2   2
#     4  12  25  47  75 108 151 195 250 312 371 444
#     4  12  24  43  75 108 147 199 249 301 381 445
#     4  12  27  47  76 109 153 203 249 310 378 451
#     4  12  29  49  75 114 150 201 257 309 377 455
#     4  11  23  47  77 109 155 194 255 309 377 447
#     4  11  23  43  78 112 146 200 245 307 380 449
#
# _framework density 24.153891000000002
#
# number of rings (size 3 to 8) (size 9 to 14) (size 15 to 20)
#    0.000    0.333    6.667    1.500    4.667    0.667 
#    3.000    1.667    0.000    0.000    0.000    0.000 
#    0.000    0.000    0.000    0.000    0.000    0.000 
#
# Total GULP energy -66962.554313 kJ/mol
# GULP energy per Si atom -5580.212859 kJ/mol
# Density = 2.409892 g / cm^3
# Si number density = 24.153891 Si / 1000 Ang^3
#
#
#
# Elastic Constant Matrix: (Units=GPa)
#
#
# Indices 1 2 3 4 5 6 
#
# 1 101.8681 39.0249 43.6457 -5.8996 10.3678 21.3618
# 2 39.0249 130.1065 29.9912 -21.5937 6.2644 25.0868
# 3 43.6457 29.9912 123.2893 9.8757 -16.1927 17.6613
# 4 -5.8996 -21.5937 9.8757 48.6804 14.2375 -4.1364
# 5 10.3678 6.2644 -16.1927 14.2375 51.0098 -2.9765
# 6 21.3618 25.0868 17.6613 -4.1364 -2.9765 47.5432
#
#
#
# Elastic Compliance Matrix: (Units=1/GPa)
#
#
# Indices 1 2 3 4 5 6 
#
# 1 0.014095 -0.001534 -0.005068 0.003331 -0.005430 -0.003692
# 2 -0.001534 0.010533 -0.002413 0.005701 -0.003555 -0.003699
# 3 -0.005068 -0.002413 0.012033 -0.006208 0.006819 -0.001033
# 4 0.003331 0.005701 -0.006208 0.027964 -0.011180 -0.000466
# 5 -0.005430 -0.003555 0.006819 -0.011180 0.026574 0.002474
# 6 -0.003692 -0.003699 -0.001033 -0.000466 0.002474 0.025142
#
#
# Mechanical properties :
#
#
# Convention : Reuss Voigt Hill
#
# Bulk Modulus (GPa) = 53.67181 64.50971 59.09076
# Shear Modulus (GPa) = 35.56681 45.62015 40.59348
#
# Velocity S-wave (km/s) = 3.84149 4.35067 4.10398
# Velocity P-wave (km/s) = 6.47650 7.21134 6.85378
#
# Compressibility (1/GPa) = 0.01863175
#
# Stress axis : x y z
#
# Youngs Moduli (GPa) = 70.94626 94.94121 83.10584
#
# Poissons Ratio (x) = 0.14559 0.42118
# Poissons Ratio (y) = 0.10880 0.20054
# Poissons Ratio (z) = 0.35956 0.22910
#
# Static dielectric constant tensor:
#      x y z
#    x 1.894740 0.036190 0.039450 
#    y 0.036190 1.884760 -0.037570 
#    z 0.039450 -0.037570 1.867530 
# 
# From -- ./inp_files/245915.got.cif
#   From: 2010.05.17/outbox.cif.g08.bks.cpg/sg2_123_cif.got.tgz:245915.got - 2010.06.03 11:33:40.
