data_PCOD9060601
_publ_section_title
;
Structure prediction by ZEFSAII (Michael W. Deem and Ramdas Pophale) SiO2 
 PCOD9060601
Probable space group: P -1
;
_chemical_formula_sum "Si O2"
_cell_formula_units_Z 16
_cell_length_a 9.872041
_cell_length_b 21.510307
_cell_length_c 17.270151
_cell_angle_alpha 160.674877
_cell_angle_beta 38.431781
_cell_angle_gamma 142.488902
_cell_volume 727.884404
_symmetry_space_group_name_H-M "P -1"
_symmetry_group_IT_number 2
_symmetry_cell_setting 'triclinic'
loop_
_space_group_symop_operation_xyz
x,y,z
-x,-y,-z
loop_
_atom_site_type_symbol
_atom_site_label
_atom_site_fract_x
_atom_site_fract_y
_atom_site_fract_z
Si Si1 0.921841 0.905939 0.238392
Si Si2 0.297439 0.198034 0.197868
Si Si3 0.933714 0.420808 0.021639
Si Si4 0.807379 0.065336 0.313254
Si Si5 0.471110 0.422654 0.543705
Si Si6 0.659834 0.998306 0.612662
Si Si7 0.243974 0.509172 0.129311
Si Si8 0.580800 0.889113 0.681832
O O1 0.841037 0.984985 0.288749
O O2 0.761889 0.932503 0.412314
O O3 0.898801 0.675299 0.974562
O O4 0.174746 0.024778 0.286678
O O5 0.382673 0.287676 0.349758
O O6 0.345562 0.385460 0.341098
O O7 0.036584 0.081934 0.183520
O O8 0.447701 0.054578 0.938720
O O9 0.739778 0.508530 0.247106
O O10 0.142797 0.482585 0.057562
O O11 0.838534 0.189185 0.788589
O O12 0.000000 0.500000 0.000000
O O13 0.780492 0.284799 0.588565
O O14 0.572746 0.949268 0.243854
O O15 0.543328 0.295051 0.428011
O O16 0.613893 0.848883 0.529321
O O17 0.500000 0.500000 0.000000
#
# Coordination Sequence:
#
# PCOD9060601 Si02
#       8
#     2   2   2   2   2   2   2   2
#     4  12  25  44  73 101 142 183 233 281 351 416
#     4  11  24  45  71  97 140 182 243 279 333 420
#     4  12  25  44  72 105 141 181 223 289 357 406
#     4  12  27  47  69 104 141 190 225 285 344 416
#     4  11  23  43  73  99 135 183 237 282 341 411
#     4  12  26  45  68 105 150 173 229 292 355 407
#     4  12  25  43  68 102 139 181 230 277 339 415
#     4  12  24  44  72 107 129 187 232 290 346 408
#
# _framework density 21.981514000000001
#
# number of rings (size 3 to 8) (size 9 to 14) (size 15 to 20)
#    0.000    0.250    6.250    2.625    5.250    0.500 
#    0.000    0.625    0.000    0.000    0.000    0.000 
#    0.000    0.000    0.000    0.000    0.000    0.000 
#
# Total GULP energy -89638.321130 kJ/mol
# GULP energy per Si atom -5602.395071 kJ/mol
# Density = 2.193148 g / cm^3
# Si number density = 21.981514 Si / 1000 Ang^3
#
#
#
# Elastic Constant Matrix: (Units=GPa)
#
#
# Indices 1 2 3 4 5 6 
#
# 1 84.1093 29.5458 -1.5362 2.6163 -9.4218 -8.1380
# 2 29.5458 99.1743 10.5692 -2.1749 -5.1628 -27.6005
# 3 -1.5362 10.5692 58.1933 1.9288 -4.3038 -20.0034
# 4 2.6163 -2.1749 1.9288 31.0210 -8.4523 -13.4511
# 5 -9.4218 -5.1628 -4.3038 -8.4523 25.6143 6.9347
# 6 -8.1380 -27.6005 -20.0034 -13.4511 6.9347 44.5442
#
#
#
# Elastic Compliance Matrix: (Units=1/GPa)
#
#
# Indices 1 2 3 4 5 6 
#
# 1 0.013846 -0.004112 0.001378 -0.000434 0.004411 -0.000217
# 2 -0.004112 0.014175 0.000592 0.005797 0.000664 0.009945
# 3 0.001378 0.000592 0.020884 0.004004 0.002529 0.010813
# 4 -0.000434 0.005797 0.004004 0.042632 0.011303 0.016425
# 5 0.004411 0.000664 0.002529 0.011303 0.045300 -0.001286
# 6 -0.000217 0.009945 0.010813 0.016425 -0.001286 0.038588
#
#
# Mechanical properties :
#
#
# Convention : Reuss Voigt Hill
#
# Bulk Modulus (GPa) = 22.41079 35.40385 28.90732
# Shear Modulus (GPa) = 25.69636 33.76245 29.72940
#
# Velocity S-wave (km/s) = 3.42277 3.92337 3.68159
# Velocity P-wave (km/s) = 5.08310 6.05516 5.59030
#
# Compressibility (1/GPa) = 0.04462137
#
# Stress axis : x y z
#
# Youngs Moduli (GPa) = 72.22527 70.54896 47.88356
#
# Poissons Ratio (x) = 0.29010 -0.06600
# Poissons Ratio (y) = 0.29700 -0.02837
# Poissons Ratio (z) = -0.09955 -0.04180
#
# Static dielectric constant tensor:
#      x y z
#    x 1.788180 0.010870 0.011930 
#    y 0.010870 1.823600 0.016770 
#    z 0.011930 0.016770 1.792690 
# 
# From -- ./inp_files/338179.got.cif
#   From: 2010.05.17/outbox.cif.g08.bks.cpg/sg2_170_cif.got.tgz:338179.got - 2010.06.03 11:33:40.
