data_PCOD9060270
_publ_section_title
;
Structure prediction by ZEFSAII (Michael W. Deem and Ramdas Pophale) SiO2 
 PCOD9060270
Probable space group: P -1
;
_chemical_formula_sum "Si O2"
_cell_formula_units_Z 15
_cell_length_a 12.218881
_cell_length_b 10.304578
_cell_length_c 11.578599
_cell_angle_alpha 141.549512
_cell_angle_beta 112.038126
_cell_angle_gamma 96.491027
_cell_volume 595.179247
_symmetry_space_group_name_H-M "P -1"
_symmetry_group_IT_number 2
_symmetry_cell_setting 'triclinic'
loop_
_space_group_symop_operation_xyz
x,y,z
-x,-y,-z
loop_
_atom_site_type_symbol
_atom_site_label
_atom_site_fract_x
_atom_site_fract_y
_atom_site_fract_z
Si Si1 0.523831 0.425914 0.700815
Si Si2 0.009536 0.836844 0.058107
Si Si3 0.798137 0.246393 0.483352
Si Si4 0.561441 0.227783 0.078618
Si Si5 0.840503 0.014503 0.135007
Si Si6 0.115216 0.987558 0.466774
Si Si7 0.286051 0.929219 0.096127
Si Si8 0.500000 0.500000 0.000000
O O1 0.449446 0.165596 0.403064
O O2 0.418309 0.509788 0.690001
O O3 0.716575 0.718629 0.956803
O O4 0.503747 0.364292 0.785084
O O5 0.041861 0.859488 0.222297
O O6 0.995811 0.069113 0.194322
O O7 0.138988 0.839990 0.052502
O O8 0.838320 0.534046 0.724781
O O9 0.871787 0.207768 0.590704
O O10 0.600833 0.951600 0.194298
O O11 0.874380 0.254105 0.398626
O O12 0.704462 0.290124 0.107383
O O13 0.500000 0.000000 0.000000
O O14 0.728932 0.947372 0.937501
O O15 0.000000 0.000000 0.500000
O O16 0.303254 0.306038 0.761429
#
# Coordination Sequence:
#
# PCOD9060270 Si02
#       8
#     2   2   2   2   2   2   2   1
#     4  11  23  43  72  96 139 176 235 290 347 413
#     4  12  26  42  68 102 138 182 236 286 350 424
#     4  11  24  45  69  98 138 185 230 283 357 419
#     4  11  23  43  68  99 135 183 229 281 349 421
#     4  11  23  44  66 100 137 187 222 288 360 416
#     4  12  24  48  74 100 143 187 236 295 358 414
#     4  12  25  40  68 106 136 176 235 285 349 422
#     4  12  22  46  74 104 136 184 240 290 340 426
#
# _framework density 25.202490999999998
#
# number of rings (size 3 to 8) (size 9 to 14) (size 15 to 20)
#    0.000    0.533    8.000    2.000    1.867    2.667 
#    0.000    4.000    0.000    0.000    0.000    0.000 
#    0.000    0.000    0.000    0.000    0.000    0.000 
#
# Total GULP energy -83652.067664 kJ/mol
# GULP energy per Si atom -5576.804511 kJ/mol
# Density = 2.514513 g / cm^3
# Si number density = 25.202491 Si / 1000 Ang^3
#
#
#
# Elastic Constant Matrix: (Units=GPa)
#
#
# Indices 1 2 3 4 5 6 
#
# 1 179.4615 1.6882 19.4432 6.9349 -6.0749 19.6885
# 2 1.6882 47.9403 0.0700 -24.5549 -7.7797 8.7007
# 3 19.4432 0.0700 108.2708 -14.8446 -11.9353 10.4363
# 4 6.9349 -24.5549 -14.8446 30.8242 5.6963 -6.0000
# 5 -6.0749 -7.7797 -11.9353 5.6963 44.1444 -0.9342
# 6 19.6885 8.7007 10.4363 -6.0000 -0.9342 34.9018
#
#
#
# Elastic Compliance Matrix: (Units=1/GPa)
#
#
# Indices 1 2 3 4 5 6 
#
# 1 0.006286 -0.001570 -0.001277 -0.004081 0.000696 -0.003456
# 2 -0.001570 0.039072 0.005610 0.032520 0.003888 -0.004838
# 3 -0.001277 0.005610 0.011244 0.009225 0.002612 -0.002384
# 4 -0.004081 0.032520 0.009225 0.064298 -0.000581 0.002475
# 5 0.000696 0.003888 0.002612 -0.000581 0.024181 -0.001596
# 6 -0.003456 -0.004838 -0.002384 0.002475 -0.001596 0.032903
#
#
# Mechanical properties :
#
#
# Convention : Reuss Voigt Hill
#
# Bulk Modulus (GPa) = 16.09568 42.00837 29.05202
# Shear Modulus (GPa) = 25.88423 42.93881 34.41152
#
# Velocity S-wave (km/s) = 3.20824 4.13213 3.69914
# Velocity P-wave (km/s) = 4.48599 6.28256 5.45869
#
# Compressibility (1/GPa) = 0.06212849
#
# Stress axis : x y z
#
# Youngs Moduli (GPa) = 159.08917 25.59375 88.93246
#
# Poissons Ratio (x) = 0.04017 0.11361
# Poissons Ratio (y) = 0.24972 -0.49893
# Poissons Ratio (z) = 0.20323 -0.14359
#
# Static dielectric constant tensor:
#      x y z
#    x 2.047940 -0.455250 -0.083430 
#    y -0.455250 4.716900 0.760690 
#    z -0.083430 0.760690 2.156290 
# 
# From -- ./inp_files/259273.got.cif
#   From: 2010.05.17/outbox.cif.g08.bks.cpg/sg2_130_cif.got.tgz:259273.got - 2010.06.03 11:33:40.
