data_PCOD9060177
_publ_section_title
;
Structure prediction by ZEFSAII (Michael W. Deem and Ramdas Pophale) SiO2 
 PCOD9060177
Probable space group: P -1
;
_chemical_formula_sum "Si O2"
_cell_formula_units_Z 16
_cell_length_a 7.596390
_cell_length_b 9.245862
_cell_length_c 12.798398
_cell_angle_alpha 47.680745
_cell_angle_beta 104.997442
_cell_angle_gamma 97.982687
_cell_volume 641.222803
_symmetry_space_group_name_H-M "P -1"
_symmetry_group_IT_number 2
_symmetry_cell_setting 'triclinic'
loop_
_space_group_symop_operation_xyz
x,y,z
-x,-y,-z
loop_
_atom_site_type_symbol
_atom_site_label
_atom_site_fract_x
_atom_site_fract_y
_atom_site_fract_z
Si Si1 0.573723 0.672634 0.501223
Si Si2 0.994783 0.554925 0.592792
Si Si3 0.353587 0.921818 0.749085
Si Si4 0.044940 0.970197 0.400478
Si Si5 0.433280 0.792953 0.049581
Si Si6 0.473214 0.618512 0.748204
Si Si7 0.158640 0.325824 0.110215
Si Si8 0.018886 0.777300 0.076449
O O1 0.500000 0.500000 0.500000
O O2 0.791289 0.633434 0.553185
O O3 0.521144 0.692015 0.604918
O O4 0.529910 0.888700 0.343462
O O5 0.117572 0.745083 0.517979
O O6 0.024598 0.376881 0.764442
O O7 0.000000 0.500000 0.500000
O O8 0.419909 0.814814 0.913585
O O9 0.353381 0.773413 0.723499
O O10 0.148658 0.003646 0.701242
O O11 0.000000 0.000000 0.500000
O O12 0.145655 0.147454 0.278041
O O13 0.570492 0.604647 0.178757
O O14 0.233104 0.748262 0.088050
O O15 0.500000 0.000000 0.000000
O O16 0.650468 0.594170 0.864197
O O17 0.000000 0.500000 0.000000
O O18 0.123863 0.244125 0.029664
O O19 0.000000 0.000000 0.000000
#
# Coordination Sequence:
#
# PCOD9060177 Si02
#       8
#     2   2   2   2   2   2   2   2
#     4  11  24  45  70 100 145 188 237 298 356 433
#     4  11  25  45  68 101 137 182 238 292 359 426
#     4  11  25  43  69 105 140 186 244 290 362 432
#     4  11  23  43  67 101 141 181 231 297 349 427
#     4  12  26  48  70 104 146 187 240 304 365 434
#     4  12  25  47  71 106 142 191 244 296 366 433
#     4  12  22  44  73 101 147 187 238 300 360 427
#     4  12  26  46  73 106 143 189 245 301 368 433
#
# _framework density 24.952325999999999
#
# number of rings (size 3 to 8) (size 9 to 14) (size 15 to 20)
#    0.000    0.500    3.750    4.500    3.500    2.000 
#    2.250    0.000    0.000    0.000    0.000    0.000 
#    0.000    0.000    0.000    0.000    0.000    0.000 
#
# Total GULP energy -89469.531007 kJ/mol
# GULP energy per Si atom -5591.845688 kJ/mol
# Density = 2.489553 g / cm^3
# Si number density = 24.952326 Si / 1000 Ang^3
#
#
#
# Elastic Constant Matrix: (Units=GPa)
#
#
# Indices 1 2 3 4 5 6 
#
# 1 100.8505 21.5679 29.1093 -2.1002 2.3805 0.0418
# 2 21.5679 166.7572 61.7670 -11.4711 -24.8327 -1.4653
# 3 29.1093 61.7670 190.4596 -16.6521 -47.7502 -2.4644
# 4 -2.1002 -11.4711 -16.6521 60.6899 0.5605 -3.9218
# 5 2.3805 -24.8327 -47.7502 0.5605 28.9944 1.9476
# 6 0.0418 -1.4653 -2.4644 -3.9218 1.9476 39.8448
#
#
#
# Elastic Compliance Matrix: (Units=1/GPa)
#
#
# Indices 1 2 3 4 5 6 
#
# 1 0.011294 -0.001430 -0.003165 -0.000678 -0.007353 0.000033
# 2 -0.001430 0.007300 -0.000790 0.001072 0.005042 0.000080
# 3 -0.003165 -0.000790 0.010367 0.002435 0.016607 0.000043
# 4 -0.000678 0.001072 0.002435 0.017391 0.004535 0.001681
# 5 -0.007353 0.005042 0.016607 0.004535 0.066781 -0.001597
# 6 0.000033 0.000080 0.000043 0.001681 -0.001597 0.025346
#
#
# Mechanical properties :
#
#
# Convention : Reuss Voigt Hill
#
# Bulk Modulus (GPa) = 54.96796 75.88395 65.42596
# Shear Modulus (GPa) = 32.19294 48.94736 40.57015
#
# Velocity S-wave (km/s) = 3.59580 4.43384 4.03663
# Velocity P-wave (km/s) = 6.27031 7.52924 6.92843
#
# Compressibility (1/GPa) = 0.01819242
#
# Stress axis : x y z
#
# Youngs Moduli (GPa) = 88.53968 136.99443 96.45654
#
# Poissons Ratio (x) = 0.19588 0.30527
# Poissons Ratio (y) = 0.12660 0.07618
# Poissons Ratio (z) = 0.28021 0.10820
#
# Static dielectric constant tensor:
#      x y z
#    x 2.140340 -0.039630 0.059760 
#    y -0.039630 2.087910 -0.242850 
#    z 0.059760 -0.242850 2.119900 
# 
# From -- ./inp_files/244395.got.cif
#   From: 2010.05.17/outbox.cif.g08.bks.cpg/sg2_123_cif.got.tgz:244395.got - 2010.06.03 11:33:40.
