data_PCOD9060021
_publ_section_title
;
Structure prediction by ZEFSAII (Michael W. Deem and Ramdas Pophale) SiO2 
 PCOD9060021
Probable space group: P -1
;
_chemical_formula_sum "Si O2"
_cell_formula_units_Z 12
_cell_length_a 15.097074
_cell_length_b 6.460377
_cell_length_c 15.775706
_cell_angle_alpha 40.993320
_cell_angle_beta 151.127729
_cell_angle_gamma 123.600750
_cell_volume 458.391701
_symmetry_space_group_name_H-M "P -1"
_symmetry_group_IT_number 2
_symmetry_cell_setting 'triclinic'
loop_
_space_group_symop_operation_xyz
x,y,z
-x,-y,-z
loop_
_atom_site_type_symbol
_atom_site_label
_atom_site_fract_x
_atom_site_fract_y
_atom_site_fract_z
Si Si1 0.410510 0.532097 0.287315
Si Si2 0.887240 0.070771 0.972811
Si Si3 0.305412 0.024150 0.777588
Si Si4 0.265344 0.761713 0.471477
Si Si5 0.882953 0.380095 0.141220
Si Si6 0.337772 0.997104 0.632834
O O1 0.599607 0.244702 0.495588
O O2 0.502550 0.826880 0.274542
O O3 0.249340 0.576463 0.066398
O O4 0.292711 0.592703 0.259097
O O5 0.826830 0.738647 0.029903
O O6 0.058677 0.035734 0.194318
O O7 0.000000 0.000000 0.000000
O O8 0.225826 0.412952 0.561551
O O9 0.166344 0.896130 0.758189
O O10 0.336984 0.825905 0.776255
O O11 0.500000 0.000000 0.000000
O O12 0.372714 0.800024 0.635195
O O13 0.113671 0.247736 0.356934
#
# Coordination Sequence:
#
# PCOD9060021 Si02
#       6
#     2   2   2   2   2   2
#     4  11  24  47  74 103 144 186 240 297 354 426
#     4  12  28  49  77 103 138 193 246 300 357 418
#     4  11  23  42  73 110 147 192 230 286 360 427
#     4  11  24  47  69 109 145 183 240 285 363 424
#     4  12  23  47  71 107 145 189 238 293 354 425
#     4  11  23  43  74 106 150 186 231 291 357 433
#
# _framework density 26.178485999999999
#
# number of rings (size 3 to 8) (size 9 to 14) (size 15 to 20)
#    0.000    0.667    8.333    1.500    0.000    4.000 
#    0.000    1.667    0.000    0.000    0.000    0.000 
#    0.000    0.000    0.000    0.000    0.000    0.000 
#
# Total GULP energy -67089.928348 kJ/mol
# GULP energy per Si atom -5590.827362 kJ/mol
# Density = 2.611890 g / cm^3
# Si number density = 26.178486 Si / 1000 Ang^3
#
#
#
# Elastic Constant Matrix: (Units=GPa)
#
#
# Indices 1 2 3 4 5 6 
#
# 1 133.9537 43.1792 30.1301 -0.5647 16.7657 -6.9891
# 2 43.1792 99.4927 25.5863 28.0134 3.7859 -7.3032
# 3 30.1301 25.5863 130.9384 17.2761 20.2092 -15.1362
# 4 -0.5647 28.0134 17.2761 45.5674 -8.1813 -5.7893
# 5 16.7657 3.7859 20.2092 -8.1813 42.5430 1.1225
# 6 -6.9891 -7.3032 -15.1362 -5.7893 1.1225 59.8298
#
#
#
# Elastic Compliance Matrix: (Units=1/GPa)
#
#
# Indices 1 2 3 4 5 6 
#
# 1 0.009540 -0.004552 -0.001319 0.003103 -0.002147 0.000566
# 2 -0.004552 0.014771 -0.000434 -0.009128 -0.001078 0.000299
# 3 -0.001319 -0.000434 0.009505 -0.003968 -0.004770 0.001903
# 4 0.003103 -0.009128 -0.003968 0.030550 0.007321 0.001063
# 5 -0.002147 -0.001078 -0.004770 0.007321 0.028159 -0.001409
# 6 0.000566 0.000299 0.001903 0.001063 -0.001409 0.017427
#
#
# Mechanical properties :
#
#
# Convention : Reuss Voigt Hill
#
# Bulk Modulus (GPa) = 47.15082 62.46401 54.80741
# Shear Modulus (GPa) = 38.57124 47.28733 42.92928
#
# Velocity S-wave (km/s) = 3.84265 4.25472 4.05392
# Velocity P-wave (km/s) = 6.14315 6.93177 6.54934
#
# Compressibility (1/GPa) = 0.02120854
#
# Stress axis : x y z
#
# Youngs Moduli (GPa) = 104.81773 67.69955 105.20602
#
# Poissons Ratio (x) = 0.30816 0.13872
# Poissons Ratio (y) = 0.47711 0.04562
# Poissons Ratio (z) = 0.13821 0.02936
#
# Static dielectric constant tensor:
#      x y z
#    x 2.088260 -0.043270 0.007770 
#    y -0.043270 2.093930 -0.055560 
#    z 0.007770 -0.055560 2.011560 
# 
# From -- ./inp_files/525227.got.cif
#   From: 2010.05.17/outbox.cif.g08.bks.cpg/sg2_263_cif.got.tgz:525227.got - 2010.06.03 11:33:40.
