data_PCOD9060014
_publ_section_title
;
Structure prediction by ZEFSAII (Michael W. Deem and Ramdas Pophale) SiO2 
 PCOD9060014
Probable space group: P -1
;
_chemical_formula_sum "Si O2"
_cell_formula_units_Z 16
_cell_length_a 5.548819
_cell_length_b 17.905898
_cell_length_c 8.823925
_cell_angle_alpha 128.485869
_cell_angle_beta 78.592064
_cell_angle_gamma 85.859917
_cell_volume 650.548818
_symmetry_space_group_name_H-M "P -1"
_symmetry_group_IT_number 2
_symmetry_cell_setting 'triclinic'
loop_
_space_group_symop_operation_xyz
x,y,z
-x,-y,-z
loop_
_atom_site_type_symbol
_atom_site_label
_atom_site_fract_x
_atom_site_fract_y
_atom_site_fract_z
Si Si1 0.538695 0.820193 0.375370
Si Si2 0.489598 0.616923 0.125765
Si Si3 0.789558 0.199969 0.109363
Si Si4 0.013236 0.724766 0.514401
Si Si5 0.185079 0.449756 0.548734
Si Si6 0.631209 0.381887 0.181599
Si Si7 0.043082 0.888261 0.302971
Si Si8 0.446437 0.106690 0.218868
O O1 0.628726 0.702888 0.266970
O O2 0.311871 0.837403 0.298005
O O3 0.428148 0.883314 0.620581
O O4 0.788777 0.851709 0.326691
O O5 0.217304 0.674129 0.300318
O O6 0.500000 0.500000 0.000000
O O7 0.535911 0.618275 0.942850
O O8 0.796838 0.275869 0.068273
O O9 0.535434 0.173815 0.164653
O O10 0.875079 0.248252 0.306378
O O11 0.939168 0.106349 0.878055
O O12 0.886729 0.637402 0.466373
O O13 0.838179 0.831589 0.629225
O O14 0.457099 0.407764 0.383864
O O15 0.212109 0.538050 0.764342
O O16 0.000000 0.500000 0.500000
O O17 0.000000 0.000000 0.500000
O O18 0.500000 0.000000 0.000000
#
# Coordination Sequence:
#
# PCOD9060014 Si02
#       8
#     2   2   2   2   2   2   2   2
#     4  12  28  54  78 121 164 208 272 338 398 498
#     4  12  28  49  75 114 164 216 261 328 410 485
#     4  12  26  46  77 108 151 201 265 334 393 474
#     4  12  27  48  74 113 155 211 266 329 397 486
#     4  11  23  42  73 104 144 197 260 323 385 472
#     4  11  25  45  70 107 149 199 267 318 398 466
#     4  12  29  52  85 117 159 209 271 342 414 478
#     4  12  29  51  79 108 158 209 264 330 406 475
#
# _framework density 24.594619999999999
#
# number of rings (size 3 to 8) (size 9 to 14) (size 15 to 20)
#    0.000    0.250    5.000    2.625    8.750    2.000 
#    0.000    0.000    0.000    0.000    0.000    0.000 
#    0.000    0.000    0.000    0.000    0.000    0.000 
#
# Total GULP energy -89150.077426 kJ/mol
# GULP energy per Si atom -5571.879839 kJ/mol
# Density = 2.453864 g / cm^3
# Si number density = 24.594620 Si / 1000 Ang^3
#
#
#
# Elastic Constant Matrix: (Units=GPa)
#
#
# Indices 1 2 3 4 5 6 
#
# 1 97.8825 42.5580 33.2497 15.3813 1.7356 16.0133
# 2 42.5580 70.7741 17.2144 11.5487 -0.4172 8.2883
# 3 33.2497 17.2144 117.1422 9.7324 3.4523 7.6688
# 4 15.3813 11.5487 9.7324 43.4503 8.2508 1.4358
# 5 1.7356 -0.4172 3.4523 8.2508 34.5146 -3.8329
# 6 16.0133 8.2883 7.6688 1.4358 -3.8329 44.3262
#
#
#
# Elastic Compliance Matrix: (Units=1/GPa)
#
#
# Indices 1 2 3 4 5 6 
#
# 1 0.015591 -0.007843 -0.002807 -0.002615 -0.000376 -0.003628
# 2 -0.007843 0.019427 -0.000421 -0.002505 0.001210 -0.000541
# 3 -0.002807 -0.000421 0.009527 -0.000882 -0.000671 -0.000585
# 4 -0.002615 -0.002505 -0.000882 0.025934 -0.005987 0.000208
# 5 -0.000376 0.001210 -0.000671 -0.005987 0.030826 0.002885
# 6 -0.003628 -0.000541 -0.000585 0.000208 0.002885 0.024316
#
#
# Mechanical properties :
#
#
# Convention : Reuss Voigt Hill
#
# Bulk Modulus (GPa) = 44.63727 52.42700 48.53213
# Shear Modulus (GPa) = 32.21044 37.30999 34.76022
#
# Velocity S-wave (km/s) = 3.62284 3.89909 3.76350
# Velocity P-wave (km/s) = 5.97399 6.45239 6.21779
#
# Compressibility (1/GPa) = 0.02240280
#
# Stress axis : x y z
#
# Youngs Moduli (GPa) = 64.13965 51.47406 104.97015
#
# Poissons Ratio (x) = 0.40372 0.29465
# Poissons Ratio (y) = 0.50306 0.04418
# Poissons Ratio (z) = 0.18004 0.02166
#
# Static dielectric constant tensor:
#      x y z
#    x 1.972620 0.039870 0.147630 
#    y 0.039870 1.920530 -0.119070 
#    z 0.147630 -0.119070 1.834170 
# 
# From -- ./inp_files/139515.got.cif
#   From: 2010.05.17/outbox.cif.g08.bks.cpg/sg2_70_cif.got.tgz:139515.got - 2010.06.03 11:33:40.
