data_PCOD9060987
_publ_section_title
;
Structure prediction by ZEFSAII (Michael W. Deem and Ramdas Pophale) SiO2 
 PCOD9060987
Probable space group: P -1
;
_chemical_formula_sum "Si O2"
_cell_formula_units_Z 14
_cell_length_a 20.531535
_cell_length_b 16.652851
_cell_length_c 8.588926
_cell_angle_alpha 145.369297
_cell_angle_beta 46.103763
_cell_angle_gamma 156.889042
_cell_volume 627.988543
_symmetry_space_group_name_H-M "P -1"
_symmetry_group_IT_number 2
_symmetry_cell_setting 'triclinic'
loop_
_space_group_symop_operation_xyz
x,y,z
-x,-y,-z
loop_
_atom_site_type_symbol
_atom_site_label
_atom_site_fract_x
_atom_site_fract_y
_atom_site_fract_z
Si Si1 0.695157 0.683637 0.359841
Si Si2 0.868276 0.151122 0.298203
Si Si3 0.355756 0.685467 0.682268
Si Si4 0.118184 0.611711 0.833445
Si Si5 0.958329 0.949913 0.801238
Si Si6 0.409232 0.266063 0.668677
Si Si7 0.343589 0.108996 0.060102
O O1 0.604811 0.671916 0.370445
O O2 0.550937 0.372300 0.131280
O O3 0.709528 0.799436 0.672037
O O4 0.873018 0.871809 0.290685
O O5 0.013052 0.452750 0.593485
O O6 0.777850 0.005501 0.382345
O O7 0.929775 0.078850 0.028015
O O8 0.735885 0.033494 0.202836
O O9 0.222048 0.606371 0.684813
O O10 0.203478 0.367733 0.489029
O O11 0.488666 0.743141 0.498966
O O12 0.500000 0.000000 0.000000
O O13 0.000000 0.500000 0.000000
O O14 0.261775 0.916032 0.031619
O O15 0.000000 0.000000 0.000000
O O16 0.500000 0.500000 0.000000
#
# Coordination Sequence:
#
# PCOD9060987 Si02
#       7
#     2   2   2   2   2   2   2
#     4  11  23  44  71 100 143 185 236 297 357 422
#     4  12  24  42  73 101 140 189 242 288 361 426
#     4  12  24  40  72 109 136 181 244 294 354 415
#     4  12  26  48  69 100 146 190 238 303 360 427
#     4  12  22  43  75 104 137 187 245 293 349 429
#     4  12  21  42  73 102 137 189 240 291 349 436
#     4  11  25  43  66 103 143 185 232 298 364 420
#
# _framework density 22.293399999999998
#
# number of rings (size 3 to 8) (size 9 to 14) (size 15 to 20)
#    0.000    0.286    5.714    3.857    0.000    1.714 
#    0.000    8.571    0.000    0.000    0.000    0.000 
#    0.000    0.000    0.000    0.000    0.000    0.000 
#
# Total GULP energy -77952.400157 kJ/mol
# GULP energy per Si atom -5568.028583 kJ/mol
# Density = 2.224266 g / cm^3
# Si number density = 22.293400 Si / 1000 Ang^3
#
#
#
# Elastic Constant Matrix: (Units=GPa)
#
#
# Indices 1 2 3 4 5 6 
#
# 1 38.3266 5.7348 18.1311 -18.1740 1.8620 5.7266
# 2 5.7348 156.1762 48.1084 0.0809 -8.2107 4.2776
# 3 18.1311 48.1084 130.9342 13.8745 -2.4201 13.2280
# 4 -18.1740 0.0809 13.8745 37.4841 3.4134 -10.9043
# 5 1.8620 -8.2107 -2.4201 3.4134 42.5984 -3.2480
# 6 5.7266 4.2776 13.2280 -10.9043 -3.2480 34.3312
#
#
#
# Elastic Compliance Matrix: (Units=1/GPa)
#
#
# Indices 1 2 3 4 5 6 
#
# 1 0.041974 0.001013 -0.009368 0.025385 -0.003887 0.004177
# 2 0.001013 0.007352 -0.003081 0.001735 0.001117 0.000759
# 3 -0.009368 -0.003081 0.011817 -0.010715 0.000894 -0.005925
# 4 0.025385 0.001735 -0.010715 0.047504 -0.004094 0.014379
# 5 -0.003887 0.001117 0.000894 -0.004094 0.024328 0.001166
# 6 0.004177 0.000759 -0.005925 0.014379 0.001166 0.035297
#
#
# Mechanical properties :
#
#
# Convention : Reuss Voigt Hill
#
# Bulk Modulus (GPa) = 26.13060 52.15396 39.14228
# Shear Modulus (GPa) = 24.52144 39.78025 32.15084
#
# Velocity S-wave (km/s) = 3.32014 4.22879 3.80171
# Velocity P-wave (km/s) = 5.14241 6.87668 6.07178
#
# Compressibility (1/GPa) = 0.03826932
#
# Stress axis : x y z
#
# Youngs Moduli (GPa) = 23.82427 136.01642 84.62081
#
# Poissons Ratio (x) = -0.13773 0.79275
# Poissons Ratio (y) = -0.02412 0.26075
# Poissons Ratio (z) = 0.22319 0.41912
#
# Static dielectric constant tensor:
#      x y z
#    x 1.813880 -0.063410 -0.006100 
#    y -0.063410 1.936200 0.108060 
#    z -0.006100 0.108060 1.892560 
# 
# From -- ./inp_files/320017.got.cif
#   From: 2010.05.17/outbox.cif.g08.bks.cpg/sg2_161_cif.got.tgz:320017.got - 2010.06.03 11:33:40.
