data_PCOD9060094
_publ_section_title
;
Structure prediction by ZEFSAII (Michael W. Deem and Ramdas Pophale) SiO2 
 PCOD9060094
Probable space group: P -1
;
_chemical_formula_sum "Si O2"
_cell_formula_units_Z 14
_cell_length_a 5.247930
_cell_length_b 5.777225
_cell_length_c 21.014616
_cell_angle_alpha 119.988520
_cell_angle_beta 108.896210
_cell_angle_gamma 84.825093
_cell_volume 520.094322
_symmetry_space_group_name_H-M "P -1"
_symmetry_group_IT_number 2
_symmetry_cell_setting 'triclinic'
loop_
_space_group_symop_operation_xyz
x,y,z
-x,-y,-z
loop_
_atom_site_type_symbol
_atom_site_label
_atom_site_fract_x
_atom_site_fract_y
_atom_site_fract_z
Si Si1 0.086247 0.933740 0.068946
Si Si2 0.646464 0.740726 0.108213
Si Si3 0.656765 0.582410 0.620955
Si Si4 0.064112 0.514244 0.183389
Si Si5 0.796413 0.736022 0.517419
Si Si6 0.496133 0.058321 0.751970
Si Si7 0.928084 0.721240 0.338880
O O1 0.171307 0.224389 0.147832
O O2 0.337267 0.750168 0.063459
O O3 0.832202 0.814785 0.073210
O O4 0.000000 0.000000 0.000000
O O5 0.674217 0.957425 0.198905
O O6 0.766246 0.497987 0.123786
O O7 0.642236 0.722240 0.570924
O O8 0.435334 0.326354 0.562906
O O9 0.966469 0.517246 0.644117
O O10 0.574402 0.777411 0.695310
O O11 0.245206 0.731984 0.186668
O O12 0.061663 0.643363 0.270956
O O13 0.000000 0.500000 0.500000
O O14 0.960839 0.022386 0.575247
O O15 0.350790 0.200088 0.701407
#
# Coordination Sequence:
#
# PCOD9060094 Si02
#       7
#     2   2   2   2   2   2   2
#     4  12  28  49  77 111 147 191 238 288 360 437
#     4  11  26  49  74 107 151 186 237 296 357 420
#     4  11  24  42  65  92 141 183 237 301 356 414
#     4  11  26  46  74 106 144 188 241 294 362 430
#     4  11  23  43  61  95 138 181 240 297 355 426
#     4  11  23  46  70 106 140 186 243 298 354 424
#     4  11  24  40  69  97 133 189 238 289 363 422
#
# _framework density 26.918195999999998
#
# number of rings (size 3 to 8) (size 9 to 14) (size 15 to 20)
#    0.000    0.857    4.286    1.714    4.000    2.857 
#    0.000    0.000    0.000    0.000    0.000    0.000 
#    0.000    0.000    0.000    0.000    0.000    0.000 
#
# Total GULP energy -78321.159351 kJ/mol
# GULP energy per Si atom -5594.368525 kJ/mol
# Density = 2.685693 g / cm^3
# Si number density = 26.918196 Si / 1000 Ang^3
#
#
#
# Elastic Constant Matrix: (Units=GPa)
#
#
# Indices 1 2 3 4 5 6 
#
# 1 124.4533 37.2939 38.4551 -6.0601 -9.4113 -21.4862
# 2 37.2939 70.6781 46.5092 -0.3270 -2.8038 -27.8335
# 3 38.4551 46.5092 138.5677 -0.0258 -2.1405 -0.7532
# 4 -6.0601 -0.3270 -0.0258 54.4209 -0.8539 3.6979
# 5 -9.4113 -2.8038 -2.1405 -0.8539 29.1582 -14.7612
# 6 -21.4862 -27.8335 -0.7532 3.6979 -14.7612 45.7634
#
#
#
# Elastic Compliance Matrix: (Units=1/GPa)
#
#
# Indices 1 2 3 4 5 6 
#
# 1 0.010773 -0.001497 -0.002358 0.000876 0.006251 0.006054
# 2 -0.001497 0.030142 -0.009389 -0.001263 0.012654 0.021659
# 3 -0.002358 -0.009389 0.010899 0.000170 -0.005051 -0.008281
# 4 0.000876 -0.001263 0.000170 0.018593 -0.000265 -0.001942
# 5 0.006251 0.012654 -0.005051 -0.000265 0.050796 0.026954
# 6 0.006054 0.021659 -0.008281 -0.001942 0.026954 0.046582
#
#
# Mechanical properties :
#
#
# Convention : Reuss Voigt Hill
#
# Bulk Modulus (GPa) = 39.48207 64.24614 51.86411
# Shear Modulus (GPa) = 24.66534 39.96456 32.31495
#
# Velocity S-wave (km/s) = 3.03034 3.85732 3.46856
# Velocity P-wave (km/s) = 5.19069 6.61495 5.94562
#
# Compressibility (1/GPa) = 0.02532795
#
# Stress axis : x y z
#
# Youngs Moduli (GPa) = 92.82732 33.17631 91.74996
#
# Poissons Ratio (x) = 0.04966 0.21631
# Poissons Ratio (y) = 0.13894 0.86140
# Poissons Ratio (z) = 0.21885 0.31148
#
# Static dielectric constant tensor:
#      x y z
#    x 2.244900 0.035590 0.077900 
#    y 0.035590 2.119300 -0.027680 
#    z 0.077900 -0.027680 2.121780 
# 
# From -- ./inp_files/7405.got.cif
#   From: 2010.05.17/outbox.cif.g08.bks.cpg/sg2_4_cif.got.tgz:7405.got - 2010.06.03 11:33:40.
