data_PCOD9060111
_publ_section_title
;
Structure prediction by ZEFSAII (Michael W. Deem and Ramdas Pophale) SiO2 
 PCOD9060111
Probable space group: P -1
;
_chemical_formula_sum "Si O2"
_cell_formula_units_Z 16
_cell_length_a 15.862982
_cell_length_b 18.890459
_cell_length_c 25.353771
_cell_angle_alpha 19.069574
_cell_angle_beta 26.805707
_cell_angle_gamma 17.300517
_cell_volume 734.389513
_symmetry_space_group_name_H-M "P -1"
_symmetry_group_IT_number 2
_symmetry_cell_setting 'triclinic'
loop_
_space_group_symop_operation_xyz
x,y,z
-x,-y,-z
loop_
_atom_site_type_symbol
_atom_site_label
_atom_site_fract_x
_atom_site_fract_y
_atom_site_fract_z
Si Si1 0.153232 0.823372 0.481429
Si Si2 0.063115 0.698789 0.825786
Si Si3 0.694321 0.133659 0.917410
Si Si4 0.484437 0.675593 0.933768
Si Si5 0.973585 0.062372 0.715264
Si Si6 0.948614 0.554428 0.366888
Si Si7 0.038061 0.457326 0.758715
Si Si8 0.615338 0.538407 0.758757
O O1 0.500000 0.500000 0.500000
O O2 0.040714 0.690658 0.617493
O O3 0.000000 0.000000 0.500000
O O4 0.020969 0.127179 0.305315
O O5 0.388615 0.434138 0.849517
O O6 0.904896 0.990408 0.751549
O O7 0.000000 0.500000 0.000000
O O8 0.902404 0.962750 0.872209
O O9 0.780651 0.258621 0.818723
O O10 0.695325 0.917929 0.104753
O O11 0.780521 0.541398 0.865813
O O12 0.257512 0.062846 0.778419
O O13 0.500000 0.500000 0.000000
O O14 0.409966 0.600683 0.079316
O O15 0.827876 0.426428 0.542085
O O16 0.304494 0.836515 0.696893
O O17 0.989410 0.505561 0.315236
O O18 0.228530 0.384891 0.361858
#
# Coordination Sequence:
#
# PCOD9060111 Si02
#       8
#     2   2   2   2   2   2   2   2
#     4  12  31  52  82 115 150 194 259 318 387 456
#     4  11  27  48  74 105 144 188 243 310 384 452
#     4  11  25  44  70  99 145 189 237 303 371 448
#     4  12  24  40  69 103 141 194 247 303 367 439
#     4  11  26  44  68 102 144 186 242 297 378 446
#     4  12  25  42  71  99 149 186 250 306 360 442
#     4  12  25  45  74 104 144 196 247 310 371 442
#     4  11  23  43  65 103 140 192 245 294 366 448
#
# _framework density 21.786804
#
# number of rings (size 3 to 8) (size 9 to 14) (size 15 to 20)
#    0.000    0.500    5.000    2.250    7.000    1.000 
#    0.000    0.000    0.000    0.000    0.000    0.000 
#    0.000    0.000    0.000    0.000    0.000    0.000 
#
# Total GULP energy -89319.134695 kJ/mol
# GULP energy per Si atom -5582.445918 kJ/mol
# Density = 2.173722 g / cm^3
# Si number density = 21.786804 Si / 1000 Ang^3
#
#
#
# Elastic Constant Matrix: (Units=GPa)
#
#
# Indices 1 2 3 4 5 6 
#
# 1 160.1388 39.7515 69.6202 3.3349 -9.5018 17.8882
# 2 39.7515 43.7343 3.0886 -0.3985 -9.5298 -0.1835
# 3 69.6202 3.0886 130.4239 1.5838 -21.8321 -1.6268
# 4 3.3349 -0.3985 1.5838 26.3735 4.2209 -0.3559
# 5 -9.5018 -9.5298 -21.8321 4.2209 45.0730 0.1123
# 6 17.8882 -0.1835 -1.6268 -0.3559 0.1123 32.7022
#
#
#
# Elastic Compliance Matrix: (Units=1/GPa)
#
#
# Indices 1 2 3 4 5 6 
#
# 1 0.013145 -0.012179 -0.007357 -0.000986 -0.003256 -0.007624
# 2 -0.012179 0.035272 0.007138 0.000414 0.008291 0.007191
# 3 -0.007357 0.007138 0.012506 -0.000620 0.006062 0.004659
# 4 -0.000986 0.000414 -0.000620 0.038746 -0.004052 0.000947
# 5 -0.003256 0.008291 0.006062 -0.004052 0.026564 0.001994
# 6 -0.007624 0.007191 0.004659 0.000947 0.001994 0.035025
#
#
# Mechanical properties :
#
#
# Convention : Reuss Voigt Hill
#
# Bulk Modulus (GPa) = 27.67934 62.13528 44.90731
# Shear Modulus (GPa) = 25.24057 35.61886 30.42971
#
# Velocity S-wave (km/s) = 3.40740 4.04775 3.74130
# Velocity P-wave (km/s) = 5.31157 7.10122 6.27057
#
# Compressibility (1/GPa) = 0.03612803
#
# Stress axis : x y z
#
# Youngs Moduli (GPa) = 76.07461 28.35149 79.96427
#
# Poissons Ratio (x) = 0.34529 0.58826
# Poissons Ratio (y) = 0.92650 -0.57081
# Poissons Ratio (z) = 0.55964 -0.20238
#
# Static dielectric constant tensor:
#      x y z
#    x 1.768750 -0.010720 0.008960 
#    y -0.010720 1.925850 -0.091170 
#    z 0.008960 -0.091170 1.816400 
# 
# From -- ./inp_files/39033.got.cif
#   From: 2010.05.17/outbox.cif.g08.bks.cpg/sg2_20_cif.got.tgz:39033.got - 2010.06.03 11:33:40.
