data_PCOD9060204
_publ_section_title
;
Structure prediction by ZEFSAII (Michael W. Deem and Ramdas Pophale) SiO2 
 PCOD9060204
Probable space group: P -1
;
_chemical_formula_sum "Si O2"
_cell_formula_units_Z 12
_cell_length_a 9.595506
_cell_length_b 14.643264
_cell_length_c 8.513140
_cell_angle_alpha 154.988090
_cell_angle_beta 117.642832
_cell_angle_gamma 63.252658
_cell_volume 446.621584
_symmetry_space_group_name_H-M "P -1"
_symmetry_group_IT_number 2
_symmetry_cell_setting 'triclinic'
loop_
_space_group_symop_operation_xyz
x,y,z
-x,-y,-z
loop_
_atom_site_type_symbol
_atom_site_label
_atom_site_fract_x
_atom_site_fract_y
_atom_site_fract_z
Si Si1 0.432728 0.420115 0.501115
Si Si2 0.099985 0.602866 0.581750
Si Si3 0.698348 0.174309 0.424686
Si Si4 0.506160 0.168329 0.622164
Si Si5 0.031457 0.025460 0.370263
Si Si6 0.830460 0.649076 0.260822
O O1 0.500000 0.500000 0.500000
O O2 0.250007 0.431846 0.383037
O O3 0.546545 0.217004 0.300399
O O4 0.450076 0.601374 0.926074
O O5 0.000000 0.500000 0.500000
O O6 0.986943 0.645489 0.441544
O O7 0.133582 0.833016 0.034442
O O8 0.631150 0.110625 0.459794
O O9 0.850422 0.028724 0.217152
O O10 0.774625 0.407594 0.840922
O O11 0.325422 0.215046 0.541428
O O12 0.500000 0.000000 0.500000
O O13 0.118094 0.236825 0.694842
O O14 0.000000 0.000000 0.500000
#
# Coordination Sequence:
#
# PCOD9060204 Si02
#       6
#     2   2   2   2   2   2
#     4  11  24  43  66  95 130 172 219 269 325 387
#     4  12  25  44  67  97 134 173 217 272 328 388
#     4  11  24  45  69  97 132 176 220 268 328 392
#     4  11  23  43  67  96 134 175 217 269 328 391
#     4  12  25  42  67 102 134 171 220 273 328 389
#     4  11  23  43  68  95 132 177 220 271 325 387
#
# _framework density 26.868385
#
# number of rings (size 3 to 8) (size 9 to 14) (size 15 to 20)
#    0.000    0.667    0.000   10.000    0.000    6.667 
#    0.000    2.500    0.000    0.000    0.000    0.000 
#    0.000    0.000    0.000    0.000    0.000    0.000 
#
# Total GULP energy -67249.694806 kJ/mol
# GULP energy per Si atom -5604.141234 kJ/mol
# Density = 2.680723 g / cm^3
# Si number density = 26.868385 Si / 1000 Ang^3
#
#
#
# Elastic Constant Matrix: (Units=GPa)
#
#
# Indices 1 2 3 4 5 6 
#
# 1 183.8275 47.8269 -0.7526 7.7738 15.0322 -8.1198
# 2 47.8269 145.7492 21.4616 -7.6640 21.0842 -12.5135
# 3 -0.7526 21.4616 99.3736 -3.2160 18.6785 8.4118
# 4 7.7738 -7.6640 -3.2160 40.3601 -1.2227 8.1711
# 5 15.0322 21.0842 18.6785 -1.2227 29.5421 15.4651
# 6 -8.1198 -12.5135 8.4118 8.1711 15.4651 79.4583
#
#
#
# Elastic Compliance Matrix: (Units=1/GPa)
#
#
# Indices 1 2 3 4 5 6 
#
# 1 0.006273 -0.001734 0.000863 -0.001780 -0.003134 0.001070
# 2 -0.001734 0.008682 -0.000938 0.001264 -0.005874 0.002303
# 3 0.000863 -0.000938 0.011619 0.000353 -0.007134 0.000063
# 4 -0.001780 0.001264 0.000353 0.026112 0.002536 -0.003199
# 5 -0.003134 -0.005874 -0.007134 0.002536 0.049711 -0.010426
# 6 0.001070 0.002303 0.000063 -0.003199 -0.010426 0.015409
#
#
# Mechanical properties :
#
#
# Convention : Reuss Voigt Hill
#
# Bulk Modulus (GPa) = 43.56137 62.89134 53.22636
# Shear Modulus (GPa) = 38.73646 53.89972 46.31809
#
# Velocity S-wave (km/s) = 3.80111 4.48377 4.15648
# Velocity P-wave (km/s) = 5.95925 7.08968 6.54890
#
# Compressibility (1/GPa) = 0.02295612
#
# Stress axis : x y z
#
# Youngs Moduli (GPa) = 159.40403 115.17833 86.06415
#
# Poissons Ratio (x) = 0.19973 -0.07426
# Poissons Ratio (y) = 0.27642 0.08074
# Poissons Ratio (z) = -0.13755 0.10805
#
# Static dielectric constant tensor:
#      x y z
#    x 2.117490 -0.078180 -0.088080 
#    y -0.078180 2.119980 0.100340 
#    z -0.088080 0.100340 2.064700 
# 
# From -- ./inp_files/151872.got.cif
#   From: 2010.05.17/outbox.cif.g08.bks.cpg/sg2_76_cif.got.tgz:151872.got - 2010.06.03 11:33:40.
