data_PCOD9060474
_publ_section_title
;
Structure prediction by ZEFSAII (Michael W. Deem and Ramdas Pophale) SiO2 
 PCOD9060474
Probable space group: P -1
;
_chemical_formula_sum "Si O2"
_cell_formula_units_Z 15
_cell_length_a 9.607579
_cell_length_b 5.652564
_cell_length_c 12.359889
_cell_angle_alpha 103.584273
_cell_angle_beta 81.493937
_cell_angle_gamma 63.263692
_cell_volume 557.285728
_symmetry_space_group_name_H-M "P -1"
_symmetry_group_IT_number 2
_symmetry_cell_setting 'triclinic'
loop_
_space_group_symop_operation_xyz
x,y,z
-x,-y,-z
loop_
_atom_site_type_symbol
_atom_site_label
_atom_site_fract_x
_atom_site_fract_y
_atom_site_fract_z
Si Si1 0.962556 0.795703 0.406444
Si Si2 0.500000 0.000000 0.000000
Si Si3 0.643383 0.355546 0.836942
Si Si4 0.751603 0.553177 0.388590
Si Si5 0.994158 0.010038 0.196104
Si Si6 0.699227 0.506307 0.618122
Si Si7 0.168432 0.206765 0.942048
Si Si8 0.561384 0.856766 0.249862
O O1 0.802042 0.778989 0.446387
O O2 0.963802 0.864307 0.288228
O O3 0.130038 0.503825 0.379180
O O4 0.000000 0.000000 0.500000
O O5 0.699439 0.870053 0.988332
O O6 0.454862 0.315685 0.089053
O O7 0.686901 0.331970 0.700939
O O8 0.529008 0.216511 0.842608
O O9 0.812385 0.172495 0.860359
O O10 0.710678 0.422851 0.482385
O O11 0.604573 0.680566 0.335464
O O12 0.912286 0.326011 0.282433
O O13 0.889338 0.012729 0.106773
O O14 0.548797 0.818013 0.677283
O O15 0.269801 0.211277 0.827821
O O16 0.000000 0.500000 0.000000
#
# Coordination Sequence:
#
# PCOD9060474 Si02
#       8
#     2   1   2   2   2   2   2   2
#     4  11  23  43  71 105 150 202 250 306 362 447
#     4  12  24  52  82 104 148 194 260 324 388 430
#     4  11  26  47  76 109 149 201 252 322 373 451
#     4  12  25  42  73 111 152 203 248 301 381 459
#     4  11  24  48  73 107 156 196 252 311 377 449
#     4  11  25  43  70 106 153 195 250 300 371 455
#     4  12  26  53  77 109 146 199 255 326 382 453
#     4  12  27  47  73 110 153 194 255 312 388 453
#
# _framework density 26.916177999999999
#
# number of rings (size 3 to 8) (size 9 to 14) (size 15 to 20)
#    0.000    0.533    5.333    2.400    3.733    1.067 
#    2.400    1.333    0.000    0.000    0.000    0.000 
#    0.000    0.000    0.000    0.000    0.000    0.000 
#
# Total GULP energy -83787.324926 kJ/mol
# GULP energy per Si atom -5585.821662 kJ/mol
# Density = 2.685492 g / cm^3
# Si number density = 26.916178 Si / 1000 Ang^3
#
#
#
# Elastic Constant Matrix: (Units=GPa)
#
#
# Indices 1 2 3 4 5 6 
#
# 1 169.8621 29.5732 42.4858 14.6033 19.7967 -34.2987
# 2 29.5732 82.3318 15.5049 11.5698 0.3227 -35.2387
# 3 42.4858 15.5049 77.3377 11.5783 -1.6682 -9.7441
# 4 14.6033 11.5698 11.5783 64.4003 -8.5378 0.0315
# 5 19.7967 0.3227 -1.6682 -8.5378 40.8997 -1.6553
# 6 -34.2987 -35.2387 -9.7441 0.0315 -1.6553 51.3280
#
#
#
# Elastic Compliance Matrix: (Units=1/GPa)
#
#
# Indices 1 2 3 4 5 6 
#
# 1 0.008507 0.000010 -0.003892 -0.001825 -0.004463 0.004810
# 2 0.000010 0.018044 -0.001661 -0.002998 -0.000352 0.012070
# 3 -0.003892 -0.001661 0.015557 -0.001320 0.002227 -0.000715
# 4 -0.001825 -0.002998 -0.001320 0.017293 0.004325 -0.003399
# 5 -0.004463 -0.000352 0.002227 0.004325 0.027529 -0.001916
# 6 0.004810 0.012070 -0.000715 -0.003399 -0.001916 0.030787
#
#
# Mechanical properties :
#
#
# Convention : Reuss Voigt Hill
#
# Bulk Modulus (GPa) = 32.23621 56.07326 44.15473
# Shear Modulus (GPa) = 35.93374 47.45679 41.69527
#
# Velocity S-wave (km/s) = 3.65776 4.20352 3.94010
# Velocity P-wave (km/s) = 5.46274 6.66613 6.09421
#
# Compressibility (1/GPa) = 0.03102102
#
# Stress axis : x y z
#
# Youngs Moduli (GPa) = 117.54715 55.42083 64.27885
#
# Poissons Ratio (x) = -0.00055 0.25020
# Poissons Ratio (y) = -0.00116 0.10677
# Poissons Ratio (z) = 0.45755 0.09205
#
# Static dielectric constant tensor:
#      x y z
#    x 2.108310 0.149860 -0.127620 
#    y 0.149860 2.435100 -0.285610 
#    z -0.127620 -0.285610 2.390060 
# 
# From -- ./inp_files/488653.got.cif
#   From: 2010.05.17/outbox.cif.g08.bks.cpg/sg2_245_cif.got.tgz:488653.got - 2010.06.03 11:33:40.
