data_PCOD9060871
_publ_section_title
;
Structure prediction by ZEFSAII (Michael W. Deem and Ramdas Pophale) SiO2 
 PCOD9060871
Probable space group: P -1
;
_chemical_formula_sum "Si O2"
_cell_formula_units_Z 16
_cell_length_a 16.886494
_cell_length_b 5.225163
_cell_length_c 9.490245
_cell_angle_alpha 79.976805
_cell_angle_beta 132.366824
_cell_angle_gamma 103.412159
_cell_volume 601.629308
_symmetry_space_group_name_H-M "P -1"
_symmetry_group_IT_number 2
_symmetry_cell_setting 'triclinic'
loop_
_space_group_symop_operation_xyz
x,y,z
-x,-y,-z
loop_
_atom_site_type_symbol
_atom_site_label
_atom_site_fract_x
_atom_site_fract_y
_atom_site_fract_z
Si Si1 0.778916 0.602931 0.733495
Si Si2 0.426234 0.279909 0.693041
Si Si3 0.252930 0.806594 0.035851
Si Si4 0.292895 0.976451 0.768229
Si Si5 0.135989 0.695837 0.394577
Si Si6 0.095749 0.248725 0.602511
Si Si7 0.463213 0.130443 0.300717
Si Si8 0.077463 0.099639 0.888312
O O1 0.687135 0.726110 0.528424
O O2 0.720225 0.405319 0.800567
O O3 0.839618 0.442936 0.707617
O O4 0.864776 0.798125 0.908770
O O5 0.489304 0.569924 0.706759
O O6 0.395070 0.188339 0.824226
O O7 0.492340 0.058766 0.740099
O O8 0.332876 0.076404 0.146641
O O9 0.129929 0.849136 0.921969
O O10 0.283774 0.786334 0.911070
O O11 0.249335 0.808078 0.595071
O O12 0.200857 0.149828 0.677102
O O13 0.079746 0.488835 0.462883
O O14 0.051393 0.901596 0.257016
O O15 0.114433 0.301231 0.784931
O O16 0.000000 0.000000 0.500000
O O17 0.500000 0.000000 0.500000
#
# Coordination Sequence:
#
# PCOD9060871 Si02
#       8
#     2   2   2   2   2   2   2   2
#     4  12  26  45  73 112 148 198 251 314 379 456
#     4  12  27  50  81 108 155 200 257 314 394 455
#     4  11  28  47  75 111 148 192 258 314 379 453
#     4  11  26  48  74 109 151 198 251 309 375 461
#     4  12  25  45  73 104 156 201 248 305 382 454
#     4  11  23  44  69 102 143 203 251 296 377 449
#     4  12  26  50  81 115 148 202 251 325 395 452
#     4  11  26  42  70 104 151 193 251 306 369 449
#
# _framework density 26.594446000000001
#
# number of rings (size 3 to 8) (size 9 to 14) (size 15 to 20)
#    0.000    0.500    3.750    3.375    7.000    1.500 
#    0.000    0.000    0.000    0.000    0.000    0.000 
#    0.000    0.000    0.000    0.000    0.000    0.000 
#
# Total GULP energy -89615.319575 kJ/mol
# GULP energy per Si atom -5600.957473 kJ/mol
# Density = 2.653392 g / cm^3
# Si number density = 26.594446 Si / 1000 Ang^3
#
#
#
# Elastic Constant Matrix: (Units=GPa)
#
#
# Indices 1 2 3 4 5 6 
#
# 1 102.9555 16.7781 40.3574 -20.5618 -20.1353 -7.6620
# 2 16.7781 116.9744 47.9602 -32.3316 -42.7598 34.6033
# 3 40.3574 47.9602 124.6853 -17.4275 -17.4603 14.2116
# 4 -20.5618 -32.3316 -17.4275 42.6014 9.1317 -12.5733
# 5 -20.1353 -42.7598 -17.4603 9.1317 41.2681 -6.8947
# 6 -7.6620 34.6033 14.2116 -12.5733 -6.8947 44.1733
#
#
#
# Elastic Compliance Matrix: (Units=1/GPa)
#
#
# Indices 1 2 3 4 5 6 
#
# 1 0.014095 0.003029 -0.004215 0.007151 0.007422 0.004622
# 2 0.003029 0.022609 -0.004494 0.009726 0.019184 -0.009977
# 3 -0.004215 -0.004494 0.010830 -0.000939 -0.002140 -0.001296
# 4 0.007151 0.009726 -0.000939 0.033893 0.006434 0.004575
# 5 0.007422 0.019184 -0.002140 0.006434 0.044692 -0.004245
# 6 0.004622 -0.009977 -0.001296 0.004575 -0.004245 0.032312
#
#
# Mechanical properties :
#
#
# Convention : Reuss Voigt Hill
#
# Bulk Modulus (GPa) = 27.64436 61.64515 44.64476
# Shear Modulus (GPa) = 27.49490 41.57651 34.53571
#
# Velocity S-wave (km/s) = 3.21886 3.95822 3.60753
# Velocity P-wave (km/s) = 4.92261 6.64229 5.84603
#
# Compressibility (1/GPa) = 0.03617375
#
# Stress axis : x y z
#
# Youngs Moduli (GPa) = 70.94528 44.22934 92.33523
#
# Poissons Ratio (x) = -0.13396 0.38923
# Poissons Ratio (y) = -0.21488 0.41496
# Poissons Ratio (z) = 0.29906 0.19877
#
# Static dielectric constant tensor:
#      x y z
#    x 2.040980 0.111880 -0.075330 
#    y 0.111880 1.643120 0.316740 
#    z -0.075330 0.316740 1.971170 
# 
# From -- ./inp_files/46606.got.cif
#   From: 2010.05.17/outbox.cif.g08.bks.cpg/sg2_24_cif.got.tgz:46606.got - 2010.06.03 11:33:40.
