data_PCOD9060231
_publ_section_title
;
Structure prediction by ZEFSAII (Michael W. Deem and Ramdas Pophale) SiO2 
 PCOD9060231
Probable space group: P -1
;
_chemical_formula_sum "Si O2"
_cell_formula_units_Z 16
_cell_length_a 8.768145
_cell_length_b 13.798157
_cell_length_c 6.384531
_cell_angle_alpha 109.743391
_cell_angle_beta 103.941399
_cell_angle_gamma 92.418253
_cell_volume 699.117513
_symmetry_space_group_name_H-M "P -1"
_symmetry_group_IT_number 2
_symmetry_cell_setting 'triclinic'
loop_
_space_group_symop_operation_xyz
x,y,z
-x,-y,-z
loop_
_atom_site_type_symbol
_atom_site_label
_atom_site_fract_x
_atom_site_fract_y
_atom_site_fract_z
Si Si1 0.913649 0.553481 0.699267
Si Si2 0.191995 0.631062 0.162604
Si Si3 0.686646 0.713625 0.722903
Si Si4 0.556964 0.298370 0.051303
Si Si5 0.746782 0.064107 0.578583
Si Si6 0.806554 0.199484 0.346489
Si Si7 0.582876 0.846339 0.415843
Si Si8 0.979499 0.878186 0.970038
O O1 0.821606 0.468076 0.761851
O O2 0.795053 0.628060 0.625430
O O3 0.000000 0.500000 0.500000
O O4 0.044992 0.616312 0.940974
O O5 0.181158 0.723489 0.393686
O O6 0.343466 0.645145 0.066854
O O7 0.549822 0.652064 0.780052
O O8 0.596495 0.768986 0.553921
O O9 0.810701 0.812389 0.919570
O O10 0.678106 0.238104 0.178286
O O11 0.420927 0.218164 0.841816
O O12 0.761068 0.086333 0.352863
O O13 0.585450 0.109739 0.614652
O O14 0.896309 0.118669 0.795520
O O15 0.718761 0.943252 0.536841
O O16 0.958280 0.186784 0.249424
O O17 0.000000 0.000000 0.000000
#
# Coordination Sequence:
#
# PCOD9060231 Si02
#       8
#     2   2   2   2   2   2   2   2
#     4  11  26  49  82 107 146 187 240 301 376 445
#     4  11  24  48  75 112 135 198 239 291 383 438
#     4  12  26  45  70 113 144 185 245 309 362 428
#     4  12  24  44  70 102 151 188 237 303 363 431
#     4  11  23  43  68 102 142 204 248 288 365 431
#     4  12  23  45  75  97 150 194 242 302 360 431
#     4  11  24  41  68 105 145 191 248 293 360 430
#     4  12  26  44  69 108 149 197 249 303 356 426
#
# _framework density 22.885994
#
# number of rings (size 3 to 8) (size 9 to 14) (size 15 to 20)
#    0.000    0.500    5.000    3.000    1.750    5.500 
#    0.000    4.375    0.000    0.000    0.000    0.000 
#    0.000    0.000    0.000    0.000    0.000    0.000 
#
# Total GULP energy -89340.330087 kJ/mol
# GULP energy per Si atom -5583.770630 kJ/mol
# Density = 2.283390 g / cm^3
# Si number density = 22.885994 Si / 1000 Ang^3
#
#
#
# Elastic Constant Matrix: (Units=GPa)
#
#
# Indices 1 2 3 4 5 6 
#
# 1 101.3464 34.3767 32.0588 -1.1268 -20.1689 16.9793
# 2 34.3767 96.2794 22.1114 -7.8648 -9.8249 7.6015
# 3 32.0588 22.1114 88.3350 1.6158 6.8440 13.8715
# 4 -1.1268 -7.8648 1.6158 21.8029 2.1738 -7.4371
# 5 -20.1689 -9.8249 6.8440 2.1738 42.8173 -12.8409
# 6 16.9793 7.6015 13.8715 -7.4371 -12.8409 33.1370
#
#
#
# Elastic Compliance Matrix: (Units=1/GPa)
#
#
# Indices 1 2 3 4 5 6 
#
# 1 0.013906 -0.003341 -0.004186 -0.001692 0.005707 -0.002775
# 2 -0.003341 0.012615 -0.002460 0.004952 0.001981 0.001727
# 3 -0.004186 -0.002460 0.015204 -0.004010 -0.006935 -0.007242
# 4 -0.001692 0.004952 -0.004010 0.052440 0.002569 0.014174
# 5 0.005707 0.001981 -0.006935 0.002569 0.031123 0.012162
# 6 -0.002775 0.001727 -0.007242 0.014174 0.012162 0.042129
#
#
# Mechanical properties :
#
#
# Convention : Reuss Voigt Hill
#
# Bulk Modulus (GPa) = 45.97675 51.45051 48.71363
# Shear Modulus (GPa) = 25.68832 32.71236 29.20034
#
# Velocity S-wave (km/s) = 3.35393 3.78479 3.57586
# Velocity P-wave (km/s) = 5.92719 6.45210 6.19520
#
# Compressibility (1/GPa) = 0.02175012
#
# Stress axis : x y z
#
# Youngs Moduli (GPa) = 71.90987 79.27366 65.77411
#
# Poissons Ratio (x) = 0.26482 0.27534
# Poissons Ratio (y) = 0.24022 0.16183
# Poissons Ratio (z) = 0.30102 0.19504
#
# Static dielectric constant tensor:
#      x y z
#    x 1.877700 0.040170 -0.032810 
#    y 0.040170 1.923110 0.009300 
#    z -0.032810 0.009300 1.868990 
# 
# From -- ./inp_files/39979.got.cif
#   From: 2010.05.17/outbox.cif.g08.bks.cpg/sg2_20_cif.got.tgz:39979.got - 2010.06.03 11:33:40.
