data_PCOD9060524
_publ_section_title
;
Structure prediction by ZEFSAII (Michael W. Deem and Ramdas Pophale) SiO2 
 PCOD9060524
Probable space group: P -1
;
_chemical_formula_sum "Si O2"
_cell_formula_units_Z 15
_cell_length_a 9.816648
_cell_length_b 10.658790
_cell_length_c 13.495789
_cell_angle_alpha 135.102273
_cell_angle_beta 36.383411
_cell_angle_gamma 119.819583
_cell_volume 582.187709
_symmetry_space_group_name_H-M "P -1"
_symmetry_group_IT_number 2
_symmetry_cell_setting 'triclinic'
loop_
_space_group_symop_operation_xyz
x,y,z
-x,-y,-z
loop_
_atom_site_type_symbol
_atom_site_label
_atom_site_fract_x
_atom_site_fract_y
_atom_site_fract_z
Si Si1 0.836178 0.154029 0.880959
Si Si2 0.160573 0.120404 0.415663
Si Si3 0.838627 0.147947 0.095469
Si Si4 0.430826 0.346381 0.525829
Si Si5 0.259866 0.217738 0.982036
Si Si6 0.854033 0.425499 0.629244
Si Si7 0.000000 0.500000 0.000000
Si Si8 0.653293 0.097714 0.538270
O O1 0.702425 0.033210 0.823350
O O2 0.737939 0.191325 0.069499
O O3 0.883627 0.344355 0.921055
O O4 0.093493 0.028724 0.675054
O O5 0.307308 0.214856 0.457772
O O6 0.015564 0.284102 0.528059
O O7 0.000000 0.000000 0.500000
O O8 0.686639 0.228556 0.324254
O O9 0.072464 0.237637 0.011715
O O10 0.847101 0.933915 0.979245
O O11 0.500000 0.500000 0.500000
O O12 0.257960 0.417556 0.754042
O O13 0.260366 0.401645 0.142571
O O14 0.509442 0.132866 0.744738
O O15 0.687317 0.300941 0.607333
O O16 0.000000 0.500000 0.500000
O O17 0.500000 0.000000 0.500000
#
# Coordination Sequence:
#
# PCOD9060524 Si02
#       8
#     2   2   2   2   2   2   1   2
#     4  11  23  45  68 100 145 185 241 302 365 438
#     4  11  25  47  75 104 151 193 239 305 375 436
#     4  11  24  42  72 103 145 189 245 303 371 432
#     4  12  25  47  73 108 144 197 247 307 368 445
#     4  11  23  43  72 103 143 191 241 303 364 436
#     4  11  26  47  71 107 146 187 247 307 364 442
#     4  12  24  44  68 102 142 188 244 300 358 450
#     4  11  23  44  72 104 138 191 238 303 369 429
#
# _framework density 25.764887000000002
#
# number of rings (size 3 to 8) (size 9 to 14) (size 15 to 20)
#    0.000    0.800    4.000    3.600    3.733    0.533 
#    2.400    0.000    0.000    0.000    0.000    0.000 
#    0.000    0.000    0.000    0.000    0.000    0.000 
#
# Total GULP energy -83626.769528 kJ/mol
# GULP energy per Si atom -5575.117969 kJ/mol
# Density = 2.570624 g / cm^3
# Si number density = 25.764887 Si / 1000 Ang^3
#
#
#
# Elastic Constant Matrix: (Units=GPa)
#
#
# Indices 1 2 3 4 5 6 
#
# 1 52.1759 34.1824 34.6302 6.7122 11.1053 19.1715
# 2 34.1824 186.0320 50.1533 20.6522 10.3106 26.0445
# 3 34.6302 50.1533 194.8917 7.0519 17.6003 15.4691
# 4 6.7122 20.6522 7.0519 54.4118 12.5835 12.8392
# 5 11.1053 10.3106 17.6003 12.5835 34.6711 7.4734
# 6 19.1715 26.0445 15.4691 12.8392 7.4734 45.0712
#
#
#
# Elastic Compliance Matrix: (Units=1/GPa)
#
#
# Indices 1 2 3 4 5 6 
#
# 1 0.026972 -0.002846 -0.002999 0.001248 -0.004927 -0.008338
# 2 -0.002846 0.006595 -0.001027 -0.001696 0.000485 -0.001845
# 3 -0.002999 -0.001027 0.006093 0.000432 -0.001980 -0.000017
# 4 0.001248 -0.001696 0.000432 0.021516 -0.006915 -0.004682
# 5 -0.004927 0.000485 -0.001980 -0.006915 0.034046 -0.001181
# 6 -0.008338 -0.001845 -0.000017 -0.004682 -0.001181 0.028335
#
#
# Mechanical properties :
#
#
# Convention : Reuss Voigt Hill
#
# Bulk Modulus (GPa) = 38.58608 74.55905 56.57256
# Shear Modulus (GPa) = 34.26071 47.77306 41.01689
#
# Velocity S-wave (km/s) = 3.65052 4.31071 3.99428
# Velocity P-wave (km/s) = 5.72513 7.33330 6.57854
#
# Compressibility (1/GPa) = 0.02591608
#
# Stress axis : x y z
#
# Youngs Moduli (GPa) = 37.07490 151.62974 164.12729
#
# Poissons Ratio (x) = 0.43150 0.49219
# Poissons Ratio (y) = 0.10551 0.16864
# Poissons Ratio (z) = 0.11118 0.15580
#
# Static dielectric constant tensor:
#      x y z
#    x 2.053550 -0.147360 -0.150560 
#    y -0.147360 2.110110 -0.001650 
#    z -0.150560 -0.001650 2.002990 
# 
# From -- ./inp_files/519207.got.cif
#   From: 2010.05.17/outbox.cif.g08.bks.cpg/sg2_260_cif.got.tgz:519207.got - 2010.06.03 11:33:40.
