data_PCOD9060089
_publ_section_title
;
Structure prediction by ZEFSAII (Michael W. Deem and Ramdas Pophale) SiO2 
 PCOD9060089
Probable space group: P -1
;
_chemical_formula_sum "Si O2"
_cell_formula_units_Z 15
_cell_length_a 5.935235
_cell_length_b 11.917993
_cell_length_c 18.126800
_cell_angle_alpha 38.806644
_cell_angle_beta 117.887903
_cell_angle_gamma 125.592312
_cell_volume 653.183595
_symmetry_space_group_name_H-M "P -1"
_symmetry_group_IT_number 2
_symmetry_cell_setting 'triclinic'
loop_
_space_group_symop_operation_xyz
x,y,z
-x,-y,-z
loop_
_atom_site_type_symbol
_atom_site_label
_atom_site_fract_x
_atom_site_fract_y
_atom_site_fract_z
Si Si1 0.948561 0.497035 0.193207
Si Si2 0.728539 0.532103 0.416674
Si Si3 0.187414 0.897953 0.537966
Si Si4 0.446799 0.813314 0.035685
Si Si5 0.730364 0.805765 0.406978
Si Si6 0.046675 0.249690 0.805365
Si Si7 0.497785 0.087620 0.166202
Si Si8 0.500000 0.500000 0.000000
O O1 0.844480 0.280190 0.320892
O O2 0.051850 0.629522 0.214678
O O3 0.707025 0.522578 0.094388
O O4 0.225241 0.600147 0.133475
O O5 0.679618 0.687838 0.383085
O O6 0.479937 0.328832 0.495972
O O7 0.766415 0.608619 0.301101
O O8 0.000000 0.500000 0.500000
O O9 0.024010 0.833568 0.468876
O O10 0.500000 0.000000 0.500000
O O11 0.000000 0.000000 0.500000
O O12 0.752242 0.815309 0.081456
O O13 0.355869 0.854077 0.920680
O O14 0.500000 0.000000 0.000000
O O15 0.671422 0.997069 0.287701
O O16 0.800276 0.081831 0.811348
O O17 0.475673 0.276681 0.099812
#
# Coordination Sequence:
#
# PCOD9060089 Si02
#       8
#     2   2   2   2   2   2   2   1
#     4  12  28  50  79 111 156 208 273 329 405 485
#     4  11  23  42  78 113 152 194 256 342 409 472
#     4  12  31  52  81 115 164 219 269 331 412 501
#     4  12  24  44  76 110 148 199 262 328 397 472
#     4  11  26  47  74 120 155 201 267 333 411 481
#     4  12  24  46  76 112 152 202 261 335 400 478
#     4  12  25  47  76 114 158 205 264 326 402 483
#     4  12  28  50  72 106 154 212 262 322 394 478
#
# _framework density 22.964447
#
# number of rings (size 3 to 8) (size 9 to 14) (size 15 to 20)
#    0.000    0.267    4.000    4.400    7.467    2.667 
#    0.000    0.000    0.000    0.000    0.000    0.000 
#    0.000    0.000    0.000    0.000    0.000    0.000 
#
# Total GULP energy -83562.583018 kJ/mol
# GULP energy per Si atom -5570.838868 kJ/mol
# Density = 2.291218 g / cm^3
# Si number density = 22.964447 Si / 1000 Ang^3
#
#
#
# Elastic Constant Matrix: (Units=GPa)
#
#
# Indices 1 2 3 4 5 6 
#
# 1 74.7293 27.3707 46.4945 -19.8675 -12.2782 21.9989
# 2 27.3707 99.7154 45.0575 6.5583 -1.2908 10.7164
# 3 46.4945 45.0575 173.0306 -10.2722 4.8123 22.0609
# 4 -19.8675 6.5583 -10.2722 36.2016 -1.4541 3.6778
# 5 -12.2782 -1.2908 4.8123 -1.4541 41.9455 -5.3772
# 6 21.9989 10.7164 22.0609 3.6778 -5.3772 39.6378
#
#
#
# Elastic Compliance Matrix: (Units=1/GPa)
#
#
# Indices 1 2 3 4 5 6 
#
# 1 0.026329 -0.005371 -0.003421 0.015929 0.006975 -0.011788
# 2 -0.005371 0.012840 -0.002401 -0.006124 -0.000949 0.001286
# 3 -0.003421 -0.002401 0.007707 0.000871 -0.002201 -0.002121
# 4 0.015929 -0.006124 0.000871 0.038983 0.004355 -0.010696
# 5 0.006975 -0.000949 -0.002201 0.004355 0.026357 0.000782
# 6 -0.011788 0.001286 -0.002121 -0.010696 0.000782 0.033702
#
#
# Mechanical properties :
#
#
# Convention : Reuss Voigt Hill
#
# Bulk Modulus (GPa) = 40.83631 65.03562 52.93597
# Shear Modulus (GPa) = 28.33341 38.79383 33.56362
#
# Velocity S-wave (km/s) = 3.51635 4.11457 3.82717
# Velocity P-wave (km/s) = 5.85725 7.13824 6.52924
#
# Compressibility (1/GPa) = 0.02448801
#
# Stress axis : x y z
#
# Youngs Moduli (GPa) = 37.98114 77.87934 129.74580
#
# Poissons Ratio (x) = 0.41833 0.44391
# Poissons Ratio (y) = 0.20402 0.31157
# Poissons Ratio (z) = 0.12995 0.18702
#
# Static dielectric constant tensor:
#      x y z
#    x 1.940180 -0.013180 0.022780 
#    y -0.013180 1.887400 -0.017750 
#    z 0.022780 -0.017750 1.854010 
# 
# From -- ./inp_files/75508.got.cif
#   From: 2010.05.17/outbox.cif.g08.bks.cpg/sg2_38_cif.got.tgz:75508.got - 2010.06.03 11:33:40.
