data_PCOD9060996
_publ_section_title
;
Structure prediction by ZEFSAII (Michael W. Deem and Ramdas Pophale) SiO2 
 PCOD9060996
Probable space group: P -1
;
_chemical_formula_sum "Si O2"
_cell_formula_units_Z 16
_cell_length_a 8.368918
_cell_length_b 14.217904
_cell_length_c 14.260813
_cell_angle_alpha 138.739162
_cell_angle_beta 42.887729
_cell_angle_gamma 138.575484
_cell_volume 682.598259
_symmetry_space_group_name_H-M "P -1"
_symmetry_group_IT_number 2
_symmetry_cell_setting 'triclinic'
loop_
_space_group_symop_operation_xyz
x,y,z
-x,-y,-z
loop_
_atom_site_type_symbol
_atom_site_label
_atom_site_fract_x
_atom_site_fract_y
_atom_site_fract_z
Si Si1 0.782129 0.005483 0.027729
Si Si2 0.550722 0.865829 0.610206
Si Si3 0.632619 0.471622 0.783511
Si Si4 0.123192 0.720911 0.519770
Si Si5 0.425436 0.340197 0.207174
Si Si6 0.034727 0.500852 0.873645
Si Si7 0.034714 0.814627 0.426116
Si Si8 0.195083 0.277378 0.946780
O O1 0.590188 0.822774 0.950764
O O2 0.623358 0.092893 0.208392
O O3 0.958988 0.106538 0.939368
O O4 0.000000 0.000000 0.000000
O O5 0.354618 0.781583 0.543625
O O6 0.734938 0.792440 0.523087
O O7 0.767096 0.026795 0.591803
O O8 0.887746 0.447556 0.633830
O O9 0.506569 0.506006 0.772304
O O10 0.698929 0.632428 0.933137
O O11 0.443814 0.310302 0.799286
O O12 0.125880 0.817188 0.496502
O O13 0.861354 0.702201 0.667277
O O14 0.667625 0.404776 0.220374
O O15 0.931428 0.327046 0.746483
O O16 0.897161 0.602712 0.971147
O O17 0.000000 0.500000 0.000000
#
# Coordination Sequence:
#
# PCOD9060996 Si02
#       8
#     2   2   2   2   2   2   2   2
#     4  12  25  47  72 103 147 185 240 305 359 424
#     4  11  26  48  73 104 152 188 239 299 368 423
#     4  11  23  44  71 104 139 183 244 288 355 433
#     4  12  25  45  75 107 144 190 243 297 362 431
#     4  12  26  45  73 107 141 194 236 295 373 422
#     4  12  25  48  72 104 146 188 241 303 356 427
#     4  11  27  48  73 108 144 194 240 299 357 437
#     4  11  25  42  73 103 137 189 236 293 358 428
#
# _framework density 23.439847
#
# number of rings (size 3 to 8) (size 9 to 14) (size 15 to 20)
#    0.000    0.500    5.000    2.250    3.500    3.000 
#    2.250    0.000    0.000    0.000    0.000    0.000 
#    0.000    0.000    0.000    0.000    0.000    0.000 
#
# Total GULP energy -89348.784813 kJ/mol
# GULP energy per Si atom -5584.299051 kJ/mol
# Density = 2.338650 g / cm^3
# Si number density = 23.439847 Si / 1000 Ang^3
#
#
#
# Elastic Constant Matrix: (Units=GPa)
#
#
# Indices 1 2 3 4 5 6 
#
# 1 81.9253 21.5659 31.8169 -6.6837 -25.1280 1.1781
# 2 21.5659 78.3911 20.3838 1.9423 2.2381 -3.4507
# 3 31.8169 20.3838 86.0303 -2.5052 -9.6820 -10.8881
# 4 -6.6837 1.9423 -2.5052 15.4967 -0.1337 -7.1365
# 5 -25.1280 2.2381 -9.6820 -0.1337 31.0954 1.8939
# 6 1.1781 -3.4507 -10.8881 -7.1365 1.8939 31.5256
#
#
#
# Elastic Compliance Matrix: (Units=1/GPa)
#
#
# Indices 1 2 3 4 5 6 
#
# 1 0.021093 -0.005321 -0.004760 0.008149 0.016111 -0.002138
# 2 -0.005321 0.015148 -0.002397 -0.004454 -0.006179 0.000392
# 3 -0.004760 -0.002397 0.014845 0.003302 0.000612 0.005753
# 4 0.008149 -0.004454 0.003302 0.077209 0.007206 0.017393
# 5 0.016111 -0.006179 0.000612 0.007206 0.045978 -0.002198
# 6 -0.002138 0.000392 0.005753 0.017393 -0.002198 0.037900
#
#
# Mechanical properties :
#
#
# Convention : Reuss Voigt Hill
#
# Bulk Modulus (GPa) = 38.27010 43.76445 41.01727
# Shear Modulus (GPa) = 20.33863 27.12886 23.73375
#
# Velocity S-wave (km/s) = 2.94886 3.40572 3.18549
# Velocity P-wave (km/s) = 5.28742 5.84609 5.57376
#
# Compressibility (1/GPa) = 0.02613006
#
# Stress axis : x y z
#
# Youngs Moduli (GPa) = 47.40985 66.01706 67.36120
#
# Poissons Ratio (x) = 0.35127 0.32065
# Poissons Ratio (y) = 0.25226 0.16144
# Poissons Ratio (z) = 0.22568 0.15822
#
# Static dielectric constant tensor:
#      x y z
#    x 1.161760 0.530160 -0.432380 
#    y 0.530160 1.539010 0.247180 
#    z -0.432380 0.247180 1.661140 
# 
# From -- ./inp_files/495364.got.cif
#   From: 2010.05.17/outbox.cif.g08.bks.cpg/sg2_248_cif.got.tgz:495364.got - 2010.06.03 11:33:40.
