data_PCOD9060444
_publ_section_title
;
Structure prediction by ZEFSAII (Michael W. Deem and Ramdas Pophale) SiO2 
 PCOD9060444
Probable space group: P -1
;
_chemical_formula_sum "Si O2"
_cell_formula_units_Z 15
_cell_length_a 6.783181
_cell_length_b 11.521724
_cell_length_c 9.477161
_cell_angle_alpha 107.553390
_cell_angle_beta 107.774985
_cell_angle_gamma 115.037697
_cell_volume 553.679818
_symmetry_space_group_name_H-M "P -1"
_symmetry_group_IT_number 2
_symmetry_cell_setting 'triclinic'
loop_
_space_group_symop_operation_xyz
x,y,z
-x,-y,-z
loop_
_atom_site_type_symbol
_atom_site_label
_atom_site_fract_x
_atom_site_fract_y
_atom_site_fract_z
Si Si1 0.000000 0.000000 0.000000
Si Si2 0.933452 0.653925 0.663069
Si Si3 0.450902 0.780187 0.945198
Si Si4 0.605609 0.752636 0.265407
Si Si5 0.622745 0.583931 0.821179
Si Si6 0.340721 0.101670 0.370828
Si Si7 0.048399 0.779070 0.202066
Si Si8 0.894501 0.353234 0.576611
O O1 0.710468 0.907632 0.974750
O O2 0.875583 0.925911 0.791626
O O3 0.206849 0.771610 0.834252
O O4 0.931431 0.667132 0.499036
O O5 0.696645 0.620026 0.687501
O O6 0.918890 0.503587 0.621622
O O7 0.439502 0.630963 0.846531
O O8 0.463233 0.778250 0.118023
O O9 0.462774 0.577597 0.206324
O O10 0.663370 0.844397 0.453835
O O11 0.863845 0.801254 0.263841
O O12 0.889549 0.702893 0.999621
O O13 0.615372 0.224654 0.420971
O O14 0.294556 0.941603 0.300922
O O15 0.083045 0.672839 0.264854
#
# Coordination Sequence:
#
# PCOD9060444 Si02
#       8
#     1   2   2   2   2   2   2   2
#     4  12  24  46  68  96 144 180 224 288 346 408
#     4  11  24  44  70 104 140 182 227 288 349 394
#     4  11  24  45  72 100 143 180 228 288 339 414
#     4  11  23  43  71 101 133 183 235 276 344 410
#     4  11  23  44  72 105 134 181 237 282 340 407
#     4  12  24  46  69  98 138 184 226 286 346 412
#     4  11  24  43  66 101 141 177 231 284 342 415
#     4  11  24  44  65 102 141 175 234 287 335 414
#
# _framework density 27.091466
#
# number of rings (size 3 to 8) (size 9 to 14) (size 15 to 20)
#    0.000    0.800    5.333    4.000    1.867    2.133 
#    0.000    4.000    0.000    0.000    0.000    0.000 
#    0.000    0.000    0.000    0.000    0.000    0.000 
#
# Total GULP energy -83857.253817 kJ/mol
# GULP energy per Si atom -5590.483588 kJ/mol
# Density = 2.702980 g / cm^3
# Si number density = 27.091466 Si / 1000 Ang^3
#
#
#
# Elastic Constant Matrix: (Units=GPa)
#
#
# Indices 1 2 3 4 5 6 
#
# 1 70.2486 19.7077 37.9054 0.5605 -5.4871 6.0550
# 2 19.7077 90.6207 20.6149 15.2468 -12.3172 15.2274
# 3 37.9054 20.6149 155.4967 -12.8898 -26.6455 13.9920
# 4 0.5605 15.2468 -12.8898 44.2083 -0.6187 -0.2725
# 5 -5.4871 -12.3172 -26.6455 -0.6187 31.8054 -0.3277
# 6 6.0550 15.2274 13.9920 -0.2725 -0.3277 38.9868
#
#
#
# Elastic Compliance Matrix: (Units=1/GPa)
#
#
# Indices 1 2 3 4 5 6 
#
# 1 0.017153 -0.002936 -0.004099 -0.000423 -0.001621 -0.000062
# 2 -0.002936 0.013998 -0.000333 -0.004855 0.004490 -0.004888
# 3 -0.004099 -0.000333 0.009102 0.002901 0.006820 -0.002422
# 4 -0.000423 -0.004855 0.002901 0.025166 0.000978 0.001105
# 5 -0.001621 0.004490 0.006820 0.000978 0.038596 -0.003619
# 6 -0.000062 -0.004888 -0.002422 0.001105 -0.003619 0.028415
#
#
# Mechanical properties :
#
#
# Convention : Reuss Voigt Hill
#
# Bulk Modulus (GPa) = 39.19301 52.53578 45.86440
# Shear Modulus (GPa) = 32.11868 38.87597 35.49732
#
# Velocity S-wave (km/s) = 3.44694 3.79223 3.62370
# Velocity P-wave (km/s) = 5.50819 6.21360 5.87150
#
# Compressibility (1/GPa) = 0.02551475
#
# Stress axis : x y z
#
# Youngs Moduli (GPa) = 58.29866 71.43939 109.87088
#
# Poissons Ratio (x) = 0.20978 0.45040
# Poissons Ratio (y) = 0.17119 0.03660
# Poissons Ratio (z) = 0.23898 0.02380
#
# Static dielectric constant tensor:
#      x y z
#    x 2.077900 0.023480 0.020480 
#    y 0.023480 2.101620 -0.036160 
#    z 0.020480 -0.036160 2.074640 
# 
# From -- ./inp_files/184141.got.cif
#   From: 2010.05.17/outbox.cif.g08.bks.cpg/sg2_93_cif.got.tgz:184141.got - 2010.06.03 11:33:40.
