data_PCOD9060823
_publ_section_title
;
Structure prediction by ZEFSAII (Michael W. Deem and Ramdas Pophale) SiO2 
 PCOD9060823
Probable space group: P -1
;
_chemical_formula_sum "Si O2"
_cell_formula_units_Z 14
_cell_length_a 11.241939
_cell_length_b 7.114681
_cell_length_c 10.385279
_cell_angle_alpha 119.744029
_cell_angle_beta 95.163599
_cell_angle_gamma 112.700594
_cell_volume 622.908025
_symmetry_space_group_name_H-M "P -1"
_symmetry_group_IT_number 2
_symmetry_cell_setting 'triclinic'
loop_
_space_group_symop_operation_xyz
x,y,z
-x,-y,-z
loop_
_atom_site_type_symbol
_atom_site_label
_atom_site_fract_x
_atom_site_fract_y
_atom_site_fract_z
Si Si1 0.383390 0.703776 0.500264
Si Si2 0.164137 0.226821 0.187759
Si Si3 0.120461 0.433774 0.995931
Si Si4 0.041696 0.975107 0.349796
Si Si5 0.664291 0.872597 0.470471
Si Si6 0.374640 0.636899 0.760442
Si Si7 0.688040 0.088970 0.938925
O O1 0.301088 0.489204 0.316909
O O2 0.541861 0.773066 0.529496
O O3 0.322082 0.600143 0.597688
O O4 0.362659 0.937368 0.549838
O O5 0.078950 0.159745 0.291265
O O6 0.210163 0.022222 0.096502
O O7 0.895353 0.722545 0.930619
O O8 0.264602 0.693171 0.089761
O O9 0.086528 0.267389 0.807592
O O10 0.000000 0.500000 0.000000
O O11 0.188004 0.988948 0.397902
O O12 0.000000 0.000000 0.500000
O O13 0.644760 0.635236 0.304613
O O14 0.534582 0.854147 0.843245
O O15 0.303504 0.754290 0.879879
#
# Coordination Sequence:
#
# PCOD9060823 Si02
#       7
#     2   2   2   2   2   2   2
#     4  11  24  40  78 105 138 185 236 300 362 418
#     4  12  25  48  73 106 140 191 242 290 366 422
#     4  12  27  46  70 100 144 195 237 286 350 435
#     4  12  26  47  73 102 144 190 238 296 346 430
#     4  11  23  44  71 106 141 180 240 296 356 422
#     4  11  23  44  68 108 142 183 234 299 355 419
#     4  11  26  43  71 100 149 187 232 297 358 419
#
# _framework density 22.475228999999999
#
# number of rings (size 3 to 8) (size 9 to 14) (size 15 to 20)
#    0.000    0.571    4.286    3.429    4.000    2.286 
#    0.000    4.286    0.000    0.000    0.000    0.000 
#    0.000    0.000    0.000    0.000    0.000    0.000 
#
# Total GULP energy -78138.502182 kJ/mol
# GULP energy per Si atom -5581.321584 kJ/mol
# Density = 2.242407 g / cm^3
# Si number density = 22.475229 Si / 1000 Ang^3
#
#
#
# Elastic Constant Matrix: (Units=GPa)
#
#
# Indices 1 2 3 4 5 6 
#
# 1 68.1684 58.2280 53.9127 -4.4057 5.6338 1.0839
# 2 58.2280 122.1518 55.6127 0.6283 -19.7603 -6.6592
# 3 53.9127 55.6127 153.0540 -2.8030 -16.9876 -8.3033
# 4 -4.4057 0.6283 -2.8030 51.1505 4.5305 3.8717
# 5 5.6338 -19.7603 -16.9876 4.5305 35.5774 6.2558
# 6 1.0839 -6.6592 -8.3033 3.8717 6.2558 30.1527
#
#
#
# Elastic Compliance Matrix: (Units=1/GPa)
#
#
# Indices 1 2 3 4 5 6 
#
# 1 0.040743 -0.018558 -0.010143 0.005432 -0.021486 -0.004596
# 2 -0.018558 0.018854 0.001326 -0.003200 0.013975 0.002708
# 3 -0.010143 0.001326 0.010515 -0.001112 0.007114 0.002220
# 4 0.005432 -0.003200 -0.001112 0.020676 -0.005316 -0.002760
# 5 -0.021486 0.013975 0.007114 -0.005316 0.043801 -0.002587
# 6 -0.004596 0.002708 0.002220 -0.002760 -0.002587 0.035430
#
#
# Mechanical properties :
#
#
# Convention : Reuss Voigt Hill
#
# Bulk Modulus (GPa) = 65.10051 75.43121 70.26586
# Shear Modulus (GPa) = 21.74947 35.08418 28.41682
#
# Velocity S-wave (km/s) = 3.11418 3.95525 3.55964
# Velocity P-wave (km/s) = 6.47759 7.38197 6.94452
#
# Compressibility (1/GPa) = 0.01536086
#
# Stress axis : x y z
#
# Youngs Moduli (GPa) = 24.54390 53.03879 95.10664
#
# Poissons Ratio (x) = 0.98430 0.96468
# Poissons Ratio (y) = 0.45549 -0.12608
# Poissons Ratio (z) = 0.24895 -0.07031
#
# Static dielectric constant tensor:
#      x y z
#    x 1.827290 0.055060 0.002460 
#    y 0.055060 1.872530 0.008780 
#    z 0.002460 0.008780 1.952080 
# 
# From -- ./inp_files/513819.got.cif
#   From: 2010.05.17/outbox.cif.g08.bks.cpg/sg2_257_cif.got.tgz:513819.got - 2010.06.03 11:33:40.
