data_PCOD9060950
_publ_section_title
;
Structure prediction by ZEFSAII (Michael W. Deem and Ramdas Pophale) SiO2 
 PCOD9060950
Probable space group: P -1
;
_chemical_formula_sum "Si O2"
_cell_formula_units_Z 16
_cell_length_a 5.479273
_cell_length_b 16.380352
_cell_length_c 11.412670
_cell_angle_alpha 119.286804
_cell_angle_beta 86.777833
_cell_angle_gamma 56.302731
_cell_volume 663.218379
_symmetry_space_group_name_H-M "P -1"
_symmetry_group_IT_number 2
_symmetry_cell_setting 'triclinic'
loop_
_space_group_symop_operation_xyz
x,y,z
-x,-y,-z
loop_
_atom_site_type_symbol
_atom_site_label
_atom_site_fract_x
_atom_site_fract_y
_atom_site_fract_z
Si Si1 0.554685 0.006535 0.140073
Si Si2 0.269632 0.353367 0.928252
Si Si3 0.574799 0.389469 0.496645
Si Si4 0.207286 0.753764 0.985844
Si Si5 0.074800 0.607621 0.792134
Si Si6 0.110560 0.176303 0.463832
Si Si7 0.658660 0.141704 0.575058
Si Si8 0.461605 0.785576 0.781481
O O1 0.245770 0.078948 0.284715
O O2 0.642657 0.094298 0.197661
O O3 0.500000 0.000000 0.000000
O O4 0.821836 0.868360 0.088192
O O5 0.399355 0.245982 0.753728
O O6 0.616582 0.300938 0.933859
O O7 0.000000 0.500000 0.000000
O O8 0.115239 0.354450 0.054308
O O9 0.500000 0.500000 0.500000
O O10 0.274500 0.465944 0.650737
O O11 0.575504 0.295573 0.354689
O O12 0.913247 0.311313 0.503321
O O13 0.310023 0.634589 0.829821
O O14 0.282357 0.816161 0.932788
O O15 0.833848 0.698185 0.757363
O O16 0.424245 0.134034 0.497654
O O17 0.826965 0.190275 0.546476
O O18 0.000000 0.000000 0.500000
#
# Coordination Sequence:
#
# PCOD9060950 Si02
#       8
#     2   2   2   2   2   2   2   2
#     4  12  24  44  75 110 154 187 243 303 380 465
#     4  11  28  46  74 103 144 196 259 328 379 438
#     4  12  24  44  73 109 160 199 246 304 377 470
#     4  11  24  43  71 109 143 193 252 306 377 456
#     4  11  24  43  72 107 147 195 255 306 377 458
#     4  12  29  48  78 113 149 204 257 310 387 463
#     4  12  29  54  79 109 150 203 262 333 387 445
#     4  11  23  44  70 112 151 205 237 303 384 459
#
# _framework density 24.124787000000001
#
# number of rings (size 3 to 8) (size 9 to 14) (size 15 to 20)
#    0.000    0.500    2.500    4.875    5.250    2.500 
#    0.000    0.000    0.000    0.000    0.000    0.000 
#    0.000    0.000    0.000    0.000    0.000    0.000 
#
# Total GULP energy -89338.977994 kJ/mol
# GULP energy per Si atom -5583.686125 kJ/mol
# Density = 2.406988 g / cm^3
# Si number density = 24.124787 Si / 1000 Ang^3
#
#
#
# Elastic Constant Matrix: (Units=GPa)
#
#
# Indices 1 2 3 4 5 6 
#
# 1 66.4265 30.2128 24.5051 -7.9064 11.9699 -5.3048
# 2 30.2128 154.7157 50.2171 22.7184 6.2118 -12.6869
# 3 24.5051 50.2171 166.8627 6.9102 -3.9673 -9.1480
# 4 -7.9064 22.7184 6.9102 36.8968 1.0379 -2.4026
# 5 11.9699 6.2118 -3.9673 1.0379 42.1086 -3.4886
# 6 -5.3048 -12.6869 -9.1480 -2.4026 -3.4886 36.7743
#
#
#
# Elastic Compliance Matrix: (Units=1/GPa)
#
#
# Indices 1 2 3 4 5 6 
#
# 1 0.019457 -0.003898 -0.002055 0.007162 -0.005250 0.000921
# 2 -0.003898 0.008780 -0.001741 -0.005806 -0.000072 0.001648
# 3 -0.002055 -0.001741 0.006935 -0.000651 0.001588 0.000936
# 4 0.007162 -0.005806 -0.000651 0.032442 -0.001974 0.000800
# 5 -0.005250 -0.000072 0.001588 -0.001974 0.025608 0.001913
# 6 0.000921 0.001648 0.000936 0.000800 0.001913 0.028361
#
#
# Mechanical properties :
#
#
# Convention : Reuss Voigt Hill
#
# Bulk Modulus (GPa) = 50.54568 66.43055 58.48811
# Shear Modulus (GPa) = 34.82722 42.02726 38.42724
#
# Velocity S-wave (km/s) = 3.80363 4.17835 3.99539
# Velocity P-wave (km/s) = 6.34724 7.13261 6.75135
#
# Compressibility (1/GPa) = 0.01978408
#
# Stress axis : x y z
#
# Youngs Moduli (GPa) = 51.39450 113.89176 144.20128
#
# Poissons Ratio (x) = 0.44394 0.29638
# Poissons Ratio (y) = 0.20033 0.25104
# Poissons Ratio (z) = 0.10563 0.19827
#
# Static dielectric constant tensor:
#      x y z
#    x 2.108190 -0.022800 -0.075740 
#    y -0.022800 1.956340 -0.001340 
#    z -0.075740 -0.001340 2.026770 
# 
# From -- ./inp_files/369445.got.cif
#   From: 2010.05.17/outbox.cif.g08.bks.cpg/sg2_185_cif.got.tgz:369445.got - 2010.06.03 11:33:40.
