data_PCOD9060393
_publ_section_title
;
Structure prediction by ZEFSAII (Michael W. Deem and Ramdas Pophale) SiO2 
 PCOD9060393
Probable space group: P -1
;
_chemical_formula_sum "Si O2"
_cell_formula_units_Z 14
_cell_length_a 17.503268
_cell_length_b 11.779042
_cell_length_c 9.799253
_cell_angle_alpha 37.557912
_cell_angle_beta 107.374097
_cell_angle_gamma 135.577978
_cell_volume 671.416938
_symmetry_space_group_name_H-M "P -1"
_symmetry_group_IT_number 2
_symmetry_cell_setting 'triclinic'
loop_
_space_group_symop_operation_xyz
x,y,z
-x,-y,-z
loop_
_atom_site_type_symbol
_atom_site_label
_atom_site_fract_x
_atom_site_fract_y
_atom_site_fract_z
Si Si1 0.915845 0.039659 0.757670
Si Si2 0.850036 0.780562 0.679138
Si Si3 0.296894 0.876229 0.802616
Si Si4 0.125137 0.620202 0.679251
Si Si5 0.576644 0.270740 0.666958
Si Si6 0.186864 0.008150 0.767157
Si Si7 0.806319 0.536175 0.374582
O O1 0.882901 0.191947 0.572766
O O2 0.081628 0.315443 0.593855
O O3 0.852751 0.813126 0.810309
O O4 0.854005 0.827374 0.062201
O O5 0.824714 0.925062 0.453151
O O6 0.747156 0.422485 0.920065
O O7 0.000000 0.000000 0.500000
O O8 0.227615 0.803246 0.690702
O O9 0.463737 0.184722 0.611339
O O10 0.235819 0.891314 0.874916
O O11 0.176029 0.574285 0.634666
O O12 0.966142 0.275011 0.975249
O O13 0.697756 0.640920 0.434206
O O14 0.654071 0.273778 0.605178
O O15 0.500000 0.000000 0.000000
#
# Coordination Sequence:
#
# PCOD9060393 Si02
#       7
#     2   2   2   2   2   2   2
#     4  11  23  43  70 106 134 172 231 288 336 393
#     4  12  20  38  69 102 139 173 223 282 335 390
#     4  12  25  43  68 104 139 180 224 274 341 404
#     4  12  24  43  76 105 132 175 232 289 334 391
#     4  12  28  47  69  96 142 187 221 274 344 415
#     4  12  24  44  71 105 137 176 229 284 333 398
#     4  11  25  46  67  99 141 177 227 280 342 403
#
# _framework density 20.851424000000002
#
# number of rings (size 3 to 8) (size 9 to 14) (size 15 to 20)
#    0.000    0.286    5.714    4.714    2.000    0.571 
#    2.571    0.714    0.000    0.000    0.000    0.000 
#    0.000    0.000    0.000    0.000    0.000    0.000 
#
# Total GULP energy -78267.364200 kJ/mol
# GULP energy per Si atom -5590.526014 kJ/mol
# Density = 2.080397 g / cm^3
# Si number density = 20.851424 Si / 1000 Ang^3
#
#
#
# Elastic Constant Matrix: (Units=GPa)
#
#
# Indices 1 2 3 4 5 6 
#
# 1 146.5407 62.0427 62.4523 3.6577 -14.2745 -4.0103
# 2 62.0427 117.4315 35.9982 -12.0206 -9.8954 8.4393
# 3 62.4523 35.9982 83.2081 12.5329 2.4972 6.7119
# 4 3.6577 -12.0206 12.5329 16.6283 6.7860 1.2886
# 5 -14.2745 -9.8954 2.4972 6.7860 41.1765 -1.1782
# 6 -4.0103 8.4393 6.7119 1.2886 -1.1782 41.3548
#
#
#
# Elastic Compliance Matrix: (Units=1/GPa)
#
#
# Indices 1 2 3 4 5 6 
#
# 1 0.012449 -0.004405 -0.007509 -0.002242 0.004182 0.003514
# 2 -0.004405 0.014041 -0.004795 0.015147 -0.000444 -0.002999
# 3 -0.007509 -0.004795 0.022711 -0.017770 -0.002289 -0.002947
# 4 -0.002242 0.015147 -0.017770 0.089715 -0.010946 -0.003532
# 5 0.004182 -0.000444 -0.002289 -0.010946 0.027629 0.001996
# 6 0.003514 -0.002999 -0.002947 -0.003532 0.001996 0.025779
#
#
# Mechanical properties :
#
#
# Convention : Reuss Voigt Hill
#
# Bulk Modulus (GPa) = 63.35545 74.24076 68.79810
# Shear Modulus (GPa) = 21.64475 32.27772 26.96123
#
# Velocity S-wave (km/s) = 3.22537 3.93871 3.59975
# Velocity P-wave (km/s) = 6.65739 7.50777 7.09533
#
# Compressibility (1/GPa) = 0.01578396
#
# Stress axis : x y z
#
# Youngs Moduli (GPa) = 80.33008 71.21911 44.03078
#
# Poissons Ratio (x) = 0.31370 0.33063
# Poissons Ratio (y) = 0.35383 0.21112
# Poissons Ratio (z) = 0.60320 0.34148
#
# Static dielectric constant tensor:
#      x y z
#    x 1.861000 -0.470920 0.258860 
#    y -0.470920 3.693800 -0.908530 
#    z 0.258860 -0.908530 2.205340 
# 
# From -- ./inp_files/332746.got.cif
#   From: 2010.05.17/outbox.cif.g08.bks.cpg/sg2_167_cif.got.tgz:332746.got - 2010.06.03 11:33:40.
