data_PCOD9060525
_publ_section_title
;
Structure prediction by ZEFSAII (Michael W. Deem and Ramdas Pophale) SiO2 
 PCOD9060525
Probable space group: P -1
;
_chemical_formula_sum "Si O2"
_cell_formula_units_Z 16
_cell_length_a 14.812793
_cell_length_b 9.151444
_cell_length_c 9.290562
_cell_angle_alpha 79.854495
_cell_angle_beta 87.983457
_cell_angle_gamma 36.178498
_cell_volume 719.297731
_symmetry_space_group_name_H-M "P -1"
_symmetry_group_IT_number 2
_symmetry_cell_setting 'triclinic'
loop_
_space_group_symop_operation_xyz
x,y,z
-x,-y,-z
loop_
_atom_site_type_symbol
_atom_site_label
_atom_site_fract_x
_atom_site_fract_y
_atom_site_fract_z
Si Si1 0.362133 0.501880 0.017357
Si Si2 0.186102 0.600268 0.496391
Si Si3 0.323017 0.826788 0.790678
Si Si4 0.170972 0.962416 0.480410
Si Si5 0.787366 0.766214 0.105966
Si Si6 0.726931 0.650554 0.763939
Si Si7 0.128117 0.249509 0.193649
Si Si8 0.421370 0.212391 0.806913
O O1 0.499100 0.375079 0.137959
O O2 0.269219 0.498119 0.106880
O O3 0.271524 0.763854 0.912614
O O4 0.433670 0.329972 0.899058
O O5 0.262590 0.419234 0.386783
O O6 0.290016 0.429075 0.659873
O O7 0.007657 0.786428 0.496377
O O8 0.183679 0.781133 0.445622
O O9 0.287787 0.826181 0.630913
O O10 0.234073 0.098833 0.780688
O O11 0.199949 0.047434 0.343462
O O12 0.648168 0.836452 0.097040
O O13 0.945779 0.461657 0.153747
O O14 0.795121 0.857900 0.948405
O O15 0.860986 0.591661 0.792125
O O16 0.572533 0.951855 0.759491
#
# Coordination Sequence:
#
# PCOD9060525 Si02
#       8
#     2   2   2   2   2   2   2   2
#     4  11  24  44  68  99 137 180 228 276 343 406
#     4  11  26  45  69 102 136 185 226 278 351 402
#     4  11  24  43  69  96 135 186 222 278 341 405
#     4  11  25  48  68  97 145 180 226 286 340 405
#     4  11  23  43  72 104 133 180 231 279 343 401
#     4  12  25  42  69 104 137 179 227 281 341 410
#     4  11  25  42  70 106 136 176 233 284 334 414
#     4  12  22  48  72 100 142 177 224 284 346 406
#
# _framework density 22.243917
#
# number of rings (size 3 to 8) (size 9 to 14) (size 15 to 20)
#    0.000    0.750    5.000    2.250    3.500    2.000 
#    0.000    2.500    0.000    0.000    0.000    0.000 
#    0.000    0.000    0.000    0.000    0.000    0.000 
#
# Total GULP energy -89486.849067 kJ/mol
# GULP energy per Si atom -5592.928067 kJ/mol
# Density = 2.219329 g / cm^3
# Si number density = 22.243917 Si / 1000 Ang^3
#
#
#
# Elastic Constant Matrix: (Units=GPa)
#
#
# Indices 1 2 3 4 5 6 
#
# 1 80.3111 11.1327 26.3705 5.4174 2.8852 8.4551
# 2 11.1327 52.2350 8.3251 5.0743 9.1492 -2.5112
# 3 26.3705 8.3251 116.6871 -4.6747 8.2480 5.0609
# 4 5.4174 5.0743 -4.6747 31.9001 11.2423 0.8374
# 5 2.8852 9.1492 8.2480 11.2423 39.9548 -4.7189
# 6 8.4551 -2.5112 5.0609 0.8374 -4.7189 30.1813
#
#
#
# Elastic Compliance Matrix: (Units=1/GPa)
#
#
# Indices 1 2 3 4 5 6 
#
# 1 0.014337 -0.002580 -0.003036 -0.002543 0.000475 -0.003577
# 2 -0.002580 0.020731 -0.000796 -0.001739 -0.003664 0.002056
# 3 -0.003036 -0.000796 0.009675 0.003011 -0.002600 -0.001328
# 4 -0.002543 -0.001739 0.003011 0.036286 -0.010556 -0.002594
# 5 0.000475 -0.003664 -0.002600 -0.010556 0.029927 0.004970
# 6 -0.003577 0.002056 -0.001328 -0.002594 0.004970 0.035378
#
#
# Mechanical properties :
#
#
# Convention : Reuss Voigt Hill
#
# Bulk Modulus (GPa) = 31.32981 37.87664 34.60323
# Shear Modulus (GPa) = 29.44689 33.96758 31.70723
#
# Velocity S-wave (km/s) = 3.64238 3.91199 3.77959
# Velocity P-wave (km/s) = 5.63954 6.12125 5.88533
#
# Compressibility (1/GPa) = 0.03191848
#
# Stress axis : x y z
#
# Youngs Moduli (GPa) = 69.74826 48.23807 103.36022
#
# Poissons Ratio (x) = 0.12445 0.31384
# Poissons Ratio (y) = 0.17994 0.08225
# Poissons Ratio (z) = 0.21178 0.03839
#
# Static dielectric constant tensor:
#      x y z
#    x 1.819430 -0.008770 -0.004130 
#    y -0.008770 1.811310 -0.015100 
#    z -0.004130 -0.015100 1.809260 
# 
# From -- ./inp_files/190705.got.cif
#   From: 2010.05.17/outbox.cif.g08.bks.cpg/sg2_96_cif.got.tgz:190705.got - 2010.06.03 11:33:40.
