data_PCOD9060195
_publ_section_title
;
Structure prediction by ZEFSAII (Michael W. Deem and Ramdas Pophale) SiO2 
 PCOD9060195
Probable space group: P -1
;
_chemical_formula_sum "Si O2"
_cell_formula_units_Z 14
_cell_length_a 5.749490
_cell_length_b 10.848964
_cell_length_c 25.217597
_cell_angle_alpha 147.953827
_cell_angle_beta 136.421819
_cell_angle_gamma 55.167954
_cell_volume 571.376454
_symmetry_space_group_name_H-M "P -1"
_symmetry_group_IT_number 2
_symmetry_cell_setting 'triclinic'
loop_
_space_group_symop_operation_xyz
x,y,z
-x,-y,-z
loop_
_atom_site_type_symbol
_atom_site_label
_atom_site_fract_x
_atom_site_fract_y
_atom_site_fract_z
Si Si1 0.358674 0.944744 0.836488
Si Si2 0.884397 0.528044 0.552678
Si Si3 0.231116 0.416483 0.167838
Si Si4 0.881410 0.216126 0.935303
Si Si5 0.781272 0.906064 0.552092
Si Si6 0.370456 0.102158 0.616848
Si Si7 0.338367 0.316247 0.802724
O O1 0.600413 0.798397 0.858737
O O2 0.091457 0.759161 0.694695
O O3 0.609485 0.072645 0.879048
O O4 0.126876 0.084634 0.889001
O O5 0.500000 0.500000 0.500000
O O6 0.000000 0.500000 0.500000
O O7 0.042931 0.299220 0.517149
O O8 0.487920 0.653784 0.300034
O O9 0.883079 0.466968 0.158752
O O10 0.122719 0.370805 0.072328
O O11 0.643992 0.351653 0.907117
O O12 0.500000 0.000000 0.500000
O O13 0.553545 0.868359 0.552866
O O14 0.055985 0.103481 0.695050
O O15 0.423586 0.197705 0.719145
O O16 0.000000 0.000000 0.500000
#
# Coordination Sequence:
#
# PCOD9060195 Si02
#       7
#     2   2   2   2   2   2   2
#     4  12  28  50  76 110 151 204 252 305 374 452
#     4  12  27  45  72 109 153 192 239 300 376 441
#     4  11  28  49  76 108 144 201 255 310 369 451
#     4  12  29  51  76 109 152 199 256 312 373 435
#     4  11  23  43  67 107 145 191 240 300 366 446
#     4  11  25  42  78 112 149 189 250 312 379 450
#     4  11  25  45  76 107 149 188 252 311 375 437
#
# _framework density 24.502233
#
# number of rings (size 3 to 8) (size 9 to 14) (size 15 to 20)
#    0.000    0.571    1.429    5.571   12.000    0.571 
#    0.000    0.000    0.000    0.000    0.000    0.000 
#    0.000    0.000    0.000    0.000    0.000    0.000 
#
# Total GULP energy -78046.263455 kJ/mol
# GULP energy per Si atom -5574.733104 kJ/mol
# Density = 2.444646 g / cm^3
# Si number density = 24.502233 Si / 1000 Ang^3
#
#
#
# Elastic Constant Matrix: (Units=GPa)
#
#
# Indices 1 2 3 4 5 6 
#
# 1 173.7347 66.7451 53.1929 4.4865 -5.2311 -33.8696
# 2 66.7451 124.1742 35.1665 -24.2188 3.9194 -25.6688
# 3 53.1929 35.1665 167.6522 -22.4236 -2.1002 -19.2811
# 4 4.4865 -24.2188 -22.4236 41.3872 1.4329 -10.2503
# 5 -5.2311 3.9194 -2.1002 1.4329 51.8789 2.1323
# 6 -33.8696 -25.6688 -19.2811 -10.2503 2.1323 40.8640
#
#
#
# Elastic Compliance Matrix: (Units=1/GPa)
#
#
# Indices 1 2 3 4 5 6 
#
# 1 0.008703 -0.004447 -0.002101 -0.004147 0.001147 0.002329
# 2 -0.004447 0.014331 0.000945 0.011634 -0.002176 0.008794
# 3 -0.002101 0.000945 0.007682 0.005939 -0.000300 0.003982
# 4 -0.004147 0.011634 0.005939 0.038836 -0.002810 0.016561
# 5 0.001147 -0.002176 -0.000300 -0.002810 0.019715 -0.002291
# 6 0.002329 0.008794 0.003982 0.016561 -0.002291 0.038079
#
#
# Mechanical properties :
#
#
# Convention : Reuss Voigt Hill
#
# Bulk Modulus (GPa) = 51.25404 86.19668 68.72536
# Shear Modulus (GPa) = 34.46963 47.52311 40.99637
#
# Velocity S-wave (km/s) = 3.75480 4.40880 4.09488
# Velocity P-wave (km/s) = 6.30567 7.82127 7.10400
#
# Compressibility (1/GPa) = 0.01951066
#
# Stress axis : x y z
#
# Youngs Moduli (GPa) = 114.90136 69.77739 130.17887
#
# Poissons Ratio (x) = 0.31027 0.27351
# Poissons Ratio (y) = 0.51091 -0.12300
# Poissons Ratio (z) = 0.24141 -0.06593
#
# Static dielectric constant tensor:
#      x y z
#    x 2.251130 0.069470 0.024880 
#    y 0.069470 2.059550 0.028960 
#    z 0.024880 0.028960 1.892880 
# 
# From -- ./inp_files/615551.got.cif
#   From: 2010.05.17/outbox.cif.g08.bks.cpg/sg2_308_cif.got.tgz:615551.got - 2010.06.03 11:33:40.
