data_PCOD9060983
_publ_section_title
;
Structure prediction by ZEFSAII (Michael W. Deem and Ramdas Pophale) SiO2 
 PCOD9060983
Probable space group: P -1
;
_chemical_formula_sum "Si O2"
_cell_formula_units_Z 13
_cell_length_a 22.250424
_cell_length_b 12.938836
_cell_length_c 15.548412
_cell_angle_alpha 38.473798
_cell_angle_beta 15.765484
_cell_angle_gamma 29.121975
_cell_volume 532.286507
_symmetry_space_group_name_H-M "P -1"
_symmetry_group_IT_number 2
_symmetry_cell_setting 'triclinic'
loop_
_space_group_symop_operation_xyz
x,y,z
-x,-y,-z
loop_
_atom_site_type_symbol
_atom_site_label
_atom_site_fract_x
_atom_site_fract_y
_atom_site_fract_z
Si Si1 0.655277 0.530103 0.466625
Si Si2 0.268343 0.384315 0.399823
Si Si3 0.638105 0.530292 0.212725
Si Si4 0.413823 0.992573 0.220811
Si Si5 0.332814 0.103975 0.753770
Si Si6 0.000000 0.500000 0.500000
Si Si7 0.045798 0.775747 0.572212
O O1 0.377160 0.566320 0.790528
O O2 0.563808 0.771858 0.431433
O O3 0.780610 0.397072 0.472056
O O4 0.958495 0.333002 0.117070
O O5 0.197535 0.417716 0.374682
O O6 0.231336 0.588308 0.359312
O O7 0.572232 0.112079 0.183733
O O8 0.979358 0.432335 0.810396
O O9 0.500000 0.500000 0.500000
O O10 0.390081 0.811272 0.364592
O O11 0.116600 0.248432 0.494554
O O12 0.500000 0.000000 0.000000
O O13 0.697137 0.891900 0.959386
O O14 0.500000 0.000000 0.500000
O O15 0.000000 0.000000 0.500000
#
# Coordination Sequence:
#
# PCOD9060983 Si02
#       7
#     2   2   2   2   2   1   2
#     4  11  25  42  72  98 141 183 223 297 354 414
#     4  11  25  46  73 103 143 191 236 299 355 426
#     4  11  25  45  70 105 142 185 236 292 356 426
#     4  11  23  47  69  97 144 185 233 287 355 425
#     4  11  23  46  69 101 139 179 232 289 359 421
#     4  12  24  44  74  94 140 188 240 286 354 414
#     4  11  23  44  71 100 137 182 235 289 352 420
#
# _framework density 24.422939
#
# number of rings (size 3 to 8) (size 9 to 14) (size 15 to 20)
#    0.000    0.923    4.615    2.769    8.615    0.615 
#    5.538    1.538    0.000    0.000    0.000    0.000 
#    0.000    0.000    0.000    0.000    0.000    0.000 
#
# Total GULP energy -72411.735834 kJ/mol
# GULP energy per Si atom -5570.133526 kJ/mol
# Density = 2.436735 g / cm^3
# Si number density = 24.422939 Si / 1000 Ang^3
#
#
#
# Elastic Constant Matrix: (Units=GPa)
#
#
# Indices 1 2 3 4 5 6 
#
# 1 132.8633 35.0018 7.9864 -6.4595 5.7859 2.1687
# 2 35.0018 203.4433 6.4907 -3.3487 2.5560 24.9788
# 3 7.9864 6.4907 50.6985 3.7024 11.8329 13.0527
# 4 -6.4595 -3.3487 3.7024 31.3829 10.1898 -1.1674
# 5 5.7859 2.5560 11.8329 10.1898 33.6871 -3.0112
# 6 2.1687 24.9788 13.0527 -1.1674 -3.0112 51.8591
#
#
#
# Elastic Compliance Matrix: (Units=1/GPa)
#
#
# Indices 1 2 3 4 5 6 
#
# 1 0.008114 -0.001375 -0.001044 0.002163 -0.001528 0.000546
# 2 -0.001375 0.005487 0.000334 0.000374 -0.000652 -0.002699
# 3 -0.001044 0.000334 0.023568 -0.000416 -0.008585 -0.006557
# 4 0.002163 0.000374 -0.000416 0.036019 -0.011149 -0.000003
# 5 -0.001528 -0.000652 -0.008585 -0.011149 0.036780 0.004423
# 6 0.000546 -0.002699 -0.006557 -0.000003 0.004423 0.022467
#
#
# Mechanical properties :
#
#
# Convention : Reuss Voigt Hill
#
# Bulk Modulus (GPa) = 30.30360 53.99589 42.14975
# Shear Modulus (GPa) = 33.87400 45.88758 39.88079
#
# Velocity S-wave (km/s) = 3.72825 4.33930 4.04533
# Velocity P-wave (km/s) = 5.56488 6.87479 6.25422
#
# Compressibility (1/GPa) = 0.03299938
#
# Stress axis : x y z
#
# Youngs Moduli (GPa) = 123.23917 182.24913 42.42972
#
# Poissons Ratio (x) = 0.25058 0.04430
# Poissons Ratio (y) = 0.16944 -0.01416
# Poissons Ratio (z) = 0.12866 -0.06083
#
# Static dielectric constant tensor:
#      x y z
#    x 1.962620 0.002850 0.031810 
#    y 0.002850 1.905070 -0.011160 
#    z 0.031810 -0.011160 2.027790 
# 
# From -- ./inp_files/541083.got.cif
#   From: 2010.05.17/outbox.cif.g08.bks.cpg/sg2_271_cif.got.tgz:541083.got - 2010.06.03 11:33:40.
