data_PCOD9060732
_publ_section_title
;
Structure prediction by ZEFSAII (Michael W. Deem and Ramdas Pophale) SiO2 
 PCOD9060732
Probable space group: P -1
;
_chemical_formula_sum "Si O2"
_cell_formula_units_Z 14
_cell_length_a 10.618629
_cell_length_b 7.218983
_cell_length_c 10.558191
_cell_angle_alpha 48.206224
_cell_angle_beta 67.088904
_cell_angle_gamma 60.375521
_cell_volume 522.288651
_symmetry_space_group_name_H-M "P -1"
_symmetry_group_IT_number 2
_symmetry_cell_setting 'triclinic'
loop_
_space_group_symop_operation_xyz
x,y,z
-x,-y,-z
loop_
_atom_site_type_symbol
_atom_site_label
_atom_site_fract_x
_atom_site_fract_y
_atom_site_fract_z
Si Si1 0.089132 0.481500 0.130374
Si Si2 0.648000 0.698409 0.383558
Si Si3 0.954737 0.040304 0.354335
Si Si4 0.623475 0.250345 0.432154
Si Si5 0.166977 0.577188 0.331993
Si Si6 0.632427 0.425846 0.083467
Si Si7 0.798515 0.976827 0.042628
O O1 0.010165 0.288189 0.191498
O O2 0.132134 0.444081 0.280029
O O3 0.963450 0.775137 0.054993
O O4 0.248709 0.423190 0.030734
O O5 0.642242 0.416992 0.469578
O O6 0.490082 0.881899 0.412003
O O7 0.748086 0.623066 0.502199
O O8 0.702331 0.794923 0.190458
O O9 0.784833 0.105935 0.390246
O O10 0.027957 0.783275 0.359981
O O11 0.000000 0.000000 0.500000
O O12 0.563882 0.415768 0.252010
O O13 0.237115 0.793297 0.152429
O O14 0.748505 0.147130 0.114156
O O15 0.500000 0.500000 0.000000
#
# Coordination Sequence:
#
# PCOD9060732 Si02
#       7
#     2   2   2   2   2   2   2
#     4  11  24  44  72 103 143 184 236 296 350 414
#     4  11  25  45  68 100 143 189 227 289 362 407
#     4  12  24  42  71 109 136 189 240 280 360 415
#     4  11  23  44  65  96 150 173 232 299 334 430
#     4  11  24  46  71 104 144 178 242 296 341 428
#     4  11  25  45  70 106 137 181 241 290 354 424
#     4  11  23  45  72  99 135 190 229 283 364 405
#
# _framework density 26.805098000000001
#
# number of rings (size 3 to 8) (size 9 to 14) (size 15 to 20)
#    0.000    0.857    2.857    5.143    2.000    6.286 
#    0.000    3.571    0.000    0.000    0.000    0.000 
#    0.000    0.000    0.000    0.000    0.000    0.000 
#
# Total GULP energy -78199.301730 kJ/mol
# GULP energy per Si atom -5585.664409 kJ/mol
# Density = 2.674409 g / cm^3
# Si number density = 26.805098 Si / 1000 Ang^3
#
#
#
# Elastic Constant Matrix: (Units=GPa)
#
#
# Indices 1 2 3 4 5 6 
#
# 1 137.9837 55.3388 57.0418 6.3482 -8.1448 -27.0722
# 2 55.3388 73.1744 10.8147 20.3367 -8.1675 4.9015
# 3 57.0418 10.8147 126.1143 19.4245 -0.8699 -11.6208
# 4 6.3482 20.3367 19.4245 51.0295 7.7333 -4.8259
# 5 -8.1448 -8.1675 -0.8699 7.7333 50.9866 18.8478
# 6 -27.0722 4.9015 -11.6208 -4.8259 18.8478 46.4008
#
#
#
# Elastic Compliance Matrix: (Units=1/GPa)
#
#
# Indices 1 2 3 4 5 6 
#
# 1 0.020394 -0.019183 -0.007798 0.010749 -0.007551 0.016158
# 2 -0.019183 0.034983 0.006660 -0.017966 0.012891 -0.020325
# 3 -0.007798 0.006660 0.011583 -0.006874 0.002583 -0.004117
# 4 0.010749 -0.017966 -0.006874 0.031091 -0.011264 0.014257
# 5 -0.007551 0.012891 0.002583 -0.011264 0.028888 -0.018026
# 6 0.016158 -0.020325 -0.004117 0.014257 -0.018026 0.040899
#
#
# Mechanical properties :
#
#
# Convention : Reuss Voigt Hill
#
# Bulk Modulus (GPa) = 37.99863 64.85145 51.42504
# Shear Modulus (GPa) = 23.01458 43.95517 33.48488
#
# Velocity S-wave (km/s) = 2.93335 4.05385 3.53823
# Velocity P-wave (km/s) = 5.06748 6.79395 5.99321
#
# Compressibility (1/GPa) = 0.02631674
#
# Stress axis : x y z
#
# Youngs Moduli (GPa) = 49.03303 28.58543 86.33673
#
# Poissons Ratio (x) = 0.54837 0.67327
# Poissons Ratio (y) = 0.94062 -0.57501
# Poissons Ratio (z) = 0.38237 -0.19038
#
# Static dielectric constant tensor:
#      x y z
#    x 2.205390 -0.033680 -0.487690 
#    y -0.033680 2.066740 -0.282440 
#    z -0.487690 -0.282440 1.468070 
# 
# From -- ./inp_files/418851.got.cif
#   From: 2010.05.17/outbox.cif.g08.bks.cpg/sg2_210_cif.got.tgz:418851.got - 2010.06.03 11:33:40.
