data_PCOD9060833
_publ_section_title
;
Structure prediction by ZEFSAII (Michael W. Deem and Ramdas Pophale) SiO2 
 PCOD9060833
Probable space group: P -1
;
_chemical_formula_sum "Si O2"
_cell_formula_units_Z 16
_cell_length_a 7.801293
_cell_length_b 16.201304
_cell_length_c 11.737833
_cell_angle_alpha 48.931567
_cell_angle_beta 53.364506
_cell_angle_gamma 37.197371
_cell_volume 667.369116
_symmetry_space_group_name_H-M "P -1"
_symmetry_group_IT_number 2
_symmetry_cell_setting 'triclinic'
loop_
_space_group_symop_operation_xyz
x,y,z
-x,-y,-z
loop_
_atom_site_type_symbol
_atom_site_label
_atom_site_fract_x
_atom_site_fract_y
_atom_site_fract_z
Si Si1 0.282576 0.730817 0.840242
Si Si2 0.715765 0.033372 0.116064
Si Si3 0.834265 0.419315 0.547726
Si Si4 0.759426 0.997056 0.390181
Si Si5 0.932459 0.676488 0.884213
Si Si6 0.918063 0.772733 0.149171
Si Si7 0.061238 0.522728 0.194492
Si Si8 0.223881 0.687750 0.556487
O O1 0.298887 0.855282 0.698165
O O2 0.598973 0.573296 0.840870
O O3 0.065530 0.739229 0.837472
O O4 0.164184 0.750250 0.997921
O O5 0.809100 0.966493 0.264901
O O6 0.412056 0.198270 0.097384
O O7 0.685223 0.942232 0.123464
O O8 0.000000 0.000000 0.000000
O O9 0.980132 0.315919 0.692543
O O10 0.553045 0.578682 0.561443
O O11 0.754152 0.352789 0.548732
O O12 0.003085 0.444002 0.375889
O O13 0.500000 0.000000 0.500000
O O14 0.026129 0.862073 0.480448
O O15 0.066408 0.649017 0.730228
O O16 0.018686 0.548575 0.051551
O O17 0.852490 0.691026 0.170723
#
# Coordination Sequence:
#
# PCOD9060833 Si02
#       8
#     2   2   2   2   2   2   2   2
#     4  11  25  46  73  97 141 185 225 284 342 413
#     4  12  26  44  72 101 136 185 227 287 342 403
#     4  11  24  40  69 102 135 180 227 287 337 402
#     4  12  24  46  69 100 139 180 233 280 343 407
#     4  11  26  46  67 102 138 184 231 274 348 412
#     4  11  23  44  68  95 139 175 226 280 340 407
#     4  11  25  43  70 101 135 183 229 282 344 404
#     4  11  24  42  65  97 141 177 229 283 338 410
#
# _framework density 23.974739
#
# number of rings (size 3 to 8) (size 9 to 14) (size 15 to 20)
#    0.000    0.750    3.750    4.125    1.750    4.000 
#    0.000    0.000    0.000    0.000    0.000    0.000 
#    0.000    0.000    0.000    0.000    0.000    0.000 
#
# Total GULP energy -89319.388235 kJ/mol
# GULP energy per Si atom -5582.461765 kJ/mol
# Density = 2.392017 g / cm^3
# Si number density = 23.974739 Si / 1000 Ang^3
#
#
#
# Elastic Constant Matrix: (Units=GPa)
#
#
# Indices 1 2 3 4 5 6 
#
# 1 46.2232 4.4082 18.3634 -1.0731 4.3002 -2.0175
# 2 4.4082 58.4610 26.8744 5.5515 -5.6818 -21.9465
# 3 18.3634 26.8744 170.6252 9.4076 -0.9965 -17.1695
# 4 -1.0731 5.5515 9.4076 41.3828 6.8355 -4.8061
# 5 4.3002 -5.6818 -0.9965 6.8355 42.7787 3.6084
# 6 -2.0175 -21.9465 -17.1695 -4.8061 3.6084 41.0514
#
#
#
# Elastic Compliance Matrix: (Units=1/GPa)
#
#
# Indices 1 2 3 4 5 6 
#
# 1 0.022997 -0.001057 -0.002421 0.001749 -0.002788 0.000002
# 2 -0.001057 0.022639 -0.002268 -0.001709 0.002432 0.010689
# 3 -0.002421 -0.002268 0.006675 -0.001152 0.000171 0.001310
# 4 0.001749 -0.001709 -0.001152 0.025727 -0.004719 0.002117
# 5 -0.002788 0.002432 0.000171 -0.004719 0.024864 -0.001503
# 6 0.000002 0.010689 0.001310 0.002117 -0.001503 0.031002
#
#
# Mechanical properties :
#
#
# Convention : Reuss Voigt Hill
#
# Bulk Modulus (GPa) = 24.49896 41.62239 33.06068
# Shear Modulus (GPa) = 31.44605 40.08680 35.76643
#
# Velocity S-wave (km/s) = 3.62558 4.09350 3.86662
# Velocity P-wave (km/s) = 5.26946 6.30404 5.80983
#
# Compressibility (1/GPa) = 0.04081805
#
# Stress axis : x y z
#
# Youngs Moduli (GPa) = 43.48413 44.17164 149.81382
#
# Poissons Ratio (x) = 0.04671 0.36270
# Poissons Ratio (y) = 0.04598 0.33977
# Poissons Ratio (z) = 0.10527 0.10018
#
# Static dielectric constant tensor:
#      x y z
#    x 2.004670 0.093550 -0.007070 
#    y 0.093550 1.945970 -0.039450 
#    z -0.007070 -0.039450 1.872180 
# 
# From -- ./inp_files/177879.got.cif
#   From: 2010.05.17/outbox.cif.g08.bks.cpg/sg2_89_cif.got.tgz:177879.got - 2010.06.03 11:33:40.
