data_PCOD9060479
_publ_section_title
;
Structure prediction by ZEFSAII (Michael W. Deem and Ramdas Pophale) SiO2 
 PCOD9060479
Probable space group: P -1
;
_chemical_formula_sum "Si O2"
_cell_formula_units_Z 14
_cell_length_a 11.654345
_cell_length_b 28.419705
_cell_length_c 14.683850
_cell_angle_alpha 21.673532
_cell_angle_beta 148.160955
_cell_angle_gamma 158.764252
_cell_volume 645.513251
_symmetry_space_group_name_H-M "P -1"
_symmetry_group_IT_number 2
_symmetry_cell_setting 'triclinic'
loop_
_space_group_symop_operation_xyz
x,y,z
-x,-y,-z
loop_
_atom_site_type_symbol
_atom_site_label
_atom_site_fract_x
_atom_site_fract_y
_atom_site_fract_z
Si Si1 0.262720 0.298908 0.968975
Si Si2 0.820367 0.175400 0.631865
Si Si3 0.722067 0.454641 0.840546
Si Si4 0.873632 0.985431 0.151050
Si Si5 0.752361 0.300800 0.643284
Si Si6 0.378742 0.191527 0.400534
Si Si7 0.339419 0.043962 0.255895
O O1 0.521339 0.438416 0.814402
O O2 0.964485 0.266431 0.830086
O O3 0.402886 0.331249 0.105246
O O4 0.114843 0.100864 0.190767
O O5 0.556840 0.160044 0.517940
O O6 0.109457 0.376811 0.418469
O O7 0.683534 0.016702 0.752094
O O8 0.927275 0.135780 0.858941
O O9 0.525539 0.257205 0.012674
O O10 0.000000 0.500000 0.000000
O O11 0.522634 0.836962 0.220127
O O12 0.987747 0.919085 0.284780
O O13 0.571430 0.272054 0.481620
O O14 0.000000 0.500000 0.500000
O O15 0.000000 0.000000 0.500000
O O16 0.500000 0.000000 0.500000
#
# Coordination Sequence:
#
# PCOD9060479 Si02
#       7
#     2   2   2   2   2   2   2
#     4  11  23  46  72 102 143 192 244 295 364 445
#     4  12  24  45  73 105 144 192 243 306 366 436
#     4  11  23  43  71 106 146 191 240 303 372 432
#     4  11  24  47  70 101 147 192 239 299 368 437
#     4  12  28  46  72 112 147 188 248 312 363 440
#     4  12  24  46  79  99 141 203 242 290 377 438
#     4  11  24  41  70 106 140 189 246 299 365 442
#
# _framework density 21.688168999999998
#
# number of rings (size 3 to 8) (size 9 to 14) (size 15 to 20)
#    0.000    0.571    5.714    2.571    2.000    4.000 
#    0.000    0.000    0.000    0.000    0.000    0.000 
#    0.000    0.000    0.000    0.000    0.000    0.000 
#
# Total GULP energy -78210.479550 kJ/mol
# GULP energy per Si atom -5586.462825 kJ/mol
# Density = 2.163881 g / cm^3
# Si number density = 21.688169 Si / 1000 Ang^3
#
#
#
# Elastic Constant Matrix: (Units=GPa)
#
#
# Indices 1 2 3 4 5 6 
#
# 1 141.4770 73.9001 55.3725 -2.6105 -16.1720 20.7791
# 2 73.9001 128.5858 60.0340 10.7607 -11.4171 8.7054
# 3 55.3725 60.0340 113.8582 2.6464 -28.8972 4.7746
# 4 -2.6105 10.7607 2.6464 46.4532 -1.5087 0.6322
# 5 -16.1720 -11.4171 -28.8972 -1.5087 34.2607 -3.1851
# 6 20.7791 8.7054 4.7746 0.6322 -3.1851 58.4288
#
#
#
# Elastic Compliance Matrix: (Units=1/GPa)
#
#
# Indices 1 2 3 4 5 6 
#
# 1 0.011391 -0.005322 -0.002276 0.002092 0.001495 -0.003013
# 2 -0.005322 0.013153 -0.004884 -0.003148 -0.002365 0.000237
# 3 -0.002276 -0.004884 0.014961 0.000465 0.010016 0.000856
# 4 0.002092 -0.003148 0.000465 0.022395 0.001272 -0.000486
# 5 0.001495 -0.002365 0.010016 0.001272 0.037707 0.001044
# 6 -0.003013 0.000237 0.000856 -0.000486 0.001044 0.018143
#
#
# Mechanical properties :
#
#
# Convention : Reuss Voigt Hill
#
# Bulk Modulus (GPa) = 68.77607 84.72600 76.75103
# Shear Modulus (GPa) = 33.88380 40.80284 37.34332
#
# Velocity S-wave (km/s) = 3.95690 4.34215 4.15399
# Velocity P-wave (km/s) = 7.25647 8.01806 7.64675
#
# Compressibility (1/GPa) = 0.01453994
#
# Stress axis : x y z
#
# Youngs Moduli (GPa) = 87.78493 76.02643 66.84234
#
# Poissons Ratio (x) = 0.40464 0.15216
# Poissons Ratio (y) = 0.46722 0.32645
# Poissons Ratio (z) = 0.19984 0.37131
#
# Static dielectric constant tensor:
#      x y z
#    x 1.942190 -0.040510 -0.006200 
#    y -0.040510 1.937650 0.020520 
#    z -0.006200 0.020520 1.804420 
# 
# From -- ./inp_files/458361.got.cif
#   From: 2010.05.17/outbox.cif.g08.bks.cpg/sg2_230_cif.got.tgz:458361.got - 2010.06.03 11:33:40.
