data_PCOD9060814
_publ_section_title
;
Structure prediction by ZEFSAII (Michael W. Deem and Ramdas Pophale) SiO2 
 PCOD9060814
Probable space group: P -1
;
_chemical_formula_sum "Si O2"
_cell_formula_units_Z 14
_cell_length_a 10.592047
_cell_length_b 6.951371
_cell_length_c 14.973700
_cell_angle_alpha 129.097123
_cell_angle_beta 58.890685
_cell_angle_gamma 88.629495
_cell_volume 622.878062
_symmetry_space_group_name_H-M "P -1"
_symmetry_group_IT_number 2
_symmetry_cell_setting 'triclinic'
loop_
_space_group_symop_operation_xyz
x,y,z
-x,-y,-z
loop_
_atom_site_type_symbol
_atom_site_label
_atom_site_fract_x
_atom_site_fract_y
_atom_site_fract_z
Si Si1 0.604366 0.585362 0.921201
Si Si2 0.878904 0.151437 0.315253
Si Si3 0.510758 0.235175 0.175964
Si Si4 0.863553 0.214878 0.040158
Si Si5 0.327222 0.227620 0.407897
Si Si6 0.084959 0.984221 0.369732
Si Si7 0.629241 0.902622 0.339472
O O1 0.575128 0.565031 0.820718
O O2 0.804148 0.354529 0.798095
O O3 0.500000 0.500000 0.000000
O O4 0.539917 0.918085 0.057368
O O5 0.796969 0.480726 0.404358
O O6 0.730661 0.073183 0.348440
O O7 0.954676 0.146866 0.384192
O O8 0.037660 0.913689 0.127171
O O9 0.697200 0.188408 0.103320
O O10 0.396542 0.343508 0.337479
O O11 0.779342 0.561158 0.183375
O O12 0.000000 0.000000 0.000000
O O13 0.215909 0.099062 0.371454
O O14 0.496874 0.992184 0.330769
O O15 0.000000 0.000000 0.500000
O O16 0.500000 0.000000 0.500000
#
# Coordination Sequence:
#
# PCOD9060814 Si02
#       7
#     2   2   2   2   2   2   2
#     4  11  23  44  68 103 141 191 233 290 354 437
#     4  12  27  44  72 105 145 185 238 303 365 418
#     4  11  25  42  72 100 143 187 242 287 357 430
#     4  12  27  45  71 106 142 183 244 306 358 423
#     4  12  25  47  72 104 145 192 244 293 356 445
#     4  12  26  42  71 104 149 184 240 297 369 414
#     4  12  26  49  75 100 143 198 242 292 363 439
#
# _framework density 22.476310000000002
#
# number of rings (size 3 to 8) (size 9 to 14) (size 15 to 20)
#    0.000    0.286    1.429    7.286    8.000    0.000 
#    0.000    0.000    0.000    0.000    0.000    0.000 
#    0.000    0.000    0.000    0.000    0.000    0.000 
#
# Total GULP energy -78350.244189 kJ/mol
# GULP energy per Si atom -5596.446013 kJ/mol
# Density = 2.242515 g / cm^3
# Si number density = 22.476310 Si / 1000 Ang^3
#
#
#
# Elastic Constant Matrix: (Units=GPa)
#
#
# Indices 1 2 3 4 5 6 
#
# 1 135.2360 40.3335 3.3625 0.3985 -10.8012 -1.9721
# 2 40.3335 95.9634 25.4876 9.5159 2.9743 -3.6612
# 3 3.3625 25.4876 124.9124 11.2568 -5.0192 -1.4360
# 4 0.3985 9.5159 11.2568 56.4734 -2.4150 -10.7887
# 5 -10.8012 2.9743 -5.0192 -2.4150 31.3690 2.2072
# 6 -1.9721 -3.6612 -1.4360 -10.7887 2.2072 46.4516
#
#
#
# Elastic Compliance Matrix: (Units=1/GPa)
#
#
# Indices 1 2 3 4 5 6 
#
# 1 0.008884 -0.004089 0.000682 0.000655 0.003602 0.000057
# 2 -0.004089 0.013102 -0.002533 -0.001709 -0.003225 0.000537
# 3 0.000682 -0.002533 0.008689 -0.001288 0.001786 -0.000286
# 4 0.000655 -0.001709 -0.001288 0.019113 0.001356 0.004228
# 5 0.003602 -0.003225 0.001786 0.001356 0.033909 -0.001342
# 6 0.000057 0.000537 -0.000286 0.004228 -0.001342 0.022609
#
#
# Mechanical properties :
#
#
# Convention : Reuss Voigt Hill
#
# Bulk Modulus (GPa) = 53.20981 54.94212 54.07597
# Shear Modulus (GPa) = 40.17616 45.98734 43.08175
#
# Velocity S-wave (km/s) = 4.23246 4.52822 4.38283
# Velocity P-wave (km/s) = 6.90000 7.19981 7.05150
#
# Compressibility (1/GPa) = 0.01879353
#
# Stress axis : x y z
#
# Youngs Moduli (GPa) = 112.56480 76.32409 115.09330
#
# Poissons Ratio (x) = 0.31212 -0.07845
# Poissons Ratio (y) = 0.46032 0.29149
# Poissons Ratio (z) = -0.07672 0.19330
#
# Static dielectric constant tensor:
#      x y z
#    x 1.796310 -0.160990 0.095990 
#    y -0.160990 2.559460 0.015820 
#    z 0.095990 0.015820 1.842980 
# 
# From -- ./inp_files/511222.got.cif
#   From: 2010.05.17/outbox.cif.g08.bks.cpg/sg2_256_cif.got.tgz:511222.got - 2010.06.03 11:33:40.
