data_PCOD9060210
_publ_section_title
;
Structure prediction by ZEFSAII (Michael W. Deem and Ramdas Pophale) SiO2 
 PCOD9060210
Probable space group: P -1
;
_chemical_formula_sum "Si O2"
_cell_formula_units_Z 16
_cell_length_a 12.884581
_cell_length_b 9.161087
_cell_length_c 8.905867
_cell_angle_alpha 94.669489
_cell_angle_beta 92.069276
_cell_angle_gamma 52.602272
_cell_volume 832.239718
_symmetry_space_group_name_H-M "P -1"
_symmetry_group_IT_number 2
_symmetry_cell_setting 'triclinic'
loop_
_space_group_symop_operation_xyz
x,y,z
-x,-y,-z
loop_
_atom_site_type_symbol
_atom_site_label
_atom_site_fract_x
_atom_site_fract_y
_atom_site_fract_z
Si Si1 0.881826 0.005557 0.068272
Si Si2 0.369932 0.557693 0.574836
Si Si3 0.884590 0.703356 0.567342
Si Si4 0.407295 0.670272 0.906360
Si Si5 0.414042 0.191754 0.100666
Si Si6 0.125570 0.971524 0.566020
Si Si7 0.385442 0.204799 0.457588
Si Si8 0.125270 0.320803 0.072523
O O1 0.738450 0.183902 0.025713
O O2 0.885261 0.004530 0.251064
O O3 0.877125 0.841002 0.005908
O O4 0.000000 0.000000 0.000000
O O5 0.500000 0.500000 0.500000
O O6 0.383243 0.597112 0.749554
O O7 0.248256 0.757960 0.523796
O O8 0.373245 0.380733 0.533336
O O9 0.751072 0.749484 0.505507
O O10 0.888029 0.689659 0.748301
O O11 0.000000 0.500000 0.500000
O O12 0.878540 0.870686 0.509458
O O13 0.493358 0.743598 0.898434
O O14 0.500000 0.500000 0.000000
O O15 0.399905 0.188610 0.277862
O O16 0.261478 0.295625 0.048128
O O17 0.500000 0.000000 0.000000
O O18 0.000000 0.000000 0.500000
O O19 0.500000 0.000000 0.500000
O O20 0.000000 0.500000 0.000000
#
# Coordination Sequence:
#
# PCOD9060210 Si02
#       8
#     2   2   2   2   2   2   2   2
#     4  11  25  44  66 100 133 176 229 275 338 398
#     4  11  23  43  67  98 135 174 223 272 336 397
#     4  11  24  43  66 100 133 177 226 270 343 396
#     4  11  26  44  67 100 135 179 223 276 338 400
#     4  11  24  46  67  98 138 177 223 274 341 397
#     4  11  24  44  68  95 137 176 221 283 332 403
#     4  11  25  41  70 101 133 176 221 277 334 403
#     4  11  25  43  69  99 134 178 224 280 330 404
#
# _framework density 19.225231999999998
#
# number of rings (size 3 to 8) (size 9 to 14) (size 15 to 20)
#    0.000    1.000    2.500    3.000    5.250    5.000 
#    0.000    0.000    0.000    0.000    0.000    0.000 
#    0.000    0.000    0.000    0.000    0.000    0.000 
#
# Total GULP energy -89134.659901 kJ/mol
# GULP energy per Si atom -5570.916244 kJ/mol
# Density = 1.918147 g / cm^3
# Si number density = 19.225232 Si / 1000 Ang^3
#
#
#
# Elastic Constant Matrix: (Units=GPa)
#
#
# Indices 1 2 3 4 5 6 
#
# 1 197.2462 107.3954 46.5233 -1.8892 12.8911 -9.7470
# 2 107.3954 212.1938 69.7812 -0.0400 14.7194 -18.3779
# 3 46.5233 69.7812 64.9363 7.8166 16.8445 -3.5404
# 4 -1.8892 -0.0400 7.8166 40.1109 -0.1138 7.7207
# 5 12.8911 14.7194 16.8445 -0.1138 33.8019 2.9082
# 6 -9.7470 -18.3779 -3.5404 7.7207 2.9082 47.8131
#
#
#
# Elastic Compliance Matrix: (Units=1/GPa)
#
#
# Indices 1 2 3 4 5 6 
#
# 1 0.007176 -0.002961 -0.001905 0.000685 -0.000505 0.000104
# 2 -0.002961 0.008823 -0.007601 0.000965 0.000905 0.002014
# 3 -0.001905 -0.007601 0.028251 -0.005692 -0.010089 0.000315
# 4 0.000685 0.000965 -0.005692 0.026931 0.002626 -0.004419
# 5 -0.000505 0.000905 -0.010089 0.002626 0.034680 -0.003035
# 6 0.000104 0.002014 0.000315 -0.004419 -0.003035 0.022632
#
#
# Mechanical properties :
#
#
# Convention : Reuss Voigt Hill
#
# Bulk Modulus (GPa) = 51.76869 102.41954 77.09411
# Shear Modulus (GPa) = 31.27627 41.05696 36.16661
#
# Velocity S-wave (km/s) = 4.03778 4.62624 4.34199
# Velocity P-wave (km/s) = 6.98027 9.05126 8.08237
#
# Compressibility (1/GPa) = 0.01931670
#
# Stress axis : x y z
#
# Youngs Moduli (GPa) = 139.34959 113.34219 35.39659
#
# Poissons Ratio (x) = 0.33566 0.06742
# Poissons Ratio (y) = 0.41268 0.26903
# Poissons Ratio (z) = 0.26543 0.86146
#
# Static dielectric constant tensor:
#      x y z
#    x 1.641690 -0.076480 -0.027030 
#    y -0.076480 1.658850 0.017340 
#    z -0.027030 0.017340 1.683470 
# 
# From -- ./inp_files/186755.got.cif
#   From: 2010.05.17/outbox.cif.g08.bks.cpg/sg2_94_cif.got.tgz:186755.got - 2010.06.03 11:33:40.
