data_PCOD9060405
_publ_section_title
;
Structure prediction by ZEFSAII (Michael W. Deem and Ramdas Pophale) SiO2 
 PCOD9060405
Probable space group: P -1
;
_chemical_formula_sum "Si O2"
_cell_formula_units_Z 14
_cell_length_a 13.309355
_cell_length_b 20.619732
_cell_length_c 10.740209
_cell_angle_alpha 148.955641
_cell_angle_beta 156.543539
_cell_angle_gamma 29.563408
_cell_volume 552.280619
_symmetry_space_group_name_H-M "P -1"
_symmetry_group_IT_number 2
_symmetry_cell_setting 'triclinic'
loop_
_space_group_symop_operation_xyz
x,y,z
-x,-y,-z
loop_
_atom_site_type_symbol
_atom_site_label
_atom_site_fract_x
_atom_site_fract_y
_atom_site_fract_z
Si Si1 0.380897 0.991259 0.714537
Si Si2 0.607746 0.888918 0.547576
Si Si3 0.606846 0.299248 0.721896
Si Si4 0.218157 0.728664 0.870411
Si Si5 0.034433 0.570767 0.781107
Si Si6 0.713980 0.548073 0.886485
Si Si7 0.921757 0.715697 0.266208
O O1 0.597546 0.944957 0.768901
O O2 0.285349 0.865985 0.411786
O O3 0.160945 0.140421 0.661041
O O4 0.500000 0.000000 0.000000
O O5 0.916111 0.797205 0.703871
O O6 0.500000 0.000000 0.500000
O O7 0.382023 0.823651 0.189087
O O8 0.282975 0.350863 0.404849
O O9 0.620688 0.363237 0.979792
O O10 0.803269 0.333682 0.907706
O O11 0.149981 0.687415 0.588724
O O12 0.000000 0.500000 0.500000
O O13 0.235242 0.458035 0.919642
O O14 0.500000 0.500000 0.500000
O O15 0.988439 0.413203 0.936413
O O16 0.679455 0.693791 0.030833
#
# Coordination Sequence:
#
# PCOD9060405 Si02
#       7
#     2   2   2   2   2   2   2
#     4  11  25  46  77 111 161 202 247 324 400 458
#     4  11  23  43  70 109 151 194 253 303 370 473
#     4  11  26  47  77 116 151 194 258 316 381 469
#     4  11  24  44  74 109 149 197 249 315 379 450
#     4  12  27  51  80 108 154 202 258 315 384 451
#     4  11  29  47  76 108 151 203 266 321 369 476
#     4  11  26  48  73 109 150 204 256 315 396 453
#
# _framework density 25.349432
#
# number of rings (size 3 to 8) (size 9 to 14) (size 15 to 20)
#    0.000    0.857    1.429    4.286   12.000    0.000 
#    2.571    7.143    0.000    0.000    0.000    0.000 
#    0.000    0.000    0.000    0.000    0.000    0.000 
#
# Total GULP energy -78246.865948 kJ/mol
# GULP energy per Si atom -5589.061853 kJ/mol
# Density = 2.529174 g / cm^3
# Si number density = 25.349432 Si / 1000 Ang^3
#
#
#
# Elastic Constant Matrix: (Units=GPa)
#
#
# Indices 1 2 3 4 5 6 
#
# 1 132.0986 36.5961 67.8031 -1.5547 -16.0017 15.1778
# 2 36.5961 121.5455 59.3801 7.2403 9.3194 35.1775
# 3 67.8031 59.3801 162.5467 -9.0463 8.7812 24.3496
# 4 -1.5547 7.2403 -9.0463 41.6217 10.9610 -3.7306
# 5 -16.0017 9.3194 8.7812 10.9610 70.2044 1.9253
# 6 15.1778 35.1775 24.3496 -3.7306 1.9253 48.8927
#
#
#
# Elastic Compliance Matrix: (Units=1/GPa)
#
#
# Indices 1 2 3 4 5 6 
#
# 1 0.010433 -0.001150 -0.004085 -0.001207 0.003246 -0.000597
# 2 -0.001150 0.012468 -0.003126 -0.003331 -0.000806 -0.007279
# 3 -0.004085 -0.003126 0.009404 0.002918 -0.002124 -0.000860
# 4 -0.001207 -0.003331 0.002918 0.026686 -0.004461 0.003530
# 5 0.003246 -0.000806 -0.002124 -0.004461 0.016063 -0.000343
# 6 -0.000597 -0.007279 -0.000860 0.003530 -0.000343 0.026586
#
#
# Mechanical properties :
#
#
# Convention : Reuss Voigt Hill
#
# Bulk Modulus (GPa) = 64.17511 82.63883 73.40697
# Shear Modulus (GPa) = 40.46736 48.97120 44.71928
#
# Velocity S-wave (km/s) = 3.99981 4.40005 4.20469
# Velocity P-wave (km/s) = 6.83392 7.64752 7.25214
#
# Compressibility (1/GPa) = 0.01558237
#
# Stress axis : x y z
#
# Youngs Moduli (GPa) = 95.84973 80.20579 106.33689
#
# Poissons Ratio (x) = 0.09223 0.43438
# Poissons Ratio (y) = 0.11022 0.33246
# Poissons Ratio (z) = 0.39154 0.25076
#
# Static dielectric constant tensor:
#      x y z
#    x 2.368090 -0.062810 -0.010190 
#    y -0.062810 2.100460 -0.075540 
#    z -0.010190 -0.075540 2.045820 
# 
# From -- ./inp_files/457797.got.cif
#   From: 2010.05.17/outbox.cif.g08.bks.cpg/sg2_229_cif.got.tgz:457797.got - 2010.06.03 11:33:40.
