data_PCOD9060394
_publ_section_title
;
Structure prediction by ZEFSAII (Michael W. Deem and Ramdas Pophale) SiO2 
 PCOD9060394
Probable space group: P -1
;
_chemical_formula_sum "Si O2"
_cell_formula_units_Z 16
_cell_length_a 12.183880
_cell_length_b 11.598747
_cell_length_c 12.305854
_cell_angle_alpha 107.753402
_cell_angle_beta 118.852936
_cell_angle_gamma 28.880996
_cell_volume 706.661651
_symmetry_space_group_name_H-M "P -1"
_symmetry_group_IT_number 2
_symmetry_cell_setting 'triclinic'
loop_
_space_group_symop_operation_xyz
x,y,z
-x,-y,-z
loop_
_atom_site_type_symbol
_atom_site_label
_atom_site_fract_x
_atom_site_fract_y
_atom_site_fract_z
Si Si1 0.845650 0.950317 0.929967
Si Si2 0.360676 0.832799 0.887270
Si Si3 0.680074 0.769611 0.932430
Si Si4 0.459422 0.416459 0.580264
Si Si5 0.094228 0.867135 0.393765
Si Si6 0.759304 0.652834 0.492841
Si Si7 0.391628 0.610489 0.138363
Si Si8 0.691839 0.849359 0.723182
O O1 0.653742 0.210993 0.860282
O O2 0.875700 0.806917 0.829348
O O3 0.721207 0.021133 0.005592
O O4 0.110784 0.790566 0.040678
O O5 0.591001 0.707669 0.901344
O O6 0.429096 0.639228 0.906705
O O7 0.122687 0.013119 0.745823
O O8 0.599802 0.872854 0.800632
O O9 0.000000 0.500000 0.000000
O O10 0.500000 0.000000 0.000000
O O11 0.300345 0.593313 0.450768
O O12 0.754533 0.155031 0.605997
O O13 0.310019 0.429243 0.560584
O O14 0.494610 0.484679 0.712590
O O15 0.000000 0.000000 0.500000
O O16 0.800698 0.656854 0.639280
O O17 0.000000 0.500000 0.500000
O O18 0.526887 0.908894 0.387905
#
# Coordination Sequence:
#
# PCOD9060394 Si02
#       8
#     2   2   2   2   2   2   2   2
#     4  11  23  46  71 103 147 181 246 310 380 464
#     4  12  25  43  74 107 146 193 250 305 395 457
#     4  12  29  49  79 114 159 208 255 321 390 476
#     4  11  24  46  70 103 146 184 252 313 384 464
#     4  11  25  42  70 104 142 192 237 308 385 455
#     4  11  28  48  75 103 146 204 260 326 386 465
#     4  11  23  43  70 106 137 188 235 312 379 448
#     4  11  26  49  72 109 142 200 260 315 389 459
#
# _framework density 22.641670999999999
#
# number of rings (size 3 to 8) (size 9 to 14) (size 15 to 20)
#    0.000    0.750    5.000    1.125    5.250    2.000 
#    4.500    0.000    0.000    0.000    0.000    0.000 
#    0.000    0.000    0.000    0.000    0.000    0.000 
#
# Total GULP energy -89213.673086 kJ/mol
# GULP energy per Si atom -5575.854568 kJ/mol
# Density = 2.259014 g / cm^3
# Si number density = 22.641671 Si / 1000 Ang^3
#
#
#
# Elastic Constant Matrix: (Units=GPa)
#
#
# Indices 1 2 3 4 5 6 
#
# 1 86.1120 10.4408 45.8282 -15.0940 19.0841 -15.8139
# 2 10.4408 50.6393 31.9012 -2.6826 8.9954 -6.4302
# 3 45.8282 31.9012 137.4139 0.8021 7.3384 -2.7653
# 4 -15.0940 -2.6826 0.8021 40.3367 -1.2276 -4.6821
# 5 19.0841 8.9954 7.3384 -1.2276 39.3613 -4.3031
# 6 -15.8139 -6.4302 -2.7653 -4.6821 -4.3031 33.6572
#
#
#
# Elastic Compliance Matrix: (Units=1/GPa)
#
#
# Indices 1 2 3 4 5 6 
#
# 1 0.019852 0.003263 -0.006820 0.008659 -0.007780 0.009600
# 2 0.003263 0.025030 -0.006521 0.003500 -0.005367 0.005580
# 3 -0.006820 -0.006521 0.010891 -0.003571 0.002243 -0.003765
# 4 0.008659 0.003500 -0.003571 0.029208 -0.002526 0.008184
# 5 -0.007780 -0.005367 0.002243 -0.002526 0.029794 -0.001039
# 6 0.009600 0.005580 -0.003765 0.008184 -0.001039 0.035984
#
#
# Mechanical properties :
#
#
# Convention : Reuss Voigt Hill
#
# Bulk Modulus (GPa) = 28.07624 50.05617 39.06621
# Shear Modulus (GPa) = 27.35444 35.07072 31.21258
#
# Velocity S-wave (km/s) = 3.47961 3.93993 3.71691
# Velocity P-wave (km/s) = 5.34516 6.54625 5.97596
#
# Compressibility (1/GPa) = 0.03561730
#
# Stress axis : x y z
#
# Youngs Moduli (GPa) = 50.37395 39.95225 91.82033
#
# Poissons Ratio (x) = -0.13037 0.62622
# Poissons Ratio (y) = -0.16437 0.59872
# Poissons Ratio (z) = 0.34355 0.26051
#
# Static dielectric constant tensor:
#      x y z
#    x 1.841700 0.029620 -0.028330 
#    y 0.029620 1.961790 0.014490 
#    z -0.028330 0.014490 1.803670 
# 
# From -- ./inp_files/118643.got.cif
#   From: 2010.05.17/outbox.cif.g08.bks.cpg/sg2_60_cif.got.tgz:118643.got - 2010.06.03 11:33:40.
