data_PCOD9060374
_publ_section_title
;
Structure prediction by ZEFSAII (Michael W. Deem and Ramdas Pophale) SiO2 
 PCOD9060374
Probable space group: P -1
;
_chemical_formula_sum "Si O2"
_cell_formula_units_Z 16
_cell_length_a 10.254992
_cell_length_b 18.599388
_cell_length_c 8.998490
_cell_angle_alpha 74.084667
_cell_angle_beta 122.769422
_cell_angle_gamma 149.043884
_cell_volume 666.935341
_symmetry_space_group_name_H-M "P -1"
_symmetry_group_IT_number 2
_symmetry_cell_setting 'triclinic'
loop_
_space_group_symop_operation_xyz
x,y,z
-x,-y,-z
loop_
_atom_site_type_symbol
_atom_site_label
_atom_site_fract_x
_atom_site_fract_y
_atom_site_fract_z
Si Si1 0.678265 0.982808 0.473368
Si Si2 0.237050 0.939705 0.949881
Si Si3 0.422088 0.552267 0.874559
Si Si4 0.137146 0.851616 0.223727
Si Si5 0.918641 0.959955 0.149854
Si Si6 0.855609 0.732231 0.596891
Si Si7 0.223942 0.596645 0.935640
Si Si8 0.827353 0.554138 0.557394
O O1 0.807340 0.097787 0.607503
O O2 0.779099 0.947754 0.627961
O O3 0.900882 0.101064 0.405957
O O4 0.293184 0.835244 0.307392
O O5 0.933689 0.762474 0.804011
O O6 0.160852 0.993618 0.856153
O O7 0.358386 0.989151 0.166684
O O8 0.500000 0.000000 0.000000
O O9 0.224644 0.518857 0.889463
O O10 0.263583 0.489511 0.648921
O O11 0.500000 0.500000 0.000000
O O12 0.793963 0.735758 0.019915
O O13 0.600633 0.775940 0.093064
O O14 0.000000 0.000000 0.000000
O O15 0.894524 0.668982 0.577215
O O16 0.482308 0.596356 0.443807
O O17 0.097722 0.609983 0.742505
O O18 0.000000 0.500000 0.000000
#
# Coordination Sequence:
#
# PCOD9060374 Si02
#       8
#     2   2   2   2   2   2   2   2
#     4  11  23  44  72 105 145 190 245 308 371 439
#     4  12  23  44  71 107 145 191 242 309 376 441
#     4  12  26  47  74 107 149 199 252 303 372 455
#     4  11  23  43  70 103 142 189 244 304 362 449
#     4  12  26  47  78 107 150 194 246 310 374 442
#     4  11  24  44  73 106 151 187 254 302 375 435
#     4  12  28  50  76 115 154 194 256 312 377 448
#     4  11  26  45  76 104 152 208 243 306 376 452
#
# _framework density 23.990331000000001
#
# number of rings (size 3 to 8) (size 9 to 14) (size 15 to 20)
#    0.000    0.500    5.000    2.625    3.500    2.500 
#    2.250    0.000    0.000    0.000    0.000    0.000 
#    0.000    0.000    0.000    0.000    0.000    0.000 
#
# Total GULP energy -89137.825909 kJ/mol
# GULP energy per Si atom -5571.114119 kJ/mol
# Density = 2.393573 g / cm^3
# Si number density = 23.990331 Si / 1000 Ang^3
#
#
#
# Elastic Constant Matrix: (Units=GPa)
#
#
# Indices 1 2 3 4 5 6 
#
# 1 198.3403 40.3419 59.2246 -17.8279 -4.9376 -6.8526
# 2 40.3419 42.0121 5.0198 -5.3342 -16.8694 9.1047
# 3 59.2246 5.0198 113.3737 -11.9249 7.0590 -2.3335
# 4 -17.8279 -5.3342 -11.9249 33.5232 -2.4939 -0.1897
# 5 -4.9376 -16.8694 7.0590 -2.4939 56.4937 -4.6963
# 6 -6.8526 9.1047 -2.3335 -0.1897 -4.6963 33.2512
#
#
#
# Elastic Compliance Matrix: (Units=1/GPa)
#
#
# Indices 1 2 3 4 5 6 
#
# 1 0.008006 -0.008201 -0.003514 0.001652 -0.000944 0.003525
# 2 -0.008201 0.037967 0.002112 0.003087 0.009615 -0.010562
# 3 -0.003514 0.002112 0.010847 0.002248 -0.000988 -0.000668
# 4 0.001652 0.003087 0.002248 0.032166 0.002218 0.000150
# 5 -0.000944 0.009615 -0.000988 0.002218 0.020714 0.000042
# 6 0.003525 -0.010562 -0.000668 0.000150 0.000042 0.033653
#
#
# Mechanical properties :
#
#
# Convention : Reuss Voigt Hill
#
# Bulk Modulus (GPa) = 26.58648 62.54431 44.56539
# Shear Modulus (GPa) = 28.55561 41.26292 34.90927
#
# Velocity S-wave (km/s) = 3.45381 4.15176 3.81877
# Velocity P-wave (km/s) = 5.19724 7.00786 6.16934
#
# Compressibility (1/GPa) = 0.03761311
#
# Stress axis : x y z
#
# Youngs Moduli (GPa) = 124.90633 26.33865 92.19317
#
# Poissons Ratio (x) = 0.21601 0.32396
# Poissons Ratio (y) = 1.02437 -0.19468
# Poissons Ratio (z) = 0.43891 -0.05562
#
# Static dielectric constant tensor:
#      x y z
#    x 1.903050 -0.240160 -0.171880 
#    y -0.240160 1.026430 -0.610490 
#    z -0.171880 -0.610490 1.646580 
# 
# From -- ./inp_files/217544.got.cif
#   From: 2010.05.17/outbox.cif.g08.bks.cpg/sg2_109_cif.got.tgz:217544.got - 2010.06.03 11:33:40.
