data_PCOD9060132
_publ_section_title
;
Structure prediction by ZEFSAII (Michael W. Deem and Ramdas Pophale) SiO2 
 PCOD9060132
Probable space group: P -1
;
_chemical_formula_sum "Si O2"
_cell_formula_units_Z 15
_cell_length_a 17.299100
_cell_length_b 12.389964
_cell_length_c 21.110978
_cell_angle_alpha 151.964783
_cell_angle_beta 19.410294
_cell_angle_gamma 150.189063
_cell_volume 688.619634
_symmetry_space_group_name_H-M "P -1"
_symmetry_group_IT_number 2
_symmetry_cell_setting 'triclinic'
loop_
_space_group_symop_operation_xyz
x,y,z
-x,-y,-z
loop_
_atom_site_type_symbol
_atom_site_label
_atom_site_fract_x
_atom_site_fract_y
_atom_site_fract_z
Si Si1 0.500000 0.000000 0.000000
Si Si2 0.960462 0.857632 0.520891
Si Si3 0.749758 0.295975 0.235213
Si Si4 0.951838 0.647783 0.841707
Si Si5 0.902459 0.990368 0.848895
Si Si6 0.254546 0.819638 0.579189
Si Si7 0.533346 0.588953 0.852455
Si Si8 0.199328 0.214902 0.620535
O O1 0.298743 0.125643 0.247132
O O2 0.586397 0.236093 0.006777
O O3 0.993428 0.602068 0.348167
O O4 0.000000 0.000000 0.500000
O O5 0.138585 0.987744 0.504673
O O6 0.910302 0.268773 0.156761
O O7 0.474875 0.259104 0.450328
O O8 0.826386 0.559090 0.283217
O O9 0.780794 0.123307 0.064525
O O10 0.070282 0.802872 0.771405
O O11 0.670332 0.591692 0.044272
O O12 0.715187 0.768828 0.850026
O O13 0.123541 0.907648 0.666750
O O14 0.009445 0.163492 0.797723
O O15 0.322375 0.572668 0.381559
O O16 0.500000 0.000000 0.500000
#
# Coordination Sequence:
#
# PCOD9060132 Si02
#       8
#     1   2   2   2   2   2   2   2
#     4  12  22  40  74 108 138 170 226 290 352 406
#     4  12  22  40  70 104 137 177 227 286 348 411
#     4  11  25  41  67 102 141 184 227 287 355 404
#     4  12  25  45  70 103 137 183 236 286 344 416
#     4  12  26  46  68 102 141 185 234 284 344 419
#     4  12  28  49  71  99 143 191 236 285 342 419
#     4  12  26  44  76 105 136 186 232 293 349 411
#     4  11  23  43  66 102 142 180 227 293 344 415
#
# _framework density 21.782706999999998
#
# number of rings (size 3 to 8) (size 9 to 14) (size 15 to 20)
#    0.000    0.267    5.333    3.200    0.000    3.733 
#    4.800    0.000    0.000    0.000    0.000    0.000 
#    0.000    0.000    0.000    0.000    0.000    0.000 
#
# Total GULP energy -83675.629786 kJ/mol
# GULP energy per Si atom -5578.375319 kJ/mol
# Density = 2.173313 g / cm^3
# Si number density = 21.782707 Si / 1000 Ang^3
#
#
#
# Elastic Constant Matrix: (Units=GPa)
#
#
# Indices 1 2 3 4 5 6 
#
# 1 58.4791 18.1386 17.1257 -6.5699 28.8866 15.7111
# 2 18.1386 17.5402 42.4179 6.4640 65.3111 -3.9258
# 3 17.1257 42.4179 93.3029 -12.8229 0.3842 14.3508
# 4 -6.5699 6.4640 -12.8229 57.8620 -18.3970 9.6700
# 5 28.8866 65.3111 0.3842 -18.3970 -7.7022 13.6084
# 6 15.7111 -3.9258 14.3508 9.6700 13.6084 30.9426
#
#
#
# Elastic Compliance Matrix: (Units=1/GPa)
#
#
# Indices 1 2 3 4 5 6 
#
# 1 0.027301 -0.008871 0.001781 0.004374 -0.007621 -0.013829
# 2 -0.008871 0.007242 -0.000914 0.003427 0.015950 -0.002239
# 3 0.001781 -0.000914 0.011428 0.000829 -0.007939 -0.003088
# 4 0.004374 0.003427 0.000829 0.016998 -0.004682 -0.005424
# 5 -0.007621 0.015950 -0.007939 -0.004682 0.004010 0.009275
# 6 -0.013829 -0.002239 -0.003088 -0.005424 0.009275 0.038104
#
#
# Mechanical properties :
#
#
# Convention : Reuss Voigt Hill
#
# Bulk Modulus (GPa) = 33.37456 36.07631 34.72543
# Shear Modulus (GPa) = 38.14527 22.32979 30.23753
#
# Velocity S-wave (km/s) = 4.18924 3.20522 3.72982
# Velocity P-wave (km/s) = 6.22531 5.50416 5.87581
#
# Compressibility (1/GPa) = 0.02996294
#
# Stress axis : x y z
#
# Youngs Moduli (GPa) = 36.62859 138.09107 87.50340
#
# Poissons Ratio (x) = 1.22498 -0.15587
# Poissons Ratio (y) = 0.32493 0.08001
# Poissons Ratio (z) = -0.06525 0.12627
#
# Static dielectric constant tensor:
#      x y z
#    x 1.780630 -0.025510 0.010820 
#    y -0.025510 1.820890 -0.031440 
#    z 0.010820 -0.031440 1.760130 
# 
# From -- ./inp_files/260870.got.cif
#   From: 2010.05.17/outbox.cif.g08.bks.cpg/sg2_131_cif.got.tgz:260870.got - 2010.06.03 11:33:40.
