data_PCOD9060174
_publ_section_title
;
Structure prediction by ZEFSAII (Michael W. Deem and Ramdas Pophale) SiO2 
 PCOD9060174
Probable space group: P -1
;
_chemical_formula_sum "Si O2"
_cell_formula_units_Z 16
_cell_length_a 8.569825
_cell_length_b 12.239729
_cell_length_c 14.661122
_cell_angle_alpha 139.934710
_cell_angle_beta 130.950449
_cell_angle_gamma 50.754243
_cell_volume 719.927763
_symmetry_space_group_name_H-M "P -1"
_symmetry_group_IT_number 2
_symmetry_cell_setting 'triclinic'
loop_
_space_group_symop_operation_xyz
x,y,z
-x,-y,-z
loop_
_atom_site_type_symbol
_atom_site_label
_atom_site_fract_x
_atom_site_fract_y
_atom_site_fract_z
Si Si1 0.243186 0.550353 0.921157
Si Si2 0.882126 0.181044 0.117370
Si Si3 0.866300 0.798630 0.398672
Si Si4 0.267755 0.815417 0.445891
Si Si5 0.473041 0.538296 0.620369
Si Si6 0.008348 0.309932 0.423746
Si Si7 0.979262 0.306080 0.890358
Si Si8 0.561862 0.815649 0.956052
O O1 0.152927 0.655840 0.861642
O O2 0.179873 0.366531 0.775914
O O3 0.500000 0.500000 0.000000
O O4 0.133854 0.673045 0.041489
O O5 0.030394 0.189361 0.266714
O O6 0.640431 0.193293 0.066163
O O7 0.000000 0.000000 0.000000
O O8 0.101353 0.809686 0.460955
O O9 0.857494 0.760615 0.479420
O O10 0.711511 0.988013 0.432364
O O11 0.477527 0.654279 0.437650
O O12 0.154819 0.767950 0.281679
O O13 0.500000 0.500000 0.500000
O O14 0.236166 0.660056 0.619324
O O15 0.612159 0.650901 0.798141
O O16 0.000000 0.500000 0.500000
O O17 0.000000 0.500000 0.000000
O O18 0.222830 0.190436 0.911384
O O19 0.500000 0.000000 0.000000
#
# Coordination Sequence:
#
# PCOD9060174 Si02
#       8
#     2   2   2   2   2   2   2   2
#     4  12  26  46  69 100 145 187 230 286 358 419
#     4  11  26  46  67 101 141 181 232 291 357 415
#     4  11  24  45  69 103 139 182 234 289 346 418
#     4  11  25  43  72 103 139 180 239 291 346 406
#     4  11  23  43  67 101 133 178 232 283 342 412
#     4  11  24  44  69  94 139 180 224 281 351 414
#     4  12  23  43  72  98 137 183 236 286 345 413
#     4  11  25  42  71 102 132 180 238 289 343 415
#
# _framework density 22.224450999999998
#
# number of rings (size 3 to 8) (size 9 to 14) (size 15 to 20)
#    0.000    0.750    5.000    1.500    7.000    1.000 
#    2.250    1.250    0.000    0.000    0.000    0.000 
#    0.000    0.000    0.000    0.000    0.000    0.000 
#
# Total GULP energy -89449.942590 kJ/mol
# GULP energy per Si atom -5590.621412 kJ/mol
# Density = 2.217387 g / cm^3
# Si number density = 22.224451 Si / 1000 Ang^3
#
#
#
# Elastic Constant Matrix: (Units=GPa)
#
#
# Indices 1 2 3 4 5 6 
#
# 1 59.3861 6.1682 28.3316 -1.8297 -17.9506 18.3926
# 2 6.1682 123.8304 30.5206 15.2606 -3.8611 14.0769
# 3 28.3316 30.5206 102.2825 10.1597 -31.8147 10.3357
# 4 -1.8297 15.2606 10.1597 41.9058 2.9531 0.7645
# 5 -17.9506 -3.8611 -31.8147 2.9531 35.6770 -2.0623
# 6 18.3926 14.0769 10.3357 0.7645 -2.0623 36.5801
#
#
#
# Elastic Compliance Matrix: (Units=1/GPa)
#
#
# Indices 1 2 3 4 5 6 
#
# 1 0.024494 0.001026 -0.003352 0.001102 0.008702 -0.011296
# 2 0.001026 0.009376 -0.002777 -0.002570 -0.000926 -0.003338
# 3 -0.003352 -0.002777 0.015881 -0.003844 0.012438 -0.000951
# 4 0.001102 -0.002570 -0.003844 0.026139 -0.005276 0.000678
# 5 0.008702 -0.000926 0.012438 -0.005276 0.043548 -0.004968
# 6 -0.011296 -0.003338 -0.000951 0.000678 -0.004968 0.034276
#
#
# Mechanical properties :
#
#
# Convention : Reuss Voigt Hill
#
# Bulk Modulus (GPa) = 25.28852 46.17107 35.72980
# Shear Modulus (GPa) = 28.23224 37.53117 32.88170
#
# Velocity S-wave (km/s) = 3.56803 4.11388 3.85064
# Velocity P-wave (km/s) = 5.32708 6.58675 5.99012
#
# Compressibility (1/GPa) = 0.03954363
#
# Stress axis : x y z
#
# Youngs Moduli (GPa) = 40.82588 106.65152 62.96913
#
# Poissons Ratio (x) = -0.10940 0.21108
# Poissons Ratio (y) = -0.04188 0.17490
# Poissons Ratio (z) = 0.13686 0.29622
#
# Static dielectric constant tensor:
#      x y z
#    x 1.847800 0.021500 0.009670 
#    y 0.021500 1.808630 -0.039390 
#    z 0.009670 -0.039390 1.857290 
# 
# From -- ./inp_files/272718.got.cif
#   From: 2010.05.17/outbox.cif.g08.bks.cpg/sg2_137_cif.got.tgz:272718.got - 2010.06.03 11:33:40.
