data_PCOD9060938
_publ_section_title
;
Structure prediction by ZEFSAII (Michael W. Deem and Ramdas Pophale) SiO2 
 PCOD9060938
Probable space group: P -1
;
_chemical_formula_sum "Si O2"
_cell_formula_units_Z 16
_cell_length_a 5.256674
_cell_length_b 6.856595
_cell_length_c 25.192211
_cell_angle_alpha 91.349787
_cell_angle_beta 53.205193
_cell_angle_gamma 102.888378
_cell_volume 701.716837
_symmetry_space_group_name_H-M "P -1"
_symmetry_group_IT_number 2
_symmetry_cell_setting 'triclinic'
loop_
_space_group_symop_operation_xyz
x,y,z
-x,-y,-z
loop_
_atom_site_type_symbol
_atom_site_label
_atom_site_fract_x
_atom_site_fract_y
_atom_site_fract_z
Si Si1 0.747058 0.529245 0.270892
Si Si2 0.293490 0.762538 0.637528
Si Si3 0.300830 0.133362 0.279468
Si Si4 0.884545 0.511860 0.954340
Si Si5 0.386730 0.925657 0.859099
Si Si6 0.332417 0.830757 0.351199
Si Si7 0.791233 0.636569 0.498930
Si Si8 0.932396 0.176769 0.861424
O O1 0.860874 0.436995 0.309425
O O2 0.609808 0.321006 0.254527
O O3 0.478681 0.640297 0.326327
O O4 0.962597 0.689101 0.204331
O O5 0.599738 0.739566 0.565516
O O6 0.976136 0.801963 0.649756
O O7 0.409978 0.967563 0.658284
O O8 0.320202 0.121609 0.213631
O O9 0.261466 0.906776 0.302969
O O10 0.926407 0.328971 0.911125
O O11 0.114472 0.721864 0.905274
O O12 0.500000 0.500000 0.000000
O O13 0.000000 0.500000 0.000000
O O14 0.574125 0.034885 0.888699
O O15 0.194747 0.055123 0.847459
O O16 0.031389 0.782681 0.429066
O O17 0.500000 0.500000 0.500000
O O18 0.000000 0.500000 0.500000
#
# Coordination Sequence:
#
# PCOD9060938 Si02
#       8
#     2   2   2   2   2   2   2   2
#     4  11  23  44  70 104 144 189 245 302 372 427
#     4  11  26  42  71 102 143 194 244 310 364 441
#     4  11  25  42  72 106 143 191 245 313 362 437
#     4  12  28  51  78 110 154 196 242 302 362 443
#     4  12  27  47  75 113 150 192 254 298 370 443
#     4  11  24  45  69 101 141 186 248 300 370 434
#     4  12  27  46  71  99 142 195 243 301 376 444
#     4  12  27  46  78 110 149 200 242 307 369 435
#
# _framework density 22.801221000000002
#
# number of rings (size 3 to 8) (size 9 to 14) (size 15 to 20)
#    0.000    0.500    3.750    3.375    7.000    6.500 
#    0.000    0.000    0.000    0.000    0.000    0.000 
#    0.000    0.000    0.000    0.000    0.000    0.000 
#
# Total GULP energy -89334.478470 kJ/mol
# GULP energy per Si atom -5583.404904 kJ/mol
# Density = 2.274932 g / cm^3
# Si number density = 22.801221 Si / 1000 Ang^3
#
#
#
# Elastic Constant Matrix: (Units=GPa)
#
#
# Indices 1 2 3 4 5 6 
#
# 1 101.7118 43.4246 35.3071 -6.9423 -6.1085 5.1047
# 2 43.4246 124.3278 46.9680 -3.7578 -0.8442 5.4759
# 3 35.3071 46.9680 135.2961 -3.4606 -4.8257 -1.6711
# 4 -6.9423 -3.7578 -3.4606 31.4020 0.8700 3.1708
# 5 -6.1085 -0.8442 -4.8257 0.8700 31.5411 2.7587
# 6 5.1047 5.4759 -1.6711 3.1708 2.7587 35.9291
#
#
#
# Elastic Compliance Matrix: (Units=1/GPa)
#
#
# Indices 1 2 3 4 5 6 
#
# 1 0.012319 -0.003424 -0.001916 0.002214 0.002086 -0.001673
# 2 -0.003424 0.010325 -0.002722 0.000318 -0.000708 -0.001187
# 3 -0.001916 -0.002722 0.008881 0.000103 0.000822 0.001028
# 4 0.002214 0.000318 0.000103 0.032715 -0.000167 -0.003233
# 5 0.002086 -0.000708 0.000822 -0.000167 0.032450 -0.002627
# 6 -0.001673 -0.001187 0.001028 -0.003233 -0.002627 0.028786
#
#
# Mechanical properties :
#
#
# Convention : Reuss Voigt Hill
#
# Bulk Modulus (GPa) = 64.93547 68.08167 66.50857
# Shear Modulus (GPa) = 34.07533 35.48351 34.77942
#
# Velocity S-wave (km/s) = 3.87001 3.94916 3.90979
# Velocity P-wave (km/s) = 6.96492 7.12167 7.04373
#
# Compressibility (1/GPa) = 0.01539990
#
# Stress axis : x y z
#
# Youngs Moduli (GPa) = 81.17550 96.85383 112.60168
#
# Poissons Ratio (x) = 0.33165 0.21571
# Poissons Ratio (y) = 0.27797 0.30655
# Poissons Ratio (z) = 0.15551 0.26368
#
# Static dielectric constant tensor:
#      x y z
#    x 2.054330 -0.023090 -0.059070 
#    y -0.023090 1.833750 0.043270 
#    z -0.059070 0.043270 1.896500 
# 
# From -- ./inp_files/10584.got.cif
#   From: 2010.05.17/outbox.cif.g08.bks.cpg/sg2_6_cif.got.tgz:10584.got - 2010.06.03 11:33:40.
