data_PCOD9060175
_publ_section_title
;
Structure prediction by ZEFSAII (Michael W. Deem and Ramdas Pophale) SiO2 
 PCOD9060175
Probable space group: P -1
;
_chemical_formula_sum "Si O2"
_cell_formula_units_Z 16
_cell_length_a 19.259693
_cell_length_b 9.984455
_cell_length_c 12.376442
_cell_angle_alpha 122.463737
_cell_angle_beta 133.778757
_cell_angle_gamma 27.337440
_cell_volume 767.074375
_symmetry_space_group_name_H-M "P -1"
_symmetry_group_IT_number 2
_symmetry_cell_setting 'triclinic'
loop_
_space_group_symop_operation_xyz
x,y,z
-x,-y,-z
loop_
_atom_site_type_symbol
_atom_site_label
_atom_site_fract_x
_atom_site_fract_y
_atom_site_fract_z
Si Si1 0.516844 0.436381 0.672753
Si Si2 0.087585 0.511862 0.671015
Si Si3 0.951634 0.595619 0.198001
Si Si4 0.524341 0.930113 0.121424
Si Si5 0.185243 0.478640 0.128840
Si Si6 0.215508 0.797489 0.318867
Si Si7 0.668758 0.879087 0.650358
Si Si8 0.594980 0.259298 0.087374
O O1 0.355842 0.621766 0.494235
O O2 0.669513 0.317089 0.715261
O O3 0.443542 0.630435 0.783612
O O4 0.597588 0.157745 0.683495
O O5 0.131185 0.366920 0.768486
O O6 0.273899 0.307665 0.730806
O O7 0.000000 0.500000 0.500000
O O8 0.946766 0.850018 0.688471
O O9 0.152742 0.376434 0.343792
O O10 0.810650 0.929650 0.156397
O O11 0.950744 0.449605 0.049145
O O12 0.369273 0.237367 0.152621
O O13 0.490565 0.793331 0.043637
O O14 0.500000 0.000000 0.000000
O O15 0.133677 0.733707 0.202538
O O16 0.245157 0.299476 0.221863
O O17 0.500000 0.000000 0.500000
O O18 0.500000 0.500000 0.000000
#
# Coordination Sequence:
#
# PCOD9060175 Si02
#       8
#     2   2   2   2   2   2   2   2
#     4  11  23  43  67 101 139 176 227 285 338 404
#     4  12  26  43  69 101 139 178 227 284 341 406
#     4  11  25  46  68 102 134 185 227 280 344 410
#     4  11  23  44  70  99 134 181 222 279 345 402
#     4  11  24  44  72  98 139 175 229 280 343 409
#     4  11  25  40  68 106 133 177 229 283 338 399
#     4  12  25  46  68  97 140 181 223 278 351 408
#     4  11  24  46  71 100 139 182 230 282 342 408
#
# _framework density 20.858473
#
# number of rings (size 3 to 8) (size 9 to 14) (size 15 to 20)
#    0.000    0.750    5.000    3.375    5.250    2.500 
#    0.000    0.625    0.000    0.000    0.000    0.000 
#    0.000    0.000    0.000    0.000    0.000    0.000 
#
# Total GULP energy -89412.379662 kJ/mol
# GULP energy per Si atom -5588.273729 kJ/mol
# Density = 2.081100 g / cm^3
# Si number density = 20.858473 Si / 1000 Ang^3
#
#
#
# Elastic Constant Matrix: (Units=GPa)
#
#
# Indices 1 2 3 4 5 6 
#
# 1 54.9917 23.2251 14.2612 -0.9284 13.0388 6.2523
# 2 23.2251 124.1193 24.8113 2.1795 19.0819 12.4056
# 3 14.2612 24.8113 81.4022 6.2901 14.5208 1.4119
# 4 -0.9284 2.1795 6.2901 27.3220 -8.2738 3.5998
# 5 13.0388 19.0819 14.5208 -8.2738 38.1578 -11.5162
# 6 6.2523 12.4056 1.4119 3.5998 -11.5162 46.8139
#
#
#
# Elastic Compliance Matrix: (Units=1/GPa)
#
#
# Indices 1 2 3 4 5 6 
#
# 1 0.021659 -0.002250 -0.001809 -0.000217 -0.006812 -0.003901
# 2 -0.002250 0.009917 -0.001566 -0.001562 -0.004953 -0.003379
# 3 -0.001809 -0.001566 0.014413 -0.004776 -0.005337 -0.000724
# 4 -0.000217 -0.001562 -0.004776 0.041329 0.011722 0.000293
# 5 -0.006812 -0.004953 -0.005337 0.011722 0.038921 0.011057
# 6 -0.003901 -0.003379 -0.000724 0.000293 0.011057 0.025497
#
#
# Mechanical properties :
#
#
# Convention : Reuss Voigt Hill
#
# Bulk Modulus (GPa) = 28.78643 42.78984 35.78814
# Shear Modulus (GPa) = 28.64255 35.67310 32.15782
#
# Velocity S-wave (km/s) = 3.70967 4.14000 3.93073
# Velocity P-wave (km/s) = 5.67271 6.58875 6.14782
#
# Compressibility (1/GPa) = 0.03473859
#
# Stress axis : x y z
#
# Youngs Moduli (GPa) = 46.17019 100.83258 69.38389
#
# Poissons Ratio (x) = 0.22690 0.12553
# Poissons Ratio (y) = 0.10390 0.10864
# Poissons Ratio (z) = 0.08353 0.15788
#
# Static dielectric constant tensor:
#      x y z
#    x 3.169050 -0.266880 -0.180650 
#    y -0.266880 1.788930 0.041840 
#    z -0.180650 0.041840 1.779160 
# 
# From -- ./inp_files/205225.got.cif
#   From: 2010.05.17/outbox.cif.g08.bks.cpg/sg2_103_cif.got.tgz:205225.got - 2010.06.03 11:33:40.
