data_PCOD9060006
_publ_section_title
;
Structure prediction by ZEFSAII (Michael W. Deem and Ramdas Pophale) SiO2 
 PCOD9060006
Probable space group: P -1
;
_chemical_formula_sum "Si O2"
_cell_formula_units_Z 16
_cell_length_a 9.652190
_cell_length_b 14.653195
_cell_length_c 17.123565
_cell_angle_alpha 144.232487
_cell_angle_beta 37.188156
_cell_angle_gamma 152.381202
_cell_volume 628.673930
_symmetry_space_group_name_H-M "P -1"
_symmetry_group_IT_number 2
_symmetry_cell_setting 'triclinic'
loop_
_space_group_symop_operation_xyz
x,y,z
-x,-y,-z
loop_
_atom_site_type_symbol
_atom_site_label
_atom_site_fract_x
_atom_site_fract_y
_atom_site_fract_z
Si Si1 0.187278 0.801148 0.763615
Si Si2 0.995437 0.265976 0.595929
Si Si3 0.789975 0.968366 0.695178
Si Si4 0.153751 0.297781 0.991195
Si Si5 0.882109 0.568562 0.505050
Si Si6 0.718883 0.577455 0.253289
Si Si7 0.362912 0.763702 0.889688
Si Si8 0.281404 0.014199 0.716491
O O1 0.539588 0.911254 0.703773
O O2 0.031339 0.573236 0.638312
O O3 0.173932 0.925832 0.791041
O O4 0.039847 0.789918 0.902323
O O5 0.009174 0.085386 0.460249
O O6 0.200211 0.427202 0.544561
O O7 0.115538 0.363601 0.695236
O O8 0.654000 0.174095 0.665481
O O9 0.582501 0.814009 0.753773
O O10 0.034256 0.223082 0.774194
O O11 0.992944 0.360383 0.057845
O O12 0.500000 0.500000 0.000000
O O13 0.163781 0.132863 0.831567
O O14 0.585371 0.460048 0.618463
O O15 0.141754 0.812715 0.585406
O O16 0.614918 0.349994 0.129106
O O17 0.500000 0.000000 0.000000
#
# Coordination Sequence:
#
# PCOD9060006 Si02
#       8
#     2   2   2   2   2   2   2   2
#     4  11  23  44  67  98 136 172 229 275 328 408
#     4  12  22  42  71  96 135 170 225 275 332 405
#     4  11  23  42  73 103 126 177 227 276 330 399
#     4  11  25  45  67  93 129 186 228 262 335 410
#     4  12  24  40  67 106 135 173 218 284 350 386
#     4  12  22  42  72  99 131 176 228 273 332 400
#     4  11  25  46  67  97 140 172 223 283 329 396
#     4  12  25  43  65  99 140 175 216 282 341 396
#
# _framework density 25.450393999999999
#
# number of rings (size 3 to 8) (size 9 to 14) (size 15 to 20)
#    0.000    0.500    3.750    6.375    0.000    0.500 
#    2.250    0.000    0.000    0.000    0.000    0.000 
#    0.000    0.000    0.000    0.000    0.000    0.000 
#
# Total GULP energy -89615.185188 kJ/mol
# GULP energy per Si atom -5600.949074 kJ/mol
# Density = 2.539247 g / cm^3
# Si number density = 25.450394 Si / 1000 Ang^3
#
#
#
# Elastic Constant Matrix: (Units=GPa)
#
#
# Indices 1 2 3 4 5 6 
#
# 1 70.4734 12.2975 12.3199 -11.1435 -11.7571 -4.3351
# 2 12.2975 101.0806 23.6127 4.1519 -8.6366 -0.4392
# 3 12.3199 23.6127 111.5875 4.5798 -21.8835 5.7122
# 4 -11.1435 4.1519 4.5798 37.3950 -2.3503 -6.1204
# 5 -11.7571 -8.6366 -21.8835 -2.3503 33.4277 5.2530
# 6 -4.3351 -0.4392 5.7122 -6.1204 5.2530 43.5001
#
#
#
# Elastic Compliance Matrix: (Units=1/GPa)
#
#
# Indices 1 2 3 4 5 6 
#
# 1 0.016484 -0.001617 -0.000852 0.005827 0.004924 0.001964
# 2 -0.001617 0.010653 -0.001835 -0.001402 0.000902 -0.000119
# 3 -0.000852 -0.001835 0.010944 -0.001386 0.006693 -0.002544
# 4 0.005827 -0.001402 -0.001386 0.029702 0.002134 0.004670
# 5 0.004924 0.000902 0.006693 0.002134 0.037129 -0.004562
# 6 0.001964 -0.000119 -0.002544 0.004670 -0.004562 0.024725
#
#
# Mechanical properties :
#
#
# Convention : Reuss Voigt Hill
#
# Bulk Modulus (GPa) = 33.92909 42.17797 38.05353
# Shear Modulus (GPa) = 33.76836 38.52533 36.14685
#
# Velocity S-wave (km/s) = 3.64652 3.89490 3.77276
# Velocity P-wave (km/s) = 5.57583 6.06924 5.82776
#
# Compressibility (1/GPa) = 0.02947323
#
# Stress axis : x y z
#
# Youngs Moduli (GPa) = 60.66362 93.87339 91.37786
#
# Poissons Ratio (x) = 0.15176 0.07785
# Poissons Ratio (y) = 0.09807 0.16768
# Poissons Ratio (z) = 0.05169 0.17226
#
# Static dielectric constant tensor:
#      x y z
#    x 2.000950 0.033150 0.025180 
#    y 0.033150 2.127300 0.109350 
#    z 0.025180 0.109350 2.078970 
# 
# From -- ./inp_files/308611.got.cif
#   From: 2010.05.17/outbox.cif.g08.bks.cpg/sg2_155_cif.got.tgz:308611.got - 2010.06.03 11:33:40.
