data_PCOD9060264
_publ_section_title
;
Structure prediction by ZEFSAII (Michael W. Deem and Ramdas Pophale) SiO2 
 PCOD9060264
Probable space group: P -1
;
_chemical_formula_sum "Si O2"
_cell_formula_units_Z 16
_cell_length_a 15.896346
_cell_length_b 15.847395
_cell_length_c 6.449304
_cell_angle_alpha 55.794537
_cell_angle_beta 115.517128
_cell_angle_gamma 146.432918
_cell_volume 740.403686
_symmetry_space_group_name_H-M "P -1"
_symmetry_group_IT_number 2
_symmetry_cell_setting 'triclinic'
loop_
_space_group_symop_operation_xyz
x,y,z
-x,-y,-z
loop_
_atom_site_type_symbol
_atom_site_label
_atom_site_fract_x
_atom_site_fract_y
_atom_site_fract_z
Si Si1 0.868931 0.326712 0.725031
Si Si2 0.587128 0.179885 0.823460
Si Si3 0.994423 0.286140 0.230552
Si Si4 0.901256 0.006784 0.289664
Si Si5 0.869232 0.124718 0.739695
Si Si6 0.555058 0.648856 0.467197
Si Si7 0.660896 0.388791 0.954080
Si Si8 0.439522 0.217903 0.335553
O O1 0.731473 0.283990 0.685168
O O2 0.825481 0.185275 0.749390
O O3 0.000000 0.500000 0.500000
O O4 0.922375 0.325642 0.003504
O O5 0.641792 0.263666 0.992924
O O6 0.472249 0.159048 0.621234
O O7 0.500000 0.000000 0.000000
O O8 0.163361 0.428620 0.118852
O O9 0.983032 0.268271 0.489402
O O10 0.908911 0.109765 0.309326
O O11 0.727229 0.820390 0.341168
O O12 0.000000 0.000000 0.500000
O O13 0.945035 0.099828 0.990699
O O14 0.716349 0.945178 0.723464
O O15 0.500000 0.500000 0.500000
O O16 0.431939 0.620295 0.287680
O O17 0.561303 0.676179 0.684046
O O18 0.577706 0.330465 0.163866
#
# Coordination Sequence:
#
# PCOD9060264 Si02
#       8
#     2   2   2   2   2   2   2   2
#     4  11  24  40  63 101 143 184 237 282 341 403
#     4  11  24  38  63  97 137 182 229 279 334 402
#     4  11  24  43  68  98 143 182 229 289 342 408
#     4  11  24  45  70 101 135 174 230 288 353 419
#     4  11  23  43  70  97 140 188 228 288 347 409
#     4  11  24  45  70 100 135 171 227 291 346 415
#     4  11  24  43  66  98 137 177 228 280 337 406
#     4  11  23  43  68  97 136 181 227 279 346 407
#
# _framework density 21.609832000000001
#
# number of rings (size 3 to 8) (size 9 to 14) (size 15 to 20)
#    0.000    1.000    2.500    3.750    3.500   10.000 
#    0.000    0.000    0.000    0.000    0.000    0.000 
#    0.000    0.000    0.000    0.000    0.000    0.000 
#
# Total GULP energy -89338.909393 kJ/mol
# GULP energy per Si atom -5583.681837 kJ/mol
# Density = 2.156065 g / cm^3
# Si number density = 21.609832 Si / 1000 Ang^3
#
#
#
# Elastic Constant Matrix: (Units=GPa)
#
#
# Indices 1 2 3 4 5 6 
#
# 1 60.9616 29.5346 19.3830 -4.6300 -2.5963 -19.2512
# 2 29.5346 115.1120 11.7597 -10.0852 -3.0856 -21.9142
# 3 19.3830 11.7597 85.4230 8.5179 -10.0545 -13.2653
# 4 -4.6300 -10.0852 8.5179 25.4513 10.1302 -0.3262
# 5 -2.5963 -3.0856 -10.0545 10.1302 48.0870 5.8960
# 6 -19.2512 -21.9142 -13.2653 -0.3262 5.8960 42.1860
#
#
#
# Elastic Compliance Matrix: (Units=1/GPa)
#
#
# Indices 1 2 3 4 5 6 
#
# 1 0.021945 -0.003470 -0.004067 0.004779 -0.001780 0.007219
# 2 -0.003470 0.010747 -0.000622 0.004293 -0.001020 0.003980
# 3 -0.004067 -0.000622 0.014178 -0.007320 0.004044 0.001657
# 4 0.004779 0.004293 -0.007320 0.049078 -0.011844 0.004144
# 5 -0.001780 -0.001020 0.004044 -0.011844 0.024413 -0.003574
# 6 0.007219 0.003980 0.001657 0.004144 -0.003574 0.030119
#
#
# Mechanical properties :
#
#
# Convention : Reuss Voigt Hill
#
# Bulk Modulus (GPa) = 32.73059 42.53902 37.63481
# Shear Modulus (GPa) = 28.25145 36.53282 32.39213
#
# Velocity S-wave (km/s) = 3.61964 4.11611 3.87583
# Velocity P-wave (km/s) = 5.71385 6.50519 6.12232
#
# Compressibility (1/GPa) = 0.03055246
#
# Stress axis : x y z
#
# Youngs Moduli (GPa) = 45.56921 93.04611 70.53120
#
# Poissons Ratio (x) = 0.32284 0.28684
# Poissons Ratio (y) = 0.15811 0.04390
# Poissons Ratio (z) = 0.18532 0.05791
#
# Static dielectric constant tensor:
#      x y z
#    x 1.710080 -0.004430 -0.043800 
#    y -0.004430 1.801720 0.014160 
#    z -0.043800 0.014160 1.814340 
# 
# From -- ./inp_files/97592.got.cif
#   From: 2010.05.17/outbox.cif.g08.bks.cpg/sg2_49_cif.got.tgz:97592.got - 2010.06.03 11:33:40.
