data_PCOD9060223
_publ_section_title
;
Structure prediction by ZEFSAII (Michael W. Deem and Ramdas Pophale) SiO2 
 PCOD9060223
Probable space group: P -1
;
_chemical_formula_sum "Si O2"
_cell_formula_units_Z 14
_cell_length_a 9.585638
_cell_length_b 18.071165
_cell_length_c 5.051727
_cell_angle_alpha 72.883951
_cell_angle_beta 76.913901
_cell_angle_gamma 129.070296
_cell_volume 540.056772
_symmetry_space_group_name_H-M "P -1"
_symmetry_group_IT_number 2
_symmetry_cell_setting 'triclinic'
loop_
_space_group_symop_operation_xyz
x,y,z
-x,-y,-z
loop_
_atom_site_type_symbol
_atom_site_label
_atom_site_fract_x
_atom_site_fract_y
_atom_site_fract_z
Si Si1 0.089543 0.097093 0.149269
Si Si2 0.251789 0.584567 0.748442
Si Si3 0.463983 0.908638 0.789806
Si Si4 0.546513 0.843889 0.310710
Si Si5 0.047286 0.818754 0.105735
Si Si6 0.667905 0.696997 0.779262
Si Si7 0.729337 0.580167 0.189097
O O1 0.270675 0.226160 0.075334
O O2 0.223962 0.107717 0.850285
O O3 0.899201 0.082320 0.189040
O O4 0.000000 0.000000 0.500000
O O5 0.362496 0.706252 0.453136
O O6 0.437372 0.632717 0.835226
O O7 0.231263 0.493999 0.708549
O O8 0.000000 0.500000 0.000000
O O9 0.465883 0.843331 0.629255
O O10 0.500000 0.000000 0.500000
O O11 0.581209 0.921699 0.983415
O O12 0.242876 0.848073 0.095678
O O13 0.873857 0.787450 0.404846
O O14 0.922069 0.706178 0.100730
O O15 0.690946 0.613624 0.902528
O O16 0.500000 0.500000 0.500000
#
# Coordination Sequence:
#
# PCOD9060223 Si02
#       7
#     2   2   2   2   2   2   2
#     4  11  25  45  77 105 147 191 245 316 377 434
#     4  12  25  44  73 107 148 193 243 314 378 427
#     4  12  29  49  77 105 152 198 244 310 384 450
#     4  12  27  51  70 115 152 187 257 315 369 457
#     4  11  25  44  72 102 142 195 250 295 366 460
#     4  11  24  45  71 105 147 194 253 301 363 467
#     4  11  23  43  68 101 140 196 247 294 369 441
#
# _framework density 25.923200000000001
#
# number of rings (size 3 to 8) (size 9 to 14) (size 15 to 20)
#    0.000    0.571    2.857    4.286    8.000    0.571 
#    0.000    4.286    0.000    0.000    0.000    0.000 
#    0.000    0.000    0.000    0.000    0.000    0.000 
#
# Total GULP energy -78094.410885 kJ/mol
# GULP energy per Si atom -5578.172206 kJ/mol
# Density = 2.586420 g / cm^3
# Si number density = 25.923200 Si / 1000 Ang^3
#
#
#
# Elastic Constant Matrix: (Units=GPa)
#
#
# Indices 1 2 3 4 5 6 
#
# 1 140.3012 12.1849 40.3089 13.4982 -37.8991 -11.3288
# 2 12.1849 97.5231 1.3759 5.5874 -7.3235 -35.0948
# 3 40.3089 1.3759 68.1908 -1.0964 -10.4912 -9.3936
# 4 13.4982 5.5874 -1.0964 47.2638 -3.9149 1.1503
# 5 -37.8991 -7.3235 -10.4912 -3.9149 52.2087 2.1123
# 6 -11.3288 -35.0948 -9.3936 1.1503 2.1123 43.6567
#
#
#
# Elastic Compliance Matrix: (Units=1/GPa)
#
#
# Indices 1 2 3 4 5 6 
#
# 1 0.010754 -0.000166 -0.005221 -0.002667 0.006482 0.001290
# 2 -0.000166 0.014897 0.001717 -0.001833 0.001680 0.012268
# 3 -0.005221 0.001717 0.018296 0.001625 0.000091 0.003915
# 4 -0.002667 -0.001833 0.001625 0.022224 -0.000103 -0.002397
# 5 0.006482 0.001680 0.000091 -0.000103 0.024029 0.001892
# 6 0.001290 0.012268 0.003915 -0.002397 0.001892 0.033917
#
#
# Mechanical properties :
#
#
# Convention : Reuss Voigt Hill
#
# Bulk Modulus (GPa) = 27.31894 45.97273 36.64584
# Shear Modulus (GPa) = 34.80475 45.43551 40.12013
#
# Velocity S-wave (km/s) = 3.66814 4.19106 3.93829
# Velocity P-wave (km/s) = 5.33869 6.41816 5.90315
#
# Compressibility (1/GPa) = 0.03660464
#
# Stress axis : x y z
#
# Youngs Moduli (GPa) = 92.99150 67.12924 54.65723
#
# Poissons Ratio (x) = 0.01115 0.28538
# Poissons Ratio (y) = 0.01545 -0.09383
# Poissons Ratio (z) = 0.48554 -0.11524
#
# Static dielectric constant tensor:
#      x y z
#    x 1.804150 0.037090 0.008250 
#    y 0.037090 2.097460 -0.043640 
#    z 0.008250 -0.043640 2.408420 
# 
# From -- ./inp_files/36850.got.cif
#   From: 2010.05.17/outbox.cif.g08.bks.cpg/sg2_19_cif.got.tgz:36850.got - 2010.06.03 11:33:40.
