data_PCOD9060121
_publ_section_title
;
Structure prediction by ZEFSAII (Michael W. Deem and Ramdas Pophale) SiO2 
 PCOD9060121
Probable space group: P -1
;
_chemical_formula_sum "Si O2"
_cell_formula_units_Z 14
_cell_length_a 6.158377
_cell_length_b 22.148031
_cell_length_c 9.019490
_cell_angle_alpha 126.043515
_cell_angle_beta 130.154234
_cell_angle_gamma 48.844370
_cell_volume 678.589167
_symmetry_space_group_name_H-M "P -1"
_symmetry_group_IT_number 2
_symmetry_cell_setting 'triclinic'
loop_
_space_group_symop_operation_xyz
x,y,z
-x,-y,-z
loop_
_atom_site_type_symbol
_atom_site_label
_atom_site_fract_x
_atom_site_fract_y
_atom_site_fract_z
Si Si1 0.155381 0.269625 0.301846
Si Si2 0.148298 0.265638 0.633836
Si Si3 0.114239 0.846257 0.505567
Si Si4 0.124944 0.831523 0.147901
Si Si5 0.145755 0.003007 0.900905
Si Si6 0.121910 0.554723 0.727052
Si Si7 0.130207 0.559771 0.072212
O O1 0.046843 0.274272 0.430476
O O2 0.535838 0.231432 0.428431
O O3 0.978110 0.359979 0.281716
O O4 0.082565 0.206758 0.078418
O O5 0.518273 0.241490 0.783374
O O6 0.113716 0.186370 0.565958
O O7 0.957717 0.352719 0.759730
O O8 0.026259 0.861597 0.315966
O O9 0.127645 0.926293 0.697968
O O10 0.096306 0.908325 0.146537
O O11 0.500000 0.000000 0.000000
O O12 0.000000 0.000000 0.000000
O O13 0.493354 0.496226 0.830866
O O14 0.000000 0.500000 0.500000
O O15 0.996389 0.577670 0.872222
O O16 0.000000 0.500000 0.000000
#
# Coordination Sequence:
#
# PCOD9060121 Si02
#       7
#     2   2   2   2   2   2   2
#     4  11  23  43  65  96 133 174 227 281 345 417
#     4  11  25  41  67  99 130 179 227 286 345 421
#     4  11  25  44  69  98 138 176 232 282 349 417
#     4  11  25  44  69  98 136 179 227 283 352 412
#     4  12  27  47  76 106 144 188 238 290 355 425
#     4  11  24  40  64  92 131 175 222 283 344 412
#     4  11  24  42  62  96 133 172 228 280 347 413
#
# _framework density 20.631038
#
# number of rings (size 3 to 8) (size 9 to 14) (size 15 to 20)
#    0.000    0.857    1.429    4.714    4.000   13.143 
#    0.000    0.000    0.000    0.000    0.000    0.000 
#    0.000    0.000    0.000    0.000    0.000    0.000 
#
# Total GULP energy -78117.897977 kJ/mol
# GULP energy per Si atom -5579.849855 kJ/mol
# Density = 2.058408 g / cm^3
# Si number density = 20.631038 Si / 1000 Ang^3
#
#
#
# Elastic Constant Matrix: (Units=GPa)
#
#
# Indices 1 2 3 4 5 6 
#
# 1 77.4558 15.3968 51.5613 -10.3341 -18.7242 23.9586
# 2 15.3968 107.8982 30.3578 -3.4527 -19.6042 22.7017
# 3 51.5613 30.3578 148.6798 -0.7523 -18.7403 13.6938
# 4 -10.3341 -3.4527 -0.7523 41.6568 6.6632 -6.7589
# 5 -18.7242 -19.6042 -18.7403 6.6632 38.2772 -5.1341
# 6 23.9586 22.7017 13.6938 -6.7589 -5.1341 35.8090
#
#
#
# Elastic Compliance Matrix: (Units=1/GPa)
#
#
# Indices 1 2 3 4 5 6 
#
# 1 0.022626 0.002639 -0.006278 0.002474 0.007183 -0.012914
# 2 0.002639 0.012120 -0.001953 -0.000566 0.005566 -0.008011
# 3 -0.006278 -0.001953 0.009250 -0.001416 0.000941 0.001769
# 4 0.002474 -0.000566 -0.001416 0.025728 -0.003774 0.003560
# 5 0.007183 0.005566 0.000941 -0.003774 0.032980 -0.004678
# 6 -0.012914 -0.008011 0.001769 0.003560 -0.004678 0.040970
#
#
# Mechanical properties :
#
#
# Convention : Reuss Voigt Hill
#
# Bulk Modulus (GPa) = 30.47698 58.74062 44.60880
# Shear Modulus (GPa) = 30.15742 38.92977 34.54360
#
# Velocity S-wave (km/s) = 3.82743 4.34862 4.09632
# Velocity P-wave (km/s) = 5.85976 7.33129 6.63643
#
# Compressibility (1/GPa) = 0.03281165
#
# Stress axis : x y z
#
# Youngs Moduli (GPa) = 44.19604 82.51049 108.10243
#
# Poissons Ratio (x) = -0.21775 0.67869
# Poissons Ratio (y) = -0.11664 0.21116
# Poissons Ratio (z) = 0.27747 0.16117
#
# Static dielectric constant tensor:
#      x y z
#    x 1.845900 0.130510 -0.205250 
#    y 0.130510 2.540450 -1.120600 
#    z -0.205250 -1.120600 3.227610 
# 
# From -- ./inp_files/6340.got.cif
#   From: 2010.05.17/outbox.cif.g08.bks.cpg/sg2_4_cif.got.tgz:6340.got - 2010.06.03 11:33:40.
