data_PCOD9060139
_publ_section_title
;
Structure prediction by ZEFSAII (Michael W. Deem and Ramdas Pophale) SiO2 
 PCOD9060139
Probable space group: P -1
;
_chemical_formula_sum "Si O2"
_cell_formula_units_Z 14
_cell_length_a 7.937774
_cell_length_b 10.528736
_cell_length_c 8.344741
_cell_angle_alpha 83.752668
_cell_angle_beta 106.661869
_cell_angle_gamma 118.442812
_cell_volume 587.161321
_symmetry_space_group_name_H-M "P -1"
_symmetry_group_IT_number 2
_symmetry_cell_setting 'triclinic'
loop_
_space_group_symop_operation_xyz
x,y,z
-x,-y,-z
loop_
_atom_site_type_symbol
_atom_site_label
_atom_site_fract_x
_atom_site_fract_y
_atom_site_fract_z
Si Si1 0.409937 0.058571 0.326950
Si Si2 0.036832 0.881305 0.428662
Si Si3 0.655817 0.780254 0.185810
Si Si4 0.262596 0.902997 0.796579
Si Si5 0.936627 0.409654 0.157522
Si Si6 0.522336 0.354514 0.183312
Si Si7 0.619215 0.467118 0.674834
O O1 0.507774 0.045760 0.190120
O O2 0.466705 0.227600 0.318563
O O3 0.500000 0.000000 0.500000
O O4 0.178524 0.961568 0.307269
O O5 0.149729 0.840521 0.602577
O O6 0.832599 0.759606 0.319813
O O7 0.000000 0.000000 0.500000
O O8 0.474463 0.699857 0.272418
O O9 0.743136 0.952619 0.178138
O O10 0.589331 0.719455 0.000745
O O11 0.160927 0.760492 0.893088
O O12 0.757893 0.421384 0.200487
O O13 0.145996 0.463214 0.299333
O O14 0.000000 0.500000 0.000000
O O15 0.433125 0.458240 0.199860
O O16 0.500000 0.500000 0.500000
#
# Coordination Sequence:
#
# PCOD9060139 Si02
#       7
#     2   2   2   2   2   2   2
#     4   9  20  39  66  98 138 177 225 291 347 407
#     4   9  19  37  66  97 138 175 228 285 343 408
#     4  11  23  43  66 106 137 179 235 293 343 420
#     4   9  21  41  69  99 140 178 239 285 346 418
#     4  11  24  48  73 101 147 191 224 297 362 416
#     4  11  26  47  70 104 145 182 242 290 357 427
#     4  12  28  47  75 100 143 192 237 292 359 426
#
# _framework density 23.843530999999999
#
# number of rings (size 3 to 8) (size 9 to 14) (size 15 to 20)
#    0.000    1.714    1.429    1.286   10.000    3.429 
#    5.143    0.000    0.000    0.000    0.000    0.000 
#    0.000    0.000    0.000    0.000    0.000    0.000 
#
# Total GULP energy -78168.524345 kJ/mol
# GULP energy per Si atom -5583.466025 kJ/mol
# Density = 2.378926 g / cm^3
# Si number density = 23.843531 Si / 1000 Ang^3
#
#
#
# Elastic Constant Matrix: (Units=GPa)
#
#
# Indices 1 2 3 4 5 6 
#
# 1 87.6018 22.4173 20.1671 20.7058 15.5690 31.2089
# 2 22.4173 128.7988 32.7786 -28.8022 -4.8460 21.5134
# 3 20.1671 32.7786 111.5584 2.0672 13.4738 10.9468
# 4 20.7058 -28.8022 2.0672 36.5221 7.1439 6.8619
# 5 15.5690 -4.8460 13.4738 7.1439 26.5872 -1.7241
# 6 31.2089 21.5134 10.9468 6.8619 -1.7241 46.0121
#
#
#
# Elastic Compliance Matrix: (Units=1/GPa)
#
#
# Indices 1 2 3 4 5 6 
#
# 1 0.021225 -0.005019 0.000238 -0.011836 -0.010981 -0.010753
# 2 -0.005019 0.013291 -0.003234 0.013653 0.003075 -0.003962
# 3 0.000238 -0.003234 0.010705 -0.001967 -0.005698 -0.001117
# 4 -0.011836 0.013653 -0.001967 0.046348 -0.002354 -0.004888
# 5 -0.010981 0.003075 -0.005698 -0.002354 0.048742 0.009544
# 6 -0.010753 -0.003962 -0.001117 -0.004888 0.009544 0.032231
#
#
# Mechanical properties :
#
#
# Convention : Reuss Voigt Hill
#
# Bulk Modulus (GPa) = 34.25465 53.18722 43.72094
# Shear Modulus (GPa) = 25.21414 38.66401 31.93907
#
# Velocity S-wave (km/s) = 3.25542 4.03124 3.66393
# Velocity P-wave (km/s) = 5.34116 6.63499 6.02292
#
# Compressibility (1/GPa) = 0.02919312
#
# Stress axis : x y z
#
# Youngs Moduli (GPa) = 47.11486 75.23895 93.41290
#
# Poissons Ratio (x) = 0.37761 -0.02228
# Poissons Ratio (y) = 0.23646 0.30205
# Poissons Ratio (z) = -0.01124 0.24329
#
# Static dielectric constant tensor:
#      x y z
#    x 1.941550 -0.020420 0.049390 
#    y -0.020420 1.980470 0.001210 
#    z 0.049390 0.001210 1.993060 
# 
# From -- ./inp_files/178114.got.cif
#   From: 2010.05.17/outbox.cif.g08.bks.cpg/sg2_90_cif.got.tgz:178114.got - 2010.06.03 11:33:40.
