data_PCOD9060816
_publ_section_title
;
Structure prediction by ZEFSAII (Michael W. Deem and Ramdas Pophale) SiO2 
 PCOD9060816
Probable space group: P -1
;
_chemical_formula_sum "Si O2"
_cell_formula_units_Z 16
_cell_length_a 13.735710
_cell_length_b 9.580526
_cell_length_c 12.851598
_cell_angle_alpha 144.369775
_cell_angle_beta 50.707673
_cell_angle_gamma 110.474614
_cell_volume 709.632848
_symmetry_space_group_name_H-M "P -1"
_symmetry_group_IT_number 2
_symmetry_cell_setting 'triclinic'
loop_
_space_group_symop_operation_xyz
x,y,z
-x,-y,-z
loop_
_atom_site_type_symbol
_atom_site_label
_atom_site_fract_x
_atom_site_fract_y
_atom_site_fract_z
Si Si1 0.495160 0.926246 0.618257
Si Si2 0.527722 0.414472 0.812748
Si Si3 0.473269 0.156173 0.220435
Si Si4 0.841763 0.488634 0.366970
Si Si5 0.942025 0.952026 0.621025
Si Si6 0.976092 0.745325 0.089747
Si Si7 0.344652 0.616258 0.868986
Si Si8 0.241383 0.859007 0.642856
O O1 0.494792 0.987893 0.778259
O O2 0.630160 0.676785 0.354402
O O3 0.362203 0.867335 0.641364
O O4 0.499652 0.151957 0.679631
O O5 0.428460 0.596187 0.906292
O O6 0.678401 0.337139 0.621106
O O7 0.500000 0.500000 0.000000
O O8 0.316738 0.339839 0.434865
O O9 0.578555 0.301021 0.225608
O O10 0.500000 0.000000 0.000000
O O11 0.902984 0.354135 0.135603
O O12 0.849956 0.267741 0.310688
O O13 0.916399 0.684223 0.469465
O O14 0.031263 0.008550 0.686064
O O15 0.800509 0.180003 0.883430
O O16 0.000000 0.000000 0.500000
O O17 0.000000 0.500000 0.000000
O O18 0.842897 0.862020 0.178623
#
# Coordination Sequence:
#
# PCOD9060816 Si02
#       8
#     2   2   2   2   2   2   2   2
#     4  11  25  41  73 105 147 189 235 304 366 439
#     4  11  25  41  69 106 145 188 233 307 367 432
#     4  12  23  42  73 110 140 181 233 299 369 432
#     4  12  26  49  74 107 151 188 248 305 368 441
#     4  12  28  45  74 110 142 196 248 301 362 438
#     4  12  29  50  76 101 146 201 251 303 361 447
#     4  11  23  44  68 104 142 180 243 290 369 430
#     4  11  27  49  69 108 143 195 248 295 378 428
#
# _framework density 22.546869000000001
#
# number of rings (size 3 to 8) (size 9 to 14) (size 15 to 20)
#    0.000    0.500    5.000    3.750    8.750    0.500 
#    0.000    0.000    0.000    0.000    0.000    0.000 
#    0.000    0.000    0.000    0.000    0.000    0.000 
#
# Total GULP energy -89423.766314 kJ/mol
# GULP energy per Si atom -5588.985395 kJ/mol
# Density = 2.249555 g / cm^3
# Si number density = 22.546869 Si / 1000 Ang^3
#
#
#
# Elastic Constant Matrix: (Units=GPa)
#
#
# Indices 1 2 3 4 5 6 
#
# 1 60.5200 20.8780 28.6119 -1.5675 8.1092 -15.4359
# 2 20.8780 145.0423 8.6882 -12.3188 15.7883 -2.8317
# 3 28.6119 8.6882 89.8661 -30.5003 25.2016 -9.9925
# 4 -1.5675 -12.3188 -30.5003 43.7777 -3.3983 6.9081
# 5 8.1092 15.7883 25.2016 -3.3983 44.1684 7.0401
# 6 -15.4359 -2.8317 -9.9925 6.9081 7.0401 40.2370
#
#
#
# Elastic Compliance Matrix: (Units=1/GPa)
#
#
# Indices 1 2 3 4 5 6 
#
# 1 0.023732 -0.003381 -0.008952 -0.007581 0.000113 0.007925
# 2 -0.003381 0.007892 0.002422 0.003561 -0.003280 -0.000178
# 3 -0.008952 0.002422 0.021889 0.014520 -0.010846 0.001577
# 4 -0.007581 0.003561 0.014520 0.033942 -0.004914 -0.004019
# 5 0.000113 -0.003280 -0.010846 -0.004914 0.030786 -0.007424
# 6 0.007925 -0.000178 0.001577 -0.004019 -0.007424 0.030261
#
#
# Mechanical properties :
#
#
# Convention : Reuss Voigt Hill
#
# Bulk Modulus (GPa) = 29.68264 45.75384 37.71824
# Shear Modulus (GPa) = 27.84661 41.45332 34.64996
#
# Velocity S-wave (km/s) = 3.51815 4.29247 3.92445
# Velocity P-wave (km/s) = 5.44946 6.70104 6.10739
#
# Compressibility (1/GPa) = 0.03368972
#
# Stress axis : x y z
#
# Youngs Moduli (GPa) = 42.13713 126.70801 45.68554
#
# Poissons Ratio (x) = 0.42844 0.40900
# Poissons Ratio (y) = 0.14248 -0.11065
# Poissons Ratio (z) = 0.37723 -0.30690
#
# Static dielectric constant tensor:
#      x y z
#    x 1.945250 0.103430 0.051180 
#    y 0.103430 1.896760 0.057260 
#    z 0.051180 0.057260 1.863370 
# 
# From -- ./inp_files/448296.got.cif
#   From: 2010.05.17/outbox.cif.g08.bks.cpg/sg2_225_cif.got.tgz:448296.got - 2010.06.03 11:33:40.
