data_PCOD9060418
_publ_section_title
;
Structure prediction by ZEFSAII (Michael W. Deem and Ramdas Pophale) SiO2 
 PCOD9060418
Probable space group: P -1
;
_chemical_formula_sum "Si O2"
_cell_formula_units_Z 16
_cell_length_a 9.454641
_cell_length_b 10.145880
_cell_length_c 12.158939
_cell_angle_alpha 100.087603
_cell_angle_beta 115.942236
_cell_angle_gamma 119.294663
_cell_volume 794.103081
_symmetry_space_group_name_H-M "P -1"
_symmetry_group_IT_number 2
_symmetry_cell_setting 'triclinic'
loop_
_space_group_symop_operation_xyz
x,y,z
-x,-y,-z
loop_
_atom_site_type_symbol
_atom_site_label
_atom_site_fract_x
_atom_site_fract_y
_atom_site_fract_z
Si Si1 0.628535 0.839423 0.237261
Si Si2 0.285224 0.879904 0.847981
Si Si3 0.127870 0.289964 0.715032
Si Si4 0.069195 0.421537 0.168961
Si Si5 0.651069 0.969850 0.499886
Si Si6 0.444763 0.626119 0.495071
Si Si7 0.800840 0.525946 0.019889
Si Si8 0.775497 0.409652 0.364099
O O1 0.772841 0.792702 0.305245
O O2 0.589323 0.899454 0.344267
O O3 0.735152 0.996415 0.210732
O O4 0.416002 0.667157 0.091945
O O5 0.290034 0.756214 0.749714
O O6 0.101065 0.756980 0.852145
O O7 0.500000 0.000000 0.000000
O O8 0.200182 0.357317 0.874313
O O9 0.205764 0.454824 0.691559
O O10 0.883336 0.146965 0.606121
O O11 0.259651 0.542470 0.332767
O O12 0.966134 0.508448 0.118451
O O13 0.138045 0.399783 0.071973
O O14 0.622967 0.819938 0.540254
O O15 0.500000 0.000000 0.500000
O O16 0.500000 0.500000 0.500000
O O17 0.368549 0.633561 0.589014
O O18 0.000000 0.500000 0.500000
#
# Coordination Sequence:
#
# PCOD9060418 Si02
#       8
#     2   2   2   2   2   2   2   2
#     4  12  25  44  68 102 139 175 228 288 344 400
#     4  12  24  42  68 101 132 179 227 277 335 409
#     4  12  26  44  69 105 137 178 226 292 344 397
#     4  11  23  43  70  97 136 180 229 271 343 401
#     4  12  26  44  68 101 134 184 234 272 336 411
#     4  12  26  44  69 103 139 175 224 287 346 395
#     4  11  23  45  73  96 138 185 228 273 344 423
#     4  12  23  44  71  96 133 182 226 275 335 410
#
# _framework density 20.148519
#
# number of rings (size 3 to 8) (size 9 to 14) (size 15 to 20)
#    0.000    0.250    5.000    4.500    3.500    1.000 
#    0.000    0.625    0.000    0.000    0.000    0.000 
#    0.000    0.000    0.000    0.000    0.000    0.000 
#
# Total GULP energy -89582.604006 kJ/mol
# GULP energy per Si atom -5598.912750 kJ/mol
# Density = 2.010266 g / cm^3
# Si number density = 20.148519 Si / 1000 Ang^3
#
#
#
# Elastic Constant Matrix: (Units=GPa)
#
#
# Indices 1 2 3 4 5 6 
#
# 1 50.6166 9.4555 25.8246 -6.3970 -0.8379 -4.6027
# 2 9.4555 78.0172 15.8876 -5.5374 -8.1980 6.7637
# 3 25.8246 15.8876 111.0462 12.9597 0.1592 3.7376
# 4 -6.3970 -5.5374 12.9597 28.6778 8.4568 -4.4320
# 5 -0.8379 -8.1980 0.1592 8.4568 28.4297 -4.4301
# 6 -4.6027 6.7637 3.7376 -4.4320 -4.4301 41.4092
#
#
#
# Elastic Compliance Matrix: (Units=1/GPa)
#
#
# Indices 1 2 3 4 5 6 
#
# 1 0.025175 -0.001541 -0.006914 0.009683 -0.001841 0.004513
# 2 -0.001541 0.013998 -0.001822 0.001987 0.003138 -0.001745
# 3 -0.006914 -0.001822 0.011879 -0.007973 0.001223 -0.002266
# 4 0.009683 0.001987 -0.007973 0.045271 -0.011775 0.005057
# 5 -0.001841 0.003138 0.001223 -0.011775 0.039860 0.002177
# 6 0.004513 -0.001745 -0.002266 0.005057 0.002177 0.025914
#
#
# Mechanical properties :
#
#
# Convention : Reuss Voigt Hill
#
# Bulk Modulus (GPa) = 32.78827 38.00172 35.39499
# Shear Modulus (GPa) = 25.93151 32.27082 29.10117
#
# Velocity S-wave (km/s) = 3.59140 4.00640 3.80456
# Velocity P-wave (km/s) = 5.78845 6.34850 6.07493
#
# Compressibility (1/GPa) = 0.03049871
#
# Stress axis : x y z
#
# Youngs Moduli (GPa) = 39.72167 71.44117 84.18424
#
# Poissons Ratio (x) = 0.11007 0.58201
# Poissons Ratio (y) = 0.06120 0.15339
# Poissons Ratio (z) = 0.27462 0.13017
#
# Static dielectric constant tensor:
#      x y z
#    x 1.704650 0.005150 -0.007940 
#    y 0.005150 1.704930 -0.009240 
#    z -0.007940 -0.009240 1.694600 
# 
# From -- ./inp_files/241130.got.cif
#   From: 2010.05.17/outbox.cif.g08.bks.cpg/sg2_121_cif.got.tgz:241130.got - 2010.06.03 11:33:40.
