data_PCOD9060687
_publ_section_title
;
Structure prediction by ZEFSAII (Michael W. Deem and Ramdas Pophale) SiO2 
 PCOD9060687
Probable space group: P -1
;
_chemical_formula_sum "Si O2"
_cell_formula_units_Z 14
_cell_length_a 12.528141
_cell_length_b 8.939892
_cell_length_c 18.433581
_cell_angle_alpha 75.197707
_cell_angle_beta 20.567220
_cell_angle_gamma 69.471796
_cell_volume 662.384812
_symmetry_space_group_name_H-M "P -1"
_symmetry_group_IT_number 2
_symmetry_cell_setting 'triclinic'
loop_
_space_group_symop_operation_xyz
x,y,z
-x,-y,-z
loop_
_atom_site_type_symbol
_atom_site_label
_atom_site_fract_x
_atom_site_fract_y
_atom_site_fract_z
Si Si1 0.806687 0.483923 0.554005
Si Si2 0.106122 0.642900 0.948834
Si Si3 0.816947 0.821671 0.248808
Si Si4 0.889618 0.896925 0.947018
Si Si5 0.143260 0.639354 0.204131
Si Si6 0.927497 0.019505 0.325084
Si Si7 0.782323 0.131730 0.568083
O O1 0.433321 0.575988 0.792966
O O2 0.826820 0.302978 0.539268
O O3 0.000000 0.500000 0.500000
O O4 0.929222 0.569624 0.400540
O O5 0.156214 0.750922 0.836494
O O6 0.000000 0.500000 0.000000
O O7 0.853494 0.740658 0.156894
O O8 0.438406 0.929093 0.480676
O O9 0.970525 0.684818 0.229571
O O10 0.035963 0.939558 0.098028
O O11 0.898212 0.897201 0.854302
O O12 0.569820 0.875764 0.186587
O O13 0.500000 0.500000 0.000000
O O14 0.110717 0.823342 0.230235
O O15 0.889643 0.083686 0.423059
O O16 0.000000 0.000000 0.500000
#
# Coordination Sequence:
#
# PCOD9060687 Si02
#       7
#     2   2   2   2   2   2   2
#     4  12  26  46  70 101 148 188 233 301 362 422
#     4  12  23  43  72 106 139 182 238 298 355 415
#     4  11  23  43  76 102 138 189 239 288 357 429
#     4  11  24  44  72 103 140 182 240 291 355 422
#     4  11  25  44  69 106 142 185 238 291 365 425
#     4  11  24  48  73 104 141 188 240 296 347 432
#     4  12  28  45  69 104 141 191 241 289 361 426
#
# _framework density 21.135750000000002
#
# number of rings (size 3 to 8) (size 9 to 14) (size 15 to 20)
#    0.000    0.571    2.857    5.571    8.000    1.714 
#    2.571    2.857    0.000    0.000    0.000    0.000 
#    0.000    0.000    0.000    0.000    0.000    0.000 
#
# Total GULP energy -78175.110291 kJ/mol
# GULP energy per Si atom -5583.936449 kJ/mol
# Density = 2.108764 g / cm^3
# Si number density = 21.135750 Si / 1000 Ang^3
#
#
#
# Elastic Constant Matrix: (Units=GPa)
#
#
# Indices 1 2 3 4 5 6 
#
# 1 169.2425 70.0185 64.3188 -6.5787 18.5929 -13.7429
# 2 70.0185 125.9868 42.4031 1.2255 15.0164 -21.7246
# 3 64.3188 42.4031 70.3063 7.7546 7.1274 1.1083
# 4 -6.5787 1.2255 7.7546 42.3499 -12.7099 0.9114
# 5 18.5929 15.0164 7.1274 -12.7099 43.6966 5.9190
# 6 -13.7429 -21.7246 1.1083 0.9114 5.9190 38.4592
#
#
#
# Elastic Compliance Matrix: (Units=1/GPa)
#
#
# Indices 1 2 3 4 5 6 
#
# 1 0.010661 -0.002351 -0.008469 0.002614 -0.001989 0.002970
# 2 -0.002351 0.012628 -0.005073 -0.001089 -0.003783 0.007047
# 3 -0.008469 -0.005073 0.025712 -0.005613 0.000409 -0.006563
# 4 0.002614 -0.001089 -0.005613 0.027635 0.008414 -0.001469
# 5 -0.001989 -0.003783 0.000409 0.008414 0.028419 -0.007433
# 6 0.002970 0.007047 -0.006563 -0.001469 -0.007433 0.032412
#
#
# Mechanical properties :
#
#
# Convention : Reuss Voigt Hill
#
# Bulk Modulus (GPa) = 58.08744 79.89072 68.98908
# Shear Modulus (GPa) = 28.57307 37.48748 33.03028
#
# Velocity S-wave (km/s) = 3.68079 4.21604 3.95747
# Velocity P-wave (km/s) = 6.75329 7.84735 7.32079
#
# Compressibility (1/GPa) = 0.01721543
#
# Stress axis : x y z
#
# Youngs Moduli (GPa) = 93.79969 79.18897 38.89297
#
# Poissons Ratio (x) = 0.18617 0.32937
# Poissons Ratio (y) = 0.22052 0.19730
# Poissons Ratio (z) = 0.79436 0.40172
#
# Static dielectric constant tensor:
#      x y z
#    x 1.814420 -0.060210 -0.019080 
#    y -0.060210 1.767400 0.085520 
#    z -0.019080 0.085520 1.844920 
# 
# From -- ./inp_files/566671.got.cif
#   From: 2010.05.17/outbox.cif.g08.bks.cpg/sg2_284_cif.got.tgz:566671.got - 2010.06.03 11:33:40.
