data_PCOD9060762
_publ_section_title
;
Structure prediction by ZEFSAII (Michael W. Deem and Ramdas Pophale) SiO2 
 PCOD9060762
Probable space group: P -1
;
_chemical_formula_sum "Si O2"
_cell_formula_units_Z 11
_cell_length_a 8.460760
_cell_length_b 10.160074
_cell_length_c 7.261964
_cell_angle_alpha 120.104675
_cell_angle_beta 124.046106
_cell_angle_gamma 57.137075
_cell_volume 416.560712
_symmetry_space_group_name_H-M "P -1"
_symmetry_group_IT_number 2
_symmetry_cell_setting 'triclinic'
loop_
_space_group_symop_operation_xyz
x,y,z
-x,-y,-z
loop_
_atom_site_type_symbol
_atom_site_label
_atom_site_fract_x
_atom_site_fract_y
_atom_site_fract_z
Si Si1 0.761189 0.121675 0.263773
Si Si2 0.372421 0.316515 0.981912
Si Si3 0.990100 0.242388 0.763633
Si Si4 0.500000 0.500000 0.500000
Si Si5 0.309106 0.366029 0.584015
Si Si6 0.046758 0.733118 0.808714
O O1 0.530265 0.161897 0.082786
O O2 0.880363 0.144042 0.175690
O O3 0.791029 0.262728 0.518805
O O4 0.861144 0.946811 0.297615
O O5 0.419951 0.460476 0.213334
O O6 0.134246 0.338090 0.858698
O O7 0.444874 0.296728 0.803553
O O8 0.943408 0.257716 0.959133
O O9 0.384933 0.390533 0.451893
O O10 0.176314 0.548837 0.697874
O O11 0.179917 0.249754 0.387865
#
# Coordination Sequence:
#
# PCOD9060762 Si02
#       6
#     2   2   2   1   2   2
#     4  11  25  45  69  99 135 185 226 273 331 400
#     4  12  25  44  69 103 134 174 231 278 334 407
#     4  11  25  46  70  95 142 180 225 276 331 399
#     4  12  24  42  66 100 134 178 216 278 348 390
#     4  11  25  42  70  99 137 175 223 282 342 401
#     4  11  23  44  67 100 135 179 223 278 341 398
#
# _framework density 26.406713
#
# number of rings (size 3 to 8) (size 9 to 14) (size 15 to 20)
#    0.000    0.727    5.455    1.636    2.545    0.727 
#    0.000    0.909    0.000    0.000    0.000    0.000 
#    0.000    0.000    0.000    0.000    0.000    0.000 
#
# Total GULP energy -61432.092311 kJ/mol
# GULP energy per Si atom -5584.735665 kJ/mol
# Density = 2.634661 g / cm^3
# Si number density = 26.406713 Si / 1000 Ang^3
#
#
#
# Elastic Constant Matrix: (Units=GPa)
#
#
# Indices 1 2 3 4 5 6 
#
# 1 102.0146 -9.5683 40.1482 5.6239 -8.0762 19.1414
# 2 -9.5683 52.2168 -4.8185 -4.0409 8.4509 11.7245
# 3 40.1482 -4.8185 173.2644 -25.7442 -11.8977 -0.3642
# 4 5.6239 -4.0409 -25.7442 25.9793 2.5424 2.0430
# 5 -8.0762 8.4509 -11.8977 2.5424 53.6246 -3.3711
# 6 19.1414 11.7245 -0.3642 2.0430 -3.3711 29.1956
#
#
#
# Elastic Compliance Matrix: (Units=1/GPa)
#
#
# Indices 1 2 3 4 5 6 
#
# 1 0.014038 0.004104 -0.003969 -0.005527 0.000189 -0.010492
# 2 0.004104 0.023839 0.000037 0.004288 -0.004154 -0.013043
# 3 -0.003969 0.000037 0.008032 0.008562 0.000910 0.002194
# 4 -0.005527 0.004288 0.008562 0.049172 -0.002045 -0.001668
# 5 0.000189 -0.004154 0.000910 -0.002045 0.019881 0.003994
# 6 -0.010492 -0.013043 0.002194 -0.001668 0.003994 0.046974
#
#
# Mechanical properties :
#
#
# Convention : Reuss Voigt Hill
#
# Bulk Modulus (GPa) = 21.62128 42.11318 31.86723
# Shear Modulus (GPa) = 28.24704 41.87552 35.06128
#
# Velocity S-wave (km/s) = 3.27416 3.98652 3.64777
# Velocity P-wave (km/s) = 4.74332 6.09691 5.46221
#
# Compressibility (1/GPa) = 0.04625073
#
# Stress axis : x y z
#
# Youngs Moduli (GPa) = 71.23608 41.94816 124.50937
#
# Poissons Ratio (x) = -0.17214 0.49417
# Poissons Ratio (y) = -0.29232 -0.00455
# Poissons Ratio (z) = 0.28273 -0.00153
#
# Static dielectric constant tensor:
#      x y z
#    x 2.032230 -0.051830 0.055720 
#    y -0.051830 1.983120 -0.019860 
#    z 0.055720 -0.019860 2.040790 
# 
# From -- ./inp_files/21203.got.cif
#   From: 2010.05.17/outbox.cif.g08.bks.cpg/sg2_11_cif.got.tgz:21203.got - 2010.06.03 11:33:40.
