data_PCOD9060541
_publ_section_title
;
Structure prediction by ZEFSAII (Michael W. Deem and Ramdas Pophale) SiO2 
 PCOD9060541
Probable space group: P -1
;
_chemical_formula_sum "Si O2"
_cell_formula_units_Z 16
_cell_length_a 14.535731
_cell_length_b 11.412139
_cell_length_c 14.328350
_cell_angle_alpha 49.332876
_cell_angle_beta 28.757543
_cell_angle_gamma 69.033538
_cell_volume 703.477364
_symmetry_space_group_name_H-M "P -1"
_symmetry_group_IT_number 2
_symmetry_cell_setting 'triclinic'
loop_
_space_group_symop_operation_xyz
x,y,z
-x,-y,-z
loop_
_atom_site_type_symbol
_atom_site_label
_atom_site_fract_x
_atom_site_fract_y
_atom_site_fract_z
Si Si1 0.561888 0.985694 0.690753
Si Si2 0.049051 0.688916 0.958855
Si Si3 0.899734 0.786127 0.721537
Si Si4 0.353233 0.817104 0.292164
Si Si5 0.256150 0.418569 0.546509
Si Si6 0.283144 0.474749 0.826967
Si Si7 0.015255 0.684225 0.351019
Si Si8 0.301790 0.299310 0.238148
O O1 0.644388 0.854364 0.716051
O O2 0.740853 0.122295 0.379199
O O3 0.590128 0.115744 0.685669
O O4 0.281912 0.841273 0.997856
O O5 0.145548 0.560168 0.941503
O O6 0.974624 0.707986 0.116855
O O7 0.801666 0.573423 0.179551
O O8 0.694588 0.665860 0.893072
O O9 0.088575 0.747509 0.548144
O O10 0.834138 0.730587 0.914710
O O11 0.000000 0.000000 0.500000
O O12 0.359272 0.640631 0.354994
O O13 0.500000 0.000000 0.000000
O O14 0.455673 0.402364 0.424660
O O15 0.161895 0.366472 0.551440
O O16 0.000000 0.500000 0.500000
O O17 0.936812 0.759696 0.466638
O O18 0.500000 0.500000 0.000000
#
# Coordination Sequence:
#
# PCOD9060541 Si02
#       8
#     2   2   2   2   2   2   2   2
#     4  12  26  47  70 104 146 187 235 297 355 421
#     4  11  24  47  70 103 145 190 240 292 349 428
#     4  12  21  40  68 103 137 175 235 293 353 417
#     4  12  23  40  69 107 142 175 236 302 356 411
#     4  12  26  45  74 104 143 194 238 293 355 424
#     4  11  23  43  72 105 144 183 239 296 359 415
#     4  12  27  47  69 106 148 187 237 290 363 431
#     4  12  25  43  71 100 143 188 229 292 361 424
#
# _framework density 22.744157999999999
#
# number of rings (size 3 to 8) (size 9 to 14) (size 15 to 20)
#    0.000    0.250    5.000    4.875    0.000    3.500 
#    0.000    1.250    0.000    0.000    0.000    0.000 
#    0.000    0.000    0.000    0.000    0.000    0.000 
#
# Total GULP energy -89409.908679 kJ/mol
# GULP energy per Si atom -5588.119292 kJ/mol
# Density = 2.269239 g / cm^3
# Si number density = 22.744158 Si / 1000 Ang^3
#
#
#
# Elastic Constant Matrix: (Units=GPa)
#
#
# Indices 1 2 3 4 5 6 
#
# 1 125.8250 31.5552 44.6381 7.3733 -13.1053 2.0361
# 2 31.5552 59.5810 -1.8523 8.6956 -12.9772 -5.5379
# 3 44.6381 -1.8523 108.5838 0.3692 -0.0390 -4.9508
# 4 7.3733 8.6956 0.3692 35.7890 -0.3579 -1.7743
# 5 -13.1053 -12.9772 -0.0390 -0.3579 43.8344 4.8432
# 6 2.0361 -5.5379 -4.9508 -1.7743 4.8432 34.3594
#
#
#
# Elastic Compliance Matrix: (Units=1/GPa)
#
#
# Indices 1 2 3 4 5 6 
#
# 1 0.011491 -0.005915 -0.004942 -0.000992 0.001967 -0.002675
# 2 -0.005915 0.021835 0.002978 -0.003902 0.004281 0.003494
# 3 -0.004942 0.002978 0.011407 0.000295 -0.000866 0.002554
# 4 -0.000992 -0.003902 0.000295 0.029135 -0.001342 0.001166
# 5 0.001967 0.004281 -0.000866 -0.001342 0.025004 -0.003145
# 6 -0.002675 0.003494 0.002554 0.001166 -0.003145 0.030697
#
#
# Mechanical properties :
#
#
# Convention : Reuss Voigt Hill
#
# Bulk Modulus (GPa) = 34.51222 49.18577 41.84899
# Shear Modulus (GPa) = 32.26081 37.43982 34.85031
#
# Velocity S-wave (km/s) = 3.77028 4.06165 3.91868
# Velocity P-wave (km/s) = 5.84469 6.60823 6.23815
#
# Compressibility (1/GPa) = 0.02897525
#
# Stress axis : x y z
#
# Youngs Moduli (GPa) = 87.02760 45.79700 87.66379
#
# Poissons Ratio (x) = 0.27087 0.43328
# Poissons Ratio (y) = 0.51473 -0.26107
# Poissons Ratio (z) = 0.43013 -0.13639
#
# Static dielectric constant tensor:
#      x y z
#    x 1.857650 0.000510 -0.016800 
#    y 0.000510 1.799230 0.030620 
#    z -0.016800 0.030620 1.918830 
# 
# From -- ./inp_files/454780.got.cif
#   From: 2010.05.17/outbox.cif.g08.bks.cpg/sg2_228_cif.got.tgz:454780.got - 2010.06.03 11:33:40.
