data_PCOD9060240
_publ_section_title
;
Structure prediction by ZEFSAII (Michael W. Deem and Ramdas Pophale) SiO2 
 PCOD9060240
Probable space group: P -1
;
_chemical_formula_sum "Si O2"
_cell_formula_units_Z 16
_cell_length_a 10.318426
_cell_length_b 8.915653
_cell_length_c 12.508272
_cell_angle_alpha 103.970500
_cell_angle_beta 36.078827
_cell_angle_gamma 91.909327
_cell_volume 630.695062
_symmetry_space_group_name_H-M "P -1"
_symmetry_group_IT_number 2
_symmetry_cell_setting 'triclinic'
loop_
_space_group_symop_operation_xyz
x,y,z
-x,-y,-z
loop_
_atom_site_type_symbol
_atom_site_label
_atom_site_fract_x
_atom_site_fract_y
_atom_site_fract_z
Si Si1 0.521377 0.697825 0.721332
Si Si2 0.052372 0.739321 0.113363
Si Si3 0.480018 0.054890 0.832574
Si Si4 0.658790 0.315729 0.871609
Si Si5 0.677800 0.053668 0.462594
Si Si6 0.976238 0.237547 0.223744
Si Si7 0.145740 0.614601 0.455473
Si Si8 0.272409 0.437288 0.644578
O O1 0.628018 0.519106 0.671339
O O2 0.667063 0.688908 0.515293
O O3 0.537605 0.865178 0.792290
O O4 0.250207 0.718316 0.889062
O O5 0.205648 0.687730 0.109459
O O6 0.856160 0.651288 0.202229
O O7 0.918469 0.920490 0.263305
O O8 0.537127 0.174834 0.904119
O O9 0.598102 0.076113 0.642799
O O10 0.205487 0.116386 0.006258
O O11 0.819400 0.295122 0.657743
O O12 0.500000 0.500000 0.000000
O O13 0.731416 0.199526 0.387407
O O14 0.500000 0.000000 0.500000
O O15 0.995875 0.265426 0.341689
O O16 0.932914 0.408587 0.226401
O O17 0.000000 0.500000 0.500000
O O18 0.500000 0.500000 0.500000
#
# Coordination Sequence:
#
# PCOD9060240 Si02
#       8
#     2   2   2   2   2   2   2   2
#     4  11  25  44  70 106 143 185 240 293 358 428
#     4  12  25  46  70 107 147 185 243 296 362 425
#     4  12  26  47  73 107 144 189 240 292 364 433
#     4  12  24  44  73 106 149 186 230 295 356 440
#     4  12  27  48  71 102 143 186 245 304 354 418
#     4  11  25  43  70 105 135 188 239 289 364 419
#     4  11  23  43  68 103 147 186 230 287 353 428
#     4  11  25  46  71 101 141 188 246 305 356 421
#
# _framework density 25.368838
#
# number of rings (size 3 to 8) (size 9 to 14) (size 15 to 20)
#    0.000    0.500    5.000    3.750    0.000    4.000 
#    0.000    0.000    0.000    0.000    0.000    0.000 
#    0.000    0.000    0.000    0.000    0.000    0.000 
#
# Total GULP energy -89314.378974 kJ/mol
# GULP energy per Si atom -5582.148686 kJ/mol
# Density = 2.531110 g / cm^3
# Si number density = 25.368838 Si / 1000 Ang^3
#
#
#
# Elastic Constant Matrix: (Units=GPa)
#
#
# Indices 1 2 3 4 5 6 
#
# 1 49.3546 1.8866 7.7675 7.5151 -2.9363 9.2834
# 2 1.8866 95.8208 19.5295 -7.3737 -6.2145 18.7627
# 3 7.7675 19.5295 140.1062 -1.0329 -1.2168 -5.9720
# 4 7.5151 -7.3737 -1.0329 48.5475 0.8147 -9.9175
# 5 -2.9363 -6.2145 -1.2168 0.8147 34.4052 -7.8775
# 6 9.2834 18.7627 -5.9720 -9.9175 -7.8775 47.1642
#
#
#
# Elastic Compliance Matrix: (Units=1/GPa)
#
#
# Indices 1 2 3 4 5 6 
#
# 1 0.022299 0.000704 -0.001604 -0.004557 0.000776 -0.005701
# 2 0.000704 0.011860 -0.001882 0.000658 0.001024 -0.004786
# 3 -0.001604 -0.001882 0.007589 0.000567 0.000280 0.002191
# 4 -0.004557 0.000658 0.000567 0.022537 0.000482 0.005526
# 5 0.000776 0.001024 0.000280 0.000482 0.030380 0.004651
# 6 -0.005701 -0.004786 0.002191 0.005526 0.004651 0.026445
#
#
# Mechanical properties :
#
#
# Convention : Reuss Voigt Hill
#
# Bulk Modulus (GPa) = 27.63752 38.18321 32.91036
# Shear Modulus (GPa) = 36.03963 43.09659 39.56811
#
# Velocity S-wave (km/s) = 3.77321 4.12612 3.95360
# Velocity P-wave (km/s) = 5.46816 6.14685 5.81741
#
# Compressibility (1/GPa) = 0.03618270
#
# Stress axis : x y z
#
# Youngs Moduli (GPa) = 44.84411 84.31649 131.77317
#
# Poissons Ratio (x) = -0.05935 0.21140
# Poissons Ratio (y) = -0.03156 0.24806
# Poissons Ratio (z) = 0.07194 0.15872
#
# Static dielectric constant tensor:
#      x y z
#    x 2.202080 -0.223060 -0.066170 
#    y -0.223060 2.515860 0.099550 
#    z -0.066170 0.099550 2.016480 
# 
# From -- ./inp_files/202274.got.cif
#   From: 2010.05.17/outbox.cif.g08.bks.cpg/sg2_102_cif.got.tgz:202274.got - 2010.06.03 11:33:40.
