data_PCOD9060464
_publ_section_title
;
Structure prediction by ZEFSAII (Michael W. Deem and Ramdas Pophale) SiO2 
 PCOD9060464
Probable space group: P -1
;
_chemical_formula_sum "Si O2"
_cell_formula_units_Z 16
_cell_length_a 12.420483
_cell_length_b 11.718074
_cell_length_c 12.711166
_cell_angle_alpha 37.794373
_cell_angle_beta 118.214891
_cell_angle_gamma 90.669938
_cell_volume 741.490446
_symmetry_space_group_name_H-M "P -1"
_symmetry_group_IT_number 2
_symmetry_cell_setting 'triclinic'
loop_
_space_group_symop_operation_xyz
x,y,z
-x,-y,-z
loop_
_atom_site_type_symbol
_atom_site_label
_atom_site_fract_x
_atom_site_fract_y
_atom_site_fract_z
Si Si1 0.869684 0.729696 0.200092
Si Si2 0.145706 0.994068 0.579339
Si Si3 0.991232 0.533986 0.165203
Si Si4 0.467948 0.112580 0.018564
Si Si5 0.309154 0.396849 0.381115
Si Si6 0.081650 0.913223 0.987389
Si Si7 0.538131 0.472293 0.809455
Si Si8 0.201255 0.982705 0.368654
O O1 0.950907 0.649949 0.179622
O O2 0.000000 0.500000 0.500000
O O3 0.842734 0.957396 0.076885
O O4 0.706644 0.772586 0.098908
O O5 0.061576 0.255715 0.408182
O O6 0.189247 0.994237 0.479417
O O7 0.000000 0.000000 0.500000
O O8 0.300771 0.740019 0.892253
O O9 0.136288 0.485223 0.199315
O O10 0.827797 0.772798 0.858019
O O11 0.594124 0.875166 0.326906
O O12 0.485229 0.316628 0.866735
O O13 0.500000 0.000000 0.000000
O O14 0.406226 0.431743 0.321487
O O15 0.234136 0.615416 0.273155
O O16 0.941687 0.995387 0.775937
O O17 0.000000 0.000000 0.000000
O O18 0.378458 0.723365 0.607624
#
# Coordination Sequence:
#
# PCOD9060464 Si02
#       8
#     2   2   2   2   2   2   2   2
#     4  12  25  41  72 104 146 188 240 298 358 435
#     4  12  27  48  76 104 143 192 247 305 359 434
#     4  11  24  48  73 106 140 192 246 293 364 431
#     4  12  27  43  70 109 152 193 239 300 363 438
#     4  11  24  45  73 103 150 188 238 299 361 428
#     4  11  23  43  71 103 143 188 238 290 359 432
#     4  12  27  48  73 109 148 191 246 297 370 427
#     4  11  25  47  72 105 146 189 244 302 359 433
#
# _framework density 21.578158999999999
#
# number of rings (size 3 to 8) (size 9 to 14) (size 15 to 20)
#    0.000    0.500    3.750    5.250    7.000    1.000 
#    0.000    1.250    0.000    0.000    0.000    0.000 
#    0.000    0.000    0.000    0.000    0.000    0.000 
#
# Total GULP energy -89209.889974 kJ/mol
# GULP energy per Si atom -5575.618123 kJ/mol
# Density = 2.152905 g / cm^3
# Si number density = 21.578159 Si / 1000 Ang^3
#
#
#
# Elastic Constant Matrix: (Units=GPa)
#
#
# Indices 1 2 3 4 5 6 
#
# 1 75.1771 7.7571 8.3159 -14.1993 4.0012 5.8694
# 2 7.7571 51.6502 16.1024 -17.4566 11.9064 -12.2330
# 3 8.3159 16.1024 120.3894 -27.5865 6.3978 -3.9104
# 4 -14.1993 -17.4566 -27.5865 32.6036 -2.7055 -2.3272
# 5 4.0012 11.9064 6.3978 -2.7055 37.4066 2.4402
# 6 5.8694 -12.2330 -3.9104 -2.3272 2.4402 35.9392
#
#
#
# Elastic Compliance Matrix: (Units=1/GPa)
#
#
# Indices 1 2 3 4 5 6 
#
# 1 0.014702 -0.000497 0.000481 0.006323 -0.000906 -0.002047
# 2 -0.000497 0.029671 0.000682 0.016343 -0.009104 0.011931
# 3 0.000481 0.000682 0.010499 0.009477 -0.001510 0.002012
# 4 0.006323 0.016343 0.009477 0.050477 -0.004444 0.009132
# 5 -0.000906 -0.009104 -0.001510 -0.004444 0.030020 -0.005441
# 6 -0.002047 0.011931 0.002012 0.009132 -0.005441 0.033400
#
#
# Mechanical properties :
#
#
# Convention : Reuss Voigt Hill
#
# Bulk Modulus (GPa) = 17.79191 34.61860 26.20526
# Shear Modulus (GPa) = 26.85694 35.52597 31.19145
#
# Velocity S-wave (km/s) = 3.53177 4.06197 3.80611
# Velocity P-wave (km/s) = 4.98943 6.17071 5.61124
#
# Compressibility (1/GPa) = 0.05620531
#
# Stress axis : x y z
#
# Youngs Moduli (GPa) = 68.01675 33.70263 95.24717
#
# Poissons Ratio (x) = 0.01675 -0.04586
# Poissons Ratio (y) = 0.03381 -0.06497
# Poissons Ratio (z) = -0.03275 -0.02299
#
# Static dielectric constant tensor:
#      x y z
#    x 1.776240 0.078840 -0.044780 
#    y 0.078840 1.800810 0.002980 
#    z -0.044780 0.002980 1.706530 
# 
# From -- ./inp_files/427448.got.cif
#   From: 2010.05.17/outbox.cif.g08.bks.cpg/sg2_214_cif.got.tgz:427448.got - 2010.06.03 11:33:40.
