data_PCOD9060800
_publ_section_title
;
Structure prediction by ZEFSAII (Michael W. Deem and Ramdas Pophale) SiO2 
 PCOD9060800
Probable space group: P -1
;
_chemical_formula_sum "Si O2"
_cell_formula_units_Z 16
_cell_length_a 5.431875
_cell_length_b 8.753999
_cell_length_c 20.477078
_cell_angle_alpha 55.027735
_cell_angle_beta 88.478507
_cell_angle_gamma 118.764997
_cell_volume 634.430900
_symmetry_space_group_name_H-M "P -1"
_symmetry_group_IT_number 2
_symmetry_cell_setting 'triclinic'
loop_
_space_group_symop_operation_xyz
x,y,z
-x,-y,-z
loop_
_atom_site_type_symbol
_atom_site_label
_atom_site_fract_x
_atom_site_fract_y
_atom_site_fract_z
Si Si1 0.289101 0.011779 0.116272
Si Si2 0.309675 0.263059 0.941111
Si Si3 0.271969 0.211722 0.580891
Si Si4 0.854307 0.473451 0.806331
Si Si5 0.179117 0.614066 0.903722
Si Si6 0.207294 0.181294 0.739056
Si Si7 0.937045 0.472189 0.671645
Si Si8 0.723681 0.142732 0.525839
O O1 0.540308 0.120506 0.145369
O O2 0.176294 0.765374 0.146210
O O3 0.458092 0.200423 0.010826
O O4 0.012945 0.999331 0.157397
O O5 0.501208 0.368560 0.847775
O O6 0.285485 0.455150 0.923144
O O7 0.000000 0.000000 0.000000
O O8 0.500000 0.500000 0.500000
O O9 0.153953 0.120761 0.677659
O O10 0.501452 0.149523 0.575016
O O11 0.957782 0.098480 0.567127
O O12 0.012714 0.613355 0.704621
O O13 0.016865 0.603657 0.840511
O O14 0.000000 0.500000 0.000000
O O15 0.566513 0.307777 0.716539
O O16 0.112177 0.356251 0.702493
O O17 0.035692 0.605730 0.570865
O O18 0.500000 0.000000 0.500000
#
# Coordination Sequence:
#
# PCOD9060800 Si02
#       8
#     2   2   2   2   2   2   2   2
#     4  11  24  44  66 100 133 175 236 285 344 416
#     4  12  22  42  67  91 130 180 222 277 348 407
#     4  12  22  44  75  97 138 186 238 277 346 424
#     4  11  25  43  67  93 134 182 223 286 349 409
#     4  12  25  43  66  98 133 178 234 288 343 413
#     4  11  24  43  71 104 130 184 233 288 339 416
#     4  11  23  44  68 100 141 179 230 282 351 413
#     4  12  25  43  69 108 143 185 227 292 353 419
#
# _framework density 25.219453999999999
#
# number of rings (size 3 to 8) (size 9 to 14) (size 15 to 20)
#    0.000    0.500    5.000    3.750    1.750    2.000 
#    2.250    0.000    0.000    0.000    0.000    0.000 
#    0.000    0.000    0.000    0.000    0.000    0.000 
#
# Total GULP energy -89341.421019 kJ/mol
# GULP energy per Si atom -5583.838814 kJ/mol
# Density = 2.516205 g / cm^3
# Si number density = 25.219454 Si / 1000 Ang^3
#
#
#
# Elastic Constant Matrix: (Units=GPa)
#
#
# Indices 1 2 3 4 5 6 
#
# 1 119.3112 45.0744 25.2412 5.1727 -21.6243 7.2666
# 2 45.0744 98.8154 18.6430 19.9512 -9.6700 29.0563
# 3 25.2412 18.6430 97.0949 31.4584 -17.2677 -22.7152
# 4 5.1727 19.9512 31.4584 46.1727 -7.2047 -1.1279
# 5 -21.6243 -9.6700 -17.2677 -7.2047 45.4680 15.8681
# 6 7.2666 29.0563 -22.7152 -1.1279 15.8681 50.6298
#
#
#
# Elastic Compliance Matrix: (Units=1/GPa)
#
#
# Indices 1 2 3 4 5 6 
#
# 1 0.011404 -0.004373 -0.002734 0.003143 0.004550 -0.001710
# 2 -0.004373 0.017565 -0.002756 -0.004885 0.004046 -0.012067
# 3 -0.002734 -0.002756 0.016866 -0.009815 -0.000326 0.009425
# 4 0.003143 -0.004885 -0.009815 0.030408 0.002275 -0.002086
# 5 0.004550 0.004046 -0.000326 0.002275 0.029560 -0.012335
# 6 -0.001710 -0.012067 0.009425 -0.002086 -0.012335 0.034970
#
#
# Mechanical properties :
#
#
# Convention : Reuss Voigt Hill
#
# Bulk Modulus (GPa) = 38.30128 54.79318 46.54723
# Shear Modulus (GPa) = 29.55038 43.53829 36.54433
#
# Velocity S-wave (km/s) = 3.42677 4.15948 3.81077
# Velocity P-wave (km/s) = 5.55672 6.69642 6.15302
#
# Compressibility (1/GPa) = 0.02610879
#
# Stress axis : x y z
#
# Youngs Moduli (GPa) = 87.68482 56.93155 59.29023
#
# Poissons Ratio (x) = 0.24894 0.16212
# Poissons Ratio (y) = 0.38341 0.16343
# Poissons Ratio (z) = 0.23976 0.15693
#
# Static dielectric constant tensor:
#      x y z
#    x 2.078670 0.095880 0.066610 
#    y 0.095880 2.087980 -0.005150 
#    z 0.066610 -0.005150 2.039140 
# 
# From -- ./inp_files/550895.got.cif
#   From: 2010.05.17/outbox.cif.g08.bks.cpg/sg2_276_cif.got.tgz:550895.got - 2010.06.03 11:33:40.
