data_PCOD9060499
_publ_section_title
;
Structure prediction by ZEFSAII (Michael W. Deem and Ramdas Pophale) SiO2 
 PCOD9060499
Probable space group: P -1
;
_chemical_formula_sum "Si O2"
_cell_formula_units_Z 16
_cell_length_a 12.785757
_cell_length_b 9.415307
_cell_length_c 11.105814
_cell_angle_alpha 65.992387
_cell_angle_beta 97.204000
_cell_angle_gamma 49.764080
_cell_volume 774.494960
_symmetry_space_group_name_H-M "P -1"
_symmetry_group_IT_number 2
_symmetry_cell_setting 'triclinic'
loop_
_space_group_symop_operation_xyz
x,y,z
-x,-y,-z
loop_
_atom_site_type_symbol
_atom_site_label
_atom_site_fract_x
_atom_site_fract_y
_atom_site_fract_z
Si Si1 0.135428 0.754950 0.523440
Si Si2 0.541730 0.408583 0.398865
Si Si3 0.563525 0.061496 0.395595
Si Si4 0.821802 0.648874 0.382235
Si Si5 0.949379 0.063613 0.158810
Si Si6 0.791210 0.068588 0.911804
Si Si7 0.385790 0.981289 0.981798
Si Si8 0.411671 0.433196 0.020765
O O1 0.306661 0.652744 0.592774
O O2 0.169988 0.531897 0.613778
O O3 0.000000 0.000000 0.500000
O O4 0.057180 0.855644 0.344529
O O5 0.500000 0.500000 0.500000
O O6 0.597480 0.171290 0.450618
O O7 0.366939 0.640568 0.229025
O O8 0.461026 0.265405 0.200034
O O9 0.500000 0.000000 0.500000
O O10 0.704352 0.812769 0.424281
O O11 0.749764 0.839193 0.202092
O O12 0.000000 0.500000 0.500000
O O13 0.882811 0.019555 0.063571
O O14 0.783711 0.326754 0.094661
O O15 0.071439 0.054508 0.125101
O O16 0.711502 0.987858 0.933631
O O17 0.518471 0.714556 0.040199
O O18 0.500000 0.000000 0.000000
O O19 0.500000 0.500000 0.000000
#
# Coordination Sequence:
#
# PCOD9060499 Si02
#       8
#     2   2   2   2   2   2   2   2
#     4  12  27  42  71 103 139 178 235 291 347 411
#     4  12  23  44  66 102 139 178 231 288 347 414
#     4  11  25  43  69  99 137 185 226 287 353 416
#     4  11  25  44  65  99 138 177 226 281 351 417
#     4  11  24  42  72  99 131 178 244 281 330 414
#     4  11  23  43  71  99 134 183 237 277 343 428
#     4  11  24  42  68  98 136 176 217 289 355 402
#     4  11  23  44  71  98 131 186 242 273 337 434
#
# _framework density 20.658625000000001
#
# number of rings (size 3 to 8) (size 9 to 14) (size 15 to 20)
#    0.000    0.750    3.750    3.000    7.000    2.000 
#    0.000    0.625    0.000    0.000    0.000    0.000 
#    0.000    0.000    0.000    0.000    0.000    0.000 
#
# Total GULP energy -89171.513980 kJ/mol
# GULP energy per Si atom -5573.219624 kJ/mol
# Density = 2.061160 g / cm^3
# Si number density = 20.658625 Si / 1000 Ang^3
#
#
#
# Elastic Constant Matrix: (Units=GPa)
#
#
# Indices 1 2 3 4 5 6 
#
# 1 132.3637 36.0536 0.9350 -23.6669 -9.5179 -17.7589
# 2 36.0536 95.1653 -6.3911 -22.0042 -9.0750 -7.8487
# 3 0.9350 -6.3911 61.0377 -2.9840 1.0416 -27.2964
# 4 -23.6669 -22.0042 -2.9840 28.3228 -2.8462 6.3363
# 5 -9.5179 -9.0750 1.0416 -2.8462 34.6016 -1.5298
# 6 -17.7589 -7.8487 -27.2964 6.3363 -1.5298 44.6783
#
#
#
# Elastic Compliance Matrix: (Units=1/GPa)
#
#
# Indices 1 2 3 4 5 6 
#
# 1 0.009880 -0.001468 0.001696 0.006734 0.003006 0.003853
# 2 -0.001468 0.014173 0.003037 0.009965 0.004152 0.002491
# 3 0.001696 0.003037 0.023624 0.002998 0.001474 0.015266
# 4 0.006734 0.009965 0.002998 0.049963 0.008462 -0.000537
# 5 0.003006 0.004152 0.001474 0.008462 0.031588 0.002706
# 6 0.003853 0.002491 0.015266 -0.000537 0.002706 0.033847
#
#
# Mechanical properties :
#
#
# Convention : Reuss Voigt Hill
#
# Bulk Modulus (GPa) = 18.44743 38.86242 28.65492
# Shear Modulus (GPa) = 28.63476 38.71850 33.67663
#
# Velocity S-wave (km/s) = 3.72707 4.33391 4.04189
# Velocity P-wave (km/s) = 5.24122 6.62542 5.97355
#
# Compressibility (1/GPa) = 0.05420811
#
# Stress axis : x y z
#
# Youngs Moduli (GPa) = 101.21480 70.55440 42.33028
#
# Poissons Ratio (x) = 0.10354 -0.07180
# Poissons Ratio (y) = 0.14854 -0.12855
# Poissons Ratio (z) = -0.17168 -0.21426
#
# Static dielectric constant tensor:
#      x y z
#    x 1.709880 0.027320 -0.015390 
#    y 0.027320 1.775840 0.024210 
#    z -0.015390 0.024210 1.797420 
# 
# From -- ./inp_files/419160.got.cif
#   From: 2010.05.17/outbox.cif.g08.bks.cpg/sg2_210_cif.got.tgz:419160.got - 2010.06.03 11:33:40.
