data_PCOD9060560
_publ_section_title
;
Structure prediction by ZEFSAII (Michael W. Deem and Ramdas Pophale) SiO2 
 PCOD9060560
Probable space group: P -1
;
_chemical_formula_sum "Si O2"
_cell_formula_units_Z 16
_cell_length_a 9.221094
_cell_length_b 9.889080
_cell_length_c 26.043205
_cell_angle_alpha 37.868026
_cell_angle_beta 131.878609
_cell_angle_gamma 101.684889
_cell_volume 764.451962
_symmetry_space_group_name_H-M "P -1"
_symmetry_group_IT_number 2
_symmetry_cell_setting 'triclinic'
loop_
_space_group_symop_operation_xyz
x,y,z
-x,-y,-z
loop_
_atom_site_type_symbol
_atom_site_label
_atom_site_fract_x
_atom_site_fract_y
_atom_site_fract_z
Si Si1 0.513162 0.245587 0.440414
Si Si2 0.981130 0.512811 0.931037
Si Si3 0.878887 0.695980 0.146728
Si Si4 0.887505 0.638400 0.287132
Si Si5 0.794042 0.217937 0.932171
Si Si6 0.236704 0.729318 0.599358
Si Si7 0.473192 0.770118 0.433193
Si Si8 0.417707 0.325370 0.009041
O O1 0.734988 0.185728 0.474792
O O2 0.592874 0.208537 0.528970
O O3 0.189752 0.553659 0.260376
O O4 0.500000 0.000000 0.500000
O O5 0.925380 0.299892 0.972482
O O6 0.252563 0.349098 0.010413
O O7 0.747410 0.880689 0.747710
O O8 0.000000 0.500000 0.000000
O O9 0.854253 0.641270 0.216443
O O10 0.784200 0.587185 0.114651
O O11 0.710111 0.055342 0.987309
O O12 0.780551 0.518531 0.330522
O O13 0.215151 0.387728 0.448973
O O14 0.708040 0.987792 0.159953
O O15 0.525429 0.554059 0.746165
O O16 0.000000 0.000000 0.000000
O O17 0.000000 0.000000 0.500000
O O18 0.500000 0.500000 0.500000
O O19 0.500000 0.500000 0.000000
#
# Coordination Sequence:
#
# PCOD9060560 Si02
#       8
#     2   2   2   2   2   2   2   2
#     4  11  23  43  72  98 136 183 241 282 344 421
#     4  12  28  46  71 103 140 187 237 284 352 425
#     4  11  23  43  73 100 136 192 236 280 351 425
#     4  11  25  44  70 104 140 178 237 291 352 408
#     4  12  22  43  72  98 139 181 241 286 339 421
#     4  12  23  39  68 106 138 170 230 300 345 399
#     4  11  26  49  70  97 142 192 236 278 355 434
#     4  12  25  43  66 105 147 178 226 292 352 407
#
# _framework density 20.930028
#
# number of rings (size 3 to 8) (size 9 to 14) (size 15 to 20)
#    0.000    0.500    3.750    4.875    5.250    0.000 
#    0.000    6.250    0.000    0.000    0.000    0.000 
#    0.000    0.000    0.000    0.000    0.000    0.000 
#
# Total GULP energy -89192.384392 kJ/mol
# GULP energy per Si atom -5574.524024 kJ/mol
# Density = 2.088239 g / cm^3
# Si number density = 20.930028 Si / 1000 Ang^3
#
#
#
# Elastic Constant Matrix: (Units=GPa)
#
#
# Indices 1 2 3 4 5 6 
#
# 1 147.7092 60.3408 38.4256 12.3760 -5.5128 -18.4109
# 2 60.3408 181.5757 29.6939 0.4087 -21.0518 -10.4399
# 3 38.4256 29.6939 92.6391 -0.5758 -0.8827 -26.8361
# 4 12.3760 0.4087 -0.5758 28.9639 -3.2309 -0.3690
# 5 -5.5128 -21.0518 -0.8827 -3.2309 38.5196 -7.4629
# 6 -18.4109 -10.4399 -26.8361 -0.3690 -7.4629 39.6739
#
#
#
# Elastic Compliance Matrix: (Units=1/GPa)
#
#
# Indices 1 2 3 4 5 6 
#
# 1 0.008955 -0.002479 -0.002420 -0.003827 -0.000098 0.001813
# 2 -0.002479 0.006952 -0.000940 0.001363 0.003682 0.000749
# 3 -0.002420 -0.000940 0.014677 0.001598 0.001320 0.008821
# 4 -0.003827 0.001363 0.001598 0.036564 0.003426 0.000648
# 5 -0.000098 0.003682 0.001320 0.003426 0.029718 0.007438
# 6 0.001813 0.000749 0.008821 0.000648 0.007438 0.033615
#
#
# Mechanical properties :
#
#
# Convention : Reuss Voigt Hill
#
# Bulk Modulus (GPa) = 52.88782 75.42720 64.15751
# Shear Modulus (GPa) = 33.67913 40.99571 37.33742
#
# Velocity S-wave (km/s) = 4.01575 4.43053 4.22823
# Velocity P-wave (km/s) = 6.84291 7.89232 7.38628
#
# Compressibility (1/GPa) = 0.01890794
#
# Stress axis : x y z
#
# Youngs Moduli (GPa) = 111.66872 143.85041 68.13320
#
# Poissons Ratio (x) = 0.35658 0.16485
# Poissons Ratio (y) = 0.27681 0.06402
# Poissons Ratio (z) = 0.27019 0.13516
#
# Static dielectric constant tensor:
#      x y z
#    x 1.782540 -0.032540 -0.041060 
#    y -0.032540 1.783280 0.064080 
#    z -0.041060 0.064080 2.362410 
# 
# From -- ./inp_files/606620.got.cif
#   From: 2010.05.17/outbox.cif.g08.bks.cpg/sg2_304_cif.got.tgz:606620.got - 2010.06.03 11:33:40.
