data_PCOD9060981
_publ_section_title
;
Structure prediction by ZEFSAII (Michael W. Deem and Ramdas Pophale) SiO2 
 PCOD9060981
Probable space group: P -1
;
_chemical_formula_sum "Si O2"
_cell_formula_units_Z 15
_cell_length_a 7.938313
_cell_length_b 14.429436
_cell_length_c 11.762504
_cell_angle_alpha 29.874923
_cell_angle_beta 78.060593
_cell_angle_gamma 83.762161
_cell_volume 649.650557
_symmetry_space_group_name_H-M "P -1"
_symmetry_group_IT_number 2
_symmetry_cell_setting 'triclinic'
loop_
_space_group_symop_operation_xyz
x,y,z
-x,-y,-z
loop_
_atom_site_type_symbol
_atom_site_label
_atom_site_fract_x
_atom_site_fract_y
_atom_site_fract_z
Si Si1 0.595537 0.320725 0.437592
Si Si2 0.648598 0.756231 0.650521
Si Si3 0.450994 0.295669 0.023737
Si Si4 0.755118 0.982226 0.806439
Si Si5 0.354436 0.327136 0.664297
Si Si6 0.844433 0.453254 0.826640
Si Si7 0.073740 0.911690 0.698766
Si Si8 0.000000 0.500000 0.500000
O O1 0.520051 0.271806 0.375449
O O2 0.430755 0.264468 0.602225
O O3 0.740695 0.200927 0.584882
O O4 0.642327 0.544921 0.195325
O O5 0.788860 0.634244 0.706575
O O6 0.408878 0.310062 0.145752
O O7 0.740393 0.968992 0.426546
O O8 0.369900 0.098883 0.193285
O O9 0.655773 0.348023 0.920496
O O10 0.945187 0.949283 0.778730
O O11 0.679225 0.855154 0.057094
O O12 0.500000 0.500000 0.500000
O O13 0.175133 0.405424 0.591834
O O14 0.961625 0.488054 0.661039
O O15 0.913155 0.309364 0.060304
O O16 0.000000 0.000000 0.500000
#
# Coordination Sequence:
#
# PCOD9060981 Si02
#       8
#     2   2   2   2   2   2   2   1
#     4  11  24  44  70 102 133 182 239 282 351 422
#     4  11  25  43  70 101 135 183 237 279 352 427
#     4  11  23  44  71 100 134 185 230 289 351 419
#     4  12  25  43  68 101 140 178 231 289 353 424
#     4  12  24  47  74 102 140 188 238 294 355 416
#     4  11  24  45  70  97 140 180 235 293 349 418
#     4  12  27  41  63 103 141 181 223 289 358 414
#     4  12  22  46  74 102 142 182 238 292 350 422
#
# _framework density 23.089334999999998
#
# number of rings (size 3 to 8) (size 9 to 14) (size 15 to 20)
#    0.000    0.533    6.667    2.800    3.733    3.733 
#    0.000    4.000    0.000    0.000    0.000    0.000 
#    0.000    0.000    0.000    0.000    0.000    0.000 
#
# Total GULP energy -83634.187593 kJ/mol
# GULP energy per Si atom -5575.612506 kJ/mol
# Density = 2.303678 g / cm^3
# Si number density = 23.089335 Si / 1000 Ang^3
#
#
#
# Elastic Constant Matrix: (Units=GPa)
#
#
# Indices 1 2 3 4 5 6 
#
# 1 37.0535 -5.4751 0.5673 -3.7196 9.3794 -4.8832
# 2 -5.4751 52.9034 30.3055 22.8631 2.0476 -11.0947
# 3 0.5673 30.3055 136.3953 8.3114 26.6541 -6.6823
# 4 -3.7196 22.8631 8.3114 42.6308 -11.3291 -1.0838
# 5 9.3794 2.0476 26.6541 -11.3291 42.3538 -3.5629
# 6 -4.8832 -11.0947 -6.6823 -1.0838 -3.5629 34.2075
#
#
#
# Elastic Compliance Matrix: (Units=1/GPa)
#
#
# Indices 1 2 3 4 5 6 
#
# 1 0.030070 0.005028 0.000574 -0.002009 -0.007363 0.005205
# 2 0.005028 0.031112 -0.004942 -0.015847 -0.002987 0.009030
# 3 0.000574 -0.004942 0.009683 -0.000852 -0.006235 -0.000306
# 4 -0.002009 -0.015847 -0.000852 0.034718 0.010750 -0.003373
# 5 -0.007363 -0.002987 -0.006235 0.010750 0.032224 0.000459
# 6 0.005205 0.009030 -0.000306 -0.003373 0.000459 0.032786
#
#
# Mechanical properties :
#
#
# Convention : Reuss Voigt Hill
#
# Bulk Modulus (GPa) = 13.85322 30.79417 22.32369
# Shear Modulus (GPa) = 25.86197 37.23538 31.54868
#
# Velocity S-wave (km/s) = 3.35039 4.02016 3.70046
# Velocity P-wave (km/s) = 4.58036 5.90888 5.28652
#
# Compressibility (1/GPa) = 0.07218540
#
# Stress axis : x y z
#
# Youngs Moduli (GPa) = 33.25541 32.14230 103.27681
#
# Poissons Ratio (x) = -0.16161 -0.05929
# Poissons Ratio (y) = -0.16721 0.51037
# Poissons Ratio (z) = -0.01909 0.15884
#
# Static dielectric constant tensor:
#      x y z
#    x 1.850510 0.015830 0.027400 
#    y 0.015830 1.881900 0.015080 
#    z 0.027400 0.015080 1.905070 
# 
# From -- ./inp_files/395077.got.cif
#   From: 2010.05.17/outbox.cif.g08.bks.cpg/sg2_198_cif.got.tgz:395077.got - 2010.06.03 11:33:40.
