data_PCOD9060293
_publ_section_title
;
Structure prediction by ZEFSAII (Michael W. Deem and Ramdas Pophale) SiO2 
 PCOD9060293
Probable space group: P -1
;
_chemical_formula_sum "Si O2"
_cell_formula_units_Z 16
_cell_length_a 11.602626
_cell_length_b 12.477116
_cell_length_c 13.896266
_cell_angle_alpha 78.067962
_cell_angle_beta 32.340791
_cell_angle_gamma 58.950866
_cell_volume 798.628666
_symmetry_space_group_name_H-M "P -1"
_symmetry_group_IT_number 2
_symmetry_cell_setting 'triclinic'
loop_
_space_group_symop_operation_xyz
x,y,z
-x,-y,-z
loop_
_atom_site_type_symbol
_atom_site_label
_atom_site_fract_x
_atom_site_fract_y
_atom_site_fract_z
Si Si1 0.290706 0.173565 0.775716
Si Si2 0.837810 0.342521 0.896847
Si Si3 0.135441 0.837124 0.415966
Si Si4 0.690661 0.645285 0.722439
Si Si5 0.709933 0.643615 0.929678
Si Si6 0.448763 0.674392 0.418287
Si Si7 0.244732 0.162690 0.463571
Si Si8 0.086534 0.648066 0.814901
O O1 0.441949 0.241487 0.647856
O O2 0.047931 0.244800 0.854002
O O3 0.519388 0.001636 0.638736
O O4 0.142219 0.225786 0.975191
O O5 0.773323 0.492978 0.915176
O O6 0.006570 0.259178 0.695293
O O7 0.547830 0.369996 0.106112
O O8 0.252278 0.748950 0.449349
O O9 0.912071 0.835027 0.519386
O O10 0.404519 0.762914 0.170350
O O11 0.000000 0.000000 0.500000
O O12 0.712432 0.678685 0.810793
O O13 0.619994 0.767047 0.676972
O O14 0.000000 0.500000 0.500000
O O15 0.935161 0.632647 0.838426
O O16 0.282129 0.675350 0.623990
O O17 0.714534 0.505762 0.241857
#
# Coordination Sequence:
#
# PCOD9060293 Si02
#       8
#     2   2   2   2   2   2   2   2
#     4  12  25  45  69  98 142 178 227 280 344 401
#     4  12  26  45  71  96 137 185 228 280 335 402
#     4  12  23  42  72  98 136 177 217 279 347 401
#     4  12  26  45  71 101 135 179 232 281 333 406
#     4  12  22  44  71  97 135 177 225 284 340 394
#     4  11  23  43  69 102 135 178 222 279 345 400
#     4  12  26  46  67 101 137 182 226 281 342 399
#     4  11  24  42  71 103 131 178 228 283 338 405
#
# _framework density 20.034341999999999
#
# number of rings (size 3 to 8) (size 9 to 14) (size 15 to 20)
#    0.000    0.250    6.250    3.375    0.000    5.500 
#    0.000    2.500    0.000    0.000    0.000    0.000 
#    0.000    0.000    0.000    0.000    0.000    0.000 
#
# Total GULP energy -89578.003594 kJ/mol
# GULP energy per Si atom -5598.625225 kJ/mol
# Density = 1.998874 g / cm^3
# Si number density = 20.034342 Si / 1000 Ang^3
#
#
#
# Elastic Constant Matrix: (Units=GPa)
#
#
# Indices 1 2 3 4 5 6 
#
# 1 96.6189 3.7080 20.4082 2.7556 -1.9617 -11.3912
# 2 3.7080 36.2922 73.0499 8.5258 32.6029 -15.5084
# 3 20.4082 73.0499 110.4892 10.5762 5.8244 0.5151
# 4 2.7556 8.5258 10.5762 37.2863 2.5748 0.5248
# 5 -1.9617 32.6029 5.8244 2.5748 24.3517 7.3170
# 6 -11.3912 -15.5084 0.5151 0.5248 7.3170 23.1062
#
#
#
# Elastic Compliance Matrix: (Units=1/GPa)
#
#
# Indices 1 2 3 4 5 6 
#
# 1 0.010909 -0.002687 -0.000420 -0.000376 0.003909 0.002355
# 2 -0.002687 -0.012618 0.007905 -0.000290 0.019684 -0.016197
# 3 -0.000420 0.007905 0.004836 -0.002288 -0.014419 0.009609
# 4 -0.000376 -0.000290 -0.002288 0.027700 -0.001919 -0.000350
# 5 0.003909 0.019684 -0.014419 -0.001919 0.015493 0.010598
# 6 0.002355 -0.016197 0.009609 -0.000350 0.010598 0.030006
#
#
# Mechanical properties :
#
#
# Convention : Reuss Voigt Hill
#
# Bulk Modulus (GPa) = 78.59645 48.63694 63.61670
# Shear Modulus (GPa) = 70.45095 26.69779 48.57437
#
# Velocity S-wave (km/s) = 5.93645 3.65444 4.92932
# Velocity P-wave (km/s) = 9.29003 6.49123 8.01376
#
# Compressibility (1/GPa) = 0.01272322
#
# Stress axis : x y z
#
# Youngs Moduli (GPa) = 91.66406 -79.24894 206.76846
#
# Poissons Ratio (x) = -0.21294 0.08675
# Poissons Ratio (y) = 0.24630 -1.63442
# Poissons Ratio (z) = 0.03846 0.62643
#
# Static dielectric constant tensor:
#      x y z
#    x 1.703240 -0.005450 -0.002670 
#    y -0.005450 1.690990 -0.005940 
#    z -0.002670 -0.005940 1.686210 
# 
# From -- ./inp_files/455776.got.cif
#   From: 2010.05.17/outbox.cif.g08.bks.cpg/sg2_228_cif.got.tgz:455776.got - 2010.06.03 11:33:40.
