data_PCOD9060684
_publ_section_title
;
Structure prediction by ZEFSAII (Michael W. Deem and Ramdas Pophale) SiO2 
 PCOD9060684
Probable space group: P -1
;
_chemical_formula_sum "Si O2"
_cell_formula_units_Z 16
_cell_length_a 10.911360
_cell_length_b 9.258453
_cell_length_c 11.643073
_cell_angle_alpha 123.912875
_cell_angle_beta 127.195740
_cell_angle_gamma 47.053618
_cell_volume 663.969048
_symmetry_space_group_name_H-M "P -1"
_symmetry_group_IT_number 2
_symmetry_cell_setting 'triclinic'
loop_
_space_group_symop_operation_xyz
x,y,z
-x,-y,-z
loop_
_atom_site_type_symbol
_atom_site_label
_atom_site_fract_x
_atom_site_fract_y
_atom_site_fract_z
Si Si1 0.955694 0.324659 0.930740
Si Si2 0.464544 0.889462 0.820153
Si Si3 0.274284 0.078590 0.172692
Si Si4 0.678103 0.008111 0.580009
Si Si5 0.954555 0.849468 0.343604
Si Si6 0.414635 0.383753 0.844972
Si Si7 0.913439 0.624669 0.391846
Si Si8 0.564336 0.445051 0.741424
O O1 0.982223 0.202595 0.773885
O O2 0.749508 0.410846 0.887953
O O3 0.096446 0.173550 0.037326
O O4 0.000000 0.500000 0.000000
O O5 0.616049 0.823733 0.777197
O O6 0.472305 0.677647 0.754258
O O7 0.260780 0.050700 0.741443
O O8 0.500000 0.000000 0.000000
O O9 0.226024 0.073105 0.276657
O O10 0.435593 0.846272 0.141743
O O11 0.788279 0.849751 0.473681
O O12 0.500000 0.000000 0.500000
O O13 0.632838 0.232805 0.618084
O O14 0.036413 0.643349 0.374698
O O15 0.000000 0.000000 0.500000
O O16 0.213729 0.437704 0.773101
O O17 0.426010 0.425887 0.736599
O O18 0.500000 0.500000 0.000000
O O19 0.000000 0.500000 0.500000
#
# Coordination Sequence:
#
# PCOD9060684 Si02
#       8
#     2   2   2   2   2   2   2   2
#     4  12  26  45  71 112 145 182 247 303 368 433
#     4  12  22  46  76 104 148 192 241 299 367 439
#     4  11  23  43  76 100 142 191 232 305 359 426
#     4  11  23  49  69 101 147 185 250 291 365 434
#     4  12  28  47  73 109 148 188 242 305 368 434
#     4  11  25  43  73 105 139 190 247 286 366 433
#     4  12  28  47  73 104 147 192 238 309 361 431
#     4  11  25  42  74 104 141 190 235 301 355 438
#
# _framework density 24.097511000000001
#
# number of rings (size 3 to 8) (size 9 to 14) (size 15 to 20)
#    0.000    0.500    6.250    1.500    5.250    3.000 
#    0.000    1.875    0.000    0.000    0.000    0.000 
#    0.000    0.000    0.000    0.000    0.000    0.000 
#
# Total GULP energy -89317.337517 kJ/mol
# GULP energy per Si atom -5582.333595 kJ/mol
# Density = 2.404266 g / cm^3
# Si number density = 24.097511 Si / 1000 Ang^3
#
#
#
# Elastic Constant Matrix: (Units=GPa)
#
#
# Indices 1 2 3 4 5 6 
#
# 1 56.6308 3.2935 6.9360 -5.0373 2.8951 5.7337
# 2 3.2935 106.4808 31.3843 -3.7083 -2.3144 30.9516
# 3 6.9360 31.3843 132.9831 2.2423 -4.1644 7.9052
# 4 -5.0373 -3.7083 2.2423 45.3655 7.3068 -2.6819
# 5 2.8951 -2.3144 -4.1644 7.3068 39.9581 6.3306
# 6 5.7337 30.9516 7.9052 -2.6819 6.3306 25.9763
#
#
#
# Elastic Compliance Matrix: (Units=1/GPa)
#
#
# Indices 1 2 3 4 5 6 
#
# 1 0.018424 0.001129 -0.001019 0.002079 -0.001021 -0.004638
# 2 0.001129 0.015733 -0.002518 -0.000180 0.003631 -0.019132
# 3 -0.001019 -0.002518 0.008182 -0.000837 0.000864 0.000438
# 4 0.002079 -0.000180 -0.000837 0.023338 -0.005096 0.003662
# 5 -0.001021 0.003631 0.000864 -0.005096 0.028196 -0.011762
# 6 -0.004638 -0.019132 0.000438 0.003662 -0.011762 0.065429
#
#
# Mechanical properties :
#
#
# Convention : Reuss Voigt Hill
#
# Bulk Modulus (GPa) = 26.64977 42.14692 34.39834
# Shear Modulus (GPa) = 28.30872 39.22538 33.76705
#
# Velocity S-wave (km/s) = 3.43119 4.03895 3.74741
# Velocity P-wave (km/s) = 5.17500 6.26729 5.74715
#
# Compressibility (1/GPa) = 0.03752378
#
# Stress axis : x y z
#
# Youngs Moduli (GPa) = 54.27692 63.56264 122.21611
#
# Poissons Ratio (x) = -0.07175 0.12449
# Poissons Ratio (y) = -0.06127 0.30770
# Poissons Ratio (z) = 0.05529 0.16003
#
# Static dielectric constant tensor:
#      x y z
#    x 1.887600 -0.047660 -0.107880 
#    y -0.047660 1.628550 -0.432910 
#    z -0.107880 -0.432910 1.419170 
# 
# From -- ./inp_files/261752.got.cif
#   From: 2010.05.17/outbox.cif.g08.bks.cpg/sg2_131_cif.got.tgz:261752.got - 2010.06.03 11:33:40.
