data_PCOD9060795
_publ_section_title
;
Structure prediction by ZEFSAII (Michael W. Deem and Ramdas Pophale) SiO2 
 PCOD9060795
Probable space group: P -1
;
_chemical_formula_sum "Si O2"
_cell_formula_units_Z 16
_cell_length_a 14.870596
_cell_length_b 12.483695
_cell_length_c 15.959981
_cell_angle_alpha 35.757619
_cell_angle_beta 149.752168
_cell_angle_gamma 124.137769
_cell_volume 767.467105
_symmetry_space_group_name_H-M "P -1"
_symmetry_group_IT_number 2
_symmetry_cell_setting 'triclinic'
loop_
_space_group_symop_operation_xyz
x,y,z
-x,-y,-z
loop_
_atom_site_type_symbol
_atom_site_label
_atom_site_fract_x
_atom_site_fract_y
_atom_site_fract_z
Si Si1 0.548696 0.374977 0.032615
Si Si2 0.823532 0.935673 0.910624
Si Si3 0.380656 0.458725 0.503047
Si Si4 0.632704 0.020647 0.020635
Si Si5 0.807979 0.727821 0.198985
Si Si6 0.472969 0.390443 0.308956
Si Si7 0.058314 0.448522 0.875501
Si Si8 0.002577 0.884505 0.491279
O O1 0.783057 0.203410 0.325948
O O2 0.500000 0.500000 0.000000
O O3 0.398478 0.279573 0.976807
O O4 0.506786 0.512066 0.826216
O O5 0.619222 0.142732 0.590235
O O6 0.829958 0.867200 0.055705
O O7 0.854755 0.737510 0.005317
O O8 0.000000 0.000000 0.000000
O O9 0.500000 0.500000 0.500000
O O10 0.452242 0.513000 0.615765
O O11 0.137684 0.560489 0.239237
O O12 0.466767 0.213018 0.715737
O O13 0.768264 0.826789 0.195410
O O14 0.808564 0.058555 0.177018
O O15 0.500000 0.000000 0.000000
O O16 0.000000 0.500000 0.500000
O O17 0.240885 0.427856 0.096133
O O18 0.981162 0.676896 0.626148
O O19 0.000000 0.000000 0.500000
#
# Coordination Sequence:
#
# PCOD9060795 Si02
#       8
#     2   2   2   2   2   2   2   2
#     4  11  24  44  69 104 139 175 238 300 354 429
#     4  12  24  44  72 103 143 191 240 287 364 433
#     4  12  26  46  68 104 144 188 245 288 359 434
#     4  12  23  41  70  97 133 182 230 290 355 416
#     4  12  25  42  69 105 137 183 237 298 355 423
#     4  11  24  47  72 101 143 192 233 297 365 426
#     4  11  24  44  73  98 144 185 235 299 355 420
#     4  11  23  44  68 100 135 182 229 289 362 421
#
# _framework density 20.847798999999998
#
# number of rings (size 3 to 8) (size 9 to 14) (size 15 to 20)
#    0.000    0.500    2.500    7.875    0.000    0.500 
#    2.250    0.000    0.000    0.000    0.000    0.000 
#    0.000    0.000    0.000    0.000    0.000    0.000 
#
# Total GULP energy -89296.107726 kJ/mol
# GULP energy per Si atom -5581.006733 kJ/mol
# Density = 2.080035 g / cm^3
# Si number density = 20.847799 Si / 1000 Ang^3
#
#
#
# Elastic Constant Matrix: (Units=GPa)
#
#
# Indices 1 2 3 4 5 6 
#
# 1 157.3775 32.3192 49.4249 7.0108 16.1672 13.0325
# 2 32.3192 82.8309 4.3808 11.8243 11.8167 -3.6048
# 3 49.4249 4.3808 107.0144 2.0907 23.7810 10.2872
# 4 7.0108 11.8243 2.0907 50.4404 4.9110 6.2530
# 5 16.1672 11.8167 23.7810 4.9110 40.6966 -3.6501
# 6 13.0325 -3.6048 10.2872 6.2530 -3.6501 46.6345
#
#
#
# Elastic Compliance Matrix: (Units=1/GPa)
#
#
# Indices 1 2 3 4 5 6 
#
# 1 0.008252 -0.003036 -0.003380 -0.000010 -0.000585 -0.001840
# 2 -0.003036 0.014126 0.001428 -0.002852 -0.003229 0.001755
# 3 -0.003380 0.001428 0.012541 0.000551 -0.006674 -0.002308
# 4 -0.000010 -0.002852 0.000551 0.021116 -0.002339 -0.003354
# 5 -0.000585 -0.003229 -0.006674 -0.002339 0.030289 0.004071
# 6 -0.001840 0.001755 -0.002308 -0.003354 0.004071 0.023370
#
#
# Mechanical properties :
#
#
# Convention : Reuss Voigt Hill
#
# Bulk Modulus (GPa) = 40.08928 57.71917 48.90423
# Shear Modulus (GPa) = 39.06714 44.96083 42.01399
#
# Velocity S-wave (km/s) = 4.33358 4.64898 4.49405
# Velocity P-wave (km/s) = 6.65666 7.52087 7.10192
#
# Compressibility (1/GPa) = 0.02494432
#
# Stress axis : x y z
#
# Youngs Moduli (GPa) = 121.18232 70.79156 79.73699
#
# Poissons Ratio (x) = 0.21493 0.26949
# Poissons Ratio (y) = 0.36793 -0.11390
# Poissons Ratio (z) = 0.40957 -0.10112
#
# Static dielectric constant tensor:
#      x y z
#    x 1.417940 0.216280 0.590850 
#    y 0.216280 1.573370 -0.519090 
#    z 0.590850 -0.519090 0.243790 
# 
# From -- ./inp_files/472308.got.cif
#   From: 2010.05.17/outbox.cif.g08.bks.cpg/sg2_237_cif.got.tgz:472308.got - 2010.06.03 11:33:40.
