data_PCOD9060584
_publ_section_title
;
Structure prediction by ZEFSAII (Michael W. Deem and Ramdas Pophale) SiO2 
 PCOD9060584
Probable space group: P -1
;
_chemical_formula_sum "Si O2"
_cell_formula_units_Z 16
_cell_length_a 8.466432
_cell_length_b 18.611049
_cell_length_c 14.407575
_cell_angle_alpha 157.613834
_cell_angle_beta 46.831592
_cell_angle_gamma 132.049202
_cell_volume 624.913997
_symmetry_space_group_name_H-M "P -1"
_symmetry_group_IT_number 2
_symmetry_cell_setting 'triclinic'
loop_
_space_group_symop_operation_xyz
x,y,z
-x,-y,-z
loop_
_atom_site_type_symbol
_atom_site_label
_atom_site_fract_x
_atom_site_fract_y
_atom_site_fract_z
Si Si1 0.493562 0.985038 0.101829
Si Si2 0.956909 0.147567 0.081915
Si Si3 0.343022 0.366657 0.634730
Si Si4 0.941050 0.212116 0.508293
Si Si5 0.474239 0.667843 0.278508
Si Si6 0.886996 0.932997 0.367575
Si Si7 0.652879 0.642793 0.712517
Si Si8 0.177641 0.686723 0.833130
O O1 0.483931 0.792077 0.936943
O O2 0.374736 0.851183 0.907758
O O3 0.725097 0.103052 0.172258
O O4 0.332651 0.137580 0.362766
O O5 0.144603 0.221885 0.165735
O O6 0.969451 0.949442 0.785368
O O7 0.973709 0.317300 0.202504
O O8 0.113412 0.377858 0.686492
O O9 0.428160 0.401687 0.746912
O O10 0.529378 0.488479 0.645877
O O11 0.768205 0.287341 0.597174
O O12 0.855754 0.090389 0.489113
O O13 0.644695 0.845785 0.390576
O O14 0.500000 0.500000 0.000000
O O15 0.000000 0.000000 0.500000
O O16 0.030450 0.778197 0.077947
O O17 0.736925 0.518587 0.445999
#
# Coordination Sequence:
#
# PCOD9060584 Si02
#       8
#     2   2   2   2   2   2   2   2
#     4  12  23  46  73 105 153 201 245 297 391 459
#     4  11  23  43  74 107 152 198 245 307 384 460
#     4  12  26  52  76 112 160 198 255 314 380 463
#     4  11  25  51  78 105 149 210 250 312 389 449
#     4  12  29  48  74 111 149 199 261 324 373 447
#     4  11  23  49  79 107 147 205 259 310 381 449
#     4  12  27  42  73 120 151 195 249 316 382 455
#     4  11  23  43  73 106 153 196 246 315 377 449
#
# _framework density 25.603522999999999
#
# number of rings (size 3 to 8) (size 9 to 14) (size 15 to 20)
#    0.000    0.500    5.000    3.375    3.500    2.500 
#    4.500    0.000    0.000    0.000    0.000    0.000 
#    0.000    0.000    0.000    0.000    0.000    0.000 
#
# Total GULP energy -89148.788250 kJ/mol
# GULP energy per Si atom -5571.799266 kJ/mol
# Density = 2.554525 g / cm^3
# Si number density = 25.603523 Si / 1000 Ang^3
#
#
#
# Elastic Constant Matrix: (Units=GPa)
#
#
# Indices 1 2 3 4 5 6 
#
# 1 155.9893 44.3928 45.8644 -4.0588 23.5138 4.3345
# 2 44.3928 78.2440 -2.2039 -0.8319 15.7095 -7.1872
# 3 45.8644 -2.2039 68.8856 7.4294 8.2016 -14.2480
# 4 -4.0588 -0.8319 7.4294 29.1811 0.9021 5.6997
# 5 23.5138 15.7095 8.2016 0.9021 54.8395 -0.2840
# 6 4.3345 -7.1872 -14.2480 5.6997 -0.2840 53.5860
#
#
#
# Elastic Compliance Matrix: (Units=1/GPa)
#
#
# Indices 1 2 3 4 5 6 
#
# 1 0.011619 -0.006902 -0.009270 0.004780 -0.001722 -0.004848
# 2 -0.006902 0.017962 0.006942 -0.003120 -0.003146 0.005128
# 3 -0.009270 0.006942 0.023891 -0.008883 -0.001394 0.008971
# 4 0.004780 -0.003120 -0.008883 0.038541 -0.000499 -0.007269
# 5 -0.001722 -0.003146 -0.001394 -0.000499 0.020089 -0.000494
# 6 -0.004848 0.005128 0.008971 -0.007269 -0.000494 0.022897
#
#
# Mechanical properties :
#
#
# Convention : Reuss Voigt Hill
#
# Bulk Modulus (GPa) = 28.56263 53.24726 40.90495
# Shear Modulus (GPa) = 30.27907 41.85903 36.06905
#
# Velocity S-wave (km/s) = 3.44265 4.04777 3.75741
# Velocity P-wave (km/s) = 5.19446 6.53360 5.90213
#
# Compressibility (1/GPa) = 0.03501078
#
# Stress axis : x y z
#
# Youngs Moduli (GPa) = 86.06353 55.67387 41.85744
#
# Poissons Ratio (x) = 0.38427 0.38803
# Poissons Ratio (y) = 0.59403 -0.29058
# Poissons Ratio (z) = 0.79783 -0.38649
#
# Static dielectric constant tensor:
#      x y z
#    x 2.323120 0.011450 -0.067510 
#    y 0.011450 2.171450 -0.097150 
#    z -0.067510 -0.097150 2.033410 
# 
# From -- ./inp_files/508165.got.cif
#   From: 2010.05.17/outbox.cif.g08.bks.cpg/sg2_255_cif.got.tgz:508165.got - 2010.06.03 11:33:40.
