data_PCOD9060030
_publ_section_title
;
Structure prediction by ZEFSAII (Michael W. Deem and Ramdas Pophale) SiO2 
 PCOD9060030
Probable space group: P -1
;
_chemical_formula_sum "Si O2"
_cell_formula_units_Z 16
_cell_length_a 10.284353
_cell_length_b 20.349832
_cell_length_c 23.894004
_cell_angle_alpha 15.741079
_cell_angle_beta 147.748130
_cell_angle_gamma 147.604908
_cell_volume 707.835911
_symmetry_space_group_name_H-M "P -1"
_symmetry_group_IT_number 2
_symmetry_cell_setting 'triclinic'
loop_
_space_group_symop_operation_xyz
x,y,z
-x,-y,-z
loop_
_atom_site_type_symbol
_atom_site_label
_atom_site_fract_x
_atom_site_fract_y
_atom_site_fract_z
Si Si1 0.688387 0.550332 0.400335
Si Si2 0.705959 0.499274 0.158264
Si Si3 0.904661 0.767846 0.196394
Si Si4 0.099450 0.288499 0.533852
Si Si5 0.615000 0.890592 0.718217
Si Si6 0.277582 0.120468 0.628427
Si Si7 0.832853 0.904698 0.570900
Si Si8 0.452747 0.614006 0.084405
O O1 0.774336 0.775622 0.203267
O O2 0.413566 0.378002 0.437925
O O3 0.860505 0.354948 0.608773
O O4 0.755688 0.625039 0.427455
O O5 0.975640 0.486189 0.292420
O O6 0.547264 0.249541 0.277137
O O7 0.537963 0.573820 0.085689
O O8 0.723435 0.695523 0.954299
O O9 0.687451 0.592808 0.225816
O O10 0.000000 0.000000 0.000000
O O11 0.270931 0.174015 0.647790
O O12 0.848271 0.092982 0.617619
O O13 0.427982 0.009509 0.590833
O O14 0.996857 0.033386 0.576672
O O15 0.400037 0.886655 0.850823
O O16 0.772721 0.608335 0.798088
O O17 0.000000 0.000000 0.500000
#
# Coordination Sequence:
#
# PCOD9060030 Si02
#       8
#     2   2   2   2   2   2   2   2
#     4  11  25  44  71 103 136 190 238 286 357 418
#     4  11  23  42  74 102 134 180 235 287 351 420
#     4  11  23  44  74  99 139 180 239 299 340 420
#     4  12  24  46  72  98 145 189 234 291 353 412
#     4  11  24  44  71 106 134 185 243 285 347 431
#     4  12  26  44  67 104 152 182 233 297 353 416
#     4  12  24  42  70 104 145 182 230 298 357 416
#     4  12  24  44  71 102 137 187 234 286 361 414
#
# _framework density 22.604109000000001
#
# number of rings (size 3 to 8) (size 9 to 14) (size 15 to 20)
#    0.000    0.500    5.000    3.375    1.750    3.000 
#    2.250    0.625    0.000    0.000    0.000    0.000 
#    0.000    0.000    0.000    0.000    0.000    0.000 
#
# Total GULP energy -89459.960303 kJ/mol
# GULP energy per Si atom -5591.247519 kJ/mol
# Density = 2.255266 g / cm^3
# Si number density = 22.604109 Si / 1000 Ang^3
#
#
#
# Elastic Constant Matrix: (Units=GPa)
#
#
# Indices 1 2 3 4 5 6 
#
# 1 119.1537 27.3589 29.4269 -23.3187 -0.1695 -14.7887
# 2 27.3589 96.4655 24.3270 -11.8758 -20.3319 0.0296
# 3 29.4269 24.3270 76.2117 -7.1151 -9.1047 -1.8239
# 4 -23.3187 -11.8758 -7.1151 23.1022 -4.0037 -2.2683
# 5 -0.1695 -20.3319 -9.1047 -4.0037 33.7767 0.4492
# 6 -14.7887 0.0296 -1.8239 -2.2683 0.4492 32.0501
#
#
#
# Elastic Compliance Matrix: (Units=1/GPa)
#
#
# Indices 1 2 3 4 5 6 
#
# 1 0.012567 -0.001414 -0.003215 0.011536 -0.000373 0.006439
# 2 -0.001414 0.013942 -0.002291 0.006469 0.008541 -0.000458
# 3 -0.003215 -0.002291 0.015499 0.000794 0.002884 -0.000583
# 4 0.011536 0.006469 0.000794 0.061399 0.011317 0.009549
# 5 -0.000373 0.008541 0.002884 0.011317 0.036861 0.000269
# 6 0.006439 -0.000458 -0.000583 0.009549 0.000269 0.034811
#
#
# Mechanical properties :
#
#
# Convention : Reuss Voigt Hill
#
# Bulk Modulus (GPa) = 35.50057 50.45071 42.97564
# Shear Modulus (GPa) = 25.21342 31.83367 28.52354
#
# Velocity S-wave (km/s) = 3.34344 3.75682 3.55614
# Velocity P-wave (km/s) = 5.53572 6.41763 5.99292
#
# Compressibility (1/GPa) = 0.02816856
#
# Stress axis : x y z
#
# Youngs Moduli (GPa) = 79.57177 71.72660 64.52216
#
# Poissons Ratio (x) = 0.10142 0.20741
# Poissons Ratio (y) = 0.11251 0.14782
# Poissons Ratio (z) = 0.25579 0.16432
#
# Static dielectric constant tensor:
#      x y z
#    x 1.874310 -0.010880 -0.009260 
#    y -0.010880 1.832630 0.010000 
#    z -0.009260 0.010000 1.884330 
# 
# From -- ./inp_files/591206.got.cif
#   From: 2010.05.17/outbox.cif.g08.bks.cpg/sg2_296_cif.got.tgz:591206.got - 2010.06.03 11:33:40.
