data_PCOD9060669
_publ_section_title
;
Structure prediction by ZEFSAII (Michael W. Deem and Ramdas Pophale) SiO2 
 PCOD9060669
Probable space group: P -1
;
_chemical_formula_sum "Si O2"
_cell_formula_units_Z 16
_cell_length_a 13.994396
_cell_length_b 8.473368
_cell_length_c 11.080917
_cell_angle_alpha 105.578175
_cell_angle_beta 121.674052
_cell_angle_gamma 120.610796
_cell_volume 656.020976
_symmetry_space_group_name_H-M "P -1"
_symmetry_group_IT_number 2
_symmetry_cell_setting 'triclinic'
loop_
_space_group_symop_operation_xyz
x,y,z
-x,-y,-z
loop_
_atom_site_type_symbol
_atom_site_label
_atom_site_fract_x
_atom_site_fract_y
_atom_site_fract_z
Si Si1 0.786686 0.510509 0.970553
Si Si2 0.936591 0.343829 0.083127
Si Si3 0.478472 0.211040 0.879636
Si Si4 0.845690 0.224248 0.271470
Si Si5 0.349864 0.709474 0.406129
Si Si6 0.590398 0.737402 0.699743
Si Si7 0.992370 0.030089 0.358627
Si Si8 0.611212 0.572602 0.266057
O O1 0.900482 0.475206 0.020601
O O2 0.614203 0.275027 0.894792
O O3 0.716109 0.483951 0.787568
O O4 0.897763 0.778448 0.167839
O O5 0.855786 0.278669 0.150198
O O6 0.154744 0.560669 0.286792
O O7 0.802508 0.042749 0.882327
O O8 0.376843 0.225497 0.728157
O O9 0.338842 0.948331 0.813720
O O10 0.585258 0.440571 0.098833
O O11 0.000000 0.500000 0.500000
O O12 0.889818 0.082167 0.283182
O O13 0.462981 0.748149 0.590875
O O14 0.500000 0.000000 0.500000
O O15 0.500000 0.500000 0.500000
O O16 0.555121 0.642911 0.794938
O O17 0.206391 0.278212 0.516050
O O18 0.000000 0.000000 0.500000
#
# Coordination Sequence:
#
# PCOD9060669 Si02
#       8
#     2   2   2   2   2   2   2   2
#     4  12  27  46  79 104 147 200 253 309 374 454
#     4  12  29  51  72 115 153 196 258 314 379 449
#     4  11  23  43  75 107 147 195 243 308 378 451
#     4  12  27  45  73 111 156 190 243 313 382 452
#     4  12  29  53  77 108 152 201 259 316 377 448
#     4  12  28  49  78 110 149 205 252 315 376 446
#     4  12  23  44  72 109 143 197 244 297 378 452
#     4  11  23  45  71 109 152 186 254 308 373 453
#
# _framework density 24.389464
#
# number of rings (size 3 to 8) (size 9 to 14) (size 15 to 20)
#    0.000    0.250    5.000    3.375    5.250    2.000 
#    0.000    0.000    0.000    0.000    0.000    0.000 
#    0.000    0.000    0.000    0.000    0.000    0.000 
#
# Total GULP energy -89582.634083 kJ/mol
# GULP energy per Si atom -5598.914630 kJ/mol
# Density = 2.433395 g / cm^3
# Si number density = 24.389464 Si / 1000 Ang^3
#
#
#
# Elastic Constant Matrix: (Units=GPa)
#
#
# Indices 1 2 3 4 5 6 
#
# 1 100.2076 7.1966 11.5992 8.4219 15.3247 6.6962
# 2 7.1966 64.5987 4.5430 -5.7971 7.7278 10.1788
# 3 11.5992 4.5430 94.5827 13.0454 0.8949 -1.4495
# 4 8.4219 -5.7971 13.0454 48.1037 4.8556 3.7775
# 5 15.3247 7.7278 0.8949 4.8556 57.1327 6.7124
# 6 6.6962 10.1788 -1.4495 3.7775 6.7124 33.2571
#
#
#
# Elastic Compliance Matrix: (Units=1/GPa)
#
#
# Indices 1 2 3 4 5 6 
#
# 1 0.010740 -0.000728 -0.001098 -0.001314 -0.002497 -0.001334
# 2 -0.000728 0.016931 -0.001209 0.003071 -0.001739 -0.005086
# 3 -0.001098 -0.001209 0.011216 -0.003141 0.000390 0.001358
# 4 -0.001314 0.003071 -0.003141 0.022640 -0.001578 -0.003065
# 5 -0.002497 -0.001739 0.000390 -0.001578 0.018838 -0.002571
# 6 -0.001334 -0.005086 0.001358 -0.003065 -0.002571 0.032820
#
#
# Mechanical properties :
#
#
# Convention : Reuss Voigt Hill
#
# Bulk Modulus (GPa) = 30.47177 34.00738 32.23957
# Shear Modulus (GPa) = 38.40394 43.43539 40.91966
#
# Velocity S-wave (km/s) = 3.97244 4.22466 4.10049
# Velocity P-wave (km/s) = 5.79322 6.14579 5.97210
#
# Compressibility (1/GPa) = 0.03281726
#
# Stress axis : x y z
#
# Youngs Moduli (GPa) = 93.10953 59.06196 89.15978
#
# Poissons Ratio (x) = 0.04301 0.09788
# Poissons Ratio (y) = 0.06781 0.10779
# Poissons Ratio (z) = 0.10221 0.07140
#
# Static dielectric constant tensor:
#      x y z
#    x 1.920020 0.013700 0.004710 
#    y 0.013700 1.942910 0.038290 
#    z 0.004710 0.038290 1.942440 
# 
# From -- ./inp_files/447878.got.cif
#   From: 2010.05.17/outbox.cif.g08.bks.cpg/sg2_224_cif.got.tgz:447878.got - 2010.06.03 11:33:40.
