data_PCOD9060076
_publ_section_title
;
Structure prediction by ZEFSAII (Michael W. Deem and Ramdas Pophale) SiO2 
 PCOD9060076
Probable space group: P -1
;
_chemical_formula_sum "Si O2"
_cell_formula_units_Z 16
_cell_length_a 8.720332
_cell_length_b 11.695191
_cell_length_c 10.918543
_cell_angle_alpha 63.311629
_cell_angle_beta 84.454206
_cell_angle_gamma 45.002026
_cell_volume 659.110348
_symmetry_space_group_name_H-M "P -1"
_symmetry_group_IT_number 2
_symmetry_cell_setting 'triclinic'
loop_
_space_group_symop_operation_xyz
x,y,z
-x,-y,-z
loop_
_atom_site_type_symbol
_atom_site_label
_atom_site_fract_x
_atom_site_fract_y
_atom_site_fract_z
Si Si1 0.951259 0.229933 0.379199
Si Si2 0.851087 0.783856 0.094103
Si Si3 0.328480 0.724203 0.425129
Si Si4 0.525082 0.109132 0.572449
Si Si5 0.025910 0.441373 0.387523
Si Si6 0.558398 0.865669 0.873185
Si Si7 0.824938 0.208512 0.856642
Si Si8 0.393726 0.460508 0.934581
O O1 0.807309 0.209910 0.468546
O O2 0.839849 0.339683 0.205070
O O3 0.928447 0.362918 0.408860
O O4 0.224618 0.044150 0.434612
O O5 0.884822 0.624388 0.225982
O O6 0.088370 0.709629 0.138564
O O7 0.654057 0.984171 0.086768
O O8 0.770407 0.808368 0.950933
O O9 0.500000 0.500000 0.500000
O O10 0.458165 0.779720 0.390538
O O11 0.160875 0.817378 0.277091
O O12 0.302925 0.269825 0.426982
O O13 0.494832 0.992815 0.700908
O O14 0.000000 0.500000 0.500000
O O15 0.614393 0.679875 0.943353
O O16 0.569601 0.343057 0.862036
O O17 0.000000 0.000000 0.000000
O O18 0.500000 0.500000 0.000000
#
# Coordination Sequence:
#
# PCOD9060076 Si02
#       8
#     2   2   2   2   2   2   2   2
#     4  12  28  51  72 112 159 198 255 318 385 462
#     4  11  23  42  75 109 146 187 258 317 363 439
#     4  12  26  49  79 107 151 201 259 312 374 455
#     4  12  28  47  75 112 155 201 247 317 392 447
#     4  12  24  46  76 110 144 200 254 311 377 455
#     4  11  25  47  76 108 147 197 253 314 375 450
#     4  12  25  45  75 112 145 196 261 312 372 449
#     4  12  29  50  76 112 157 203 252 314 394 458
#
# _framework density 24.275145999999999
#
# number of rings (size 3 to 8) (size 9 to 14) (size 15 to 20)
#    0.000    0.250    5.000    3.750    5.250    1.500 
#    2.250    0.000    0.000    0.000    0.000    0.000 
#    0.000    0.000    0.000    0.000    0.000    0.000 
#
# Total GULP energy -89592.965777 kJ/mol
# GULP energy per Si atom -5599.560361 kJ/mol
# Density = 2.421989 g / cm^3
# Si number density = 24.275146 Si / 1000 Ang^3
#
#
#
# Elastic Constant Matrix: (Units=GPa)
#
#
# Indices 1 2 3 4 5 6 
#
# 1 111.7224 26.1484 11.5927 -3.1639 -4.6380 21.0674
# 2 26.1484 87.0299 27.0460 -4.0451 -5.5010 4.5336
# 3 11.5927 27.0460 96.5824 -12.0526 7.1751 9.7439
# 4 -3.1639 -4.0451 -12.0526 18.6250 0.0984 3.7001
# 5 -4.6380 -5.5010 7.1751 0.0984 43.9661 -1.4223
# 6 21.0674 4.5336 9.7439 3.7001 -1.4223 54.4524
#
#
#
# Elastic Compliance Matrix: (Units=1/GPa)
#
#
# Indices 1 2 3 4 5 6 
#
# 1 0.010427 -0.002843 0.000153 0.002034 0.000587 -0.003948
# 2 -0.002843 0.013580 -0.003690 -0.000069 0.002024 0.000687
# 3 0.000153 -0.003690 0.012843 0.008080 -0.002646 -0.002668
# 4 0.002034 -0.000069 0.008080 0.060525 -0.001454 -0.006378
# 5 0.000587 0.002024 -0.002646 -0.001454 0.023521 0.000791
# 6 -0.003948 0.000687 -0.002668 -0.006378 0.000791 0.020766
#
#
# Mechanical properties :
#
#
# Convention : Reuss Voigt Hill
#
# Bulk Modulus (GPa) = 41.51092 47.21210 44.36151
# Shear Modulus (GPa) = 30.77856 38.77855 34.77855
#
# Velocity S-wave (km/s) = 3.56463 4.00116 3.78918
# Velocity P-wave (km/s) = 5.83776 6.39036 6.12030
#
# Compressibility (1/GPa) = 0.02409005
#
# Stress axis : x y z
#
# Youngs Moduli (GPa) = 95.90816 73.63710 77.86501
#
# Poissons Ratio (x) = 0.20935 -0.01192
# Poissons Ratio (y) = 0.27267 0.28731
# Poissons Ratio (z) = -0.01469 0.27171
#
# Static dielectric constant tensor:
#      x y z
#    x 1.606960 -0.117390 -0.210700 
#    y -0.117390 1.925000 -0.059170 
#    z -0.210700 -0.059170 1.818170 
# 
# From -- ./inp_files/187479.got.cif
#   From: 2010.05.17/outbox.cif.g08.bks.cpg/sg2_94_cif.got.tgz:187479.got - 2010.06.03 11:33:40.
