data_PCOD9060352
_publ_section_title
;
Structure prediction by ZEFSAII (Michael W. Deem and Ramdas Pophale) SiO2 
 PCOD9060352
Probable space group: P -1
;
_chemical_formula_sum "Si O2"
_cell_formula_units_Z 16
_cell_length_a 11.510023
_cell_length_b 9.149494
_cell_length_c 10.110509
_cell_angle_alpha 59.324912
_cell_angle_beta 123.957392
_cell_angle_gamma 123.615118
_cell_volume 703.666270
_symmetry_space_group_name_H-M "P -1"
_symmetry_group_IT_number 2
_symmetry_cell_setting 'triclinic'
loop_
_space_group_symop_operation_xyz
x,y,z
-x,-y,-z
loop_
_atom_site_type_symbol
_atom_site_label
_atom_site_fract_x
_atom_site_fract_y
_atom_site_fract_z
Si Si1 0.362626 0.547916 0.063461
Si Si2 0.141057 0.648729 0.721992
Si Si3 0.444473 0.309164 0.634614
Si Si4 0.851032 0.352447 0.572068
Si Si5 0.381895 0.245355 0.078980
Si Si6 0.433167 0.904397 0.365102
Si Si7 0.944261 0.889757 0.152307
Si Si8 0.141415 0.016455 0.671169
O O1 0.427663 0.654926 0.188387
O O2 0.384440 0.353929 0.166429
O O3 0.200103 0.538928 0.916919
O O4 0.474897 0.655884 0.967104
O O5 0.207004 0.651813 0.613741
O O6 0.965915 0.542636 0.618113
O O7 0.181612 0.845808 0.724383
O O8 0.500000 0.500000 0.500000
O O9 0.447936 0.150501 0.613120
O O10 0.280599 0.212631 0.645982
O O11 0.708672 0.277467 0.609592
O O12 0.945122 0.217211 0.696118
O O13 0.373800 0.042320 0.187999
O O14 0.229248 0.245223 0.916239
O O15 0.500000 0.000000 0.500000
O O16 0.923901 0.005008 0.211187
O O17 0.000000 0.000000 0.000000
O O18 0.000000 0.000000 0.500000
#
# Coordination Sequence:
#
# PCOD9060352 Si02
#       8
#     2   2   2   2   2   2   2   2
#     4  11  24  43  70 102 139 185 237 294 361 425
#     4  11  25  44  72 102 143 190 240 296 363 433
#     4  12  29  47  73 107 143 189 244 304 358 435
#     4  11  24  45  69 105 140 192 241 292 361 434
#     4  11  23  43  70 100 137 184 230 289 359 427
#     4  12  26  45  70 101 143 185 239 295 360 429
#     4  12  24  45  74 106 143 187 241 298 361 433
#     4  12  27  48  75 104 146 195 241 300 367 428
#
# _framework density 22.738050999999999
#
# number of rings (size 3 to 8) (size 9 to 14) (size 15 to 20)
#    0.000    0.500    5.000    3.000    3.500    3.000 
#    0.000    1.250    0.000    0.000    0.000    0.000 
#    0.000    0.000    0.000    0.000    0.000    0.000 
#
# Total GULP energy -89363.131197 kJ/mol
# GULP energy per Si atom -5585.195700 kJ/mol
# Density = 2.268630 g / cm^3
# Si number density = 22.738051 Si / 1000 Ang^3
#
#
#
# Elastic Constant Matrix: (Units=GPa)
#
#
# Indices 1 2 3 4 5 6 
#
# 1 76.3514 15.4003 21.7052 -1.6538 -15.3658 4.8044
# 2 15.4003 81.8552 23.2663 2.1309 -18.6907 -7.6824
# 3 21.7052 23.2663 109.9139 10.9647 -5.7979 -8.5909
# 4 -1.6538 2.1309 10.9647 36.5596 -3.8973 -5.3479
# 5 -15.3658 -18.6907 -5.7979 -3.8973 32.0544 0.8366
# 6 4.8044 -7.6824 -8.5909 -5.3479 0.8366 32.9982
#
#
#
# Elastic Compliance Matrix: (Units=1/GPa)
#
#
# Indices 1 2 3 4 5 6 
#
# 1 0.015738 -0.000903 -0.002996 0.001928 0.006792 -0.003141
# 2 -0.000903 0.015178 -0.002488 0.001114 0.008025 0.002995
# 3 -0.002996 -0.002488 0.010612 -0.003004 -0.001389 0.002168
# 4 0.001928 0.001114 -0.003004 0.029316 0.004495 0.003834
# 5 0.006792 0.008025 -0.001389 0.004495 0.039421 0.000247
# 6 -0.003141 0.002995 0.002168 0.003834 0.000247 0.032639
#
#
# Mechanical properties :
#
#
# Convention : Reuss Voigt Hill
#
# Bulk Modulus (GPa) = 34.77971 43.20712 38.99342
# Shear Modulus (GPa) = 30.25479 34.17233 32.21356
#
# Velocity S-wave (km/s) = 3.65167 3.88089 3.76802
# Velocity P-wave (km/s) = 5.75401 6.25501 6.00973
#
# Compressibility (1/GPa) = 0.02875239
#
# Stress axis : x y z
#
# Youngs Moduli (GPa) = 63.54224 65.88349 94.23073
#
# Poissons Ratio (x) = 0.05952 0.28232
# Poissons Ratio (y) = 0.05741 0.23447
# Poissons Ratio (z) = 0.19038 0.16394
#
# Static dielectric constant tensor:
#      x y z
#    x 1.810010 0.169280 0.098130 
#    y 0.169280 1.239670 -0.368480 
#    z 0.098130 -0.368480 1.673180 
# 
# From -- ./inp_files/243193.got.cif
#   From: 2010.05.17/outbox.cif.g08.bks.cpg/sg2_122_cif.got.tgz:243193.got - 2010.06.03 11:33:40.
