data_PCOD9060751
_publ_section_title
;
Structure prediction by ZEFSAII (Michael W. Deem and Ramdas Pophale) SiO2 
 PCOD9060751
Probable space group: P -1
;
_chemical_formula_sum "Si O2"
_cell_formula_units_Z 15
_cell_length_a 16.445906
_cell_length_b 9.656136
_cell_length_c 8.006941
_cell_angle_alpha 86.911945
_cell_angle_beta 67.161384
_cell_angle_gamma 134.871588
_cell_volume 718.371728
_symmetry_space_group_name_H-M "P -1"
_symmetry_group_IT_number 2
_symmetry_cell_setting 'triclinic'
loop_
_space_group_symop_operation_xyz
x,y,z
-x,-y,-z
loop_
_atom_site_type_symbol
_atom_site_label
_atom_site_fract_x
_atom_site_fract_y
_atom_site_fract_z
Si Si1 0.829452 0.473093 0.072753
Si Si2 0.512301 0.119653 0.324858
Si Si3 0.607356 0.758801 0.416822
Si Si4 0.000000 0.000000 0.500000
Si Si5 0.239583 0.767401 0.344582
Si Si6 0.786316 0.132815 0.999032
Si Si7 0.885234 0.112566 0.389354
Si Si8 0.929537 0.681324 0.331492
O O1 0.677097 0.324253 0.123382
O O2 0.836368 0.548957 0.245222
O O3 0.828310 0.303511 0.089624
O O4 0.966442 0.689068 0.843493
O O5 0.469496 0.217234 0.417703
O O6 0.500000 0.000000 0.500000
O O7 0.395287 0.936211 0.291046
O O8 0.500000 0.500000 0.500000
O O9 0.755545 0.907803 0.384317
O O10 0.655265 0.884137 0.194410
O O11 0.056370 0.148399 0.617675
O O12 0.913206 0.035455 0.515895
O O13 0.249217 0.830000 0.143794
O O14 0.160130 0.794260 0.505150
O O15 0.144893 0.512791 0.461630
O O16 0.919067 0.197698 0.851612
#
# Coordination Sequence:
#
# PCOD9060751 Si02
#       8
#     2   2   2   1   2   2   2   2
#     4  12  23  42  78 103 133 180 245 287 337 412
#     4  11  23  44  66 105 140 178 232 285 342 412
#     4  11  26  45  68  95 144 190 229 277 356 423
#     4  12  28  42  64 106 144 174 228 290 350 408
#     4  11  23  44  73 101 144 179 227 297 348 405
#     4  12  22  43  74 105 131 185 240 287 346 410
#     4  11  24  47  69 101 138 185 232 289 346 413
#     4  12  23  42  73 104 141 179 229 296 347 414
#
# _framework density 20.880555999999999
#
# number of rings (size 3 to 8) (size 9 to 14) (size 15 to 20)
#    0.000    0.533    6.667    2.400    1.867    2.133 
#    2.400    1.333    0.000    0.000    0.000    0.000 
#    0.000    0.000    0.000    0.000    0.000    0.000 
#
# Total GULP energy -83686.056082 kJ/mol
# GULP energy per Si atom -5579.070405 kJ/mol
# Density = 2.083303 g / cm^3
# Si number density = 20.880556 Si / 1000 Ang^3
#
#
#
# Elastic Constant Matrix: (Units=GPa)
#
#
# Indices 1 2 3 4 5 6 
#
# 1 74.8870 11.1598 15.2902 -1.9605 -25.1697 12.6685
# 2 11.1598 121.1735 34.0555 3.0589 -25.4357 -3.6733
# 3 15.2902 34.0555 88.5716 -14.3000 -13.7012 14.6452
# 4 -1.9605 3.0589 -14.3000 32.8123 12.7733 -2.0950
# 5 -25.1697 -25.4357 -13.7012 12.7733 31.5472 1.9209
# 6 12.6685 -3.6733 14.6452 -2.0950 1.9209 27.6571
#
#
#
# Elastic Compliance Matrix: (Units=1/GPa)
#
#
# Indices 1 2 3 4 5 6 
#
# 1 0.023691 0.003482 -0.000978 -0.010344 0.026233 -0.012477
# 2 0.003482 0.012474 -0.004731 -0.008466 0.014152 0.000943
# 3 -0.000978 -0.004731 0.015677 0.006713 -0.000019 -0.007972
# 4 -0.010344 -0.008466 0.006713 0.046070 -0.031164 0.005713
# 5 0.026233 0.014152 -0.000019 -0.031164 0.077737 -0.017886
# 6 -0.012477 0.000943 -0.007972 0.005713 -0.017886 0.047894
#
#
# Mechanical properties :
#
#
# Convention : Reuss Voigt Hill
#
# Bulk Modulus (GPa) = 21.10167 45.07147 33.08657
# Shear Modulus (GPa) = 20.50918 33.34508 26.92713
#
# Velocity S-wave (km/s) = 3.13743 4.00051 3.59497
# Velocity P-wave (km/s) = 4.82208 6.55523 5.75428
#
# Compressibility (1/GPa) = 0.04738960
#
# Stress axis : x y z
#
# Youngs Moduli (GPa) = 42.21035 80.16381 63.78611
#
# Poissons Ratio (x) = -0.27915 0.06237
# Poissons Ratio (y) = -0.14699 0.30178
# Poissons Ratio (z) = 0.04127 0.37926
#
# Static dielectric constant tensor:
#      x y z
#    x 1.763160 0.025950 0.018690 
#    y 0.025950 1.729760 0.009970 
#    z 0.018690 0.009970 1.754970 
# 
# From -- ./inp_files/154642.got.cif
#   From: 2010.05.17/outbox.cif.g08.bks.cpg/sg2_78_cif.got.tgz:154642.got - 2010.06.03 11:33:40.
