data_PCOD9060398
_publ_section_title
;
Structure prediction by ZEFSAII (Michael W. Deem and Ramdas Pophale) SiO2 
 PCOD9060398
Probable space group: P -1
;
_chemical_formula_sum "Si O2"
_cell_formula_units_Z 16
_cell_length_a 5.354797
_cell_length_b 11.200790
_cell_length_c 12.959168
_cell_angle_alpha 63.294876
_cell_angle_beta 105.115565
_cell_angle_gamma 84.696149
_cell_volume 650.227766
_symmetry_space_group_name_H-M "P -1"
_symmetry_group_IT_number 2
_symmetry_cell_setting 'triclinic'
loop_
_space_group_symop_operation_xyz
x,y,z
-x,-y,-z
loop_
_atom_site_type_symbol
_atom_site_label
_atom_site_fract_x
_atom_site_fract_y
_atom_site_fract_z
Si Si1 0.674851 0.629671 0.431299
Si Si2 0.959082 0.218252 0.713067
Si Si3 0.221134 0.091129 0.981074
Si Si4 0.334503 0.519257 0.080259
Si Si5 0.130410 0.248381 0.116157
Si Si6 0.938640 0.038436 0.305507
Si Si7 0.515224 0.572760 0.644910
Si Si8 0.349098 0.887904 0.566196
O O1 0.362343 0.722094 0.353595
O O2 0.730172 0.575188 0.575718
O O3 0.681600 0.497934 0.412281
O O4 0.871353 0.713766 0.374025
O O5 0.082858 0.217194 0.840713
O O6 0.044690 0.056734 0.754185
O O7 0.273066 0.154088 0.073528
O O8 0.500000 0.000000 0.000000
O O9 0.000000 0.000000 0.000000
O O10 0.214916 0.383967 0.112192
O O11 0.445662 0.507212 0.212378
O O12 0.500000 0.500000 0.000000
O O13 0.154143 0.673550 0.993159
O O14 0.079622 0.157203 0.242228
O O15 0.675371 0.106520 0.314557
O O16 0.083483 0.933163 0.450216
O O17 0.447774 0.731179 0.606856
O O18 0.500000 0.000000 0.500000
#
# Coordination Sequence:
#
# PCOD9060398 Si02
#       8
#     2   2   2   2   2   2   2   2
#     4  11  27  48  76 111 145 199 241 313 374 450
#     4  12  25  49  74 110 150 189 253 302 378 442
#     4  12  27  45  76 110 150 201 246 309 374 448
#     4  11  26  47  74 104 147 200 253 311 372 453
#     4  11  26  47  69 109 145 199 251 307 381 447
#     4  11  24  42  71 102 147 187 246 304 377 443
#     4  11  24  47  72 107 148 191 253 305 378 440
#     4  11  23  43  70 107 140 193 242 311 368 444
#
# _framework density 24.606760999999999
#
# number of rings (size 3 to 8) (size 9 to 14) (size 15 to 20)
#    0.000    0.750    2.500    3.750    3.500    4.000 
#   11.250    0.000    0.000    0.000    0.000    0.000 
#    0.000    0.000    0.000    0.000    0.000    0.000 
#
# Total GULP energy -89327.205721 kJ/mol
# GULP energy per Si atom -5582.950358 kJ/mol
# Density = 2.455076 g / cm^3
# Si number density = 24.606761 Si / 1000 Ang^3
#
#
#
# Elastic Constant Matrix: (Units=GPa)
#
#
# Indices 1 2 3 4 5 6 
#
# 1 107.3405 37.4679 32.5218 -8.3821 -27.5247 -17.7209
# 2 37.4679 119.9010 9.7743 8.5393 -5.4238 -18.3357
# 3 32.5218 9.7743 157.3998 21.1795 -12.0532 -17.2971
# 4 -8.3821 8.5393 21.1795 46.6120 6.0666 -10.3984
# 5 -27.5247 -5.4238 -12.0532 6.0666 37.7018 -5.1617
# 6 -17.7209 -18.3357 -17.2971 -10.3984 -5.1617 33.7162
#
#
#
# Elastic Compliance Matrix: (Units=1/GPa)
#
#
# Indices 1 2 3 4 5 6 
#
# 1 0.015545 -0.003255 -0.001896 0.004767 0.010675 0.008532
# 2 -0.003255 0.009976 0.000706 -0.001967 0.000078 0.003482
# 3 -0.001896 0.000706 0.007626 -0.003651 0.002084 0.002493
# 4 0.004767 -0.001967 -0.003651 0.026142 -0.001156 0.007448
# 5 0.010675 0.000078 0.002084 -0.001156 0.036825 0.012003
# 6 0.008532 0.003482 0.002493 0.007448 0.012003 0.041451
#
#
# Mechanical properties :
#
#
# Convention : Reuss Voigt Hill
#
# Bulk Modulus (GPa) = 41.22455 60.46325 50.84390
# Shear Modulus (GPa) = 32.35407 43.93116 38.14262
#
# Velocity S-wave (km/s) = 3.63001 4.22990 3.94139
# Velocity P-wave (km/s) = 5.86166 6.96284 6.43585
#
# Compressibility (1/GPa) = 0.02425739
#
# Stress axis : x y z
#
# Youngs Moduli (GPa) = 64.32897 100.24173 131.13161
#
# Poissons Ratio (x) = 0.32628 0.24864
# Poissons Ratio (y) = 0.20939 -0.09263
# Poissons Ratio (z) = 0.12198 -0.07081
#
# Static dielectric constant tensor:
#      x y z
#    x 2.156020 -0.157290 0.000650 
#    y -0.157290 2.093800 0.108750 
#    z 0.000650 0.108750 2.051380 
# 
# From -- ./inp_files/363877.got.cif
#   From: 2010.05.17/outbox.cif.g08.bks.cpg/sg2_182_cif.got.tgz:363877.got - 2010.06.03 11:33:40.
