data_PCOD9060260
_publ_section_title
;
Structure prediction by ZEFSAII (Michael W. Deem and Ramdas Pophale) SiO2 
 PCOD9060260
Probable space group: P -1
;
_chemical_formula_sum "Si O2"
_cell_formula_units_Z 11
_cell_length_a 9.297218
_cell_length_b 9.735356
_cell_length_c 13.687428
_cell_angle_alpha 40.417641
_cell_angle_beta 143.412798
_cell_angle_gamma 135.843852
_cell_volume 460.353773
_symmetry_space_group_name_H-M "P -1"
_symmetry_group_IT_number 2
_symmetry_cell_setting 'triclinic'
loop_
_space_group_symop_operation_xyz
x,y,z
-x,-y,-z
loop_
_atom_site_type_symbol
_atom_site_label
_atom_site_fract_x
_atom_site_fract_y
_atom_site_fract_z
Si Si1 0.500000 0.500000 0.000000
Si Si2 0.042750 0.779638 0.095589
Si Si3 0.409099 0.842006 0.424715
Si Si4 0.377939 0.421079 0.750712
Si Si5 0.174470 0.748736 0.966335
Si Si6 0.901054 0.090378 0.601016
O O1 0.224582 0.399806 0.957110
O O2 0.362061 0.446570 0.844260
O O3 0.250269 0.730548 0.306653
O O4 0.165560 0.820813 0.034332
O O5 0.000000 0.000000 0.000000
O O6 0.488012 0.655078 0.630967
O O7 0.235781 0.936076 0.352872
O O8 0.655171 0.040933 0.424545
O O9 0.111005 0.317680 0.607834
O O10 0.554034 0.262046 0.913152
O O11 0.048099 0.912137 0.751884
O O12 0.000000 0.500000 0.000000
#
# Coordination Sequence:
#
# PCOD9060260 Si02
#       6
#     1   2   2   2   2   2
#     4  12  24  40  70 100 130 178 234 266 336 410
#     4  12  25  44  69 102 135 183 224 275 341 409
#     4  11  24  42  71  99 137 176 229 280 334 401
#     4  12  25  44  71 101 136 180 229 281 334 404
#     4  12  23  46  69 100 143 176 223 282 343 394
#     4  11  23  43  68  96 137 182 219 279 341 396
#
# _framework density 23.894666999999998
#
# number of rings (size 3 to 8) (size 9 to 14) (size 15 to 20)
#    0.000    0.364    7.273    1.091    2.545    0.727 
#    0.000    0.909    0.000    0.000    0.000    0.000 
#    0.000    0.000    0.000    0.000    0.000    0.000 
#
# Total GULP energy -61274.594613 kJ/mol
# GULP energy per Si atom -5570.417692 kJ/mol
# Density = 2.384028 g / cm^3
# Si number density = 23.894667 Si / 1000 Ang^3
#
#
#
# Elastic Constant Matrix: (Units=GPa)
#
#
# Indices 1 2 3 4 5 6 
#
# 1 84.1026 10.4130 22.6952 -3.8784 12.8183 2.3963
# 2 10.4130 109.2366 13.2890 20.4752 16.9229 16.1461
# 3 22.6952 13.2890 58.1013 10.1805 13.5072 -6.4112
# 4 -3.8784 20.4752 10.1805 44.2669 -2.8330 22.9006
# 5 12.8183 16.9229 13.5072 -2.8330 36.6034 7.6090
# 6 2.3963 16.1461 -6.4112 22.9006 7.6090 43.2118
#
#
#
# Elastic Compliance Matrix: (Units=1/GPa)
#
#
# Indices 1 2 3 4 5 6 
#
# 1 0.014238 -0.000778 -0.006479 0.005091 -0.001014 -0.003980
# 2 -0.000778 0.011091 -0.000174 -0.005257 -0.005106 -0.000442
# 3 -0.006479 -0.000174 0.026608 -0.014687 -0.011556 0.014190
# 4 0.005091 -0.005257 -0.014687 0.043264 0.014828 -0.026037
# 5 -0.001014 -0.005106 -0.011556 0.014828 0.038436 -0.014377
# 6 -0.003980 -0.000442 0.014190 -0.026037 -0.014377 0.041963
#
#
# Mechanical properties :
#
#
# Convention : Reuss Voigt Hill
#
# Bulk Modulus (GPa) = 26.97174 38.24832 32.61003
# Shear Modulus (GPa) = 24.65245 38.48598 31.56922
#
# Velocity S-wave (km/s) = 3.21551 4.01765 3.63875
# Velocity P-wave (km/s) = 5.00982 6.12893 5.59741
#
# Compressibility (1/GPa) = 0.03707584
#
# Stress axis : x y z
#
# Youngs Moduli (GPa) = 70.23635 90.15982 37.58317
#
# Poissons Ratio (x) = 0.07014 0.24350
# Poissons Ratio (y) = 0.05464 0.00652
# Poissons Ratio (z) = 0.45506 0.01564
#
# Static dielectric constant tensor:
#      x y z
#    x 1.848700 0.031290 0.054180 
#    y 0.031290 1.964940 0.006620 
#    z 0.054180 0.006620 2.004280 
# 
# From -- ./inp_files/149034.got.cif
#   From: 2010.05.17/outbox.cif.g08.bks.cpg/sg2_75_cif.got.tgz:149034.got - 2010.06.03 11:33:40.
