data_PCOD9060647
_publ_section_title
;
Structure prediction by ZEFSAII (Michael W. Deem and Ramdas Pophale) SiO2 
 PCOD9060647
Probable space group: P -1
;
_chemical_formula_sum "Si O2"
_cell_formula_units_Z 16
_cell_length_a 15.129673
_cell_length_b 21.146009
_cell_length_c 8.212047
_cell_angle_alpha 55.620177
_cell_angle_beta 122.300043
_cell_angle_gamma 159.340285
_cell_volume 764.866089
_symmetry_space_group_name_H-M "P -1"
_symmetry_group_IT_number 2
_symmetry_cell_setting 'triclinic'
loop_
_space_group_symop_operation_xyz
x,y,z
-x,-y,-z
loop_
_atom_site_type_symbol
_atom_site_label
_atom_site_fract_x
_atom_site_fract_y
_atom_site_fract_z
Si Si1 0.611788 0.655975 0.238466
Si Si2 0.908509 0.722039 0.870462
Si Si3 0.214734 0.799443 0.572788
Si Si4 0.778689 0.205505 0.029227
Si Si5 0.985878 0.061398 0.518893
Si Si6 0.905494 0.450830 0.295952
Si Si7 0.042223 0.223726 0.791207
Si Si8 0.353751 0.158513 0.174045
O O1 0.322181 0.447195 0.230550
O O2 0.739826 0.751593 0.399368
O O3 0.752395 0.677966 0.264140
O O4 0.662967 0.769336 0.028828
O O5 0.056883 0.742376 0.991415
O O6 0.063295 0.894283 0.694633
O O7 0.851919 0.705608 0.024546
O O8 0.198378 0.798980 0.751438
O O9 0.134862 0.659704 0.658941
O O10 0.044380 0.750133 0.389590
O O11 0.500000 0.000000 0.500000
O O12 0.887713 0.361878 0.870155
O O13 0.500000 0.000000 0.000000
O O14 0.783995 0.924693 0.665404
O O15 0.000000 0.000000 0.500000
O O16 0.639204 0.318698 0.230264
O O17 0.000000 0.500000 0.500000
O O18 0.803736 0.008220 0.844377
#
# Coordination Sequence:
#
# PCOD9060647 Si02
#       8
#     2   2   2   2   2   2   2   2
#     4  11  23  44  69  99 140 181 231 282 346 410
#     4  12  24  43  68 104 137 176 231 289 343 413
#     4  12  25  47  72 102 139 183 231 286 349 415
#     4  12  27  47  72 102 137 184 236 291 352 416
#     4  11  24  43  67 103 140 181 228 279 346 416
#     4  12  26  47  71 105 138 182 238 288 351 414
#     4  11  23  43  74  98 140 186 225 282 352 416
#     4  11  23  45  70  98 141 184 226 284 346 417
#
# _framework density 20.918695
#
# number of rings (size 3 to 8) (size 9 to 14) (size 15 to 20)
#    0.000    0.500    2.500    7.875    1.750    0.000 
#    2.250    0.000    0.000    0.000    0.000    0.000 
#    0.000    0.000    0.000    0.000    0.000    0.000 
#
# Total GULP energy -89481.350888 kJ/mol
# GULP energy per Si atom -5592.584431 kJ/mol
# Density = 2.087108 g / cm^3
# Si number density = 20.918695 Si / 1000 Ang^3
#
#
#
# Elastic Constant Matrix: (Units=GPa)
#
#
# Indices 1 2 3 4 5 6 
#
# 1 99.3079 30.9516 17.1559 1.8039 11.5826 -25.9025
# 2 30.9516 99.6865 10.8475 -2.7754 10.9731 -3.8175
# 3 17.1559 10.8475 100.5439 -15.3193 12.7102 -15.5370
# 4 1.8039 -2.7754 -15.3193 43.9869 -10.1103 8.1327
# 5 11.5826 10.9731 12.7102 -10.1103 48.6768 10.0712
# 6 -25.9025 -3.8175 -15.5370 8.1327 10.0712 31.7655
#
#
#
# Elastic Compliance Matrix: (Units=1/GPa)
#
#
# Indices 1 2 3 4 5 6 
#
# 1 0.016828 -0.003870 0.000375 -0.005898 -0.008078 0.017511
# 2 -0.003870 0.011344 -0.000642 0.000827 -0.000875 -0.002041
# 3 0.000375 -0.000642 0.011798 0.001865 -0.004045 0.006804
# 4 -0.005898 0.000827 0.001865 0.028489 0.009570 -0.014126
# 5 -0.008078 -0.000875 -0.004045 0.009570 0.029974 -0.020624
# 6 0.017511 -0.002041 0.006804 -0.014126 -0.020624 0.058998
#
#
# Mechanical properties :
#
#
# Convention : Reuss Voigt Hill
#
# Bulk Modulus (GPa) = 31.55118 46.38315 38.96716
# Shear Modulus (GPa) = 28.36541 40.92473 34.64507
#
# Velocity S-wave (km/s) = 3.68636 4.42789 4.07403
# Velocity P-wave (km/s) = 5.76494 6.95433 6.38738
#
# Compressibility (1/GPa) = 0.03169454
#
# Stress axis : x y z
#
# Youngs Moduli (GPa) = 59.42543 88.15159 84.75795
#
# Poissons Ratio (x) = 0.34115 -0.03175
# Poissons Ratio (y) = 0.22998 0.05445
# Poissons Ratio (z) = -0.02226 0.05663
#
# Static dielectric constant tensor:
#      x y z
#    x 1.740510 -0.009700 -0.020150 
#    y -0.009700 1.783430 0.003920 
#    z -0.020150 0.003920 1.755230 
# 
# From -- ./inp_files/319269.got.cif
#   From: 2010.05.17/outbox.cif.g08.bks.cpg/sg2_160_cif.got.tgz:319269.got - 2010.06.03 11:33:40.
