data_PCOD9060637
_publ_section_title
;
Structure prediction by ZEFSAII (Michael W. Deem and Ramdas Pophale) SiO2 
 PCOD9060637
Probable space group: P -1
;
_chemical_formula_sum "Si O2"
_cell_formula_units_Z 15
_cell_length_a 11.369939
_cell_length_b 10.822825
_cell_length_c 5.348051
_cell_angle_alpha 99.626784
_cell_angle_beta 81.377915
_cell_angle_gamma 70.981187
_cell_volume 598.484619
_symmetry_space_group_name_H-M "P -1"
_symmetry_group_IT_number 2
_symmetry_cell_setting 'triclinic'
loop_
_space_group_symop_operation_xyz
x,y,z
-x,-y,-z
loop_
_atom_site_type_symbol
_atom_site_label
_atom_site_fract_x
_atom_site_fract_y
_atom_site_fract_z
Si Si1 0.280470 0.545139 0.941230
Si Si2 0.500000 0.500000 0.500000
Si Si3 0.055191 0.575737 0.306701
Si Si4 0.543694 0.906455 0.201404
Si Si5 0.139094 0.966151 0.551099
Si Si6 0.925669 0.227716 0.225702
Si Si7 0.160091 0.213343 0.852618
Si Si8 0.617220 0.273413 0.711399
O O1 0.377578 0.472919 0.666519
O O2 0.163276 0.665181 0.900751
O O3 0.369415 0.600541 0.102521
O O4 0.194652 0.485450 0.120548
O O5 0.588429 0.339654 0.467303
O O6 0.934841 0.646226 0.185721
O O7 0.000000 0.500000 0.500000
O O8 0.085963 0.693699 0.482819
O O9 0.695383 0.824783 0.125901
O O10 0.482872 0.790776 0.187431
O O11 0.500000 0.000000 0.500000
O O12 0.500000 0.000000 0.000000
O O13 0.125071 0.893651 0.788526
O O14 0.251397 0.849944 0.344245
O O15 0.170138 0.098327 0.607865
O O16 0.000000 0.000000 0.500000
O O17 0.071359 0.187438 0.086614
#
# Coordination Sequence:
#
# PCOD9060637 Si02
#       8
#     2   1   2   2   2   2   2   2
#     4  11  24  47  73 115 140 201 260 329 392 476
#     4  12  26  48  74 106 154 200 274 322 404 470
#     4  11  25  47  76 109 156 197 260 326 407 482
#     4  12  31  51  75 112 165 216 266 328 406 488
#     4  12  21  43  76 107 142 184 250 320 384 462
#     4  11  23  43  74 108 144 186 248 323 390 467
#     4  11  26  44  72 111 147 203 251 319 401 463
#     4  12  27  48  78 107 154 207 266 325 399 485
#
# _framework density 25.063300000000002
#
# number of rings (size 3 to 8) (size 9 to 14) (size 15 to 20)
#    0.000    0.533    5.333    1.600    7.467    5.333 
#    0.000    0.000    0.000    0.000    0.000    0.000 
#    0.000    0.000    0.000    0.000    0.000    0.000 
#
# Total GULP energy -83577.963412 kJ/mol
# GULP energy per Si atom -5571.864227 kJ/mol
# Density = 2.500625 g / cm^3
# Si number density = 25.063300 Si / 1000 Ang^3
#
#
#
# Elastic Constant Matrix: (Units=GPa)
#
#
# Indices 1 2 3 4 5 6 
#
# 1 172.5386 48.7592 63.8384 8.6742 -80.6953 22.1720
# 2 48.7592 104.7147 26.8625 -5.5091 -25.8448 -1.2728
# 3 63.8384 26.8625 72.4118 -8.4332 1.7586 -32.8175
# 4 8.6742 -5.5091 -8.4332 41.2767 15.1915 -24.1740
# 5 -80.6953 -25.8448 1.7586 15.1915 -11.4814 62.7395
# 6 22.1720 -1.2728 -32.8175 -24.1740 62.7395 2.9924
#
#
#
# Elastic Compliance Matrix: (Units=1/GPa)
#
#
# Indices 1 2 3 4 5 6 
#
# 1 0.005263 -0.002478 -0.001206 0.001954 -0.002023 0.004939
# 2 -0.002478 0.011449 -0.001270 0.002098 0.001191 0.001275
# 3 -0.001206 -0.001270 0.014682 -0.000395 0.007972 -0.000930
# 4 0.001954 0.002098 -0.000395 0.021104 0.007295 -0.000386
# 5 -0.002023 0.001191 0.007972 0.007295 0.007094 0.013135
# 6 0.004939 0.001275 -0.000930 -0.000386 0.013135 0.009401
#
#
# Mechanical properties :
#
#
# Convention : Reuss Voigt Hill
#
# Bulk Modulus (GPa) = 46.53701 69.84281 58.18991
# Shear Modulus (GPa) = 58.09779 20.57121 39.33450
#
# Velocity S-wave (km/s) = 4.81983 2.86802 3.96587
# Velocity P-wave (km/s) = 7.04148 6.23654 6.65120
#
# Compressibility (1/GPa) = 0.02148827
#
# Stress axis : x y z
#
# Youngs Moduli (GPa) = 190.00958 87.34285 68.10902
#
# Poissons Ratio (x) = 0.21643 0.08211
# Poissons Ratio (y) = 0.47082 0.08647
# Poissons Ratio (z) = 0.22907 0.11089
#
# Static dielectric constant tensor:
#      x y z
#    x 2.015890 0.029240 0.026200 
#    y 0.029240 2.100970 -0.019060 
#    z 0.026200 -0.019060 2.232000 
# 
# From -- ./inp_files/67074.got.cif
#   From: 2010.05.17/outbox.cif.g08.bks.cpg/sg2_34_cif.got.tgz:67074.got - 2010.06.03 11:33:40.
