data_PCOD9060298
_publ_section_title
;
Structure prediction by ZEFSAII (Michael W. Deem and Ramdas Pophale) SiO2 
 PCOD9060298
Probable space group: P -1
;
_chemical_formula_sum "Si O2"
_cell_formula_units_Z 14
_cell_length_a 8.861226
_cell_length_b 11.585549
_cell_length_c 17.791184
_cell_angle_alpha 37.833391
_cell_angle_beta 141.813410
_cell_angle_gamma 142.157139
_cell_volume 620.089092
_symmetry_space_group_name_H-M "P -1"
_symmetry_group_IT_number 2
_symmetry_cell_setting 'triclinic'
loop_
_space_group_symop_operation_xyz
x,y,z
-x,-y,-z
loop_
_atom_site_type_symbol
_atom_site_label
_atom_site_fract_x
_atom_site_fract_y
_atom_site_fract_z
Si Si1 0.773929 0.695646 0.975566
Si Si2 0.156232 0.364033 0.715888
Si Si3 0.994379 0.197959 0.437298
Si Si4 0.288453 0.570128 0.038631
Si Si5 0.536755 0.100496 0.196508
Si Si6 0.203520 0.811518 0.471808
Si Si7 0.803229 0.348331 0.733815
O O1 0.742498 0.645572 0.901738
O O2 0.746133 0.893193 0.896049
O O3 0.500000 0.500000 0.000000
O O4 0.039422 0.682986 0.116956
O O5 0.431197 0.342211 0.850344
O O6 0.236149 0.596336 0.595495
O O7 0.957442 0.199114 0.662370
O O8 0.995055 0.361061 0.730931
O O9 0.719405 0.188537 0.296612
O O10 0.962742 0.182323 0.522291
O O11 0.215087 0.432953 0.381182
O O12 0.000000 0.000000 0.500000
O O13 0.331530 0.745211 0.901434
O O14 0.000000 0.500000 0.000000
O O15 0.473316 0.862428 0.276734
O O16 0.500000 0.000000 0.500000
#
# Coordination Sequence:
#
# PCOD9060298 Si02
#       7
#     2   2   2   2   2   2   2
#     4  10  17  38  67  93 129 165 217 271 321 390
#     4  10  21  40  69 100 132 170 225 278 327 395
#     4  11  24  43  65  92 135 176 216 272 335 399
#     4  11  23  41  64 101 145 177 209 276 351 404
#     4  11  22  41  70  98 125 174 227 279 327 391
#     4  10  22  43  67  96 128 175 226 276 328 386
#     4  11  20  40  72  99 122 168 235 275 322 394
#
# _framework density 22.577401999999999
#
# number of rings (size 3 to 8) (size 9 to 14) (size 15 to 20)
#    0.000    1.429    5.714    2.143    0.000    1.714 
#    2.571    0.714    0.000    0.000    0.000    0.000 
#    0.000    0.000    0.000    0.000    0.000    0.000 
#
# Total GULP energy -78186.630251 kJ/mol
# GULP energy per Si atom -5584.759304 kJ/mol
# Density = 2.252601 g / cm^3
# Si number density = 22.577402 Si / 1000 Ang^3
#
#
#
# Elastic Constant Matrix: (Units=GPa)
#
#
# Indices 1 2 3 4 5 6 
#
# 1 76.4981 26.4204 29.0692 -0.2867 10.3062 -6.1503
# 2 26.4204 147.5291 34.1133 0.3253 -5.4029 -14.8743
# 3 29.0692 34.1133 68.4518 17.3458 -4.0448 -7.3609
# 4 -0.2867 0.3253 17.3458 59.0089 -11.2308 0.7055
# 5 10.3062 -5.4029 -4.0448 -11.2308 20.9112 0.3041
# 6 -6.1503 -14.8743 -7.3609 0.7055 0.3041 29.5648
#
#
#
# Elastic Compliance Matrix: (Units=1/GPa)
#
#
# Indices 1 2 3 4 5 6 
#
# 1 0.018000 -0.001813 -0.007301 0.000201 -0.010660 0.001119
# 2 -0.001813 0.008251 -0.003212 0.001453 0.003142 0.002907
# 3 -0.007301 -0.003212 0.021181 -0.005536 0.003860 0.002231
# 4 0.000201 0.001453 -0.005536 0.020532 0.010250 -0.001201
# 5 -0.010660 0.003142 0.003860 0.010250 0.060147 -0.000539
# 6 0.001119 0.002907 0.002231 -0.001201 -0.000539 0.036109
#
#
# Mechanical properties :
#
#
# Convention : Reuss Voigt Hill
#
# Bulk Modulus (GPa) = 43.89903 52.40944 48.15424
# Shear Modulus (GPa) = 25.45006 35.42206 30.43606
#
# Velocity S-wave (km/s) = 3.36108 3.96525 3.67560
# Velocity P-wave (km/s) = 5.87779 6.65041 6.27600
#
# Compressibility (1/GPa) = 0.02277955
#
# Stress axis : x y z
#
# Youngs Moduli (GPa) = 55.55657 121.20223 47.21322
#
# Poissons Ratio (x) = 0.21978 0.34469
# Poissons Ratio (y) = 0.10074 0.15163
# Poissons Ratio (z) = 0.40560 0.38925
#
# Static dielectric constant tensor:
#      x y z
#    x 1.867290 -0.015260 0.035510 
#    y -0.015260 1.853410 -0.037680 
#    z 0.035510 -0.037680 1.915520 
# 
# From -- ./inp_files/559714.got.cif
#   From: 2010.05.17/outbox.cif.g08.bks.cpg/sg2_280_cif.got.tgz:559714.got - 2010.06.03 11:33:40.
