data_PCOD9060911
_publ_section_title
;
Structure prediction by ZEFSAII (Michael W. Deem and Ramdas Pophale) SiO2 
 PCOD9060911
Probable space group: P -1
;
_chemical_formula_sum "Si O2"
_cell_formula_units_Z 16
_cell_length_a 12.506950
_cell_length_b 10.571666
_cell_length_c 9.378052
_cell_angle_alpha 116.978080
_cell_angle_beta 56.375225
_cell_angle_gamma 125.574023
_cell_volume 823.810238
_symmetry_space_group_name_H-M "P -1"
_symmetry_group_IT_number 2
_symmetry_cell_setting 'triclinic'
loop_
_space_group_symop_operation_xyz
x,y,z
-x,-y,-z
loop_
_atom_site_type_symbol
_atom_site_label
_atom_site_fract_x
_atom_site_fract_y
_atom_site_fract_z
Si Si1 0.848893 0.306528 0.860980
Si Si2 0.523412 0.155480 0.970969
Si Si3 0.894926 0.055075 0.189016
Si Si4 0.617525 0.723160 0.645308
Si Si5 0.896199 0.345682 0.175044
Si Si6 0.552627 0.881897 0.322293
Si Si7 0.114165 0.963154 0.480678
Si Si8 0.378604 0.603571 0.517792
O O1 0.688491 0.279340 0.934333
O O2 0.966222 0.485000 0.839219
O O3 0.873217 0.182152 0.680073
O O4 0.864387 0.277792 0.002479
O O5 0.488681 0.119754 0.813054
O O6 0.422253 0.223789 0.149612
O O7 0.500000 0.000000 0.000000
O O8 0.723819 0.942984 0.239076
O O9 0.925379 0.068252 0.341252
O O10 0.919473 0.222922 0.194015
O O11 0.000000 0.000000 0.000000
O O12 0.737392 0.878237 0.562017
O O13 0.479541 0.661254 0.612413
O O14 0.660936 0.581340 0.562619
O O15 0.760247 0.369160 0.339745
O O16 0.468333 0.712083 0.375130
O O17 0.500000 0.000000 0.500000
O O18 0.000000 0.000000 0.500000
#
# Coordination Sequence:
#
# PCOD9060911 Si02
#       8
#     2   2   2   2   2   2   2   2
#     4  11  24  42  69 100 133 179 221 277 335 408
#     4  12  23  41  71 101 133 171 228 277 330 400
#     4  12  27  44  69 102 138 180 223 284 343 400
#     4  11  24  42  70 100 134 175 229 279 331 402
#     4  11  24  45  68  99 139 178 225 277 347 395
#     4  12  24  44  73  98 136 180 228 276 340 408
#     4  12  25  44  67  98 134 177 227 273 338 409
#     4  11  23  44  69  99 134 181 225 279 337 400
#
# _framework density 19.421948
#
# number of rings (size 3 to 8) (size 9 to 14) (size 15 to 20)
#    0.000    0.500    5.000    3.750    1.750    3.000 
#    2.250    0.000    0.000    0.000    0.000    0.000 
#    0.000    0.000    0.000    0.000    0.000    0.000 
#
# Total GULP energy -89521.714147 kJ/mol
# GULP energy per Si atom -5595.107134 kJ/mol
# Density = 1.937774 g / cm^3
# Si number density = 19.421948 Si / 1000 Ang^3
#
#
#
# Elastic Constant Matrix: (Units=GPa)
#
#
# Indices 1 2 3 4 5 6 
#
# 1 104.6489 47.6439 63.7891 -6.9418 3.0462 -13.0353
# 2 47.6439 104.2807 79.3365 0.1167 9.4351 -16.9562
# 3 63.7891 79.3365 177.5960 2.5789 8.9184 -20.8165
# 4 -6.9418 0.1167 2.5789 34.3970 -5.0876 -1.6375
# 5 3.0462 9.4351 8.9184 -5.0876 45.7736 -4.6478
# 6 -13.0353 -16.9562 -20.8165 -1.6375 -4.6478 35.1664
#
#
#
# Elastic Compliance Matrix: (Units=1/GPa)
#
#
# Indices 1 2 3 4 5 6 
#
# 1 0.013502 -0.003597 -0.003140 0.003198 0.000982 0.001690
# 2 -0.003597 0.015983 -0.005411 -0.000496 -0.001760 0.002915
# 3 -0.003140 -0.005411 0.009416 -0.001313 -0.000486 0.001675
# 4 0.003198 -0.000496 -0.001313 0.030471 0.003744 0.002082
# 5 0.000982 -0.001760 -0.000486 0.003744 0.022902 0.002429
# 6 0.001690 0.002915 0.001675 0.002082 0.002429 0.031878
#
#
# Mechanical properties :
#
#
# Convention : Reuss Voigt Hill
#
# Bulk Modulus (GPa) = 68.47400 85.34052 76.90726
# Shear Modulus (GPa) = 32.61256 36.11782 34.36519
#
# Velocity S-wave (km/s) = 4.10220 4.31703 4.21099
# Velocity P-wave (km/s) = 7.60065 8.29968 7.95784
#
# Compressibility (1/GPa) = 0.01460408
#
# Stress axis : x y z
#
# Youngs Moduli (GPa) = 74.06470 62.56535 106.20585
#
# Poissons Ratio (x) = 0.22506 0.33351
# Poissons Ratio (y) = 0.26642 0.57467
# Poissons Ratio (z) = 0.23258 0.33853
#
# Static dielectric constant tensor:
#      x y z
#    x 1.569920 -0.053150 0.053150 
#    y -0.053150 1.628720 0.045060 
#    z 0.053150 0.045060 1.628690 
# 
# From -- ./inp_files/244909.got.cif
#   From: 2010.05.17/outbox.cif.g08.bks.cpg/sg2_123_cif.got.tgz:244909.got - 2010.06.03 11:33:40.
