data_PCOD9060773
_publ_section_title
;
Structure prediction by ZEFSAII (Michael W. Deem and Ramdas Pophale) SiO2 
 PCOD9060773
Probable space group: P -1
;
_chemical_formula_sum "Si O2"
_cell_formula_units_Z 16
_cell_length_a 12.031786
_cell_length_b 8.905111
_cell_length_c 15.522749
_cell_angle_alpha 73.267327
_cell_angle_beta 26.118226
_cell_angle_gamma 79.718517
_cell_volume 688.422371
_symmetry_space_group_name_H-M "P -1"
_symmetry_group_IT_number 2
_symmetry_cell_setting 'triclinic'
loop_
_space_group_symop_operation_xyz
x,y,z
-x,-y,-z
loop_
_atom_site_type_symbol
_atom_site_label
_atom_site_fract_x
_atom_site_fract_y
_atom_site_fract_z
Si Si1 0.437977 0.335483 0.291247
Si Si2 0.986155 0.139034 0.554546
Si Si3 0.373518 0.895878 0.524083
Si Si4 0.811427 0.400960 0.514088
Si Si5 0.798916 0.934040 0.870081
Si Si6 0.845366 0.321124 0.151859
Si Si7 0.676072 0.847275 0.155401
Si Si8 0.321235 0.418894 0.058442
O O1 0.279354 0.192813 0.371550
O O2 0.217840 0.424105 0.466897
O O3 0.617755 0.289129 0.246762
O O4 0.603329 0.465836 0.093200
O O5 0.896610 0.289428 0.547496
O O6 0.000000 0.000000 0.500000
O O7 0.804217 0.068868 0.772147
O O8 0.283234 0.719067 0.658237
O O9 0.572555 0.910527 0.304523
O O10 0.104437 0.936990 0.672298
O O11 0.500000 0.000000 0.500000
O O12 0.534724 0.312028 0.689774
O O13 0.029399 0.411379 0.290078
O O14 0.672441 0.761850 0.945859
O O15 0.687848 0.947901 0.041232
O O16 0.000000 0.500000 0.000000
O O17 0.049461 0.204410 0.017274
O O18 0.500000 0.500000 0.000000
#
# Coordination Sequence:
#
# PCOD9060773 Si02
#       8
#     2   2   2   2   2   2   2   2
#     4  12  25  46  70 107 146 180 244 298 355 428
#     4  12  24  44  72 105 145 190 239 296 359 423
#     4  11  24  46  72  99 144 188 236 298 359 430
#     4  12  24  43  74 102 140 193 234 293 363 418
#     4  11  23  44  67 103 144 191 237 296 352 431
#     4  11  24  43  71 105 140 183 238 301 350 427
#     4  11  24  45  75 101 144 191 237 294 370 416
#     4  12  23  43  72 101 145 187 231 289 355 426
#
# _framework density 23.241547000000001
#
# number of rings (size 3 to 8) (size 9 to 14) (size 15 to 20)
#    0.000    0.500    6.250    1.875    0.000    4.000 
#    0.000    3.750    0.000    0.000    0.000    0.000 
#    0.000    0.000    0.000    0.000    0.000    0.000 
#
# Total GULP energy -89572.159259 kJ/mol
# GULP energy per Si atom -5598.259954 kJ/mol
# Density = 2.318865 g / cm^3
# Si number density = 23.241547 Si / 1000 Ang^3
#
#
#
# Elastic Constant Matrix: (Units=GPa)
#
#
# Indices 1 2 3 4 5 6 
#
# 1 119.6969 50.6062 31.3935 14.4330 -13.2335 16.2267
# 2 50.6062 64.5023 40.4230 0.4015 2.0774 9.5523
# 3 31.3935 40.4230 142.0797 9.4365 24.0500 3.7740
# 4 14.4330 0.4015 9.4365 40.9292 6.2847 -0.3618
# 5 -13.2335 2.0774 24.0500 6.2847 53.8862 -2.1975
# 6 16.2267 9.5523 3.7740 -0.3618 -2.1975 34.3940
#
#
#
# Elastic Compliance Matrix: (Units=1/GPa)
#
#
# Indices 1 2 3 4 5 6 
#
# 1 0.014811 -0.010875 -0.000512 -0.005769 0.004808 -0.003664
# 2 -0.010875 0.027790 -0.005451 0.005106 -0.001989 -0.002062
# 3 -0.000512 -0.005451 0.009449 -0.001333 -0.003959 0.000452
# 4 -0.005769 0.005106 -0.001333 0.027374 -0.004151 0.001472
# 5 0.004808 -0.001989 -0.003959 -0.004151 0.022070 0.000085
# 6 -0.003664 -0.002062 0.000452 0.001472 0.000085 0.031348
#
#
# Mechanical properties :
#
#
# Convention : Reuss Voigt Hill
#
# Bulk Modulus (GPa) = 54.42908 63.45825 58.94367
# Shear Modulus (GPa) = 28.96171 39.43228 34.19700
#
# Velocity S-wave (km/s) = 3.53387 4.12348 3.84001
# Velocity P-wave (km/s) = 6.33409 7.07346 6.71396
#
# Compressibility (1/GPa) = 0.01837253
#
# Stress axis : x y z
#
# Youngs Moduli (GPa) = 67.51933 35.98460 105.83227
#
# Poissons Ratio (x) = 0.39135 0.05416
# Poissons Ratio (y) = 0.73430 0.57691
# Poissons Ratio (z) = 0.03455 0.19616
#
# Static dielectric constant tensor:
#      x y z
#    x 1.895430 0.004250 0.011180 
#    y 0.004250 1.899660 -0.010670 
#    z 0.011180 -0.010670 1.866300 
# 
# From -- ./inp_files/515292.got.cif
#   From: 2010.05.17/outbox.cif.g08.bks.cpg/sg2_258_cif.got.tgz:515292.got - 2010.06.03 11:33:40.
