data_PCOD9060017
_publ_section_title
;
Structure prediction by ZEFSAII (Michael W. Deem and Ramdas Pophale) SiO2 
 PCOD9060017
Probable space group: P -1
;
_chemical_formula_sum "Si O2"
_cell_formula_units_Z 16
_cell_length_a 9.691294
_cell_length_b 13.785692
_cell_length_c 8.088392
_cell_angle_alpha 42.575780
_cell_angle_beta 106.686796
_cell_angle_gamma 93.294466
_cell_volume 680.266969
_symmetry_space_group_name_H-M "P -1"
_symmetry_group_IT_number 2
_symmetry_cell_setting 'triclinic'
loop_
_space_group_symop_operation_xyz
x,y,z
-x,-y,-z
loop_
_atom_site_type_symbol
_atom_site_label
_atom_site_fract_x
_atom_site_fract_y
_atom_site_fract_z
Si Si1 0.760681 0.125530 0.860338
Si Si2 0.544579 0.714888 0.615677
Si Si3 0.564533 0.724590 0.000187
Si Si4 0.310228 0.584856 0.145652
Si Si5 0.965575 0.830005 0.256537
Si Si6 0.646246 0.004645 0.305079
Si Si7 0.146222 0.430431 0.538685
Si Si8 0.876197 0.102355 0.443719
O O1 0.617591 0.228264 0.594843
O O2 0.904642 0.194911 0.806307
O O3 0.714394 0.081068 0.081599
O O4 0.827304 0.965842 0.999511
O O5 0.529157 0.708542 0.815975
O O6 0.634208 0.558442 0.771972
O O7 0.631598 0.843579 0.454296
O O8 0.512803 0.891542 0.836012
O O9 0.459891 0.637285 0.172067
O O10 0.733008 0.656066 0.182908
O O11 0.224397 0.535540 0.330164
O O12 0.200641 0.729816 0.848186
O O13 0.903060 0.688657 0.445925
O O14 0.045074 0.877187 0.384848
O O15 0.744512 0.017160 0.484673
O O16 0.000000 0.500000 0.500000
O O17 0.000000 0.000000 0.500000
#
# Coordination Sequence:
#
# PCOD9060017 Si02
#       8
#     2   2   2   2   2   2   2   2
#     4  11  23  42  73 106 150 196 240 308 369 441
#     4  12  25  45  78 108 148 191 262 309 367 433
#     4  11  26  48  73 106 152 195 253 306 375 443
#     4  11  27  47  78 105 147 200 247 310 373 444
#     4  11  26  45  70 107 155 195 246 302 380 438
#     4  11  23  44  76 107 145 198 254 307 362 442
#     4  12  29  46  73 110 151 195 249 308 373 447
#     4  11  25  48  73 106 148 195 244 300 377 443
#
# _framework density 23.520178000000001
#
# number of rings (size 3 to 8) (size 9 to 14) (size 15 to 20)
#    0.000    0.750    1.250    5.250    7.000    3.500 
#    0.000    0.000    0.000    0.000    0.000    0.000 
#    0.000    0.000    0.000    0.000    0.000    0.000 
#
# Total GULP energy -89507.027883 kJ/mol
# GULP energy per Si atom -5594.189243 kJ/mol
# Density = 2.346664 g / cm^3
# Si number density = 23.520178 Si / 1000 Ang^3
#
#
#
# Elastic Constant Matrix: (Units=GPa)
#
#
# Indices 1 2 3 4 5 6 
#
# 1 141.5135 45.1329 58.8678 -3.7992 19.2159 -15.0879
# 2 45.1329 108.1248 42.8418 -20.9644 14.3450 -9.4649
# 3 58.8678 42.8418 78.8612 -10.5384 27.4701 -5.9515
# 4 -3.7992 -20.9644 -10.5384 40.6843 -5.7027 6.8489
# 5 19.2159 14.3450 27.4701 -5.7027 47.0485 -4.8091
# 6 -15.0879 -9.4649 -5.9515 6.8489 -4.8091 39.7653
#
#
#
# Elastic Compliance Matrix: (Units=1/GPa)
#
#
# Indices 1 2 3 4 5 6 
#
# 1 0.010938 -0.001883 -0.007375 -0.002311 0.000445 0.003050
# 2 -0.001883 0.013067 -0.005108 0.005167 0.000475 0.000799
# 3 -0.007375 -0.005108 0.024447 0.001972 -0.009656 -0.001863
# 4 -0.002311 0.005167 0.001972 0.028400 0.001241 -0.004093
# 5 0.000445 0.000475 -0.009656 0.001241 0.026908 0.001877
# 6 0.003050 0.000799 -0.001863 -0.004093 0.001877 0.027148
#
#
# Mechanical properties :
#
#
# Convention : Reuss Voigt Hill
#
# Bulk Modulus (GPa) = 50.71133 69.13159 59.92146
# Shear Modulus (GPa) = 30.08174 37.61009 33.84592
#
# Velocity S-wave (km/s) = 3.58016 4.00316 3.79755
# Velocity P-wave (km/s) = 6.22074 7.12905 6.69033
#
# Compressibility (1/GPa) = 0.01971946
#
# Stress axis : x y z
#
# Youngs Moduli (GPa) = 91.42567 76.52748 40.90478
#
# Poissons Ratio (x) = 0.14413 0.30168
# Poissons Ratio (y) = 0.17219 0.20893
# Poissons Ratio (z) = 0.67428 0.39088
#
# Static dielectric constant tensor:
#      x y z
#    x 1.912030 -0.015660 -0.023270 
#    y -0.015660 1.894470 -0.000890 
#    z -0.023270 -0.000890 1.923320 
# 
# From -- ./inp_files/205391.got.cif
#   From: 2010.05.17/outbox.cif.g08.bks.cpg/sg2_103_cif.got.tgz:205391.got - 2010.06.03 11:33:40.
