data_PCOD9060714
_publ_section_title
;
Structure prediction by ZEFSAII (Michael W. Deem and Ramdas Pophale) SiO2 
 PCOD9060714
Probable space group: P -1
;
_chemical_formula_sum "Si O2"
_cell_formula_units_Z 14
_cell_length_a 16.403798
_cell_length_b 31.934502
_cell_length_c 26.181580
_cell_angle_alpha 170.255963
_cell_angle_beta 162.993815
_cell_angle_gamma 17.959813
_cell_volume 668.103574
_symmetry_space_group_name_H-M "P -1"
_symmetry_group_IT_number 2
_symmetry_cell_setting 'triclinic'
loop_
_space_group_symop_operation_xyz
x,y,z
-x,-y,-z
loop_
_atom_site_type_symbol
_atom_site_label
_atom_site_fract_x
_atom_site_fract_y
_atom_site_fract_z
Si Si1 0.222248 0.240221 0.316277
Si Si2 0.694930 0.683676 0.279086
Si Si3 0.010345 0.749385 0.339128
Si Si4 0.008718 0.231229 0.342515
Si Si5 0.661347 0.738889 0.707460
Si Si6 0.543706 0.187976 0.544299
Si Si7 0.888162 0.928493 0.591413
O O1 0.305364 0.214622 0.276688
O O2 0.482368 0.238736 0.509017
O O3 0.000000 0.500000 0.500000
O O4 0.089673 0.003565 0.971474
O O5 0.862860 0.628607 0.365690
O O6 0.418250 0.890267 0.374507
O O7 0.880956 0.780756 0.462765
O O8 0.594163 0.441999 0.905935
O O9 0.330681 0.798409 0.592862
O O10 0.800950 0.970561 0.450809
O O11 0.912527 0.758131 0.350415
O O12 0.000000 0.500000 0.000000
O O13 0.254601 0.134773 0.333198
O O14 0.774398 0.443529 0.431872
O O15 0.862556 0.906426 0.057708
#
# Coordination Sequence:
#
# PCOD9060714 Si02
#       7
#     2   2   2   2   2   2   2
#     4  12  26  42  72 110 143 184 241 303 353 418
#     4  11  23  43  80 110 134 183 251 304 345 411
#     4  12  29  47  71 103 151 195 231 290 369 436
#     4  12  23  46  75 105 138 185 249 293 356 416
#     4  12  26  48  72 104 146 191 238 294 360 423
#     4  12  25  45  74 105 146 187 239 302 353 425
#     4  11  23  47  74 108 144 184 240 301 355 419
#
# _framework density 20.954834999999999
#
# number of rings (size 3 to 8) (size 9 to 14) (size 15 to 20)
#    0.000    0.286    5.714    3.000    6.000    0.571 
#    2.571    1.429    0.000    0.000    0.000    0.000 
#    0.000    0.000    0.000    0.000    0.000    0.000 
#
# Total GULP energy -78342.142514 kJ/mol
# GULP energy per Si atom -5595.867322 kJ/mol
# Density = 2.090714 g / cm^3
# Si number density = 20.954835 Si / 1000 Ang^3
#
#
#
# Elastic Constant Matrix: (Units=GPa)
#
#
# Indices 1 2 3 4 5 6 
#
# 1 123.8296 51.6551 48.5850 7.6051 -14.7210 14.2844
# 2 51.6551 122.8244 8.2498 3.1761 7.1850 3.9918
# 3 48.5850 8.2498 75.2595 -2.0605 -2.1427 -8.1658
# 4 7.6051 3.1761 -2.0605 27.6163 6.5256 -3.4222
# 5 -14.7210 7.1850 -2.1427 6.5256 42.6066 -2.3447
# 6 14.2844 3.9918 -8.1658 -3.4222 -2.3447 38.8058
#
#
#
# Elastic Compliance Matrix: (Units=1/GPa)
#
#
# Indices 1 2 3 4 5 6 
#
# 1 0.017777 -0.006645 -0.011680 -0.007812 0.007401 -0.008560
# 2 -0.006645 0.010846 0.003249 0.002051 -0.004168 0.001943
# 3 -0.011680 0.003249 0.021491 0.006487 -0.004011 0.008817
# 4 -0.007812 0.002051 0.006487 0.041551 -0.008688 0.007169
# 5 0.007401 -0.004168 -0.004011 -0.008688 0.027737 -0.002230
# 6 -0.008560 0.001943 0.008817 0.007169 -0.002230 0.031073
#
#
# Mechanical properties :
#
#
# Convention : Reuss Voigt Hill
#
# Bulk Modulus (GPa) = 50.09251 59.87706 54.98478
# Shear Modulus (GPa) = 26.69792 36.03398 31.36595
#
# Velocity S-wave (km/s) = 3.57328 4.15131 3.87309
# Velocity P-wave (km/s) = 6.40167 7.18430 6.80425
#
# Compressibility (1/GPa) = 0.01996307
#
# Stress axis : x y z
#
# Youngs Moduli (GPa) = 56.25254 92.20343 46.53024
#
# Poissons Ratio (x) = 0.61265 0.54346
# Poissons Ratio (y) = 0.37377 -0.15117
# Poissons Ratio (z) = 0.65702 -0.29956
#
# Static dielectric constant tensor:
#      x y z
#    x 1.750720 0.006300 -0.000260 
#    y 0.006300 1.658280 -0.009130 
#    z -0.000260 -0.009130 1.774800 
# 
# From -- ./inp_files/238750.got.cif
#   From: 2010.05.17/outbox.cif.g08.bks.cpg/sg2_120_cif.got.tgz:238750.got - 2010.06.03 11:33:40.
