data_PCOD9060084
_publ_section_title
;
Structure prediction by ZEFSAII (Michael W. Deem and Ramdas Pophale) SiO2 
 PCOD9060084
Probable space group: P -1
;
_chemical_formula_sum "Si O2"
_cell_formula_units_Z 12
_cell_length_a 8.665053
_cell_length_b 16.983605
_cell_length_c 5.473067
_cell_angle_alpha 108.430634
_cell_angle_beta 75.427914
_cell_angle_gamma 50.505059
_cell_volume 463.426227
_symmetry_space_group_name_H-M "P -1"
_symmetry_group_IT_number 2
_symmetry_cell_setting 'triclinic'
loop_
_space_group_symop_operation_xyz
x,y,z
-x,-y,-z
loop_
_atom_site_type_symbol
_atom_site_label
_atom_site_fract_x
_atom_site_fract_y
_atom_site_fract_z
Si Si1 0.830696 0.514046 0.261678
Si Si2 0.301150 0.709585 0.441213
Si Si3 0.039057 0.806767 0.144705
Si Si4 0.391695 0.109927 0.339548
Si Si5 0.255169 0.919458 0.530067
Si Si6 0.258973 0.291240 0.204481
O O1 0.593914 0.575698 0.265880
O O2 0.729013 0.619868 0.610613
O O3 0.030152 0.375704 0.186419
O O4 0.000000 0.500000 0.000000
O O5 0.219295 0.710728 0.208258
O O6 0.250371 0.829676 0.555602
O O7 0.143573 0.744574 0.774910
O O8 0.010010 0.072966 0.702673
O O9 0.772381 0.870343 0.372407
O O10 0.623170 0.071052 0.301775
O O11 0.216670 0.245854 0.397602
O O12 0.500000 0.000000 0.000000
O O13 0.471963 0.834234 0.152458
#
# Coordination Sequence:
#
# PCOD9060084 Si02
#       6
#     2   2   2   2   2   2
#     4  11  23  45  74 103 136 189 258 299 334 431
#     4  12  26  46  71 109 144 192 237 306 365 413
#     4  12  28  43  70 111 158 179 230 306 379 424
#     4  12  25  45  72 106 149 194 237 286 362 447
#     4  12  24  45  74 105 142 196 246 289 351 443
#     4  11  23  42  77 103 134 186 260 290 342 414
#
# _framework density 25.894091
#
# number of rings (size 3 to 8) (size 9 to 14) (size 15 to 20)
#    0.000    0.333    5.000    3.500    4.667    0.000 
#    0.000    1.667    0.000    0.000    0.000    0.000 
#    0.000    0.000    0.000    0.000    0.000    0.000 
#
# Total GULP energy -67317.964670 kJ/mol
# GULP energy per Si atom -5609.830389 kJ/mol
# Density = 2.583516 g / cm^3
# Si number density = 25.894091 Si / 1000 Ang^3
#
#
#
# Elastic Constant Matrix: (Units=GPa)
#
#
# Indices 1 2 3 4 5 6 
#
# 1 78.9544 27.0317 10.7346 -10.8183 -5.3535 -15.7316
# 2 27.0317 144.7403 16.3533 -24.2590 -16.0641 -30.2539
# 3 10.7346 16.3533 105.2213 -19.4639 -9.5402 -1.2739
# 4 -10.8183 -24.2590 -19.4639 44.6376 3.5972 -2.5168
# 5 -5.3535 -16.0641 -9.5402 3.5972 41.2730 0.1468
# 6 -15.7316 -30.2539 -1.2739 -2.5168 0.1468 59.4187
#
#
#
# Elastic Compliance Matrix: (Units=1/GPa)
#
#
# Indices 1 2 3 4 5 6 
#
# 1 0.014271 -0.001410 -0.000650 0.002512 0.000922 0.003151
# 2 -0.001410 0.009237 -0.000109 0.004646 0.002966 0.004517
# 3 -0.000650 -0.000109 0.010549 0.004236 0.001942 0.000173
# 4 0.002512 0.004646 0.004236 0.027570 0.000695 0.004288
# 5 0.000922 0.002966 0.001942 0.000695 0.025885 0.001761
# 6 0.003151 0.004517 0.000173 0.004288 0.001761 0.020145
#
#
# Mechanical properties :
#
#
# Convention : Reuss Voigt Hill
#
# Bulk Modulus (GPa) = 33.64857 48.57280 41.11069
# Shear Modulus (GPa) = 41.01735 47.38563 44.20149
#
# Velocity S-wave (km/s) = 3.98432 4.28247 4.13608
# Velocity P-wave (km/s) = 5.84716 6.57660 6.22258
#
# Compressibility (1/GPa) = 0.02971894
#
# Stress axis : x y z
#
# Youngs Moduli (GPa) = 70.07127 108.26568 94.79733
#
# Poissons Ratio (x) = 0.15264 0.06165
# Poissons Ratio (y) = 0.09879 0.01030
# Poissons Ratio (z) = 0.04557 0.01176
#
# Static dielectric constant tensor:
#      x y z
#    x 2.085710 -0.015920 0.045500 
#    y -0.015920 2.058880 0.012130 
#    z 0.045500 0.012130 1.985100 
# 
# From -- ./inp_files/40324.got.cif
#   From: 2010.05.17/outbox.cif.g08.bks.cpg/sg2_21_cif.got.tgz:40324.got - 2010.06.03 11:33:40.
