data_PCOD9060755
_publ_section_title
;
Structure prediction by ZEFSAII (Michael W. Deem and Ramdas Pophale) SiO2 
 PCOD9060755
Probable space group: P -1
;
_chemical_formula_sum "Si O2"
_cell_formula_units_Z 10
_cell_length_a 5.253349
_cell_length_b 7.513981
_cell_length_c 20.421104
_cell_angle_alpha 39.207698
_cell_angle_beta 84.757470
_cell_angle_gamma 71.032292
_cell_volume 464.201642
_symmetry_space_group_name_H-M "P -1"
_symmetry_group_IT_number 2
_symmetry_cell_setting 'triclinic'
loop_
_space_group_symop_operation_xyz
x,y,z
-x,-y,-z
loop_
_atom_site_type_symbol
_atom_site_label
_atom_site_fract_x
_atom_site_fract_y
_atom_site_fract_z
Si Si1 0.929256 0.853210 0.314641
Si Si2 0.036223 0.286957 0.947214
Si Si3 0.696750 0.878144 0.702047
Si Si4 0.815507 0.805691 0.570617
Si Si5 0.221786 0.578591 0.941232
O O1 0.045608 0.511841 0.381070
O O2 0.634504 0.951268 0.330444
O O3 0.877344 0.091333 0.187576
O O4 0.155401 0.898254 0.343588
O O5 0.820796 0.588994 0.830713
O O6 0.312784 0.354093 0.934957
O O7 0.993252 0.323931 0.016475
O O8 0.000000 0.000000 0.000000
O O9 0.793961 0.752500 0.663429
O O10 0.500000 0.000000 0.500000
O O11 0.000000 0.000000 0.500000
O O12 0.500000 0.500000 0.000000
#
# Coordination Sequence:
#
# PCOD9060755 Si02
#       5
#     2   2   2   2   2
#     4  11  23  44  66  95 134 163 210 269 309 387
#     4   8  15  33  57  87 125 160 202 247 298 375
#     4  11  24  41  68  94 126 173 213 255 330 375
#     4  12  27  45  67  95 124 167 220 271 323 372
#     4   7  17  33  57  91 124 162 197 242 313 366
#
# _framework density 21.542363999999999
#
# number of rings (size 3 to 8) (size 9 to 14) (size 15 to 20)
#    1.200    0.800    0.000    3.600    0.000    5.600 
#    0.000    4.000    0.000    0.000    0.000    0.000 
#    0.000    0.000    0.000    0.000    0.000    0.000 
#
# Total GULP energy -55670.162855 kJ/mol
# GULP energy per Si atom -5567.016285 kJ/mol
# Density = 2.149333 g / cm^3
# Si number density = 21.542364 Si / 1000 Ang^3
#
#
#
# Elastic Constant Matrix: (Units=GPa)
#
#
# Indices 1 2 3 4 5 6 
#
# 1 764.4674 -497.6550 -420.0197 -461.7709 -30.1334 -18.0223
# 2 -497.6550 603.8805 379.1808 327.7332 -2.2776 59.5952
# 3 -420.0197 379.1808 316.7129 272.5635 9.6440 31.1213
# 4 -461.7709 327.7332 272.5635 346.4721 15.7043 5.4775
# 5 -30.1334 -2.2776 9.6440 15.7043 15.4102 2.6192
# 6 -18.0223 59.5952 31.1213 5.4775 2.6192 47.7556
#
#
#
# Elastic Compliance Matrix: (Units=1/GPa)
#
#
# Indices 1 2 3 4 5 6 
#
# 1 0.009245 0.000600 0.005111 0.007412 0.007731 -0.001865
# 2 0.000600 0.008348 -0.007897 -0.001231 0.009526 -0.005427
# 3 0.005111 -0.007897 0.022590 -0.003385 -0.001441 -0.002471
# 4 0.007412 -0.001231 -0.003385 0.016575 -0.001261 0.004707
# 5 0.007731 0.009526 -0.001441 -0.001261 0.085743 -0.012589
# 6 -0.001865 -0.005427 -0.002471 0.004707 -0.012589 0.028769
#
#
# Mechanical properties :
#
#
# Convention : Reuss Voigt Hill
#
# Bulk Modulus (GPa) = 27.92465 67.56366 47.74416
# Shear Modulus (GPa) = 26.65552 230.16458 128.41005
#
# Velocity S-wave (km/s) = 3.52142 10.34769 7.72901
# Velocity P-wave (km/s) = 5.43366 13.19839 10.09263
#
# Compressibility (1/GPa) = 0.03581065
#
# Stress axis : x y z
#
# Youngs Moduli (GPa) = 108.17052 119.78489 44.26783
#
# Poissons Ratio (x) = -0.07184 -0.22625
# Poissons Ratio (y) = -0.06488 0.34958
# Poissons Ratio (z) = -0.55286 0.94592
#
# Static dielectric constant tensor:
#      x y z
#    x 2.480680 0.121570 0.013470 
#    y 0.121570 1.783330 0.014490 
#    z 0.013470 0.014490 1.742050 
# 
# From -- ./inp_files/2256.got.cif
#   From: 2010.05.17/outbox.cif.g08.bks.cpg/sg2_2_cif.got.tgz:2256.got - 2010.06.03 11:33:40.
