data_PCOD9060047
_publ_section_title
;
Structure prediction by ZEFSAII (Michael W. Deem and Ramdas Pophale) SiO2 
 PCOD9060047
Probable space group: P -1
;
_chemical_formula_sum "Si O2"
_cell_formula_units_Z 11
_cell_length_a 7.744731
_cell_length_b 8.193578
_cell_length_c 12.263598
_cell_angle_alpha 116.787337
_cell_angle_beta 38.565775
_cell_angle_gamma 98.474422
_cell_volume 402.624756
_symmetry_space_group_name_H-M "P -1"
_symmetry_group_IT_number 2
_symmetry_cell_setting 'triclinic'
loop_
_space_group_symop_operation_xyz
x,y,z
-x,-y,-z
loop_
_atom_site_type_symbol
_atom_site_label
_atom_site_fract_x
_atom_site_fract_y
_atom_site_fract_z
Si Si1 0.582262 0.118484 0.724757
Si Si2 0.576844 0.716972 0.591947
Si Si3 0.500000 0.500000 0.000000
Si Si4 0.153612 0.919710 0.659694
Si Si5 0.114895 0.389027 0.298034
Si Si6 0.051054 0.691879 0.988924
O O1 0.699688 0.110758 0.540832
O O2 0.222406 0.212265 0.931233
O O3 0.660042 0.894726 0.654187
O O4 0.666626 0.273617 0.798668
O O5 0.403220 0.801539 0.590936
O O6 0.874101 0.527481 0.371018
O O7 0.354348 0.666380 0.768791
O O8 0.421199 0.405015 0.119866
O O9 0.908029 0.821211 0.754530
O O10 0.023213 0.142920 0.831096
O O11 0.000000 0.500000 0.500000
O O12 0.000000 0.500000 0.000000
#
# Coordination Sequence:
#
# PCOD9060047 Si02
#       6
#     2   2   1   2   2   2
#     4  11  24  45  70 111 141 193 239 299 355 437
#     4  11  24  45  74 104 142 188 246 297 361 418
#     4  12  26  46  72  94 158 186 240 286 372 418
#     4  11  23  47  74 107 146 182 248 300 351 431
#     4  12  26  49  70 109 146 193 241 294 361 435
#     4  11  23  42  74 108 139 187 242 298 361 417
#
# _framework density 27.320724999999999
#
# number of rings (size 3 to 8) (size 9 to 14) (size 15 to 20)
#    0.000    0.727    1.818    8.182    0.000    5.091 
#    3.273    1.818    0.000    0.000    0.000    0.000 
#    0.000    0.000    0.000    0.000    0.000    0.000 
#
# Total GULP energy -61519.288449 kJ/mol
# GULP energy per Si atom -5592.662586 kJ/mol
# Density = 2.725854 g / cm^3
# Si number density = 27.320725 Si / 1000 Ang^3
#
#
#
# Elastic Constant Matrix: (Units=GPa)
#
#
# Indices 1 2 3 4 5 6 
#
# 1 73.3894 26.7308 36.8311 1.9449 10.2501 -16.1149
# 2 26.7308 220.9104 56.7972 21.3141 38.2153 36.7428
# 3 36.8311 56.7972 135.1439 6.1439 53.0215 2.1307
# 4 1.9449 21.3141 6.1439 59.9824 -10.2187 4.2970
# 5 10.2501 38.2153 53.0215 -10.2187 34.4635 7.2023
# 6 -16.1149 36.7428 2.1307 4.2970 7.2023 37.6830
#
#
#
# Elastic Compliance Matrix: (Units=1/GPa)
#
#
# Indices 1 2 3 4 5 6 
#
# 1 0.019885 -0.003925 -0.006881 0.001896 0.007264 0.011115
# 2 -0.003925 0.007862 0.002461 -0.004334 -0.011190 -0.006851
# 3 -0.006881 0.002461 0.026650 -0.011400 -0.045729 0.003192
# 4 0.001896 -0.004334 -0.011400 0.024568 0.029648 -0.002787
# 5 0.007264 -0.011190 -0.045729 0.029648 0.120457 -0.009801
# 6 0.011115 -0.006851 0.003192 -0.002787 -0.009801 0.039981
#
#
# Mechanical properties :
#
#
# Convention : Reuss Voigt Hill
#
# Bulk Modulus (GPa) = 26.52090 74.46243 50.49167
# Shear Modulus (GPa) = 18.61064 47.03144 32.82104
#
# Velocity S-wave (km/s) = 2.61280 4.15354 3.46977
# Velocity P-wave (km/s) = 4.33942 7.09342 5.87993
#
# Compressibility (1/GPa) = 0.03770611
#
# Stress axis : x y z
#
# Youngs Moduli (GPa) = 50.28955 127.18647 37.52376
#
# Poissons Ratio (x) = 0.49924 0.25819
# Poissons Ratio (y) = 0.19740 -0.09233
# Poissons Ratio (z) = 0.34603 -0.31296
#
# Static dielectric constant tensor:
#      x y z
#    x 2.359000 0.045010 -0.063990 
#    y 0.045010 2.160670 -0.037770 
#    z -0.063990 -0.037770 2.215400 
# 
# From -- ./inp_files/377015.got.cif
#   From: 2010.05.17/outbox.cif.g08.bks.cpg/sg2_189_cif.got.tgz:377015.got - 2010.06.03 11:33:40.
