data_PCOD9060633
_publ_section_title
;
Structure prediction by ZEFSAII (Michael W. Deem and Ramdas Pophale) SiO2 
 PCOD9060633
Probable space group: P -1
;
_chemical_formula_sum "Si O2"
_cell_formula_units_Z 14
_cell_length_a 9.353616
_cell_length_b 10.183336
_cell_length_c 7.906945
_cell_angle_alpha 52.033083
_cell_angle_beta 64.212317
_cell_angle_gamma 76.909590
_cell_volume 533.724043
_symmetry_space_group_name_H-M "P -1"
_symmetry_group_IT_number 2
_symmetry_cell_setting 'triclinic'
loop_
_space_group_symop_operation_xyz
x,y,z
-x,-y,-z
loop_
_atom_site_type_symbol
_atom_site_label
_atom_site_fract_x
_atom_site_fract_y
_atom_site_fract_z
Si Si1 0.703521 0.350236 0.178898
Si Si2 0.679881 0.004505 0.344335
Si Si3 0.410896 0.360199 0.827609
Si Si4 0.178293 0.068612 0.311709
Si Si5 0.738156 0.244240 0.626450
Si Si6 0.049824 0.494844 0.274832
Si Si7 0.222107 0.323705 0.617109
O O1 0.571955 0.483481 0.175287
O O2 0.702317 0.261963 0.430722
O O3 0.709125 0.205395 0.149864
O O4 0.863752 0.463033 0.976816
O O5 0.761266 0.945019 0.518361
O O6 0.721916 0.860747 0.305131
O O7 0.500000 0.000000 0.500000
O O8 0.578785 0.278296 0.783360
O O9 0.341384 0.400025 0.642412
O O10 0.267105 0.239669 0.068843
O O11 0.227024 0.947723 0.230209
O O12 0.000000 0.000000 0.500000
O O13 0.903333 0.355869 0.473393
O O14 0.189344 0.432372 0.376773
O O15 0.956791 0.662096 0.230391
#
# Coordination Sequence:
#
# PCOD9060633 Si02
#       7
#     2   2   2   2   2   2   2
#     4  11  24  45  75 101 138 197 231 288 353 434
#     4  11  26  48  71 106 149 182 237 294 366 419
#     4  12  25  46  77 103 144 187 244 292 352 424
#     4  11  25  47  75 104 145 192 238 287 358 437
#     4  11  23  43  74 107 139 186 243 295 348 425
#     4  11  25  47  74 104 147 185 245 291 359 419
#     4  11  25  46  70 107 145 183 240 299 354 421
#
# _framework density 26.230782000000001
#
# number of rings (size 3 to 8) (size 9 to 14) (size 15 to 20)
#    0.000    0.857    1.429    5.571    6.000    0.571 
#   10.286    3.571    0.000    0.000    0.000    0.000 
#    0.000    0.000    0.000    0.000    0.000    0.000 
#
# Total GULP energy -77997.251327 kJ/mol
# GULP energy per Si atom -5571.232238 kJ/mol
# Density = 2.617108 g / cm^3
# Si number density = 26.230782 Si / 1000 Ang^3
#
#
#
# Elastic Constant Matrix: (Units=GPa)
#
#
# Indices 1 2 3 4 5 6 
#
# 1 125.9303 18.2036 21.5169 1.2872 -12.0489 -2.8169
# 2 18.2036 243.2602 28.9474 -3.6968 -22.2913 -10.1208
# 3 21.5169 28.9474 91.0070 -1.4989 -22.2330 -8.5620
# 4 1.2872 -3.6968 -1.4989 28.7592 5.2948 -12.6285
# 5 -12.0489 -22.2913 -22.2330 5.2948 31.1208 6.1399
# 6 -2.8169 -10.1208 -8.5620 -12.6285 6.1399 31.9562
#
#
#
# Elastic Compliance Matrix: (Units=1/GPa)
#
#
# Indices 1 2 3 4 5 6 
#
# 1 0.008450 -0.000292 -0.001401 -0.001224 0.002401 -0.000668
# 2 -0.000292 0.004476 -0.000688 0.000559 0.002312 0.000984
# 3 -0.001401 -0.000688 0.013768 -0.000145 0.008498 0.001657
# 4 -0.001224 0.000559 -0.000145 0.046161 -0.012095 0.020596
# 5 0.002401 0.002312 0.008498 -0.012095 0.044856 -0.010177
# 6 -0.000668 0.000984 0.001657 0.020596 -0.010177 0.042084
#
#
# Mechanical properties :
#
#
# Convention : Reuss Voigt Hill
#
# Bulk Modulus (GPa) = 45.59706 66.39256 55.99481
# Shear Modulus (GPa) = 29.09209 44.46921 36.78065
#
# Velocity S-wave (km/s) = 3.33390 4.12188 3.74865
# Velocity P-wave (km/s) = 5.67808 6.92958 6.33481
#
# Compressibility (1/GPa) = 0.02193124
#
# Stress axis : x y z
#
# Youngs Moduli (GPa) = 118.34501 223.42090 72.63222
#
# Poissons Ratio (x) = 0.06522 0.10178
# Poissons Ratio (y) = 0.03455 0.04997
# Poissons Ratio (z) = 0.16584 0.15371
#
# Static dielectric constant tensor:
#      x y z
#    x 2.090370 0.036350 0.002050 
#    y 0.036350 2.284140 -0.144160 
#    z 0.002050 -0.144160 2.163290 
# 
# From -- ./inp_files/183954.got.cif
#   From: 2010.05.17/outbox.cif.g08.bks.cpg/sg2_92_cif.got.tgz:183954.got - 2010.06.03 11:33:40.
