data_PCOD9060786
_publ_section_title
;
Structure prediction by ZEFSAII (Michael W. Deem and Ramdas Pophale) SiO2 
 PCOD9060786
Probable space group: P -1
;
_chemical_formula_sum "Si O2"
_cell_formula_units_Z 13
_cell_length_a 8.072312
_cell_length_b 9.087904
_cell_length_c 14.454983
_cell_angle_alpha 85.104737
_cell_angle_beta 36.873948
_cell_angle_gamma 106.066090
_cell_volume 517.779791
_symmetry_space_group_name_H-M "P -1"
_symmetry_group_IT_number 2
_symmetry_cell_setting 'triclinic'
loop_
_space_group_symop_operation_xyz
x,y,z
-x,-y,-z
loop_
_atom_site_type_symbol
_atom_site_label
_atom_site_fract_x
_atom_site_fract_y
_atom_site_fract_z
Si Si1 0.653117 0.963964 0.692732
Si Si2 0.605211 0.867154 0.429661
Si Si3 0.605507 0.875777 0.915627
Si Si4 0.379014 0.170644 0.792137
Si Si5 0.236058 0.661654 0.769771
Si Si6 0.500000 0.500000 0.000000
Si Si7 0.535525 0.495809 0.164092
O O1 0.488033 0.840550 0.863312
O O2 0.381279 0.855420 0.739552
O O3 0.661587 0.139221 0.698761
O O4 0.000000 0.000000 0.500000
O O5 0.591845 0.816002 0.331987
O O6 0.401703 0.692301 0.596052
O O7 0.500000 0.000000 0.500000
O O8 0.994755 0.984199 0.276930
O O9 0.509038 0.688901 0.011842
O O10 0.500000 0.000000 0.000000
O O11 0.450423 0.345985 0.799845
O O12 0.000000 0.000000 0.000000
O O13 0.356951 0.581572 0.797199
O O14 0.834533 0.567118 0.945622
O O15 0.257474 0.390980 0.214937
#
# Coordination Sequence:
#
# PCOD9060786 Si02
#       7
#     2   2   2   2   2   1   2
#     4  12  22  43  67  95 139 176 222 282 346 407
#     4  12  23  44  72  99 138 187 230 280 355 416
#     4  12  26  42  71 104 136 183 233 289 343 415
#     4  12  23  43  71 102 131 180 239 280 338 424
#     4  11  23  44  67  97 137 184 220 279 358 404
#     4  12  24  44  68 104 136 178 232 288 346 402
#     4  11  25  43  71 100 137 178 233 291 339 416
#
# _framework density 25.107196999999999
#
# number of rings (size 3 to 8) (size 9 to 14) (size 15 to 20)
#    0.000    0.308    6.154    3.692    0.000    0.615 
#    0.000    3.846    0.000    0.000    0.000    0.000 
#    0.000    0.000    0.000    0.000    0.000    0.000 
#
# Total GULP energy -72487.723996 kJ/mol
# GULP energy per Si atom -5575.978769 kJ/mol
# Density = 2.505005 g / cm^3
# Si number density = 25.107197 Si / 1000 Ang^3
#
#
#
# Elastic Constant Matrix: (Units=GPa)
#
#
# Indices 1 2 3 4 5 6 
#
# 1 127.2287 48.8036 53.0711 16.6691 49.4740 -10.0346
# 2 48.8036 161.9511 50.5229 40.4776 14.8258 -21.0906
# 3 53.0711 50.5229 137.7063 30.2057 19.4045 -7.6547
# 4 16.6691 40.4776 30.2057 35.1341 1.6443 0.9573
# 5 49.4740 14.8258 19.4045 1.6443 69.7294 -1.2950
# 6 -10.0346 -21.0906 -7.6547 0.9573 -1.2950 47.0584
#
#
#
# Elastic Compliance Matrix: (Units=1/GPa)
#
#
# Indices 1 2 3 4 5 6 
#
# 1 0.013210 -0.001828 -0.002915 -0.001312 -0.008117 0.001327
# 2 -0.001828 0.010059 -0.000393 -0.010481 -0.000406 0.004257
# 3 -0.002915 -0.000393 0.010170 -0.006911 -0.000497 0.000983
# 4 -0.001312 -0.010481 -0.006911 0.047111 0.003842 -0.006954
# 5 -0.008117 -0.000406 -0.000497 0.003842 0.020206 -0.001516
# 6 0.001327 0.004257 0.000983 -0.006954 -0.001516 0.023701
#
#
# Mechanical properties :
#
#
# Convention : Reuss Voigt Hill
#
# Bulk Modulus (GPa) = 43.16495 81.29792 62.23143
# Shear Modulus (GPa) = 35.09960 48.68360 41.89160
#
# Velocity S-wave (km/s) = 3.74303 4.40822 4.08917
# Velocity P-wave (km/s) = 5.99249 7.63940 6.86551
#
# Compressibility (1/GPa) = 0.02316694
#
# Stress axis : x y z
#
# Youngs Moduli (GPa) = 75.70090 99.41069 98.32618
#
# Poissons Ratio (x) = 0.18168 0.28664
# Poissons Ratio (y) = 0.13835 0.03869
# Poissons Ratio (z) = 0.22068 0.03911
#
# Static dielectric constant tensor:
#      x y z
#    x 2.653140 -0.188050 0.015770 
#    y -0.188050 2.133800 -0.109040 
#    z 0.015770 -0.109040 2.053260 
# 
# From -- ./inp_files/145491.got.cif
#   From: 2010.05.17/outbox.cif.g08.bks.cpg/sg2_73_cif.got.tgz:145491.got - 2010.06.03 11:33:40.
