data_PCOD9060296
_publ_section_title
;
Structure prediction by ZEFSAII (Michael W. Deem and Ramdas Pophale) SiO2 
 PCOD9060296
Probable space group: P -1
;
_chemical_formula_sum "Si O2"
_cell_formula_units_Z 12
_cell_length_a 9.114938
_cell_length_b 12.927997
_cell_length_c 7.119850
_cell_angle_alpha 46.602212
_cell_angle_beta 86.205753
_cell_angle_gamma 69.454231
_cell_volume 551.639085
_symmetry_space_group_name_H-M "P -1"
_symmetry_group_IT_number 2
_symmetry_cell_setting 'triclinic'
loop_
_space_group_symop_operation_xyz
x,y,z
-x,-y,-z
loop_
_atom_site_type_symbol
_atom_site_label
_atom_site_fract_x
_atom_site_fract_y
_atom_site_fract_z
Si Si1 0.857063 0.664071 0.241012
Si Si2 0.935036 0.383431 0.056057
Si Si3 0.500140 0.717798 0.198581
Si Si4 0.586258 0.484752 0.814120
Si Si5 0.231256 0.016890 0.957555
Si Si6 0.046329 0.919664 0.393435
O O1 0.689775 0.655178 0.212256
O O2 0.807534 0.802835 0.224055
O O3 0.000000 0.500000 0.500000
O O4 0.932320 0.710132 0.995414
O O5 0.911028 0.263493 0.350765
O O6 0.764437 0.472480 0.854720
O O7 0.000000 0.500000 0.000000
O O8 0.494512 0.627029 0.502221
O O9 0.409856 0.666539 0.107873
O O10 0.409860 0.902205 0.016725
O O11 0.500000 0.500000 0.000000
O O12 0.109135 0.011905 0.814156
O O13 0.185416 0.948827 0.235533
O O14 0.000000 0.000000 0.500000
#
# Coordination Sequence:
#
# PCOD9060296 Si02
#       6
#     2   2   2   2   2   2
#     4  12  24  45  69 101 143 184 235 293 355 420
#     4  12  24  43  73 104 139 188 240 288 346 427
#     4  11  25  44  70 104 142 182 235 294 355 417
#     4  11  24  44  71 101 143 185 233 289 355 421
#     4  11  25  43  72 101 144 184 233 296 355 416
#     4  11  23  43  69 102 141 186 231 286 355 423
#
# _framework density 21.753353000000001
#
# number of rings (size 3 to 8) (size 9 to 14) (size 15 to 20)
#    0.000    0.667    3.333    4.500    2.333    1.333 
#    0.000    0.833    0.000    0.000    0.000    0.000 
#    0.000    0.000    0.000    0.000    0.000    0.000 
#
# Total GULP energy -67120.101006 kJ/mol
# GULP energy per Si atom -5593.341751 kJ/mol
# Density = 2.170384 g / cm^3
# Si number density = 21.753353 Si / 1000 Ang^3
#
#
#
# Elastic Constant Matrix: (Units=GPa)
#
#
# Indices 1 2 3 4 5 6 
#
# 1 103.6154 50.8527 10.3836 4.4199 13.7353 7.7062
# 2 50.8527 138.2318 37.3852 -9.0957 22.0559 8.5822
# 3 10.3836 37.3852 76.6317 7.1263 -7.2969 1.1166
# 4 4.4199 -9.0957 7.1263 45.8448 2.8706 2.2322
# 5 13.7353 22.0559 -7.2969 2.8706 28.1274 0.2635
# 6 7.7062 8.5822 1.1166 2.2322 0.2635 37.2675
#
#
#
# Elastic Compliance Matrix: (Units=1/GPa)
#
#
# Indices 1 2 3 4 5 6 
#
# 1 0.012193 -0.004261 0.000402 -0.001870 -0.002304 -0.001424
# 2 -0.004261 0.012786 -0.007051 0.004786 -0.010244 -0.002066
# 3 0.000402 -0.007051 0.017871 -0.004930 0.010461 0.001226
# 4 -0.001870 0.004786 -0.004930 0.024216 -0.006572 -0.001972
# 5 -0.002304 -0.010244 0.010461 -0.006572 0.048071 0.002576
# 6 -0.001424 -0.002066 0.001226 -0.001972 0.002576 0.027666
#
#
# Mechanical properties :
#
#
# Convention : Reuss Voigt Hill
#
# Bulk Modulus (GPa) = 47.54962 57.30244 52.42603
# Shear Modulus (GPa) = 29.13151 36.90510 33.01831
#
# Velocity S-wave (km/s) = 3.66344 4.12336 3.90018
# Velocity P-wave (km/s) = 6.30875 7.00489 6.66592
#
# Compressibility (1/GPa) = 0.02103066
#
# Stress axis : x y z
#
# Youngs Moduli (GPa) = 82.01222 78.20766 55.95511
#
# Poissons Ratio (x) = 0.33327 -0.02249
# Poissons Ratio (y) = 0.34948 0.39453
# Poissons Ratio (z) = -0.03296 0.55143
#
# Static dielectric constant tensor:
#      x y z
#    x 1.786850 0.015850 -0.015570 
#    y 0.015850 1.812720 -0.023050 
#    z -0.015570 -0.023050 1.813240 
# 
# From -- ./inp_files/26211.got.cif
#   From: 2010.05.17/outbox.cif.g08.bks.cpg/sg2_14_cif.got.tgz:26211.got - 2010.06.03 11:33:40.
