data_PCOD9060312
_publ_section_title
;
Structure prediction by ZEFSAII (Michael W. Deem and Ramdas Pophale) SiO2 
 PCOD9060312
Probable space group: P -1
;
_chemical_formula_sum "Si O2"
_cell_formula_units_Z 13
_cell_length_a 11.879665
_cell_length_b 7.714543
_cell_length_c 7.836302
_cell_angle_alpha 125.201501
_cell_angle_beta 113.689442
_cell_angle_gamma 72.436521
_cell_volume 535.019987
_symmetry_space_group_name_H-M "P -1"
_symmetry_group_IT_number 2
_symmetry_cell_setting 'triclinic'
loop_
_space_group_symop_operation_xyz
x,y,z
-x,-y,-z
loop_
_atom_site_type_symbol
_atom_site_label
_atom_site_fract_x
_atom_site_fract_y
_atom_site_fract_z
Si Si1 0.969656 0.524045 0.292496
Si Si2 0.599050 0.508714 0.415906
Si Si3 0.192957 0.227760 0.169982
Si Si4 0.367592 0.930761 0.934784
Si Si5 0.000000 0.000000 0.500000
Si Si6 0.425375 0.805423 0.284780
Si Si7 0.152578 0.838357 0.166266
O O1 0.945880 0.772718 0.387393
O O2 0.000000 0.500000 0.500000
O O3 0.089601 0.421270 0.203314
O O4 0.869255 0.370856 0.078209
O O5 0.500000 0.500000 0.500000
O O6 0.695034 0.676436 0.609643
O O7 0.665969 0.274196 0.303404
O O8 0.515114 0.594485 0.254933
O O9 0.142246 0.041406 0.146283
O O10 0.256962 0.117133 0.979060
O O11 0.388159 0.849110 0.093150
O O12 0.500000 0.000000 0.000000
O O13 0.059490 0.890591 0.293922
O O14 0.294188 0.807076 0.300665
O O15 0.500000 0.000000 0.500000
#
# Coordination Sequence:
#
# PCOD9060312 Si02
#       7
#     2   2   2   2   1   2   2
#     4  12  28  52  78 108 152 204 260 328 380 452
#     4  12  24  45  70 113 148 199 251 305 384 452
#     4  11  25  46  75 106 150 196 257 309 387 449
#     4  11  23  43  69 106 148 196 239 305 382 447
#     4  12  28  50  78 114 150 200 266 314 392 456
#     4  11  23  47  71 105 151 189 246 308 371 460
#     4  11  26  50  74 112 152 201 258 317 391 455
#
# _framework density 24.298158000000001
#
# number of rings (size 3 to 8) (size 9 to 14) (size 15 to 20)
#    0.000    0.615    6.154    1.385    6.462    0.000 
#    5.538    0.000    0.000    0.000    0.000    0.000 
#    0.000    0.000    0.000    0.000    0.000    0.000 
#
# Total GULP energy -72531.926285 kJ/mol
# GULP energy per Si atom -5579.378945 kJ/mol
# Density = 2.424285 g / cm^3
# Si number density = 24.298158 Si / 1000 Ang^3
#
#
#
# Elastic Constant Matrix: (Units=GPa)
#
#
# Indices 1 2 3 4 5 6 
#
# 1 95.4464 9.4665 43.9180 2.0227 -2.4725 8.2106
# 2 9.4665 81.5379 54.4011 27.4337 7.8833 1.6300
# 3 43.9180 54.4011 148.0023 40.0928 0.1934 8.5848
# 4 2.0227 27.4337 40.0928 48.4599 -2.3357 -2.1970
# 5 -2.4725 7.8833 0.1934 -2.3357 44.4223 6.5345
# 6 8.2106 1.6300 8.5848 -2.1970 6.5345 49.4812
#
#
#
# Elastic Compliance Matrix: (Units=1/GPa)
#
#
# Indices 1 2 3 4 5 6 
#
# 1 0.012664 0.000593 -0.004723 0.003031 0.000970 -0.001295
# 2 0.000593 0.018031 -0.005167 -0.006109 -0.003524 0.000398
# 3 -0.004723 -0.005167 0.011999 -0.006851 0.000461 -0.001493
# 4 0.003031 -0.006109 -0.006851 0.029844 0.002577 0.001872
# 5 0.000970 -0.003524 0.000461 0.002577 0.023788 -0.003152
# 6 -0.001295 0.000398 -0.001493 0.001872 -0.003152 0.021170
#
#
# Mechanical properties :
#
#
# Convention : Reuss Voigt Hill
#
# Bulk Modulus (GPa) = 41.49440 60.06197 50.77819
# Shear Modulus (GPa) = 34.69241 42.95277 38.82259
#
# Velocity S-wave (km/s) = 3.78270 4.20901 4.00153
# Velocity P-wave (km/s) = 6.01603 6.95654 6.50331
#
# Compressibility (1/GPa) = 0.02409964
#
# Stress axis : x y z
#
# Youngs Moduli (GPa) = 78.96498 55.45979 83.33828
#
# Poissons Ratio (x) = -0.03290 0.39362
# Poissons Ratio (y) = -0.04684 0.43063
# Poissons Ratio (z) = 0.37297 0.28658
#
# Static dielectric constant tensor:
#      x y z
#    x 1.981660 -0.046360 -0.012570 
#    y -0.046360 1.950080 -0.042490 
#    z -0.012570 -0.042490 1.912630 
# 
# From -- ./inp_files/236324.got.cif
#   From: 2010.05.17/outbox.cif.g08.bks.cpg/sg2_119_cif.got.tgz:236324.got - 2010.06.03 11:33:40.
