data_PCOD9060061
_publ_section_title
;
Structure prediction by ZEFSAII (Michael W. Deem and Ramdas Pophale) SiO2 
 PCOD9060061
Probable space group: P -1
;
_chemical_formula_sum "Si O2"
_cell_formula_units_Z 16
_cell_length_a 11.846264
_cell_length_b 20.174948
_cell_length_c 8.852541
_cell_angle_alpha 137.503285
_cell_angle_beta 136.147073
_cell_angle_gamma 27.245712
_cell_volume 639.442755
_symmetry_space_group_name_H-M "P -1"
_symmetry_group_IT_number 2
_symmetry_cell_setting 'triclinic'
loop_
_space_group_symop_operation_xyz
x,y,z
-x,-y,-z
loop_
_atom_site_type_symbol
_atom_site_label
_atom_site_fract_x
_atom_site_fract_y
_atom_site_fract_z
Si Si1 0.701531 0.547114 0.357760
Si Si2 0.111832 0.358611 0.660868
Si Si3 0.629302 0.919741 0.745165
Si Si4 0.115287 0.202762 0.886237
Si Si5 0.205773 0.515910 0.154628
Si Si6 0.405053 0.625095 0.924911
Si Si7 0.089556 0.018572 0.972958
Si Si8 0.207628 0.837780 0.509259
O O1 0.961774 0.460889 0.537739
O O2 0.666706 0.450175 0.217071
O O3 0.483082 0.716030 0.500035
O O4 0.627560 0.568876 0.148814
O O5 0.896046 0.415849 0.661918
O O6 0.312040 0.190145 0.505761
O O7 0.227283 0.390593 0.928578
O O8 0.708920 0.985603 0.854104
O O9 0.347330 0.052876 0.761042
O O10 0.793913 0.826770 0.902471
O O11 0.011571 0.342136 0.927604
O O12 0.890153 0.227625 0.709370
O O13 0.474968 0.433601 0.224092
O O14 0.166872 0.805029 0.022428
O O15 0.000000 0.000000 0.000000
O O16 0.198985 0.884335 0.745254
O O17 0.000000 0.000000 0.500000
#
# Coordination Sequence:
#
# PCOD9060061 Si02
#       8
#     2   2   2   2   2   2   2   2
#     4  11  23  42  74  95 136 178 230 294 335 410
#     4  11  27  45  68 100 141 183 229 287 353 419
#     4  11  25  47  70 102 138 184 237 284 350 416
#     4  11  25  45  72 101 140 182 234 292 341 417
#     4  11  27  45  67 101 139 182 233 286 353 416
#     4  11  23  44  69 101 133 179 235 284 342 407
#     4  12  28  44  70 106 144 185 231 286 353 421
#     4  12  24  44  68 106 141 179 234 287 346 414
#
# _framework density 25.021788000000001
#
# number of rings (size 3 to 8) (size 9 to 14) (size 15 to 20)
#    0.000    0.750    5.000    0.750    7.000    4.000 
#    0.000    0.000    0.000    0.000    0.000    0.000 
#    0.000    0.000    0.000    0.000    0.000    0.000 
#
# Total GULP energy -89560.840985 kJ/mol
# GULP energy per Si atom -5597.552562 kJ/mol
# Density = 2.496484 g / cm^3
# Si number density = 25.021788 Si / 1000 Ang^3
#
#
#
# Elastic Constant Matrix: (Units=GPa)
#
#
# Indices 1 2 3 4 5 6 
#
# 1 83.6472 -0.4116 17.5097 6.6654 -22.4396 2.6914
# 2 -0.4116 55.8925 24.1886 7.2951 -5.2453 -1.2132
# 3 17.5097 24.1886 116.5209 27.7068 -30.7335 0.0984
# 4 6.6654 7.2951 27.7068 29.7643 -18.8943 -2.5792
# 5 -22.4396 -5.2453 -30.7335 -18.8943 43.5826 7.2438
# 6 2.6914 -1.2132 0.0984 -2.5792 7.2438 35.7169
#
#
#
# Elastic Compliance Matrix: (Units=1/GPa)
#
#
# Indices 1 2 3 4 5 6 
#
# 1 0.014250 0.000812 -0.000640 0.002328 0.008422 -0.002584
# 2 0.000812 0.019815 -0.004058 -0.001809 -0.000957 0.000687
# 3 -0.000640 -0.004058 0.012670 -0.007549 0.005128 -0.001710
# 4 0.002328 -0.001809 -0.007549 0.052143 0.018290 -0.000160
# 5 0.008422 -0.000957 0.005128 0.018290 0.039952 -0.007463
# 6 -0.002584 0.000687 -0.001710 -0.000160 -0.007463 0.029723
#
#
# Mechanical properties :
#
#
# Convention : Reuss Voigt Hill
#
# Bulk Modulus (GPa) = 25.66552 37.62600 31.64576
# Shear Modulus (GPa) = 26.41150 36.13104 31.27127
#
# Velocity S-wave (km/s) = 3.25243 3.80410 3.53903
# Velocity P-wave (km/s) = 4.93801 5.86215 5.41982
#
# Compressibility (1/GPa) = 0.03896278
#
# Stress axis : x y z
#
# Youngs Moduli (GPa) = 70.17565 50.46690 78.92773
#
# Poissons Ratio (x) = -0.04100 0.05051
# Poissons Ratio (y) = -0.05701 0.32032
# Poissons Ratio (z) = 0.04491 0.20482
#
# Static dielectric constant tensor:
#      x y z
#    x 2.020020 0.028930 0.005800 
#    y 0.028930 1.991700 0.024310 
#    z 0.005800 0.024310 2.097350 
# 
# From -- ./inp_files/184148.got.cif
#   From: 2010.05.17/outbox.cif.g08.bks.cpg/sg2_93_cif.got.tgz:184148.got - 2010.06.03 11:33:40.
