data_PCOD9060869
_publ_section_title
;
Structure prediction by ZEFSAII (Michael W. Deem and Ramdas Pophale) SiO2 
 PCOD9060869
Probable space group: P -1
;
_chemical_formula_sum "Si O2"
_cell_formula_units_Z 14
_cell_length_a 19.653235
_cell_length_b 5.952341
_cell_length_c 6.740177
_cell_angle_alpha 74.377546
_cell_angle_beta 122.291582
_cell_angle_gamma 86.443615
_cell_volume 621.045130
_symmetry_space_group_name_H-M "P -1"
_symmetry_group_IT_number 2
_symmetry_cell_setting 'triclinic'
loop_
_space_group_symop_operation_xyz
x,y,z
-x,-y,-z
loop_
_atom_site_type_symbol
_atom_site_label
_atom_site_fract_x
_atom_site_fract_y
_atom_site_fract_z
Si Si1 0.439233 0.480185 0.726859
Si Si2 0.149228 0.840948 0.609139
Si Si3 0.246211 0.532266 0.482217
Si Si4 0.271029 0.096214 0.906145
Si Si5 0.541484 0.149967 0.673238
Si Si6 0.165836 0.412803 0.991306
Si Si7 0.956928 0.788167 0.905205
O O1 0.342957 0.534116 0.624027
O O2 0.480526 0.227258 0.746082
O O3 0.442888 0.649429 0.502962
O O4 0.500000 0.500000 0.000000
O O5 0.193370 0.734471 0.497466
O O6 0.220807 0.896475 0.845165
O O7 0.083587 0.087744 0.391766
O O8 0.118562 0.629468 0.721116
O O9 0.245557 0.279521 0.642057
O O10 0.202115 0.529797 0.204898
O O11 0.241238 0.248367 0.021576
O O12 0.368632 0.990227 0.078772
O O13 0.500000 0.000000 0.500000
O O14 0.109958 0.244418 0.027141
O O15 0.000000 0.500000 0.000000
O O16 0.000000 0.000000 0.000000
#
# Coordination Sequence:
#
# PCOD9060869 Si02
#       7
#     2   2   2   2   2   2   2
#     4  11  24  39  62  95 143 191 242 306 367 418
#     4  11  26  46  74 107 144 188 255 290 372 453
#     4  11  23  44  69 102 142 194 247 302 363 441
#     4  11  24  42  71 103 136 192 249 297 362 445
#     4  11  24  40  60  99 141 184 245 304 363 424
#     4  11  26  46  75 104 146 192 241 308 368 445
#     4  12  29  51  79 114 153 192 245 311 386 462
#
# _framework density 22.542645
#
# number of rings (size 3 to 8) (size 9 to 14) (size 15 to 20)
#    0.000    0.857    1.429    4.286    8.000   10.286 
#    0.000    0.000    0.000    0.000    0.000    0.000 
#    0.000    0.000    0.000    0.000    0.000    0.000 
#
# Total GULP energy -78196.404001 kJ/mol
# GULP energy per Si atom -5585.457429 kJ/mol
# Density = 2.249134 g / cm^3
# Si number density = 22.542645 Si / 1000 Ang^3
#
#
#
# Elastic Constant Matrix: (Units=GPa)
#
#
# Indices 1 2 3 4 5 6 
#
# 1 60.4185 22.2874 32.8165 -12.9491 -5.6192 10.9833
# 2 22.2874 105.1583 56.0056 1.3293 0.0715 0.4607
# 3 32.8165 56.0056 96.4134 0.5802 -1.6746 -13.8013
# 4 -12.9491 1.3293 0.5802 49.1193 1.6868 -2.4622
# 5 -5.6192 0.0715 -1.6746 1.6868 36.6438 5.5258
# 6 10.9833 0.4607 -13.8013 -2.4622 5.5258 36.7930
#
#
#
# Elastic Compliance Matrix: (Units=1/GPa)
#
#
# Indices 1 2 3 4 5 6 
#
# 1 0.026409 0.000100 -0.010752 0.006296 0.005118 -0.012265
# 2 0.000100 0.014183 -0.008776 -0.000437 0.000142 -0.003550
# 3 -0.010752 -0.008776 0.020719 -0.002197 -0.002286 0.011287
# 4 0.006296 -0.000437 -0.002197 0.021993 0.000039 -0.001232
# 5 0.005118 0.000142 -0.002286 0.000039 0.028984 -0.006737
# 6 -0.012265 -0.003550 0.011287 -0.001232 -0.006737 0.036048
#
#
# Mechanical properties :
#
#
# Convention : Reuss Voigt Hill
#
# Bulk Modulus (GPa) = 44.53262 53.80100 49.16681
# Shear Modulus (GPa) = 25.68356 34.56992 30.12674
#
# Velocity S-wave (km/s) = 3.37906 3.92028 3.65969
# Velocity P-wave (km/s) = 5.91792 6.66406 6.30204
#
# Compressibility (1/GPa) = 0.02245545
#
# Stress axis : x y z
#
# Youngs Moduli (GPa) = 37.86557 70.50593 48.26582
#
# Poissons Ratio (x) = -0.00702 0.51893
# Poissons Ratio (y) = -0.00377 0.42357
# Poissons Ratio (z) = 0.40711 0.61875
#
# Static dielectric constant tensor:
#      x y z
#    x 1.366580 -0.421500 0.096980 
#    y -0.421500 1.548890 0.024680 
#    z 0.096980 0.024680 1.817250 
# 
# From -- ./inp_files/7673.got.cif
#   From: 2010.05.17/outbox.cif.g08.bks.cpg/sg2_4_cif.got.tgz:7673.got - 2010.06.03 11:33:40.
