data_PCOD9060206
_publ_section_title
;
Structure prediction by ZEFSAII (Michael W. Deem and Ramdas Pophale) SiO2 
 PCOD9060206
Probable space group: P -1
;
_chemical_formula_sum "Si O2"
_cell_formula_units_Z 16
_cell_length_a 13.377989
_cell_length_b 8.127191
_cell_length_c 9.210605
_cell_angle_alpha 111.672310
_cell_angle_beta 44.673261
_cell_angle_gamma 94.705792
_cell_volume 628.810413
_symmetry_space_group_name_H-M "P -1"
_symmetry_group_IT_number 2
_symmetry_cell_setting 'triclinic'
loop_
_space_group_symop_operation_xyz
x,y,z
-x,-y,-z
loop_
_atom_site_type_symbol
_atom_site_label
_atom_site_fract_x
_atom_site_fract_y
_atom_site_fract_z
Si Si1 0.511954 0.677509 0.133562
Si Si2 0.971590 0.147485 0.444451
Si Si3 0.422539 0.765772 0.737832
Si Si4 0.975794 0.208517 0.900765
Si Si5 0.719502 0.866799 0.851489
Si Si6 0.734188 0.740263 0.490470
Si Si7 0.728748 0.336920 0.414253
Si Si8 0.255290 0.590932 0.047561
O O1 0.357375 0.743369 0.399850
O O2 0.500000 0.500000 0.000000
O O3 0.571704 0.804788 0.006173
O O4 0.657933 0.616929 0.069622
O O5 0.109216 0.236874 0.324739
O O6 0.827146 0.304715 0.691676
O O7 0.977169 0.006646 0.262316
O O8 0.000000 0.000000 0.500000
O O9 0.585228 0.786351 0.567404
O O10 0.377270 0.665975 0.615372
O O11 0.395576 0.658596 0.873612
O O12 0.307942 0.960732 0.955456
O O13 0.863654 0.337555 0.936809
O O14 0.123411 0.273596 0.758536
O O15 0.888332 0.235209 0.150421
O O16 0.726758 0.885186 0.675275
O O17 0.740251 0.543808 0.496164
#
# Coordination Sequence:
#
# PCOD9060206 Si02
#       8
#     2   2   2   2   2   2   2   2
#     4  12  26  41  61  93 131 168 210 256 312 382
#     4  10  17  38  65  93 124 160 212 259 311 358
#     4  11  22  39  68  95 124 165 214 263 310 359
#     4  10  21  38  68  97 123 160 211 267 310 364
#     4  12  22  40  64  97 125 171 211 250 312 380
#     4  12  21  37  68 100 125 157 217 262 310 365
#     4  11  23  42  62  91 133 165 203 265 318 369
#     4  10  19  39  67  89 126 165 204 263 309 363
#
# _framework density 25.444868
#
# number of rings (size 3 to 8) (size 9 to 14) (size 15 to 20)
#    0.000    1.000    8.750    1.125    1.750    2.000 
#    0.000    0.000    0.000    1.500    0.000    0.000 
#    0.000    0.000    0.000    0.000    0.000    0.000 
#
# Total GULP energy -89301.655279 kJ/mol
# GULP energy per Si atom -5581.353455 kJ/mol
# Density = 2.538695 g / cm^3
# Si number density = 25.444868 Si / 1000 Ang^3
#
#
#
# Elastic Constant Matrix: (Units=GPa)
#
#
# Indices 1 2 3 4 5 6 
#
# 1 96.5780 12.6376 35.8999 -9.4238 -26.1889 7.0031
# 2 12.6376 24.9237 31.1068 -7.5598 -3.8558 20.2915
# 3 35.8999 31.1068 209.6677 -20.2990 -39.9506 9.8588
# 4 -9.4238 -7.5598 -20.2990 38.2548 11.6209 -9.4157
# 5 -26.1889 -3.8558 -39.9506 11.6209 35.1421 -7.5516
# 6 7.0031 20.2915 9.8588 -9.4157 -7.5516 35.1225
#
#
#
# Elastic Compliance Matrix: (Units=1/GPa)
#
#
# Indices 1 2 3 4 5 6 
#
# 1 0.014346 -0.012691 0.001462 -0.000360 0.012510 0.006654
# 2 -0.012691 0.121866 -0.018635 0.004329 -0.033460 -0.068679
# 3 0.001462 -0.018635 0.009010 0.000606 0.011354 0.010549
# 4 -0.000360 0.004329 0.000606 0.030736 -0.008447 0.003824
# 5 0.012510 -0.033460 0.011354 -0.008447 0.054787 0.023165
# 6 0.006654 -0.068679 0.010549 0.003824 0.023165 0.069868
#
#
# Mechanical properties :
#
#
# Convention : Reuss Voigt Hill
#
# Bulk Modulus (GPa) = 11.69641 54.49535 33.09588
# Shear Modulus (GPa) = 12.85883 38.47222 25.66552
#
# Velocity S-wave (km/s) = 2.25046 3.89264 3.17941
# Velocity P-wave (km/s) = 3.37039 6.45500 5.14911
#
# Compressibility (1/GPa) = 0.08549633
#
# Stress axis : x y z
#
# Youngs Moduli (GPa) = 69.70549 8.20571 110.98956
#
# Poissons Ratio (x) = 0.10414 -0.16231
# Poissons Ratio (y) = 0.88462 2.06825
# Poissons Ratio (z) = -0.10194 0.15291
#
# Static dielectric constant tensor:
#      x y z
#    x 2.030060 -0.052460 0.002060 
#    y -0.052460 2.090090 0.011930 
#    z 0.002060 0.011930 1.979310 
# 
# From -- ./inp_files/299054.got.cif
#   From: 2010.05.17/outbox.cif.g08.bks.cpg/sg2_150_cif.got.tgz:299054.got - 2010.06.03 11:33:40.
