data_PCOD9060933
_publ_section_title
;
Structure prediction by ZEFSAII (Michael W. Deem and Ramdas Pophale) SiO2 
 PCOD9060933
Probable space group: P -1
;
_chemical_formula_sum "Si O2"
_cell_formula_units_Z 16
_cell_length_a 18.287944
_cell_length_b 12.636369
_cell_length_c 8.735052
_cell_angle_alpha 32.075746
_cell_angle_beta 122.748986
_cell_angle_gamma 134.656368
_cell_volume 754.517155
_symmetry_space_group_name_H-M "P -1"
_symmetry_group_IT_number 2
_symmetry_cell_setting 'triclinic'
loop_
_space_group_symop_operation_xyz
x,y,z
-x,-y,-z
loop_
_atom_site_type_symbol
_atom_site_label
_atom_site_fract_x
_atom_site_fract_y
_atom_site_fract_z
Si Si1 0.307454 0.113952 0.150504
Si Si2 0.084021 0.739599 0.218634
Si Si3 0.748779 0.733853 0.796377
Si Si4 0.989603 0.017566 0.650250
Si Si5 0.098686 0.548017 0.148852
Si Si6 0.448300 0.275806 0.836117
Si Si7 0.374363 0.795502 0.783864
Si Si8 0.679300 0.042590 0.182836
O O1 0.191163 0.907644 0.222059
O O2 0.361431 0.977199 0.442128
O O3 0.292004 0.257293 0.091791
O O4 0.373783 0.275338 0.883020
O O5 0.108641 0.675192 0.162034
O O6 0.000000 0.500000 0.500000
O O7 0.024707 0.867383 0.960961
O O8 0.871886 0.921193 0.682188
O O9 0.693195 0.830536 0.510038
O O10 0.720638 0.474165 0.032699
O O11 0.000000 0.000000 0.500000
O O12 0.071556 0.286260 0.463444
O O13 0.206140 0.720118 0.976042
O O14 0.000000 0.500000 0.000000
O O15 0.500000 0.500000 0.500000
O O16 0.376894 0.040163 0.941327
O O17 0.531086 0.242945 0.060567
O O18 0.379351 0.898718 0.831492
#
# Coordination Sequence:
#
# PCOD9060933 Si02
#       8
#     2   2   2   2   2   2   2   2
#     4  11  27  47  68 101 147 183 230 291 355 422
#     4  12  26  44  67 104 147 184 231 286 345 425
#     4  11  23  44  70 103 141 186 234 280 351 423
#     4  12  24  40  72 105 138 188 238 278 349 415
#     4  12  23  41  70 101 141 185 229 290 347 416
#     4  12  25  49  74 104 135 179 243 302 351 412
#     4  11  25  46  73  98 137 188 228 292 358 416
#     4  11  23  45  71 105 139 178 236 296 347 419
#
# _framework density 21.205614000000001
#
# number of rings (size 3 to 8) (size 9 to 14) (size 15 to 20)
#    0.000    0.500    5.000    3.000    1.750    4.500 
#    4.500    0.000    0.000    0.000    0.000    0.000 
#    0.000    0.000    0.000    0.000    0.000    0.000 
#
# Total GULP energy -89390.059881 kJ/mol
# GULP energy per Si atom -5586.878743 kJ/mol
# Density = 2.115735 g / cm^3
# Si number density = 21.205614 Si / 1000 Ang^3
#
#
#
# Elastic Constant Matrix: (Units=GPa)
#
#
# Indices 1 2 3 4 5 6 
#
# 1 90.9462 8.8214 22.2288 7.7888 -11.9039 6.8227
# 2 8.8214 84.2182 5.2567 5.2719 1.0161 8.0585
# 3 22.2288 5.2567 90.0528 -4.1693 7.1008 0.1051
# 4 7.7888 5.2719 -4.1693 30.0504 -3.4414 6.7697
# 5 -11.9039 1.0161 7.1008 -3.4414 31.4440 -3.9655
# 6 6.8227 8.0585 0.1051 6.7697 -3.9655 31.5057
#
#
#
# Elastic Compliance Matrix: (Units=1/GPa)
#
#
# Indices 1 2 3 4 5 6 
#
# 1 0.013027 -0.000895 -0.003713 -0.002832 0.005325 -0.001301
# 2 -0.000895 0.012373 -0.000477 -0.001508 -0.001148 -0.002790
# 3 -0.003713 -0.000477 0.012470 0.002349 -0.003964 -0.000119
# 4 -0.002832 -0.001508 0.002349 0.036271 0.001583 -0.006603
# 5 0.005325 -0.001148 -0.003964 0.001583 0.035335 0.003261
# 6 -0.001301 -0.002790 -0.000119 -0.006603 0.003261 0.034565
#
#
# Mechanical properties :
#
#
# Convention : Reuss Voigt Hill
#
# Bulk Modulus (GPa) = 36.10205 37.53678 36.81942
# Shear Modulus (GPa) = 30.59134 33.86072 32.22603
#
# Velocity S-wave (km/s) = 3.80229 4.00031 3.90255
# Velocity P-wave (km/s) = 6.02812 6.25111 6.14063
#
# Compressibility (1/GPa) = 0.02769926
#
# Stress axis : x y z
#
# Youngs Moduli (GPa) = 76.76410 80.82350 80.18982
#
# Poissons Ratio (x) = 0.07236 0.29773
# Poissons Ratio (y) = 0.06872 0.03827
# Poissons Ratio (z) = 0.28501 0.03858
#
# Static dielectric constant tensor:
#      x y z
#    x 1.400820 0.025230 -0.017340 
#    y 0.025230 1.706840 0.074550 
#    z -0.017340 0.074550 1.617090 
# 
# From -- ./inp_files/313736.got.cif
#   From: 2010.05.17/outbox.cif.g08.bks.cpg/sg2_157_cif.got.tgz:313736.got - 2010.06.03 11:33:40.
