data_PCOD9060904
_publ_section_title
;
Structure prediction by ZEFSAII (Michael W. Deem and Ramdas Pophale) SiO2 
 PCOD9060904
Probable space group: P -1
;
_chemical_formula_sum "Si O2"
_cell_formula_units_Z 14
_cell_length_a 11.422554
_cell_length_b 9.141070
_cell_length_c 9.443420
_cell_angle_alpha 128.549362
_cell_angle_beta 52.976532
_cell_angle_gamma 121.624689
_cell_volume 597.861768
_symmetry_space_group_name_H-M "P -1"
_symmetry_group_IT_number 2
_symmetry_cell_setting 'triclinic'
loop_
_space_group_symop_operation_xyz
x,y,z
-x,-y,-z
loop_
_atom_site_type_symbol
_atom_site_label
_atom_site_fract_x
_atom_site_fract_y
_atom_site_fract_z
Si Si1 0.908062 0.435794 0.241583
Si Si2 0.919279 0.848458 0.585446
Si Si3 0.213365 0.596769 0.970126
Si Si4 0.152191 0.878909 0.659269
Si Si5 0.333239 0.211549 0.909062
Si Si6 0.662781 0.984424 0.922801
Si Si7 0.672286 0.385693 0.801648
O O1 0.941285 0.635841 0.419667
O O2 0.777896 0.449582 0.230005
O O3 0.878061 0.259966 0.265376
O O4 0.063048 0.452607 0.051387
O O5 0.002643 0.911841 0.712234
O O6 0.740235 0.831260 0.701612
O O7 0.000000 0.000000 0.500000
O O8 0.212999 0.820182 0.085195
O O9 0.332225 0.614957 0.022687
O O10 0.236178 0.762325 0.417481
O O11 0.250022 0.086380 0.764744
O O12 0.506687 0.317213 0.814305
O O13 0.265074 0.384570 0.126792
O O14 0.343190 0.062964 0.936728
O O15 0.500000 0.000000 0.000000
#
# Coordination Sequence:
#
# PCOD9060904 Si02
#       7
#     2   2   2   2   2   2   2
#     4  11  24  43  69 106 143 185 238 298 356 416
#     4  12  26  44  70 108 143 188 240 299 356 420
#     4  11  23  44  69  97 148 185 229 300 356 412
#     4  12  25  46  74 105 144 188 243 297 352 428
#     4  11  26  43  74 106 141 193 239 286 368 429
#     4  12  24  47  70 101 142 188 234 293 362 431
#     4  11  24  47  70 105 146 187 236 302 353 428
#
# _framework density 23.416781
#
# number of rings (size 3 to 8) (size 9 to 14) (size 15 to 20)
#    0.000    0.571    5.714    1.714    4.000    0.571 
#    0.000    0.714    0.000    0.000    0.000    0.000 
#    0.000    0.000    0.000    0.000    0.000    0.000 
#
# Total GULP energy -78088.428790 kJ/mol
# GULP energy per Si atom -5577.744914 kJ/mol
# Density = 2.336348 g / cm^3
# Si number density = 23.416781 Si / 1000 Ang^3
#
#
#
# Elastic Constant Matrix: (Units=GPa)
#
#
# Indices 1 2 3 4 5 6 
#
# 1 133.6781 43.0596 57.6370 2.5976 20.8436 1.2364
# 2 43.0596 106.3325 24.8967 13.1057 15.0435 -2.3595
# 3 57.6370 24.8967 70.9176 12.9658 8.1522 11.6635
# 4 2.5976 13.1057 12.9658 33.2288 3.0767 9.1831
# 5 20.8436 15.0435 8.1522 3.0767 43.6111 -0.7742
# 6 1.2364 -2.3595 11.6635 9.1831 -0.7742 31.8817
#
#
#
# Elastic Compliance Matrix: (Units=1/GPa)
#
#
# Indices 1 2 3 4 5 6 
#
# 1 0.013432 -0.002910 -0.010512 0.004028 -0.003702 0.001859
# 2 -0.002910 0.011758 -0.001134 -0.004505 -0.002088 0.002645
# 3 -0.010512 -0.001134 0.025306 -0.006779 0.001040 -0.006956
# 4 0.004028 -0.004505 -0.006779 0.036761 -0.001851 -0.008643
# 5 -0.003702 -0.002088 0.001040 -0.001851 0.025369 0.000758
# 6 0.001859 0.002645 -0.006956 -0.008643 0.000758 0.036542
#
#
# Mechanical properties :
#
#
# Convention : Reuss Voigt Hill
#
# Bulk Modulus (GPa) = 46.76251 62.45721 54.60986
# Shear Modulus (GPa) = 26.96742 34.09999 30.53370
#
# Velocity S-wave (km/s) = 3.39725 3.82019 3.61491
# Velocity P-wave (km/s) = 5.94991 6.79620 6.38708
#
# Compressibility (1/GPa) = 0.02138465
#
# Stress axis : x y z
#
# Youngs Moduli (GPa) = 74.44923 85.05115 39.51563
#
# Poissons Ratio (x) = 0.24746 0.41538
# Poissons Ratio (y) = 0.21661 0.04482
# Poissons Ratio (z) = 0.78260 0.09648
#
# Static dielectric constant tensor:
#      x y z
#    x 1.927330 -0.000830 0.021840 
#    y -0.000830 1.930730 -0.019270 
#    z 0.021840 -0.019270 1.999250 
# 
# From -- ./inp_files/245801.got.cif
#   From: 2010.05.17/outbox.cif.g08.bks.cpg/sg2_123_cif.got.tgz:245801.got - 2010.06.03 11:33:40.
