data_PCOD9060186
_publ_section_title
;
Structure prediction by ZEFSAII (Michael W. Deem and Ramdas Pophale) SiO2 
 PCOD9060186
Probable space group: P -1
;
_chemical_formula_sum "Si O2"
_cell_formula_units_Z 16
_cell_length_a 18.886991
_cell_length_b 19.318300
_cell_length_c 6.093882
_cell_angle_alpha 110.034964
_cell_angle_beta 82.217311
_cell_angle_gamma 156.564337
_cell_volume 729.356259
_symmetry_space_group_name_H-M "P -1"
_symmetry_group_IT_number 2
_symmetry_cell_setting 'triclinic'
loop_
_space_group_symop_operation_xyz
x,y,z
-x,-y,-z
loop_
_atom_site_type_symbol
_atom_site_label
_atom_site_fract_x
_atom_site_fract_y
_atom_site_fract_z
Si Si1 0.879428 0.730138 0.811165
Si Si2 0.041148 0.756525 0.018710
Si Si3 0.823186 0.008014 0.397463
Si Si4 0.924784 0.950802 0.726574
Si Si5 0.778059 0.374696 0.909642
Si Si6 0.646146 0.969670 0.151444
Si Si7 0.108238 0.646559 0.415706
Si Si8 0.452528 0.389210 0.722223
O O1 0.656282 0.547244 0.723003
O O2 0.910114 0.675231 0.806201
O O3 0.990621 0.847238 0.660022
O O4 0.009335 0.900826 0.119890
O O5 0.266028 0.958159 0.050231
O O6 0.916388 0.564093 0.919099
O O7 0.076036 0.840767 0.305235
O O8 0.695377 0.940919 0.224867
O O9 0.679166 0.803098 0.316825
O O10 0.684838 0.713748 0.532992
O O11 0.000000 0.000000 0.500000
O O12 0.000000 0.000000 0.000000
O O13 0.738087 0.263999 0.659952
O O14 0.583435 0.228285 0.927249
O O15 0.922482 0.486055 0.161336
O O16 0.780121 0.168843 0.387718
O O17 0.000000 0.500000 0.500000
O O18 0.500000 0.500000 0.000000
#
# Coordination Sequence:
#
# PCOD9060186 Si02
#       8
#     2   2   2   2   2   2   2   2
#     4  11  26  46  74 103 145 190 244 307 373 448
#     4  11  23  46  69 100 145 183 244 302 361 440
#     4  11  25  48  70 103 148 186 244 305 367 447
#     4  12  26  50  74 110 152 191 248 321 381 462
#     4  11  24  42  69 100 139 187 234 296 362 428
#     4  11  24  44  71 100 137 192 235 295 361 438
#     4  11  23  43  67 103 142 179 239 294 355 432
#     4  12  26  49  79 110 143 200 250 307 390 454
#
# _framework density 21.937154
#
# number of rings (size 3 to 8) (size 9 to 14) (size 15 to 20)
#    0.000    0.750    5.000    1.875    0.000    3.000 
#    4.500    0.000    0.000    0.000    0.000    0.000 
#    0.000    0.000    0.000    0.000    0.000    0.000 
#
# Total GULP energy -89300.859205 kJ/mol
# GULP energy per Si atom -5581.303700 kJ/mol
# Density = 2.188722 g / cm^3
# Si number density = 21.937154 Si / 1000 Ang^3
#
#
#
# Elastic Constant Matrix: (Units=GPa)
#
#
# Indices 1 2 3 4 5 6 
#
# 1 112.7945 66.9950 33.4692 -7.1618 2.4452 4.1161
# 2 66.9950 145.8949 35.7069 -5.9969 11.7219 22.2136
# 3 33.4692 35.7069 90.5357 -5.6022 -7.2936 4.3561
# 4 -7.1618 -5.9969 -5.6022 29.4096 5.9906 -6.7348
# 5 2.4452 11.7219 -7.2936 5.9906 41.1335 2.9075
# 6 4.1161 22.2136 4.3561 -6.7348 2.9075 63.4077
#
#
#
# Elastic Compliance Matrix: (Units=1/GPa)
#
#
# Indices 1 2 3 4 5 6 
#
# 1 0.012937 -0.005445 -0.002592 0.001889 -0.000055 0.001449
# 2 -0.005445 0.010615 -0.002244 0.000311 -0.002929 -0.003044
# 3 -0.002592 -0.002244 0.013182 0.000807 0.003014 -0.000004
# 4 0.001889 0.000311 0.000807 0.036724 -0.005680 0.003874
# 5 -0.000055 -0.002929 0.003014 -0.005680 0.026581 -0.000999
# 6 0.001449 -0.003044 -0.000004 0.003874 -0.000999 0.017201
#
#
# Mechanical properties :
#
#
# Convention : Reuss Voigt Hill
#
# Bulk Modulus (GPa) = 61.83710 69.06304 65.45007
# Shear Modulus (GPa) = 34.91778 40.99376 37.95577
#
# Velocity S-wave (km/s) = 3.99396 4.32753 4.16409
# Velocity P-wave (km/s) = 7.03694 7.51801 7.28145
#
# Compressibility (1/GPa) = 0.01617152
#
# Stress axis : x y z
#
# Youngs Moduli (GPa) = 77.29653 94.20317 75.86274
#
# Poissons Ratio (x) = 0.51292 0.19667
# Poissons Ratio (y) = 0.42087 0.17024
# Poissons Ratio (z) = 0.20038 0.21140
#
# Static dielectric constant tensor:
#      x y z
#    x 1.750840 0.092490 -0.095610 
#    y 0.092490 1.747570 0.034980 
#    z -0.095610 0.034980 1.746400 
# 
# From -- ./inp_files/120446.got.cif
#   From: 2010.05.17/outbox.cif.g08.bks.cpg/sg2_61_cif.got.tgz:120446.got - 2010.06.03 11:33:40.
