data_PCOD9060966
_publ_section_title
;
Structure prediction by ZEFSAII (Michael W. Deem and Ramdas Pophale) SiO2 
 PCOD9060966
Probable space group: P -1
;
_chemical_formula_sum "Si O2"
_cell_formula_units_Z 16
_cell_length_a 9.023542
_cell_length_b 9.588986
_cell_length_c 14.848547
_cell_angle_alpha 69.128686
_cell_angle_beta 37.288841
_cell_angle_gamma 71.278967
_cell_volume 725.698218
_symmetry_space_group_name_H-M "P -1"
_symmetry_group_IT_number 2
_symmetry_cell_setting 'triclinic'
loop_
_space_group_symop_operation_xyz
x,y,z
-x,-y,-z
loop_
_atom_site_type_symbol
_atom_site_label
_atom_site_fract_x
_atom_site_fract_y
_atom_site_fract_z
Si Si1 0.793659 0.984149 0.527736
Si Si2 0.989678 0.218427 0.874262
Si Si3 0.637417 0.970997 0.137363
Si Si4 0.523099 0.500139 0.632275
Si Si5 0.496438 0.709317 0.146002
Si Si6 0.784286 0.312768 0.397202
Si Si7 0.072768 0.272948 0.620590
Si Si8 0.759036 0.545974 0.902544
O O1 0.547580 0.973490 0.707074
O O2 0.786636 0.136345 0.439045
O O3 0.000000 0.000000 0.500000
O O4 0.853580 0.849430 0.461997
O O5 0.120442 0.221794 0.712727
O O6 0.896610 0.388548 0.902139
O O7 0.161407 0.142461 0.885377
O O8 0.764430 0.111241 0.001742
O O9 0.512676 0.871927 0.145213
O O10 0.449551 0.415846 0.775365
O O11 0.597660 0.375353 0.549947
O O12 0.316920 0.614419 0.663225
O O13 0.765347 0.588787 0.508902
O O14 0.218834 0.692143 0.251792
O O15 0.688549 0.668788 0.984167
O O16 0.049882 0.375734 0.272247
O O17 0.500000 0.500000 0.000000
#
# Coordination Sequence:
#
# PCOD9060966 Si02
#       8
#     2   2   2   2   2   2   2   2
#     4  12  26  44  71 100 137 178 229 278 336 401
#     4  11  26  47  69  99 141 180 223 279 339 403
#     4  11  26  47  69  99 141 180 223 279 339 403
#     4  11  23  44  70  97 139 172 225 282 338 398
#     4  12  25  44  71 101 135 179 226 281 335 400
#     4  11  24  44  69  99 136 179 220 282 339 396
#     4  12  25  44  71 101 135 179 226 281 335 400
#     4  12  26  44  71 100 137 178 229 278 336 401
#
# _framework density 22.047730999999999
#
# number of rings (size 3 to 8) (size 9 to 14) (size 15 to 20)
#    0.000    0.500    5.000    1.875    5.250    4.500 
#    0.000    0.000    0.000    0.000    0.000    0.000 
#    0.000    0.000    0.000    0.000    0.000    0.000 
#
# Total GULP energy -89571.569065 kJ/mol
# GULP energy per Si atom -5598.223067 kJ/mol
# Density = 2.199755 g / cm^3
# Si number density = 22.047731 Si / 1000 Ang^3
#
#
#
# Elastic Constant Matrix: (Units=GPa)
#
#
# Indices 1 2 3 4 5 6 
#
# 1 48.1320 1.6999 -5.9385 5.6939 -5.3353 8.8834
# 2 1.6999 85.3887 18.9991 15.9626 9.2498 15.7429
# 3 -5.9385 18.9991 78.7465 3.7740 -3.5932 8.4614
# 4 5.6939 15.9626 3.7740 39.9868 4.2228 -3.7107
# 5 -5.3353 9.2498 -3.5932 4.2228 28.3191 -3.2711
# 6 8.8834 15.7429 8.4614 -3.7107 -3.2711 28.9929
#
#
#
# Elastic Compliance Matrix: (Units=1/GPa)
#
#
# Indices 1 2 3 4 5 6 
#
# 1 0.023871 0.001059 0.002961 -0.005386 0.004296 -0.008958
# 2 0.001059 0.015870 -0.002650 -0.006553 -0.005454 -0.009622
# 3 0.002961 -0.002650 0.014131 -0.001334 0.003020 -0.003423
# 4 -0.005386 -0.006553 -0.001334 0.029617 -0.002407 0.009117
# 5 0.004296 -0.005454 0.003020 -0.002407 0.039209 0.004880
# 6 -0.008958 -0.009622 -0.003423 0.009117 0.004880 0.045177
#
#
# Mechanical properties :
#
#
# Convention : Reuss Voigt Hill
#
# Bulk Modulus (GPa) = 17.66396 26.86538 22.26467
# Shear Modulus (GPa) = 27.17333 32.62687 29.90010
#
# Velocity S-wave (km/s) = 3.51447 3.85103 3.68659
# Velocity P-wave (km/s) = 4.94952 5.65557 5.31428
#
# Compressibility (1/GPa) = 0.05661243
#
# Stress axis : x y z
#
# Youngs Moduli (GPa) = 41.89217 63.01393 70.76568
#
# Poissons Ratio (x) = -0.06673 -0.20956
# Poissons Ratio (y) = -0.04437 0.18752
# Poissons Ratio (z) = -0.12406 0.16698
#
# Static dielectric constant tensor:
#      x y z
#    x 1.849660 -0.002220 -0.030660 
#    y -0.002220 1.763860 -0.007840 
#    z -0.030660 -0.007840 1.781240 
# 
# From -- ./inp_files/185708.got.cif
#   From: 2010.05.17/outbox.cif.g08.bks.cpg/sg2_93_cif.got.tgz:185708.got - 2010.06.03 11:33:40.
