data_PCOD9060465
_publ_section_title
;
Structure prediction by ZEFSAII (Michael W. Deem and Ramdas Pophale) SiO2 
 PCOD9060465
Probable space group: P -1
;
_chemical_formula_sum "Si O2"
_cell_formula_units_Z 16
_cell_length_a 8.086121
_cell_length_b 13.929461
_cell_length_c 9.204369
_cell_angle_alpha 106.539566
_cell_angle_beta 89.648423
_cell_angle_gamma 134.671167
_cell_volume 677.550517
_symmetry_space_group_name_H-M "P -1"
_symmetry_group_IT_number 2
_symmetry_cell_setting 'triclinic'
loop_
_space_group_symop_operation_xyz
x,y,z
-x,-y,-z
loop_
_atom_site_type_symbol
_atom_site_label
_atom_site_fract_x
_atom_site_fract_y
_atom_site_fract_z
Si Si1 0.525196 0.311817 0.567629
Si Si2 0.530528 0.907602 0.877400
Si Si3 0.321989 0.341872 0.348883
Si Si4 0.146858 0.231653 0.740246
Si Si5 0.363378 0.027860 0.433267
Si Si6 0.257722 0.464511 0.982930
Si Si7 0.014360 0.369867 0.257596
Si Si8 0.620412 0.755414 0.981220
O O1 0.356180 0.258320 0.407124
O O2 0.397105 0.324532 0.693573
O O3 0.494945 0.185341 0.554932
O O4 0.801634 0.466212 0.609369
O O5 0.625373 0.971878 0.742792
O O6 0.661985 0.883235 0.968021
O O7 0.268214 0.739261 0.782339
O O8 0.500000 0.000000 0.000000
O O9 0.500000 0.500000 0.500000
O O10 0.075561 0.294151 0.310530
O O11 0.381234 0.328041 0.182819
O O12 0.104252 0.330567 0.812377
O O13 0.183018 0.188176 0.873202
O O14 0.923195 0.094408 0.588101
O O15 0.500000 0.000000 0.500000
O O16 0.357596 0.616648 0.998116
O O17 0.500000 0.500000 0.000000
O O18 0.106990 0.400182 0.104127
#
# Coordination Sequence:
#
# PCOD9060465 Si02
#       8
#     2   2   2   2   2   2   2   2
#     4  11  23  45  70 102 132 183 240 281 349 408
#     4  12  30  47  65 102 145 187 229 285 354 414
#     4  10  20  39  69 104 137 172 230 289 337 405
#     4  11  23  44  76 100 135 182 232 288 340 419
#     4  12  30  49  64  99 144 187 230 285 356 410
#     4  10  17  38  71 106 128 164 233 284 337 401
#     4  11  22  42  72 103 138 176 225 290 346 409
#     4  11  22  44  73 103 136 182 238 282 341 415
#
# _framework density 23.614476
#
# number of rings (size 3 to 8) (size 9 to 14) (size 15 to 20)
#    0.000    1.000    6.250    1.875    3.500    3.500 
#    0.000    0.000    0.000    0.000    0.000    0.000 
#    0.000    0.000    0.000    0.000    0.000    0.000 
#
# Total GULP energy -89326.999825 kJ/mol
# GULP energy per Si atom -5582.937489 kJ/mol
# Density = 2.356073 g / cm^3
# Si number density = 23.614476 Si / 1000 Ang^3
#
#
#
# Elastic Constant Matrix: (Units=GPa)
#
#
# Indices 1 2 3 4 5 6 
#
# 1 63.3158 30.3262 16.0468 3.6609 18.9264 -17.7755
# 2 30.3262 75.4650 3.9470 6.4788 15.2432 -10.9899
# 3 16.0468 3.9470 70.1270 -6.9854 9.6808 -4.0028
# 4 3.6609 6.4788 -6.9854 36.0059 -4.4309 0.1700
# 5 18.9264 15.2432 9.6808 -4.4309 33.9117 -0.4873
# 6 -17.7755 -10.9899 -4.0028 0.1700 -0.4873 47.0243
#
#
#
# Elastic Compliance Matrix: (Units=1/GPa)
#
#
# Indices 1 2 3 4 5 6 
#
# 1 0.025359 -0.006454 -0.003904 -0.003501 -0.010485 0.007649
# 2 -0.006454 0.017241 0.000975 -0.002852 -0.004775 0.001633
# 3 -0.003904 0.000975 0.015724 0.002982 -0.002358 0.000055
# 4 -0.003501 -0.002852 0.002982 0.030002 0.006279 -0.001780
# 5 -0.010485 -0.004775 -0.002358 0.006279 0.038910 -0.004899
# 6 0.007649 0.001633 0.000055 -0.001780 -0.004899 0.024499
#
#
# Mechanical properties :
#
#
# Convention : Reuss Voigt Hill
#
# Bulk Modulus (GPa) = 25.28012 34.39421 29.83717
# Shear Modulus (GPa) = 27.22026 33.96088 30.59057
#
# Velocity S-wave (km/s) = 3.39882 3.79639 3.60309
# Velocity P-wave (km/s) = 5.11187 5.81492 5.47469
#
# Compressibility (1/GPa) = 0.03955677
#
# Stress axis : x y z
#
# Youngs Moduli (GPa) = 39.43444 58.00095 63.59721
#
# Poissons Ratio (x) = 0.37434 0.24829
# Poissons Ratio (y) = 0.25451 -0.06199
# Poissons Ratio (z) = 0.15396 -0.05654
#
# Static dielectric constant tensor:
#      x y z
#    x 1.873590 -0.042140 -0.011290 
#    y -0.042140 1.976700 -0.002460 
#    z -0.011290 -0.002460 1.979170 
# 
# From -- ./inp_files/207824.got.cif
#   From: 2010.05.17/outbox.cif.g08.bks.cpg/sg2_104_cif.got.tgz:207824.got - 2010.06.03 11:33:40.
