data_PCOD9060157
_publ_section_title
;
Structure prediction by ZEFSAII (Michael W. Deem and Ramdas Pophale) SiO2 
 PCOD9060157
Probable space group: P -1
;
_chemical_formula_sum "Si O2"
_cell_formula_units_Z 16
_cell_length_a 15.157552
_cell_length_b 27.437067
_cell_length_c 9.394385
_cell_angle_alpha 36.409189
_cell_angle_beta 133.889254
_cell_angle_gamma 158.870027
_cell_volume 805.279938
_symmetry_space_group_name_H-M "P -1"
_symmetry_group_IT_number 2
_symmetry_cell_setting 'triclinic'
loop_
_space_group_symop_operation_xyz
x,y,z
-x,-y,-z
loop_
_atom_site_type_symbol
_atom_site_label
_atom_site_fract_x
_atom_site_fract_y
_atom_site_fract_z
Si Si1 0.848556 0.843921 0.402038
Si Si2 0.021876 0.259579 0.165640
Si Si3 0.793084 0.531279 0.875742
Si Si4 0.964543 0.725265 0.352251
Si Si5 0.870154 0.397773 0.740586
Si Si6 0.781338 0.793510 0.102269
Si Si7 0.515506 0.043872 0.077627
Si Si8 0.285285 0.514456 0.605961
O O1 0.963395 0.828270 0.632223
O O2 0.800401 0.805848 0.266849
O O3 0.584512 0.699342 0.529967
O O4 0.035145 0.030697 0.175638
O O5 0.199141 0.389844 0.188218
O O6 0.731959 0.111990 0.224885
O O7 0.124412 0.377774 0.874605
O O8 0.963735 0.660293 0.632233
O O9 0.505963 0.353767 0.918699
O O10 0.932231 0.537814 0.094700
O O11 0.876715 0.761338 0.228868
O O12 0.758616 0.572453 0.368925
O O13 0.235959 0.881071 0.212529
O O14 0.802710 0.445074 0.624678
O O15 0.000000 0.500000 0.500000
O O16 0.637079 0.203744 0.881461
O O17 0.500000 0.000000 0.000000
#
# Coordination Sequence:
#
# PCOD9060157 Si02
#       8
#     2   2   2   2   2   2   2   2
#     4  11  24  43  67  99 134 168 221 273 332 386
#     4  11  23  44  68  95 133 175 215 269 334 386
#     4  11  23  44  70  95 129 179 218 268 330 390
#     4  12  23  43  71  96 131 176 224 265 330 392
#     4  11  23  43  66  97 137 172 214 271 328 385
#     4  11  24  44  66  99 135 167 217 284 320 390
#     4  11  23  43  66  99 135 173 216 269 326 389
#     4  12  23  44  68  98 132 177 215 272 328 391
#
# _framework density 19.868867999999999
#
# number of rings (size 3 to 8) (size 9 to 14) (size 15 to 20)
#    0.000    0.750    6.250    2.250    0.000    4.500 
#    4.500    1.250    0.000    0.000    0.000    0.000 
#    0.000    0.000    0.000    0.000    0.000    0.000 
#
# Total GULP energy -89250.389092 kJ/mol
# GULP energy per Si atom -5578.149318 kJ/mol
# Density = 1.982365 g / cm^3
# Si number density = 19.868868 Si / 1000 Ang^3
#
#
#
# Elastic Constant Matrix: (Units=GPa)
#
#
# Indices 1 2 3 4 5 6 
#
# 1 57.3354 24.5017 16.1791 -11.5901 5.9274 4.3762
# 2 24.5017 95.8754 48.8707 -18.6730 5.6859 6.6418
# 3 16.1791 48.8707 102.9318 -13.4091 4.3644 13.5498
# 4 -11.5901 -18.6730 -13.4091 25.1318 0.6791 -7.0390
# 5 5.9274 5.6859 4.3644 0.6791 33.9042 2.2785
# 6 4.3762 6.6418 13.5498 -7.0390 2.2785 36.8462
#
#
#
# Elastic Compliance Matrix: (Units=1/GPa)
#
#
# Indices 1 2 3 4 5 6 
#
# 1 0.020796 -0.003523 -0.000571 0.006710 -0.003096 -0.000152
# 2 -0.003523 0.015883 -0.006144 0.007303 -0.001491 0.001302
# 3 -0.000571 -0.006144 0.013369 0.001346 -0.000385 -0.003460
# 4 0.006710 0.007303 0.001346 0.051221 -0.004096 0.007430
# 5 -0.003096 -0.001491 -0.000385 -0.004096 0.030545 -0.001893
# 6 -0.000152 0.001302 -0.003460 0.007430 -0.001893 0.029732
#
#
# Mechanical properties :
#
#
# Convention : Reuss Voigt Hill
#
# Bulk Modulus (GPa) = 33.81522 48.36063 41.08792
# Shear Modulus (GPa) = 26.05820 30.28251 28.17036
#
# Velocity S-wave (km/s) = 3.62541 3.90823 3.76947
# Velocity P-wave (km/s) = 5.88055 6.69017 6.29839
#
# Compressibility (1/GPa) = 0.02957248
#
# Stress axis : x y z
#
# Youngs Moduli (GPa) = 48.08708 62.96092 74.79869
#
# Poissons Ratio (x) = 0.22178 0.04271
# Poissons Ratio (y) = 0.16939 0.45957
# Poissons Ratio (z) = 0.02745 0.38684
#
# Static dielectric constant tensor:
#      x y z
#    x 1.737210 -0.025080 0.002470 
#    y -0.025080 1.725450 -0.007350 
#    z 0.002470 -0.007350 1.707520 
# 
# From -- ./inp_files/320675.got.cif
#   From: 2010.05.17/outbox.cif.g08.bks.cpg/sg2_161_cif.got.tgz:320675.got - 2010.06.03 11:33:40.
