data_PCOD9061381
_publ_section_title
;
Structure prediction by ZEFSAII (Michael W. Deem and Ramdas Pophale) SiO2 
 PCOD9061381
Probable space group: P -1
;
_chemical_formula_sum "Si O2"
_cell_formula_units_Z 15
_cell_length_a 9.318632
_cell_length_b 9.202875
_cell_length_c 21.249531
_cell_angle_alpha 129.629874
_cell_angle_beta 150.887933
_cell_angle_gamma 47.246897
_cell_volume 645.887720
_symmetry_space_group_name_H-M "P -1"
_symmetry_group_IT_number 2
_symmetry_cell_setting 'triclinic'
loop_
_space_group_symop_operation_xyz
x,y,z
-x,-y,-z
loop_
_atom_site_type_symbol
_atom_site_label
_atom_site_fract_x
_atom_site_fract_y
_atom_site_fract_z
Si Si1 0.332208 0.947229 0.361447
Si Si2 0.500000 0.500000 0.500000
Si Si3 0.504560 0.053108 0.823082
Si Si4 0.091757 0.648981 0.260656
Si Si5 0.704590 0.416037 0.971031
Si Si6 0.254378 0.783310 0.853399
Si Si7 0.201075 0.176466 0.012595
Si Si8 0.357614 0.952545 0.604049
O O1 0.219205 0.762313 0.286356
O O2 0.500000 0.000000 0.500000
O O3 0.564286 0.907587 0.379965
O O4 0.032772 0.140067 0.282848
O O5 0.350794 0.532092 0.377656
O O6 0.467647 0.734115 0.556428
O O7 0.156583 0.176638 0.746071
O O8 0.629692 0.872812 0.869106
O O9 0.522383 0.976691 0.738248
O O10 0.683019 0.215804 0.939091
O O11 0.895160 0.524853 0.116333
O O12 0.878546 0.342373 0.950976
O O13 0.355636 0.568645 0.865996
O O14 0.571861 0.776323 0.937539
O O15 0.174249 0.966550 0.921684
O O16 0.000000 0.000000 0.500000
#
# Coordination Sequence:
#
# PCOD9061381 Si02
#       8
#     2   1   2   2   2   2   2   2
#     4  12  25  49  77 105 148 203 245 306 381 442
#     4  12  26  48  80 108 146 200 250 308 372 448
#     4  12  24  47  74 110 155 198 244 313 376 433
#     4  12  25  49  75 108 154 201 249 309 373 447
#     4  12  26  43  77 112 151 197 252 307 367 446
#     4  11  24  43  74 105 149 198 246 305 371 439
#     4  11  23  45  69 106 152 195 241 312 372 431
#     4  12  27  49  79 108 150 194 251 310 377 448
#
# _framework density 23.223851
#
# number of rings (size 3 to 8) (size 9 to 14) (size 15 to 20)
#    0.000    0.267    5.333    3.600    1.867    1.067 
#    0.000    0.667    0.000    0.000    0.000    0.000 
#    0.000    0.000    0.000    0.000    0.000    0.000 
#
# Total GULP energy -83694.296272 kJ/mol
# GULP energy per Si atom -5579.619751 kJ/mol
# Density = 2.317099 g / cm^3
# Si number density = 23.223851 Si / 1000 Ang^3
#
#
#
# Elastic Constant Matrix: (Units=GPa)
#
#
# Indices 1 2 3 4 5 6 
#
# 1 117.7410 14.9045 33.1065 3.8841 -2.4038 -0.0690
# 2 14.9045 84.7463 34.6166 -4.6584 -3.0354 5.3967
# 3 33.1065 34.6166 98.4369 3.7249 -23.8386 8.2936
# 4 3.8841 -4.6584 3.7249 35.5240 1.4155 -0.4226
# 5 -2.4038 -3.0354 -23.8386 1.4155 48.0886 2.1645
# 6 -0.0690 5.3967 8.2936 -0.4226 2.1645 35.7633
#
#
#
# Elastic Compliance Matrix: (Units=1/GPa)
#
#
# Indices 1 2 3 4 5 6 
#
# 1 0.009502 -0.000422 -0.003407 -0.000675 -0.001263 0.000940
# 2 -0.000422 0.014164 -0.005305 0.002522 -0.001796 -0.000769
# 3 -0.003407 -0.005305 0.015291 -0.002255 0.007286 -0.003220
# 4 -0.000675 0.002522 -0.002255 0.028873 -0.001869 0.000595
# 5 -0.001263 -0.001796 0.007286 -0.001869 0.024417 -0.002921
# 6 0.000940 -0.000769 -0.003220 0.000595 -0.002921 0.029010
#
#
# Mechanical properties :
#
#
# Convention : Reuss Voigt Hill
#
# Bulk Modulus (GPa) = 48.33172 51.79771 50.06472
# Shear Modulus (GPa) = 34.14826 38.42830 36.28828
#
# Velocity S-wave (km/s) = 3.83873 4.07220 3.95719
# Velocity P-wave (km/s) = 6.36430 6.66802 6.51793
#
# Compressibility (1/GPa) = 0.02069035
#
# Stress axis : x y z
#
# Youngs Moduli (GPa) = 105.24565 70.60012 65.39675
#
# Poissons Ratio (x) = 0.02977 0.22279
# Poissons Ratio (y) = 0.04439 0.34692
# Poissons Ratio (z) = 0.35855 0.37452
#
# Static dielectric constant tensor:
#      x y z
#    x 1.921370 0.008940 0.025050 
#    y 0.008940 1.840800 -0.035590 
#    z 0.025050 -0.035590 1.924520 
# 
# From -- ./inp_files/588170.got.cif
#   From: 2010.05.17/outbox.cif.g08.bks.cpg/sg2_295_cif.got.tgz:588170.got - 2010.06.03 11:33:40.
