data_PCOD9061695
_publ_section_title
;
Structure prediction by ZEFSAII (Michael W. Deem and Ramdas Pophale) SiO2 
 PCOD9061695
Probable space group: P -1
;
_chemical_formula_sum "Si O2"
_cell_formula_units_Z 16
_cell_length_a 11.168802
_cell_length_b 12.750517
_cell_length_c 12.964129
_cell_angle_alpha 76.436992
_cell_angle_beta 157.832802
_cell_angle_gamma 101.489519
_cell_volume 676.348068
_symmetry_space_group_name_H-M "P -1"
_symmetry_group_IT_number 2
_symmetry_cell_setting 'triclinic'
loop_
_space_group_symop_operation_xyz
x,y,z
-x,-y,-z
loop_
_atom_site_type_symbol
_atom_site_label
_atom_site_fract_x
_atom_site_fract_y
_atom_site_fract_z
Si Si1 0.370617 0.243153 0.795916
Si Si2 0.420294 0.272862 0.385450
Si Si3 0.227800 0.922125 0.266045
Si Si4 0.210165 0.624108 0.048630
Si Si5 0.192605 0.885756 0.674041
Si Si6 0.753589 0.589554 0.164809
Si Si7 0.352162 0.203890 0.110253
Si Si8 0.785808 0.484755 0.605281
O O1 0.233061 0.335626 0.742110
O O2 0.075500 0.201409 0.507794
O O3 0.632195 0.294445 0.922191
O O4 0.537216 0.145627 0.018652
O O5 0.569102 0.178297 0.598608
O O6 0.403364 0.223331 0.267919
O O7 0.653799 0.370010 0.551378
O O8 0.074212 0.316653 0.130964
O O9 0.500000 0.000000 0.500000
O O10 0.973153 0.859811 0.147787
O O11 0.000000 0.000000 0.000000
O O12 0.058245 0.526650 0.886361
O O13 0.492620 0.571320 0.354162
O O14 0.366432 0.864633 0.707424
O O15 0.000000 0.000000 0.500000
O O16 0.073434 0.527462 0.394934
O O17 0.500000 0.500000 0.000000
O O18 0.667734 0.678503 0.986824
#
# Coordination Sequence:
#
# PCOD9061695 Si02
#       8
#     2   2   2   2   2   2   2   2
#     4  11  25  46  68 112 139 191 245 297 366 444
#     4  12  27  48  74 105 153 194 247 308 362 441
#     4  12  27  47  74 106 141 192 250 304 367 429
#     4  12  28  43  72 105 155 192 242 293 368 447
#     4  11  26  48  76 100 144 186 243 311 374 426
#     4  11  23  45  78 109 152 194 242 305 365 445
#     4  11  26  49  76 112 144 193 249 306 370 442
#     4  12  25  45  70 111 144 199 240 292 370 440
#
# _framework density 23.656458000000001
#
# number of rings (size 3 to 8) (size 9 to 14) (size 15 to 20)
#    0.000    0.500    3.750    3.375    5.250    3.500 
#    0.000    0.000    0.000    0.000    0.000    0.000 
#    0.000    0.000    0.000    0.000    0.000    0.000 
#
# Total GULP energy -89615.773570 kJ/mol
# GULP energy per Si atom -5600.985848 kJ/mol
# Density = 2.360261 g / cm^3
# Si number density = 23.656458 Si / 1000 Ang^3
#
#
#
# Elastic Constant Matrix: (Units=GPa)
#
#
# Indices 1 2 3 4 5 6 
#
# 1 84.6283 46.0257 37.1258 4.6441 27.3878 -3.7294
# 2 46.0257 128.5511 46.4151 -5.3690 22.0790 7.8841
# 3 37.1258 46.4151 127.4799 7.4840 21.3094 -1.3064
# 4 4.6441 -5.3690 7.4840 52.3606 0.7727 9.6514
# 5 27.3878 22.0790 21.3094 0.7727 48.0419 -8.7397
# 6 -3.7294 7.8841 -1.3064 9.6514 -8.7397 29.1022
#
#
#
# Elastic Compliance Matrix: (Units=1/GPa)
#
#
# Indices 1 2 3 4 5 6 
#
# 1 0.017604 -0.004592 -0.002225 -0.002006 -0.006523 0.002107
# 2 -0.004592 0.011232 -0.002574 0.002970 -0.002444 -0.005466
# 3 -0.002225 -0.002574 0.009820 -0.001605 -0.001721 0.000868
# 4 -0.002006 0.002970 -0.001605 0.021430 -0.001432 -0.008671
# 5 -0.006523 -0.002444 -0.001721 -0.001432 0.028015 0.008637
# 6 0.002107 -0.005466 0.000868 -0.008671 0.008637 0.041621
#
#
# Mechanical properties :
#
#
# Convention : Reuss Voigt Hill
#
# Bulk Modulus (GPa) = 50.31785 66.64359 58.48072
# Shear Modulus (GPa) = 32.23168 39.97379 36.10274
#
# Velocity S-wave (km/s) = 3.69520 4.11513 3.91080
# Velocity P-wave (km/s) = 6.28668 7.12823 6.72064
#
# Compressibility (1/GPa) = 0.01987366
#
# Stress axis : x y z
#
# Youngs Moduli (GPa) = 56.80605 89.03477 101.83036
#
# Poissons Ratio (x) = 0.40885 0.22658
# Poissons Ratio (y) = 0.26086 0.26209
# Poissons Ratio (z) = 0.12640 0.22916
#
# Static dielectric constant tensor:
#      x y z
#    x 1.890620 -0.002200 -0.011020 
#    y -0.002200 1.892300 -0.025990 
#    z -0.011020 -0.025990 1.889030 
# 
# From -- ./inp_files/519693.got.cif
#   From: 2010.05.17/outbox.cif.g08.bks.cpg/sg2_260_cif.got.tgz:519693.got - 2010.06.03 11:33:40.
