data_PCOD9061648
_publ_section_title
;
Structure prediction by ZEFSAII (Michael W. Deem and Ramdas Pophale) SiO2 
 PCOD9061648
Probable space group: P -1
;
_chemical_formula_sum "Si O2"
_cell_formula_units_Z 15
_cell_length_a 8.278859
_cell_length_b 24.852770
_cell_length_c 17.942857
_cell_angle_alpha 160.249091
_cell_angle_beta 33.808555
_cell_angle_gamma 134.488193
_cell_volume 626.007539
_symmetry_space_group_name_H-M "P -1"
_symmetry_group_IT_number 2
_symmetry_cell_setting 'triclinic'
loop_
_space_group_symop_operation_xyz
x,y,z
-x,-y,-z
loop_
_atom_site_type_symbol
_atom_site_label
_atom_site_fract_x
_atom_site_fract_y
_atom_site_fract_z
Si Si1 0.229058 0.408749 0.911550
Si Si2 0.435555 0.356146 0.935186
Si Si3 0.821539 0.365591 0.240828
Si Si4 0.459840 0.580043 0.419200
Si Si5 0.640145 0.112385 0.256163
Si Si6 0.443716 0.800659 0.122278
Si Si7 0.766946 0.062937 0.780518
Si Si8 0.500000 0.000000 0.500000
O O1 0.352581 0.373450 0.902383
O O2 0.417586 0.229756 0.561330
O O3 0.343088 0.545577 0.007663
O O4 0.845979 0.494343 0.170264
O O5 0.596386 0.155713 0.637519
O O6 0.089355 0.432746 0.207757
O O7 0.500000 0.500000 0.500000
O O8 0.725856 0.356788 0.349927
O O9 0.929491 0.175903 0.909352
O O10 0.365358 0.747285 0.619948
O O11 0.409850 0.407726 0.190750
O O12 0.461304 0.987164 0.143812
O O13 0.000000 0.000000 0.000000
O O14 0.441649 0.830936 0.073079
O O15 0.584769 0.901166 0.253428
O O16 0.065740 0.896764 0.414613
#
# Coordination Sequence:
#
# PCOD9061648 Si02
#       8
#     2   2   2   2   2   2   2   1
#     4  11  24  47  74 107 148 202 255 309 380 456
#     4  11  25  42  73 108 151 192 250 316 376 442
#     4  12  24  46  74 114 151 198 254 315 375 455
#     4  12  26  48  82 108 152 209 256 305 392 457
#     4  12  29  46  71 110 154 195 255 323 379 449
#     4  11  23  45  75 110 142 199 249 314 367 457
#     4  11  24  46  77 103 151 194 255 308 378 438
#     4  12  24  40  68 114 148 184 254 308 370 446
#
# _framework density 23.961373999999999
#
# number of rings (size 3 to 8) (size 9 to 14) (size 15 to 20)
#    0.000    0.533    5.333    2.000    3.733    2.667 
#    0.000    2.000    0.000    0.000    0.000    0.000 
#    0.000    0.000    0.000    0.000    0.000    0.000 
#
# Total GULP energy -83774.936190 kJ/mol
# GULP energy per Si atom -5584.995746 kJ/mol
# Density = 2.390684 g / cm^3
# Si number density = 23.961374 Si / 1000 Ang^3
#
#
#
# Elastic Constant Matrix: (Units=GPa)
#
#
# Indices 1 2 3 4 5 6 
#
# 1 72.5626 22.4397 4.2589 -0.2427 21.8761 -16.7282
# 2 22.4397 121.3271 39.4428 -4.6049 6.0551 -3.7116
# 3 4.2589 39.4428 89.1120 -8.4454 7.0264 -5.4248
# 4 -0.2427 -4.6049 -8.4454 47.6198 -5.2841 -0.6758
# 5 21.8761 6.0551 7.0264 -5.2841 31.1737 7.8723
# 6 -16.7282 -3.7116 -5.4248 -0.6758 7.8723 47.7342
#
#
#
# Elastic Compliance Matrix: (Units=1/GPa)
#
#
# Indices 1 2 3 4 5 6 
#
# 1 0.023268 -0.003929 0.002671 -0.001771 -0.019325 0.011314
# 2 -0.003929 0.010327 -0.004611 0.000387 0.002224 -0.001459
# 3 0.002671 -0.004611 0.013820 0.001553 -0.004569 0.002924
# 4 -0.001771 0.000387 0.001553 0.021817 0.004740 -0.000887
# 5 -0.019325 0.002224 -0.004569 0.004740 0.050943 -0.015453
# 6 0.011314 -0.001459 0.002924 -0.000887 -0.015453 0.027669
#
#
# Mechanical properties :
#
#
# Convention : Reuss Voigt Hill
#
# Bulk Modulus (GPa) = 28.02743 46.14271 37.08507
# Shear Modulus (GPa) = 29.15928 39.76292 34.46110
#
# Velocity S-wave (km/s) = 3.49223 4.07807 3.79647
# Velocity P-wave (km/s) = 5.28992 6.43996 5.89306
#
# Compressibility (1/GPa) = 0.03567934
#
# Stress axis : x y z
#
# Youngs Moduli (GPa) = 42.97818 96.83645 72.35692
#
# Poissons Ratio (x) = 0.38043 -0.19330
# Poissons Ratio (y) = 0.16884 0.33361
# Poissons Ratio (z) = -0.11481 0.44647
#
# Static dielectric constant tensor:
#      x y z
#    x 1.915420 -0.013180 0.061210 
#    y -0.013180 1.925830 0.026950 
#    z 0.061210 0.026950 1.795530 
# 
# From -- ./inp_files/563316.got.cif
#   From: 2010.05.17/outbox.cif.g08.bks.cpg/sg2_282_cif.got.tgz:563316.got - 2010.06.03 11:33:40.
