data_PCOD9061784
_publ_section_title
;
Structure prediction by ZEFSAII (Michael W. Deem and Ramdas Pophale) SiO2 
 PCOD9061784
Probable space group: P -1
;
_chemical_formula_sum "Si O2"
_cell_formula_units_Z 15
_cell_length_a 9.469818
_cell_length_b 14.977583
_cell_length_c 8.528150
_cell_angle_alpha 135.269780
_cell_angle_beta 47.854232
_cell_angle_gamma 123.108513
_cell_volume 625.541544
_symmetry_space_group_name_H-M "P -1"
_symmetry_group_IT_number 2
_symmetry_cell_setting 'triclinic'
loop_
_space_group_symop_operation_xyz
x,y,z
-x,-y,-z
loop_
_atom_site_type_symbol
_atom_site_label
_atom_site_fract_x
_atom_site_fract_y
_atom_site_fract_z
Si Si1 0.832144 0.314338 0.228427
Si Si2 0.608241 0.098265 0.918678
Si Si3 0.000000 0.000000 0.500000
Si Si4 0.437660 0.480026 0.205328
Si Si5 0.420965 0.186506 0.853147
Si Si6 0.834981 0.258251 0.502333
Si Si7 0.923075 0.011767 0.247504
Si Si8 0.132747 0.477324 0.018736
O O1 0.688186 0.227267 0.113294
O O2 0.720966 0.433592 0.512961
O O3 0.881155 0.252099 0.278256
O O4 0.028458 0.355498 0.037600
O O5 0.480737 0.131883 0.907796
O O6 0.500000 0.000000 0.000000
O O7 0.793935 0.038898 0.642233
O O8 0.053147 0.975216 0.246754
O O9 0.500000 0.500000 0.000000
O O10 0.365679 0.329641 0.096879
O O11 0.643735 0.521762 0.189182
O O12 0.609564 0.211508 0.635262
O O13 0.272225 0.085748 0.748003
O O14 0.873365 0.402177 0.712740
O O15 0.928644 0.166405 0.435023
O O16 0.000000 0.000000 0.000000
O O17 0.000000 0.500000 0.000000
#
# Coordination Sequence:
#
# PCOD9061784 Si02
#       8
#     2   2   1   2   2   2   2   2
#     4  12  25  46  78 108 147 192 253 302 368 451
#     4  12  28  49  74 111 144 194 250 308 372 448
#     4  12  28  48  76 106 150 192 250 300 378 438
#     4  11  25  46  74 109 141 199 242 294 376 443
#     4  11  24  48  73 100 153 189 238 308 375 430
#     4  11  23  46  70 103 143 193 238 310 370 431
#     4  12  27  47  74 111 144 197 251 310 377 444
#     4  11  26  45  70 106 148 192 239 304 366 438
#
# _framework density 23.979223999999999
#
# number of rings (size 3 to 8) (size 9 to 14) (size 15 to 20)
#    0.000    0.533    4.000    4.800    3.733    4.267 
#    0.000    0.000    0.000    0.000    0.000    0.000 
#    0.000    0.000    0.000    0.000    0.000    0.000 
#
# Total GULP energy -83728.459263 kJ/mol
# GULP energy per Si atom -5581.897284 kJ/mol
# Density = 2.392465 g / cm^3
# Si number density = 23.979224 Si / 1000 Ang^3
#
#
#
# Elastic Constant Matrix: (Units=GPa)
#
#
# Indices 1 2 3 4 5 6 
#
# 1 167.1500 51.9560 7.3426 6.0992 28.5158 -20.8497
# 2 51.9560 127.0795 5.4413 1.2576 18.6145 -11.0433
# 3 7.3426 5.4413 58.1379 11.4073 -5.6066 -6.2838
# 4 6.0992 1.2576 11.4073 33.4554 -7.5122 3.9521
# 5 28.5158 18.6145 -5.6066 -7.5122 35.6997 -0.7882
# 6 -20.8497 -11.0433 -6.2838 3.9521 -0.7882 32.1975
#
#
#
# Elastic Compliance Matrix: (Units=1/GPa)
#
#
# Indices 1 2 3 4 5 6 
#
# 1 0.008457 -0.002052 -0.000286 -0.003376 -0.006331 0.004976
# 2 -0.002052 0.009407 -0.000614 -0.000763 -0.003484 0.001786
# 3 -0.000286 -0.000614 0.019240 -0.006465 0.002303 0.004209
# 4 -0.003376 -0.000763 -0.006465 0.035788 0.009437 -0.007872
# 5 -0.006331 -0.003484 0.002303 0.009437 0.037120 -0.005095
# 6 0.004976 0.001786 0.004209 -0.007872 -0.005095 0.036556
#
#
# Mechanical properties :
#
#
# Convention : Reuss Voigt Hill
#
# Bulk Modulus (GPa) = 32.05279 53.53856 42.79567
# Shear Modulus (GPa) = 30.69873 39.44568 35.07221
#
# Velocity S-wave (km/s) = 3.58190 4.06025 3.82855
# Velocity P-wave (km/s) = 5.52292 6.66006 6.11797
#
# Compressibility (1/GPa) = 0.03119854
#
# Stress axis : x y z
#
# Youngs Moduli (GPa) = 118.24444 106.29818 51.97605
#
# Poissons Ratio (x) = 0.21815 0.01488
# Poissons Ratio (y) = 0.24266 0.03193
# Poissons Ratio (z) = 0.03384 0.06531
#
# Static dielectric constant tensor:
#      x y z
#    x 1.756320 0.003290 -0.181450 
#    y 0.003290 1.849190 -0.032210 
#    z -0.181450 -0.032210 1.828870 
# 
# From -- ./inp_files/203994.got.cif
#   From: 2010.05.17/outbox.cif.g08.bks.cpg/sg2_102_cif.got.tgz:203994.got - 2010.06.03 11:33:40.
