data_PCOD9061460
_publ_section_title
;
Structure prediction by ZEFSAII (Michael W. Deem and Ramdas Pophale) SiO2 
 PCOD9061460
Probable space group: P -1
;
_chemical_formula_sum "Si O2"
_cell_formula_units_Z 15
_cell_length_a 11.833209
_cell_length_b 17.325435
_cell_length_c 11.954596
_cell_angle_alpha 138.620718
_cell_angle_beta 148.151651
_cell_angle_gamma 31.625613
_cell_volume 674.894245
_symmetry_space_group_name_H-M "P -1"
_symmetry_group_IT_number 2
_symmetry_cell_setting 'triclinic'
loop_
_space_group_symop_operation_xyz
x,y,z
-x,-y,-z
loop_
_atom_site_type_symbol
_atom_site_label
_atom_site_fract_x
_atom_site_fract_y
_atom_site_fract_z
Si Si1 0.622535 0.045321 0.430556
Si Si2 0.373422 0.669316 0.440100
Si Si3 0.000000 0.000000 0.500000
Si Si4 0.102015 0.508098 0.432644
Si Si5 0.008724 0.684655 0.771836
Si Si6 0.680221 0.585574 0.835137
Si Si7 0.324264 0.243264 0.789670
Si Si8 0.222293 0.870293 0.130333
O O1 0.304367 0.175854 0.322357
O O2 0.775235 0.060064 0.676369
O O3 0.662008 0.894259 0.313374
O O4 0.749517 0.043557 0.419239
O O5 0.092832 0.831215 0.373561
O O6 0.581730 0.621033 0.461391
O O7 0.519233 0.664793 0.671797
O O8 0.349123 0.538969 0.290859
O O9 0.945954 0.436531 0.234634
O O10 0.057378 0.603296 0.606562
O O11 0.981857 0.617683 0.346009
O O12 0.172310 0.750392 0.982537
O O13 0.569093 0.707804 0.970919
O O14 0.000000 0.500000 0.000000
O O15 0.496156 0.205561 0.780644
O O16 0.000000 0.000000 0.000000
#
# Coordination Sequence:
#
# PCOD9061460 Si02
#       8
#     2   2   1   2   2   2   2   2
#     4  12  26  48  67 106 143 184 236 286 349 424
#     4  11  25  46  69 100 141 188 235 288 350 420
#     4  12  28  46  72  98 144 198 226 290 354 420
#     4  11  23  45  71 101 144 181 228 297 351 414
#     4  11  24  46  69 103 144 179 229 291 354 415
#     4  11  24  44  69 103 137 180 242 286 347 418
#     4  12  24  44  75 104 138 183 236 295 350 417
#     4  12  25  43  73 106 136 183 233 290 355 412
#
# _framework density 22.225704
#
# number of rings (size 3 to 8) (size 9 to 14) (size 15 to 20)
#    0.000    0.533    5.333    2.800    3.733    1.600 
#    2.400    3.333    0.000    0.000    0.000    0.000 
#    0.000    0.000    0.000    0.000    0.000    0.000 
#
# Total GULP energy -83680.040150 kJ/mol
# GULP energy per Si atom -5578.669343 kJ/mol
# Density = 2.217512 g / cm^3
# Si number density = 22.225704 Si / 1000 Ang^3
#
#
#
# Elastic Constant Matrix: (Units=GPa)
#
#
# Indices 1 2 3 4 5 6 
#
# 1 92.0154 22.8938 13.4364 17.3892 16.5416 -19.1036
# 2 22.8938 112.5980 14.5651 29.3786 -3.9906 -8.2783
# 3 13.4364 14.5651 60.0280 27.9820 5.2099 0.5926
# 4 17.3892 29.3786 27.9820 36.6976 -1.4098 9.6866
# 5 16.5416 -3.9906 5.2099 -1.4098 27.2946 6.0811
# 6 -19.1036 -8.2783 0.5926 9.6866 6.0811 43.0489
#
#
#
# Elastic Compliance Matrix: (Units=1/GPa)
#
#
# Indices 1 2 3 4 5 6 
#
# 1 0.019863 0.000752 0.005650 -0.019125 -0.017481 0.015654
# 2 0.000752 0.012583 0.003908 -0.015139 -0.001553 0.006325
# 3 0.005650 0.003908 0.030878 -0.033057 -0.013156 0.012130
# 4 -0.019125 -0.015139 -0.033057 0.083572 0.027497 -0.033632
# 5 -0.017481 -0.001553 -0.013156 0.027497 0.055826 -0.021948
# 6 0.015654 0.006325 0.012130 -0.033632 -0.021948 0.041894
#
#
# Mechanical properties :
#
#
# Convention : Reuss Voigt Hill
#
# Bulk Modulus (GPa) = 11.91296 40.71467 26.31381
# Shear Modulus (GPa) = 19.84314 35.65796 27.75055
#
# Velocity S-wave (km/s) = 2.99122 4.00979 3.53736
# Velocity P-wave (km/s) = 4.15951 6.30844 5.34312
#
# Compressibility (1/GPa) = 0.08394221
#
# Stress axis : x y z
#
# Youngs Moduli (GPa) = 50.34596 79.47458 32.38558
#
# Poissons Ratio (x) = -0.05978 -0.18296
# Poissons Ratio (y) = -0.03787 -0.12656
# Poissons Ratio (z) = -0.28443 -0.31058
#
# Static dielectric constant tensor:
#      x y z
#    x 1.818930 0.004050 -0.011910 
#    y 0.004050 1.849380 -0.038020 
#    z -0.011910 -0.038020 1.812680 
# 
# From -- ./inp_files/69154.got.cif
#   From: 2010.05.17/outbox.cif.g08.bks.cpg/sg2_35_cif.got.tgz:69154.got - 2010.06.03 11:33:40.
