data_PCOD9061185
_publ_section_title
;
Structure prediction by ZEFSAII (Michael W. Deem and Ramdas Pophale) SiO2 
 PCOD9061185
Probable space group: P -1
;
_chemical_formula_sum "Si O2"
_cell_formula_units_Z 14
_cell_length_a 11.516371
_cell_length_b 8.445916
_cell_length_c 7.797579
_cell_angle_alpha 60.694847
_cell_angle_beta 70.012029
_cell_angle_gamma 102.006816
_cell_volume 552.518185
_symmetry_space_group_name_H-M "P -1"
_symmetry_group_IT_number 2
_symmetry_cell_setting 'triclinic'
loop_
_space_group_symop_operation_xyz
x,y,z
-x,-y,-z
loop_
_atom_site_type_symbol
_atom_site_label
_atom_site_fract_x
_atom_site_fract_y
_atom_site_fract_z
Si Si1 0.375456 0.722720 0.227856
Si Si2 0.112723 0.058178 0.228992
Si Si3 0.551883 0.214714 0.463907
Si Si4 0.972119 0.296718 0.023781
Si Si5 0.918095 0.630775 0.446995
Si Si6 0.605256 0.613609 0.036625
Si Si7 0.289105 0.992667 0.881559
O O1 0.367519 0.775829 0.404310
O O2 0.243367 0.507939 0.365663
O O3 0.515912 0.703098 0.139152
O O4 0.359384 0.883316 0.022909
O O5 0.248698 0.200500 0.194033
O O6 0.000869 0.823262 0.425719
O O7 0.017892 0.167049 0.191620
O O8 0.192218 0.051250 0.017113
O O9 0.625960 0.432877 0.216667
O O10 0.500000 0.000000 0.500000
O O11 0.401212 0.183868 0.620453
O O12 0.058731 0.319419 0.793257
O O13 0.812320 0.175832 0.111260
O O14 0.000000 0.500000 0.000000
O O15 0.000000 0.500000 0.500000
O O16 0.500000 0.500000 0.000000
#
# Coordination Sequence:
#
# PCOD9061185 Si02
#       7
#     2   2   2   2   2   2   2
#     4  12  25  47  77 107 150 189 251 301 369 440
#     4  11  25  48  73 100 148 190 245 292 373 429
#     4  12  28  44  75 108 146 194 250 300 371 435
#     4  11  26  44  71 102 151 188 250 303 365 436
#     4  11  23  44  74 104 138 192 242 293 371 431
#     4  12  29  48  74 109 150 193 245 305 368 443
#     4  11  24  46  74 105 145 199 238 305 370 433
#
# _framework density 25.338532000000001
#
# number of rings (size 3 to 8) (size 9 to 14) (size 15 to 20)
#    0.000    0.571    4.286    4.286   12.000    0.000 
#    0.000    1.429    0.000    0.000    0.000    0.000 
#    0.000    0.000    0.000    0.000    0.000    0.000 
#
# Total GULP energy -78330.250429 kJ/mol
# GULP energy per Si atom -5595.017888 kJ/mol
# Density = 2.528086 g / cm^3
# Si number density = 25.338532 Si / 1000 Ang^3
#
#
#
# Elastic Constant Matrix: (Units=GPa)
#
#
# Indices 1 2 3 4 5 6 
#
# 1 124.3988 58.2303 26.3787 -21.1309 11.2197 10.4215
# 2 58.2303 158.7808 30.5604 -20.6400 13.6823 23.8241
# 3 26.3787 30.5604 71.6102 -18.7204 -14.1431 9.3697
# 4 -21.1309 -20.6400 -18.7204 47.8156 7.3488 -3.4647
# 5 11.2197 13.6823 -14.1431 7.3488 41.3587 -11.1558
# 6 10.4215 23.8241 9.3697 -3.4647 -11.1558 55.9816
#
#
#
# Elastic Compliance Matrix: (Units=1/GPa)
#
#
# Indices 1 2 3 4 5 6 
#
# 1 0.010759 -0.002536 -0.002685 0.003122 -0.003835 -0.001045
# 2 -0.002536 0.008984 -0.002776 0.002111 -0.004599 -0.003673
# 3 -0.002685 -0.002776 0.018545 0.003759 0.007397 0.000284
# 4 0.003122 0.002111 0.003759 0.025360 -0.005191 -0.001574
# 5 -0.003835 -0.004599 0.007397 -0.005191 0.032224 0.007533
# 6 -0.001045 -0.003673 0.000284 -0.001574 0.007533 0.020977
#
#
# Mechanical properties :
#
#
# Convention : Reuss Voigt Hill
#
# Bulk Modulus (GPa) = 44.85538 65.01428 54.93483
# Shear Modulus (GPa) = 35.64447 45.00589 40.32518
#
# Velocity S-wave (km/s) = 3.75471 4.21905 3.99363
# Velocity P-wave (km/s) = 6.04467 7.03191 6.55690
#
# Compressibility (1/GPa) = 0.02229387
#
# Stress axis : x y z
#
# Youngs Moduli (GPa) = 92.94705 111.30936 53.92338
#
# Poissons Ratio (x) = 0.28224 0.14481
# Poissons Ratio (y) = 0.23568 0.14968
# Poissons Ratio (z) = 0.24960 0.30898
#
# Static dielectric constant tensor:
#      x y z
#    x 1.985780 0.034200 0.032510 
#    y 0.034200 2.120350 0.062390 
#    z 0.032510 0.062390 2.092910 
# 
# From -- ./inp_files/237133.got.cif
#   From: 2010.05.17/outbox.cif.g08.bks.cpg/sg2_119_cif.got.tgz:237133.got - 2010.06.03 11:33:40.
