data_PCOD9061095
_publ_section_title
;
Structure prediction by ZEFSAII (Michael W. Deem and Ramdas Pophale) SiO2 
 PCOD9061095
Probable space group: P -1
;
_chemical_formula_sum "Si O2"
_cell_formula_units_Z 14
_cell_length_a 14.194953
_cell_length_b 8.760462
_cell_length_c 8.713464
_cell_angle_alpha 145.928550
_cell_angle_beta 60.959253
_cell_angle_gamma 107.358490
_cell_volume 518.673415
_symmetry_space_group_name_H-M "P -1"
_symmetry_group_IT_number 2
_symmetry_cell_setting 'triclinic'
loop_
_space_group_symop_operation_xyz
x,y,z
-x,-y,-z
loop_
_atom_site_type_symbol
_atom_site_label
_atom_site_fract_x
_atom_site_fract_y
_atom_site_fract_z
Si Si1 0.861313 0.518171 0.376250
Si Si2 0.694982 0.661416 0.299531
Si Si3 0.105963 0.087747 0.061000
Si Si4 0.388722 0.223355 0.235379
Si Si5 0.934377 0.298972 0.742242
Si Si6 0.210059 0.906049 0.543646
Si Si7 0.611004 0.601364 0.970873
O O1 0.841556 0.204874 0.138944
O O2 0.746440 0.737691 0.618673
O O3 0.972048 0.518729 0.190811
O O4 0.898351 0.646931 0.610989
O O5 0.618143 0.598520 0.446191
O O6 0.638209 0.682474 0.192639
O O7 0.725544 0.967873 0.534684
O O8 0.815778 0.451861 0.033320
O O9 0.172644 0.132514 0.892921
O O10 0.000000 0.000000 0.000000
O O11 0.400467 0.243423 0.055490
O O12 0.500000 0.000000 0.000000
O O13 0.891312 0.205091 0.535547
O O14 0.000000 0.000000 0.500000
O O15 0.291240 0.659474 0.356321
O O16 0.500000 0.500000 0.000000
#
# Coordination Sequence:
#
# PCOD9061095 Si02
#       7
#     2   2   2   2   2   2   2
#     4  12  27  47  75 121 164 216 279 339 415 505
#     4  11  27  50  80 113 164 210 274 343 424 497
#     4  12  24  43  78 115 163 212 272 339 415 497
#     4  12  28  52  80 117 158 217 283 346 419 499
#     4  11  26  43  73 111 162 211 264 336 418 500
#     4  11  23  44  72 109 155 211 266 332 410 496
#     4  11  26  50  76 112 153 208 278 343 413 492
#
# _framework density 26.991935999999999
#
# number of rings (size 3 to 8) (size 9 to 14) (size 15 to 20)
#    0.000    0.571    2.857    3.857    4.000    6.286 
#    0.000    0.000    0.000    0.000    0.000    0.000 
#    0.000    0.000    0.000    0.000    0.000    0.000 
#
# Total GULP energy -77998.809266 kJ/mol
# GULP energy per Si atom -5571.343519 kJ/mol
# Density = 2.693050 g / cm^3
# Si number density = 26.991936 Si / 1000 Ang^3
#
#
#
# Elastic Constant Matrix: (Units=GPa)
#
#
# Indices 1 2 3 4 5 6 
#
# 1 159.5848 71.9950 43.9828 -1.3850 -37.4748 -27.0277
# 2 71.9950 118.2906 37.4335 -11.0409 -10.9667 -22.1061
# 3 43.9828 37.4335 126.2702 -21.4922 -11.6341 -18.7587
# 4 -1.3850 -11.0409 -21.4922 64.5668 -9.5668 -1.7280
# 5 -37.4748 -10.9667 -11.6341 -9.5668 49.6721 8.8791
# 6 -27.0277 -22.1061 -18.7587 -1.7280 8.8791 58.9404
#
#
#
# Elastic Compliance Matrix: (Units=1/GPa)
#
#
# Indices 1 2 3 4 5 6 
#
# 1 0.010770 -0.005245 -0.001407 -0.000155 0.006328 0.001566
# 2 -0.005245 0.012478 -0.001488 0.001335 -0.001667 0.002092
# 3 -0.001407 -0.001488 0.009775 0.003194 0.001189 0.001822
# 4 -0.000155 0.001335 0.003194 0.017410 0.004038 0.001348
# 5 0.006328 -0.001667 0.001189 0.004038 0.025793 -0.001112
# 6 0.001566 0.002092 0.001822 0.001348 -0.001112 0.019256
#
#
# Mechanical properties :
#
#
# Convention : Reuss Voigt Hill
#
# Bulk Modulus (GPa) = 59.72825 78.99645 69.36235
# Shear Modulus (GPa) = 42.61028 51.35147 46.98088
#
# Velocity S-wave (km/s) = 3.97751 4.36647 4.17652
# Velocity P-wave (km/s) = 6.57802 7.39943 7.00078
#
# Compressibility (1/GPa) = 0.01674250
#
# Stress axis : x y z
#
# Youngs Moduli (GPa) = 92.84927 80.14360 102.30540
#
# Poissons Ratio (x) = 0.42034 0.14397
# Poissons Ratio (y) = 0.48698 0.15222
# Poissons Ratio (z) = 0.13067 0.11924
#
# Static dielectric constant tensor:
#      x y z
#    x 2.211790 -0.164030 0.124260 
#    y -0.164030 2.232700 -0.051800 
#    z 0.124260 -0.051800 2.138740 
# 
# From -- ./inp_files/299801.got.cif
#   From: 2010.05.17/outbox.cif.g08.bks.cpg/sg2_150_cif.got.tgz:299801.got - 2010.06.03 11:33:40.
