data_PCOD9061622
_publ_section_title
;
Structure prediction by ZEFSAII (Michael W. Deem and Ramdas Pophale) SiO2 
 PCOD9061622
Probable space group: P -1
;
_chemical_formula_sum "Si O2"
_cell_formula_units_Z 16
_cell_length_a 9.165262
_cell_length_b 15.352276
_cell_length_c 9.573950
_cell_angle_alpha 142.490392
_cell_angle_beta 117.990141
_cell_angle_gamma 72.978798
_cell_volume 716.337609
_symmetry_space_group_name_H-M "P -1"
_symmetry_group_IT_number 2
_symmetry_cell_setting 'triclinic'
loop_
_space_group_symop_operation_xyz
x,y,z
-x,-y,-z
loop_
_atom_site_type_symbol
_atom_site_label
_atom_site_fract_x
_atom_site_fract_y
_atom_site_fract_z
Si Si1 0.983970 0.899859 0.728139
Si Si2 0.558609 0.653863 0.794457
Si Si3 0.440286 0.606469 0.996465
Si Si4 0.369058 0.914243 0.939134
Si Si5 0.127448 0.939807 0.381936
Si Si6 0.903039 0.600955 0.439395
Si Si7 0.518317 0.078610 0.461189
Si Si8 0.078480 0.346041 0.161938
O O1 0.891876 0.737480 0.510051
O O2 0.178937 0.887342 0.764892
O O3 0.888765 0.975533 0.662223
O O4 0.000000 0.000000 0.000000
O O5 0.500000 0.500000 0.500000
O O6 0.750005 0.690328 0.873862
O O7 0.536748 0.635533 0.929033
O O8 0.442342 0.770001 0.837452
O O9 0.456075 0.754996 0.276906
O O10 0.500000 0.500000 0.000000
O O11 0.255325 0.524108 0.774502
O O12 0.379128 0.018405 0.212059
O O13 0.500000 0.000000 0.000000
O O14 0.305999 0.962010 0.563342
O O15 0.000000 0.000000 0.500000
O O16 0.067845 0.770738 0.113054
O O17 0.929832 0.667555 0.691058
O O18 0.047754 0.511699 0.337681
O O19 0.500000 0.000000 0.500000
#
# Coordination Sequence:
#
# PCOD9061622 Si02
#       8
#     2   2   2   2   2   2   2   2
#     4  12  26  44  76 105 140 187 248 291 349 433
#     4  12  25  46  72 105 145 186 240 299 363 423
#     4  12  29  47  72 107 146 196 237 299 368 433
#     4  12  28  47  74 111 143 190 244 301 360 433
#     4  12  26  46  69 106 141 189 233 295 364 420
#     4  11  25  46  72 104 142 186 244 290 355 434
#     4  12  26  48  73 101 149 187 238 296 366 428
#     4  11  23  45  74  99 139 188 236 294 358 430
#
# _framework density 22.335836
#
# number of rings (size 3 to 8) (size 9 to 14) (size 15 to 20)
#    0.000    0.250    5.000    3.750    7.000    0.000 
#    2.250    1.250    0.000    0.000    0.000    0.000 
#    0.000    0.000    0.000    0.000    0.000    0.000 
#
# Total GULP energy -89494.172591 kJ/mol
# GULP energy per Si atom -5593.385787 kJ/mol
# Density = 2.228500 g / cm^3
# Si number density = 22.335836 Si / 1000 Ang^3
#
#
#
# Elastic Constant Matrix: (Units=GPa)
#
#
# Indices 1 2 3 4 5 6 
#
# 1 100.6688 19.8378 9.4914 6.9061 -9.7784 -9.8179
# 2 19.8378 107.2919 19.8563 17.4437 -12.1627 5.4692
# 3 9.4914 19.8563 90.5725 12.8432 -6.5198 -1.0121
# 4 6.9061 17.4437 12.8432 41.4032 -1.0528 2.3302
# 5 -9.7784 -12.1627 -6.5198 -1.0528 41.7424 -4.2698
# 6 -9.8179 5.4692 -1.0121 2.3302 -4.2698 28.6265
#
#
#
# Elastic Compliance Matrix: (Units=1/GPa)
#
#
# Indices 1 2 3 4 5 6 
#
# 1 0.011081 -0.001738 -0.000382 -0.001193 0.002468 0.004584
# 2 -0.001738 0.010878 -0.001551 -0.003637 0.002213 -0.002103
# 3 -0.000382 -0.001551 0.011958 -0.003016 0.001356 0.001036
# 4 -0.001193 -0.003637 -0.003016 0.026910 -0.001358 -0.002214
# 5 0.002468 0.002213 0.001356 -0.001358 0.025811 0.004432
# 6 0.004584 -0.002103 0.001036 -0.002214 0.004432 0.037785
#
#
# Mechanical properties :
#
#
# Convention : Reuss Voigt Hill
#
# Bulk Modulus (GPa) = 37.63013 44.10044 40.86529
# Shear Modulus (GPa) = 35.55625 38.97762 37.26693
#
# Velocity S-wave (km/s) = 3.99418 4.18194 4.08914
# Velocity P-wave (km/s) = 6.17700 6.56546 6.37419
#
# Compressibility (1/GPa) = 0.02657445
#
# Stress axis : x y z
#
# Youngs Moduli (GPa) = 90.24657 91.92638 83.62726
#
# Poissons Ratio (x) = 0.15977 0.03196
# Poissons Ratio (y) = 0.15685 0.12971
# Poissons Ratio (z) = 0.03448 0.14259
#
# Static dielectric constant tensor:
#      x y z
#    x 1.937420 -0.034990 0.063440 
#    y -0.034990 1.774690 -0.030900 
#    z 0.063440 -0.030900 1.823310 
# 
# From -- ./inp_files/209540.got.cif
#   From: 2010.05.17/outbox.cif.g08.bks.cpg/sg2_105_cif.got.tgz:209540.got - 2010.06.03 11:33:40.
