data_PCOD9061800
_publ_section_title
;
Structure prediction by ZEFSAII (Michael W. Deem and Ramdas Pophale) SiO2 
 PCOD9061800
Probable space group: P -1
;
_chemical_formula_sum "Si O2"
_cell_formula_units_Z 16
_cell_length_a 21.479615
_cell_length_b 9.120272
_cell_length_c 12.044024
_cell_angle_alpha 42.762966
_cell_angle_beta 143.319729
_cell_angle_gamma 150.050315
_cell_volume 697.497043
_symmetry_space_group_name_H-M "P -1"
_symmetry_group_IT_number 2
_symmetry_cell_setting 'triclinic'
loop_
_space_group_symop_operation_xyz
x,y,z
-x,-y,-z
loop_
_atom_site_type_symbol
_atom_site_label
_atom_site_fract_x
_atom_site_fract_y
_atom_site_fract_z
Si Si1 0.508726 0.731664 0.954140
Si Si2 0.900288 0.526066 0.901529
Si Si3 0.415098 0.857604 0.343402
Si Si4 0.238165 0.877807 0.741662
Si Si5 0.095558 0.939848 0.128450
Si Si6 0.647397 0.702403 0.529894
Si Si7 0.015217 0.944469 0.424696
Si Si8 0.757557 0.575444 0.108394
O O1 0.398683 0.600203 0.970831
O O2 0.487328 0.900377 0.746519
O O3 0.500000 0.500000 0.000000
O O4 0.665063 0.969738 0.096780
O O5 0.735106 0.228692 0.820372
O O6 0.920215 0.778885 0.719494
O O7 0.968342 0.617353 0.072182
O O8 0.000000 0.500000 0.000000
O O9 0.363990 0.548544 0.404513
O O10 0.500000 0.000000 0.500000
O O11 0.332364 0.100640 0.649409
O O12 0.106231 0.855289 0.582778
O O13 0.215577 0.596417 0.834057
O O14 0.189330 0.147587 0.041837
O O15 0.212937 0.060093 0.324193
O O16 0.000000 0.000000 0.000000
O O17 0.500000 0.500000 0.500000
O O18 0.000000 0.000000 0.500000
O O19 0.856892 0.684843 0.296365
#
# Coordination Sequence:
#
# PCOD9061800 Si02
#       8
#     2   2   2   2   2   2   2   2
#     4  12  27  45  71 100 143 186 227 285 345 413
#     4  11  27  45  71 102 135 184 234 283 350 411
#     4  12  27  47  70 101 140 180 236 286 343 415
#     4  12  24  45  68 103 140 177 231 283 343 414
#     4  11  23  46  70  98 140 178 233 285 337 413
#     4  12  24  43  71 102 137 181 227 285 342 408
#     4  11  25  44  70 100 139 176 228 288 343 412
#     4  11  25  44  68 103 135 186 230 278 351 406
#
# _framework density 22.939164000000002
#
# number of rings (size 3 to 8) (size 9 to 14) (size 15 to 20)
#    0.000    0.500    2.500    5.250    8.750    1.000 
#    0.000    0.000    0.000    0.000    0.000    0.000 
#    0.000    0.000    0.000    0.000    0.000    0.000 
#
# Total GULP energy -89430.693559 kJ/mol
# GULP energy per Si atom -5589.418347 kJ/mol
# Density = 2.288695 g / cm^3
# Si number density = 22.939164 Si / 1000 Ang^3
#
#
#
# Elastic Constant Matrix: (Units=GPa)
#
#
# Indices 1 2 3 4 5 6 
#
# 1 94.3855 19.7070 28.0555 22.6312 5.4642 -8.6727
# 2 19.7070 73.3981 34.8434 18.3618 -11.9699 -4.0662
# 3 28.0555 34.8434 112.4958 36.0385 -23.1770 -5.5248
# 4 22.6312 18.3618 36.0385 49.6142 -3.5240 -11.7133
# 5 5.4642 -11.9699 -23.1770 -3.5240 49.4145 7.4002
# 6 -8.6727 -4.0662 -5.5248 -11.7133 7.4002 55.3672
#
#
#
# Elastic Compliance Matrix: (Units=1/GPa)
#
#
# Indices 1 2 3 4 5 6 
#
# 1 0.012789 -0.002052 -0.002051 -0.003502 -0.003325 0.001352
# 2 -0.002052 0.016844 -0.003282 -0.002812 0.002621 -0.000357
# 3 -0.002051 -0.003282 0.014100 -0.008069 0.005713 -0.001626
# 4 -0.003502 -0.002812 -0.008069 0.029660 -0.002724 0.005079
# 5 -0.003325 0.002621 0.005713 -0.002724 0.024260 -0.003577
# 6 0.001352 -0.000357 -0.001626 0.005079 -0.003577 0.019637
#
#
# Mechanical properties :
#
#
# Convention : Reuss Voigt Hill
#
# Bulk Modulus (GPa) = 34.52643 49.49904 42.01273
# Shear Modulus (GPa) = 35.28197 44.05743 39.66970
#
# Velocity S-wave (km/s) = 3.92607 4.38724 4.16305
# Velocity P-wave (km/s) = 5.96959 6.87671 6.43914
#
# Compressibility (1/GPa) = 0.02896332
#
# Stress axis : x y z
#
# Youngs Moduli (GPa) = 78.19116 59.36670 70.92407
#
# Poissons Ratio (x) = 0.12180 0.14547
# Poissons Ratio (y) = 0.16042 0.23280
# Poissons Ratio (z) = 0.16037 0.19486
#
# Static dielectric constant tensor:
#      x y z
#    x 1.932770 -0.012100 0.051020 
#    y -0.012100 1.895940 -0.030670 
#    z 0.051020 -0.030670 1.770820 
# 
# From -- ./inp_files/184359.got.cif
#   From: 2010.05.17/outbox.cif.g08.bks.cpg/sg2_93_cif.got.tgz:184359.got - 2010.06.03 11:33:40.
