data_PCOD9061017
_publ_section_title
;
Structure prediction by ZEFSAII (Michael W. Deem and Ramdas Pophale) SiO2 
 PCOD9061017
Probable space group: P -1
;
_chemical_formula_sum "Si O2"
_cell_formula_units_Z 14
_cell_length_a 9.324289
_cell_length_b 11.887304
_cell_length_c 14.671867
_cell_angle_alpha 150.520740
_cell_angle_beta 125.574456
_cell_angle_gamma 64.054250
_cell_volume 641.198285
_symmetry_space_group_name_H-M "P -1"
_symmetry_group_IT_number 2
_symmetry_cell_setting 'triclinic'
loop_
_space_group_symop_operation_xyz
x,y,z
-x,-y,-z
loop_
_atom_site_type_symbol
_atom_site_label
_atom_site_fract_x
_atom_site_fract_y
_atom_site_fract_z
Si Si1 0.200663 0.555714 0.956715
Si Si2 0.434176 0.915583 0.656840
Si Si3 0.320731 0.880378 0.797718
Si Si4 0.955834 0.021891 0.771947
Si Si5 0.545711 0.466661 0.113827
Si Si6 0.907578 0.164044 0.646613
Si Si7 0.303957 0.398064 0.542438
O O1 0.274480 0.443220 0.814626
O O2 0.039543 0.406100 0.847682
O O3 0.129134 0.788719 0.069516
O O4 0.379815 0.586777 0.106552
O O5 0.349182 0.865364 0.689574
O O6 0.288837 0.845551 0.474112
O O7 0.588690 0.764761 0.591777
O O8 0.496797 0.194168 0.877376
O O9 0.264375 0.619073 0.629144
O O10 0.166651 0.031993 0.865166
O O11 0.500000 0.000000 0.000000
O O12 0.910273 0.079207 0.691248
O O13 0.863452 0.770867 0.595291
O O14 0.578040 0.500162 0.255338
O O15 0.000000 0.000000 0.500000
#
# Coordination Sequence:
#
# PCOD9061017 Si02
#       7
#     2   2   2   2   2   2   2
#     4  11  24  42  70 110 144 182 228 293 356 423
#     4  12  25  48  73 105 140 183 235 288 359 413
#     4  12  27  49  71  99 143 190 239 293 336 413
#     4  12  26  46  72 106 141 186 238 283 357 417
#     4  11  23  44  71 107 149 175 229 292 354 422
#     4  12  23  41  72 104 140 179 223 294 357 409
#     4  12  27  47  72 102 139 195 232 286 349 416
#
# _framework density 21.834119000000001
#
# number of rings (size 3 to 8) (size 9 to 14) (size 15 to 20)
#    0.000    0.286    5.714    3.000    4.000    1.143 
#    0.000    1.429    0.000    0.000    0.000    0.000 
#    0.000    0.000    0.000    0.000    0.000    0.000 
#
# Total GULP energy -78312.191876 kJ/mol
# GULP energy per Si atom -5593.727991 kJ/mol
# Density = 2.178442 g / cm^3
# Si number density = 21.834119 Si / 1000 Ang^3
#
#
#
# Elastic Constant Matrix: (Units=GPa)
#
#
# Indices 1 2 3 4 5 6 
#
# 1 89.6131 41.5619 35.3447 4.3054 3.9834 -14.6520
# 2 41.5619 109.9670 30.1093 8.1794 9.1800 -10.0183
# 3 35.3447 30.1093 65.9358 9.7569 14.5736 -8.6311
# 4 4.3054 8.1794 9.7569 29.4199 3.8872 9.4700
# 5 3.9834 9.1800 14.5736 3.8872 29.5231 12.3565
# 6 -14.6520 -10.0183 -8.6311 9.4700 12.3565 46.5926
#
#
#
# Elastic Compliance Matrix: (Units=1/GPa)
#
#
# Indices 1 2 3 4 5 6 
#
# 1 0.016070 -0.004119 -0.006694 0.000009 0.001340 0.002571
# 2 -0.004119 0.011772 -0.001958 -0.002328 -0.002694 0.002061
# 3 -0.006694 -0.001958 0.024297 -0.007054 -0.012351 0.006684
# 4 0.000009 -0.002328 -0.007054 0.040012 0.003482 -0.010860
# 5 0.001340 -0.002694 -0.012351 0.003482 0.046667 -0.015530
# 6 0.002571 0.002061 0.006684 -0.010860 -0.015530 0.030278
#
#
# Mechanical properties :
#
#
# Convention : Reuss Voigt Hill
#
# Bulk Modulus (GPa) = 37.59822 53.28308 45.44065
# Shear Modulus (GPa) = 24.56939 31.67378 28.12158
#
# Velocity S-wave (km/s) = 3.35815 3.81288 3.59272
# Velocity P-wave (km/s) = 5.68274 6.62123 6.16985
#
# Compressibility (1/GPa) = 0.02659701
#
# Stress axis : x y z
#
# Youngs Moduli (GPa) = 62.22710 84.94445 41.15658
#
# Poissons Ratio (x) = 0.34989 0.27552
# Poissons Ratio (y) = 0.25632 0.08058
# Poissons Ratio (z) = 0.41658 0.16632
#
# Static dielectric constant tensor:
#      x y z
#    x 1.795700 0.022940 0.057350 
#    y 0.022940 1.770750 0.019060 
#    z 0.057350 0.019060 1.919610 
# 
# From -- ./inp_files/185473.got.cif
#   From: 2010.05.17/outbox.cif.g08.bks.cpg/sg2_93_cif.got.tgz:185473.got - 2010.06.03 11:33:40.
