data_PCOD9061176
_publ_section_title
;
Structure prediction by ZEFSAII (Michael W. Deem and Ramdas Pophale) SiO2 
 PCOD9061176
Probable space group: P -1
;
_chemical_formula_sum "Si O2"
_cell_formula_units_Z 16
_cell_length_a 24.366727
_cell_length_b 18.564299
_cell_length_c 15.518465
_cell_angle_alpha 148.003121
_cell_angle_beta 19.362318
_cell_angle_gamma 160.131743
_cell_volume 741.541041
_symmetry_space_group_name_H-M "P -1"
_symmetry_group_IT_number 2
_symmetry_cell_setting 'triclinic'
loop_
_space_group_symop_operation_xyz
x,y,z
-x,-y,-z
loop_
_atom_site_type_symbol
_atom_site_label
_atom_site_fract_x
_atom_site_fract_y
_atom_site_fract_z
Si Si1 0.651583 0.156369 0.172248
Si Si2 0.797361 0.260411 0.799904
Si Si3 0.685883 0.568388 0.714138
Si Si4 0.923979 0.311237 0.465914
Si Si5 0.131350 0.486667 0.916812
Si Si6 0.558197 0.564347 0.579171
Si Si7 0.879604 0.016614 0.620942
Si Si8 0.741717 0.727735 0.102991
O O1 0.670044 0.290365 0.211477
O O2 0.343629 0.927554 0.424691
O O3 0.836208 0.320313 0.145147
O O4 0.781026 0.102019 0.884474
O O5 0.832187 0.275957 0.663197
O O6 0.067728 0.366120 0.548612
O O7 0.815056 0.422680 0.976229
O O8 0.500000 0.000000 0.000000
O O9 0.494874 0.387427 0.733785
O O10 0.500000 0.500000 0.000000
O O11 0.872946 0.806796 0.634449
O O12 0.000000 0.500000 0.500000
O O13 0.160240 0.354834 0.159733
O O14 0.178963 0.358569 0.712587
O O15 0.500000 0.500000 0.500000
O O16 0.627966 0.765895 0.699791
O O17 0.353419 0.367058 0.754154
O O18 0.000000 0.000000 0.500000
O O19 0.000000 0.000000 0.000000
#
# Coordination Sequence:
#
# PCOD9061176 Si02
#       8
#     2   2   2   2   2   2   2   2
#     4  11  23  44  74 101 140 191 242 291 359 438
#     4  12  26  47  78 107 142 196 251 294 355 454
#     4  12  26  47  75 109 145 194 246 300 370 439
#     4  12  27  45  70 105 147 192 231 298 377 428
#     4  11  24  43  73 105 135 180 251 293 349 426
#     4  12  29  44  73 106 147 189 250 308 365 433
#     4  12  23  46  72 102 142 193 245 304 364 433
#     4  12  28  48  71 105 153 192 244 305 372 435
#
# _framework density 21.576688000000001
#
# number of rings (size 3 to 8) (size 9 to 14) (size 15 to 20)
#    0.000    0.250    6.250    1.500   10.500    0.000 
#    0.000    0.625    0.000    0.000    0.000    0.000 
#    0.000    0.000    0.000    0.000    0.000    0.000 
#
# Total GULP energy -89388.332381 kJ/mol
# GULP energy per Si atom -5586.770774 kJ/mol
# Density = 2.152758 g / cm^3
# Si number density = 21.576688 Si / 1000 Ang^3
#
#
#
# Elastic Constant Matrix: (Units=GPa)
#
#
# Indices 1 2 3 4 5 6 
#
# 1 122.6439 53.8884 39.5327 -12.7982 14.7694 -2.9513
# 2 53.8884 121.2615 21.7814 -8.3640 -1.0163 7.9221
# 3 39.5327 21.7814 92.0883 0.5466 -4.9738 -3.8727
# 4 -12.7982 -8.3640 0.5466 43.8530 -1.5000 0.7845
# 5 14.7694 -1.0163 -4.9738 -1.5000 39.2107 1.7908
# 6 -2.9513 7.9221 -3.8727 0.7845 1.7908 34.0556
#
#
#
# Elastic Compliance Matrix: (Units=1/GPa)
#
#
# Indices 1 2 3 4 5 6 
#
# 1 0.012723 -0.004828 -0.004550 0.002627 -0.005482 0.001936
# 2 -0.004828 0.010755 -0.000488 0.000780 0.002207 -0.003110
# 3 -0.004550 -0.000488 0.013158 -0.001493 0.003264 0.001078
# 4 0.002627 0.000780 -0.001493 0.023742 -0.000220 -0.000659
# 5 -0.005482 0.002207 0.003264 -0.000220 0.028127 -0.002091
# 6 0.001936 -0.003110 0.001078 -0.000659 -0.002091 0.030503
#
#
# Mechanical properties :
#
#
# Convention : Reuss Voigt Hill
#
# Bulk Modulus (GPa) = 59.15372 62.93317 61.04345
# Shear Modulus (GPa) = 34.63260 38.14327 36.38794
#
# Velocity S-wave (km/s) = 4.01071 4.20908 4.11109
# Velocity P-wave (km/s) = 6.99448 7.26996 7.13355
#
# Compressibility (1/GPa) = 0.01690511
#
# Stress axis : x y z
#
# Youngs Moduli (GPa) = 78.60057 92.97899 75.99800
#
# Poissons Ratio (x) = 0.44889 0.34579
# Poissons Ratio (y) = 0.37947 0.03705
# Poissons Ratio (z) = 0.35764 0.04533
#
# Static dielectric constant tensor:
#      x y z
#    x 1.657760 0.072230 -0.022430 
#    y 0.072230 1.740670 -0.014290 
#    z -0.022430 -0.014290 1.833000 
# 
# From -- ./inp_files/543171.got.cif
#   From: 2010.05.17/outbox.cif.g08.bks.cpg/sg2_272_cif.got.tgz:543171.got - 2010.06.03 11:33:40.
