data_PCOD9061480
_publ_section_title
;
Structure prediction by ZEFSAII (Michael W. Deem and Ramdas Pophale) SiO2 
 PCOD9061480
Probable space group: P -1
;
_chemical_formula_sum "Si O2"
_cell_formula_units_Z 12
_cell_length_a 13.098697
_cell_length_b 6.404738
_cell_length_c 7.005883
_cell_angle_alpha 123.858592
_cell_angle_beta 98.459753
_cell_angle_gamma 75.258662
_cell_volume 472.000409
_symmetry_space_group_name_H-M "P -1"
_symmetry_group_IT_number 2
_symmetry_cell_setting 'triclinic'
loop_
_space_group_symop_operation_xyz
x,y,z
-x,-y,-z
loop_
_atom_site_type_symbol
_atom_site_label
_atom_site_fract_x
_atom_site_fract_y
_atom_site_fract_z
Si Si1 0.966849 0.758489 0.511303
Si Si2 0.158326 0.034354 0.720517
Si Si3 0.610897 0.525812 0.951304
Si Si4 0.383045 0.888123 0.653818
Si Si5 0.615651 0.630752 0.556840
Si Si6 0.224311 0.993155 0.162675
O O1 0.907041 0.714326 0.275758
O O2 0.883490 0.950316 0.718255
O O3 0.000000 0.500000 0.500000
O O4 0.075174 0.855197 0.571042
O O5 0.262782 0.930104 0.571845
O O6 0.190991 0.041013 0.953482
O O7 0.622720 0.815085 0.142984
O O8 0.500000 0.500000 0.000000
O O9 0.611549 0.534890 0.725733
O O10 0.703101 0.289754 0.924451
O O11 0.502863 0.809815 0.569239
O O12 0.378697 0.649625 0.678801
O O13 0.705604 0.793969 0.651908
#
# Coordination Sequence:
#
# PCOD9061480 Si02
#       6
#     2   2   2   2   2   2
#     4  11  27  48  72 107 141 191 254 305 363 430
#     4  11  25  48  71 103 147 187 246 306 358 434
#     4  12  24  43  70 110 151 192 242 292 369 447
#     4  11  23  45  71 104 152 194 230 312 360 426
#     4  11  24  45  69 111 154 186 248 297 360 448
#     4  12  25  47  77 108 147 196 241 299 374 435
#
# _framework density 25.423708999999999
#
# number of rings (size 3 to 8) (size 9 to 14) (size 15 to 20)
#    0.000    0.667    3.333    4.000    2.333    2.667 
#    9.000    0.000    0.000    0.000    0.000    0.000 
#    0.000    0.000    0.000    0.000    0.000    0.000 
#
# Total GULP energy -66930.529263 kJ/mol
# GULP energy per Si atom -5577.544105 kJ/mol
# Density = 2.536584 g / cm^3
# Si number density = 25.423709 Si / 1000 Ang^3
#
#
#
# Elastic Constant Matrix: (Units=GPa)
#
#
# Indices 1 2 3 4 5 6 
#
# 1 166.9621 44.7362 58.2510 -12.3977 19.4506 -7.8912
# 2 44.7362 182.6133 68.1544 -8.2211 5.6110 -21.6045
# 3 58.2510 68.1544 87.3424 -0.9462 -5.1946 -2.3277
# 4 -12.3977 -8.2211 -0.9462 43.1993 11.6347 -2.6106
# 5 19.4506 5.6110 -5.1946 11.6347 33.5921 -2.4635
# 6 -7.8912 -21.6045 -2.3277 -2.6106 -2.4635 39.6571
#
#
#
# Elastic Compliance Matrix: (Units=1/GPa)
#
#
# Indices 1 2 3 4 5 6 
#
# 1 0.010048 0.001369 -0.008195 0.005535 -0.009079 0.002065
# 2 0.001369 0.008963 -0.008006 0.003377 -0.004358 0.004637
# 3 -0.008195 -0.008006 0.023674 -0.006790 0.011778 -0.004318
# 4 0.005535 0.003377 -0.006790 0.029418 -0.014746 0.003563
# 5 -0.009079 -0.004358 0.011778 -0.014746 0.042549 -0.001817
# 6 0.002065 0.004637 -0.004318 0.003563 -0.001817 0.028022
#
#
# Mechanical properties :
#
#
# Convention : Reuss Voigt Hill
#
# Bulk Modulus (GPa) = 76.79674 86.57788 81.68731
# Shear Modulus (GPa) = 28.30014 41.00812 34.65413
#
# Velocity S-wave (km/s) = 3.33999 4.02056 3.69597
# Velocity P-wave (km/s) = 6.71911 7.46198 7.10026
#
# Compressibility (1/GPa) = 0.01302139
#
# Stress axis : x y z
#
# Youngs Moduli (GPa) = 99.52446 111.56632 42.24081
#
# Poissons Ratio (x) = -0.15277 0.34615
# Poissons Ratio (y) = -0.13628 0.33820
# Poissons Ratio (z) = 0.81557 0.89324
#
# Static dielectric constant tensor:
#      x y z
#    x 1.986250 0.080230 -0.069020 
#    y 0.080230 2.304550 -0.019930 
#    z -0.069020 -0.019930 2.424910 
# 
# From -- ./inp_files/96299.got.cif
#   From: 2010.05.17/outbox.cif.g08.bks.cpg/sg2_49_cif.got.tgz:96299.got - 2010.06.03 11:33:40.
