data_PCOD9061015
_publ_section_title
;
Structure prediction by ZEFSAII (Michael W. Deem and Ramdas Pophale) SiO2 
 PCOD9061015
Probable space group: P -1
;
_chemical_formula_sum "Si O2"
_cell_formula_units_Z 13
_cell_length_a 12.214590
_cell_length_b 9.544730
_cell_length_c 8.667872
_cell_angle_alpha 96.999403
_cell_angle_beta 73.558263
_cell_angle_gamma 42.627955
_cell_volume 565.300688
_symmetry_space_group_name_H-M "P -1"
_symmetry_group_IT_number 2
_symmetry_cell_setting 'triclinic'
loop_
_space_group_symop_operation_xyz
x,y,z
-x,-y,-z
loop_
_atom_site_type_symbol
_atom_site_label
_atom_site_fract_x
_atom_site_fract_y
_atom_site_fract_z
Si Si1 0.282153 0.875702 0.087832
Si Si2 0.321336 0.570892 0.581683
Si Si3 0.527732 0.846585 0.346961
Si Si4 0.321170 0.345801 0.068606
Si Si5 0.000000 0.000000 0.000000
Si Si6 0.180077 0.238915 0.324937
Si Si7 0.814297 0.267921 0.673730
O O1 0.305081 0.735003 0.192607
O O2 0.131832 0.150441 0.231892
O O3 0.482625 0.763156 0.983877
O O4 0.197153 0.879939 0.976689
O O5 0.500000 0.500000 0.500000
O O6 0.391625 0.366915 0.623224
O O7 0.282151 0.572847 0.419442
O O8 0.126840 0.826985 0.772148
O O9 0.500000 0.000000 0.500000
O O10 0.316678 0.043303 0.379554
O O11 0.664516 0.721562 0.122655
O O12 0.290905 0.244013 0.178181
O O13 0.158191 0.629565 0.203890
O O14 0.000000 0.500000 0.500000
O O15 0.000000 0.000000 0.500000
#
# Coordination Sequence:
#
# PCOD9061015 Si02
#       7
#     2   2   2   2   1   2   2
#     4  11  23  44  71 107 146 194 254 306 374 455
#     4  12  26  45  71 104 153 193 250 316 370 444
#     4  11  25  45  73 110 147 191 248 311 381 446
#     4  11  24  46  76 104 149 199 246 310 386 455
#     4  12  26  44  72 114 150 196 260 314 376 444
#     4  11  25  48  77 107 149 201 249 306 383 465
#     4  12  23  43  72 104 145 196 248 304 376 452
#
# _framework density 22.996608999999999
#
# number of rings (size 3 to 8) (size 9 to 14) (size 15 to 20)
#    0.000    0.615    1.538    7.846    2.154    1.231 
#    0.000    0.769    0.000    0.000    0.000    0.000 
#    0.000    0.000    0.000    0.000    0.000    0.000 
#
# Total GULP energy -72458.380633 kJ/mol
# GULP energy per Si atom -5573.721587 kJ/mol
# Density = 2.294427 g / cm^3
# Si number density = 22.996609 Si / 1000 Ang^3
#
#
#
# Elastic Constant Matrix: (Units=GPa)
#
#
# Indices 1 2 3 4 5 6 
#
# 1 101.0215 11.9022 53.2924 -25.9914 17.4584 4.3783
# 2 11.9022 106.2181 44.0480 -16.7103 3.7271 12.0816
# 3 53.2924 44.0480 158.4731 0.9856 18.8550 8.3440
# 4 -25.9914 -16.7103 0.9856 45.3763 8.4299 -0.0099
# 5 17.4584 3.7271 18.8550 8.4299 48.7943 1.2409
# 6 4.3783 12.0816 8.3440 -0.0099 1.2409 26.8437
#
#
#
# Elastic Compliance Matrix: (Units=1/GPa)
#
#
# Indices 1 2 3 4 5 6 
#
# 1 0.016718 0.002760 -0.005646 0.011830 -0.006005 -0.001932
# 2 0.002760 0.012364 -0.003992 0.006478 -0.001389 -0.004707
# 3 -0.005646 -0.003992 0.009415 -0.004821 -0.000475 -0.000189
# 4 0.011830 0.006478 -0.004821 0.032877 -0.008470 -0.002943
# 5 -0.006005 -0.001389 -0.000475 -0.008470 0.024380 0.000622
# 6 -0.001932 -0.004707 -0.000189 -0.002943 0.000622 0.039715
#
#
# Mechanical properties :
#
#
# Convention : Reuss Voigt Hill
#
# Bulk Modulus (GPa) = 40.42091 64.91087 52.66589
# Shear Modulus (GPa) = 31.75158 41.30089 36.52623
#
# Velocity S-wave (km/s) = 3.71982 4.24247 3.98971
# Velocity P-wave (km/s) = 6.00537 7.23088 6.64643
#
# Compressibility (1/GPa) = 0.02473967
#
# Stress axis : x y z
#
# Youngs Moduli (GPa) = 59.81727 80.88004 106.21300
#
# Poissons Ratio (x) = -0.22321 0.59972
# Poissons Ratio (y) = -0.16508 0.42399
# Poissons Ratio (z) = 0.33775 0.32286
#
# Static dielectric constant tensor:
#      x y z
#    x 1.861780 -0.018990 0.009660 
#    y -0.018990 1.895330 0.065070 
#    z 0.009660 0.065070 1.951410 
# 
# From -- ./inp_files/238874.got.cif
#   From: 2010.05.17/outbox.cif.g08.bks.cpg/sg2_120_cif.got.tgz:238874.got - 2010.06.03 11:33:40.
