data_PCOD9061634
_publ_section_title
;
Structure prediction by ZEFSAII (Michael W. Deem and Ramdas Pophale) SiO2 
 PCOD9061634
Probable space group: P -1
;
_chemical_formula_sum "Si O2"
_cell_formula_units_Z 16
_cell_length_a 9.436999
_cell_length_b 15.481899
_cell_length_c 19.631948
_cell_angle_alpha 149.278776
_cell_angle_beta 32.426862
_cell_angle_gamma 144.368004
_cell_volume 744.896145
_symmetry_space_group_name_H-M "P -1"
_symmetry_group_IT_number 2
_symmetry_cell_setting 'triclinic'
loop_
_space_group_symop_operation_xyz
x,y,z
-x,-y,-z
loop_
_atom_site_type_symbol
_atom_site_label
_atom_site_fract_x
_atom_site_fract_y
_atom_site_fract_z
Si Si1 0.030721 0.320100 0.898507
Si Si2 0.288085 0.820586 0.931752
Si Si3 0.961939 0.478973 0.420292
Si Si4 0.108324 0.838143 0.866340
Si Si5 0.576440 0.211645 0.627180
Si Si6 0.576855 0.491789 0.385038
Si Si7 0.137117 0.786842 0.353396
Si Si8 0.254231 0.978040 0.294108
O O1 0.336141 0.294244 0.757808
O O2 0.837839 0.160000 0.822954
O O3 0.000000 0.500000 0.000000
O O4 0.911119 0.285866 0.999769
O O5 0.104098 0.823967 0.941089
O O6 0.481709 0.707155 0.751089
O O7 0.500000 0.000000 0.000000
O O8 0.029128 0.331932 0.243247
O O9 0.629218 0.429166 0.516993
O O10 0.000000 0.500000 0.500000
O O11 0.139043 0.668436 0.443607
O O12 0.437048 0.894724 0.756548
O O13 0.000000 0.000000 0.000000
O O14 0.636626 0.227959 0.694504
O O15 0.500000 0.000000 0.500000
O O16 0.500000 0.500000 0.500000
O O17 0.897801 0.598401 0.315420
O O18 0.251077 0.869245 0.290922
O O19 0.967244 0.914992 0.537848
#
# Coordination Sequence:
#
# PCOD9061634 Si02
#       8
#     2   2   2   2   2   2   2   2
#     4  12  29  48  72 110 159 197 249 309 389 463
#     4  12  27  47  78 106 145 201 245 308 384 449
#     4  12  30  45  78 110 146 194 255 313 367 446
#     4  12  28  49  72 113 155 194 250 314 380 455
#     4  12  28  46  74 112 149 194 260 310 377 454
#     4  12  23  49  75 100 143 190 256 301 368 441
#     4  11  23  45  75 104 140 198 246 310 371 439
#     4  11  24  45  73 105 147 193 247 306 379 441
#
# _framework density 21.479502
#
# number of rings (size 3 to 8) (size 9 to 14) (size 15 to 20)
#    0.000    0.250    6.250    0.750   12.250    0.000 
#    0.000    1.875    0.000    0.000    0.000    0.000 
#    0.000    0.000    0.000    0.000    0.000    0.000 
#
# Total GULP energy -89371.475671 kJ/mol
# GULP energy per Si atom -5585.717229 kJ/mol
# Density = 2.143061 g / cm^3
# Si number density = 21.479502 Si / 1000 Ang^3
#
#
#
# Elastic Constant Matrix: (Units=GPa)
#
#
# Indices 1 2 3 4 5 6 
#
# 1 157.1573 34.5128 54.5505 10.9183 16.3245 -15.7179
# 2 34.5128 98.8405 32.7923 10.5312 19.6912 -9.4541
# 3 54.5505 32.7923 118.5162 29.5597 22.4585 -5.1843
# 4 10.9183 10.5312 29.5597 41.8192 1.9395 8.5413
# 5 16.3245 19.6912 22.4585 1.9395 46.7811 -3.3619
# 6 -15.7179 -9.4541 -5.1843 8.5413 -3.3619 41.6414
#
#
#
# Elastic Compliance Matrix: (Units=1/GPa)
#
#
# Indices 1 2 3 4 5 6 
#
# 1 0.008041 -0.001456 -0.003102 0.000021 -0.000542 0.002271
# 2 -0.001456 0.012259 -0.001431 -0.001963 -0.003728 0.002157
# 3 -0.003102 -0.001431 0.013181 -0.008259 -0.004193 0.001501
# 4 0.000021 -0.001963 -0.008259 0.031683 0.002915 -0.007729
# 5 -0.000542 -0.003728 -0.004193 0.002915 0.025016 -0.000151
# 6 0.002271 0.002157 0.001501 -0.007729 -0.000151 0.027121
#
#
# Mechanical properties :
#
#
# Convention : Reuss Voigt Hill
#
# Bulk Modulus (GPa) = 46.50317 68.69170 57.59744
# Shear Modulus (GPa) = 36.64422 42.89223 39.76823
#
# Velocity S-wave (km/s) = 4.13487 4.47351 4.30752
# Velocity P-wave (km/s) = 6.67032 7.66372 7.18421
#
# Compressibility (1/GPa) = 0.02150391
#
# Stress axis : x y z
#
# Youngs Moduli (GPa) = 124.35815 81.57408 75.86395
#
# Poissons Ratio (x) = 0.11876 0.23530
# Poissons Ratio (y) = 0.18105 0.10858
# Poissons Ratio (z) = 0.38571 0.11676
#
# Static dielectric constant tensor:
#      x y z
#    x 1.739970 -0.031110 -0.103460 
#    y -0.031110 1.750220 -0.034900 
#    z -0.103460 -0.034900 1.664270 
# 
# From -- ./inp_files/561412.got.cif
#   From: 2010.05.17/outbox.cif.g08.bks.cpg/sg2_281_cif.got.tgz:561412.got - 2010.06.03 11:33:40.
