data_PCOD9061821
_publ_section_title
;
Structure prediction by ZEFSAII (Michael W. Deem and Ramdas Pophale) SiO2 
 PCOD9061821
Probable space group: P -1
;
_chemical_formula_sum "Si O2"
_cell_formula_units_Z 16
_cell_length_a 14.232098
_cell_length_b 8.971192
_cell_length_c 9.073579
_cell_angle_alpha 84.215269
_cell_angle_beta 40.800886
_cell_angle_gamma 90.599092
_cell_volume 746.413249
_symmetry_space_group_name_H-M "P -1"
_symmetry_group_IT_number 2
_symmetry_cell_setting 'triclinic'
loop_
_space_group_symop_operation_xyz
x,y,z
-x,-y,-z
loop_
_atom_site_type_symbol
_atom_site_label
_atom_site_fract_x
_atom_site_fract_y
_atom_site_fract_z
Si Si1 0.605929 0.153806 0.361042
Si Si2 0.871838 0.901718 0.567439
Si Si3 0.590327 0.361532 0.094299
Si Si4 0.138156 0.452520 0.418377
Si Si5 0.451542 0.162348 0.018937
Si Si6 0.882635 0.075072 0.229855
Si Si7 0.440697 0.625103 0.388674
Si Si8 0.116414 0.589684 0.750430
O O1 0.646274 0.238213 0.149633
O O2 0.745769 0.107623 0.287917
O O3 0.507640 0.267334 0.548390
O O4 0.500000 0.000000 0.500000
O O5 0.890075 0.728259 0.535265
O O6 0.713863 0.877686 0.834160
O O7 0.850247 0.975675 0.425556
O O8 0.000000 0.000000 0.500000
O O9 0.477249 0.265772 0.125433
O O10 0.515521 0.483669 0.264662
O O11 0.717226 0.463702 0.841930
O O12 0.134362 0.513624 0.581041
O O13 0.000000 0.500000 0.500000
O O14 0.547870 0.260618 0.774443
O O15 0.500000 0.000000 0.000000
O O16 0.929159 0.243256 0.221985
O O17 0.000000 0.000000 0.000000
O O18 0.273703 0.584529 0.635017
O O19 0.000000 0.500000 0.000000
#
# Coordination Sequence:
#
# PCOD9061821 Si02
#       8
#     2   2   2   2   2   2   2   2
#     4  11  26  47  70 107 148 193 237 302 366 438
#     4  12  27  47  73 109 146 191 248 307 376 437
#     4  12  25  47  76 110 149 194 253 304 367 446
#     4  12  27  45  74 109 148 191 248 310 371 439
#     4  12  24  44  75 107 148 191 241 309 366 438
#     4  11  26  48  69 103 146 191 245 292 368 450
#     4  11  23  46  71 106 142 189 254 298 368 438
#     4  11  24  45  72 103 145 194 242 305 374 435
#
# _framework density 21.435846000000002
#
# number of rings (size 3 to 8) (size 9 to 14) (size 15 to 20)
#    0.000    0.500    2.500    6.000    7.000    2.000 
#    2.250    0.000    0.000    0.000    0.000    0.000 
#    0.000    0.000    0.000    0.000    0.000    0.000 
#
# Total GULP energy -89318.004209 kJ/mol
# GULP energy per Si atom -5582.375263 kJ/mol
# Density = 2.138706 g / cm^3
# Si number density = 21.435846 Si / 1000 Ang^3
#
#
#
# Elastic Constant Matrix: (Units=GPa)
#
#
# Indices 1 2 3 4 5 6 
#
# 1 79.2261 47.9989 34.2604 -17.9272 -0.3978 -2.4102
# 2 47.9989 198.0519 72.3355 -9.1032 -3.6854 -1.2025
# 3 34.2604 72.3355 130.8164 -10.1940 -3.2033 -4.3585
# 4 -17.9272 -9.1032 -10.1940 44.6086 -7.2021 7.7614
# 5 -0.3978 -3.6854 -3.2033 -7.2021 39.6235 -6.4262
# 6 -2.4102 -1.2025 -4.3585 7.7614 -6.4262 43.8993
#
#
#
# Elastic Compliance Matrix: (Units=1/GPa)
#
#
# Indices 1 2 3 4 5 6 
#
# 1 0.016685 -0.002930 -0.002294 0.005750 0.000705 -0.000305
# 2 -0.002930 0.006861 -0.003057 -0.000405 0.000261 -0.000167
# 3 -0.002294 -0.003057 0.010037 0.000737 0.000763 0.000768
# 4 0.005750 -0.000405 0.000737 0.026129 0.004242 -0.003621
# 5 0.000705 0.000261 0.000763 0.004242 0.026632 0.003270
# 6 -0.000305 -0.000167 0.000768 -0.003621 0.003270 0.023953
#
#
# Mechanical properties :
#
#
# Convention : Reuss Voigt Hill
#
# Bulk Modulus (GPa) = 58.75431 79.69823 69.22627
# Shear Modulus (GPa) = 37.72624 42.52627 40.12626
#
# Velocity S-wave (km/s) = 4.19974 4.45892 4.33127
# Velocity P-wave (km/s) = 7.14045 7.98560 7.57482
#
# Compressibility (1/GPa) = 0.01702003
#
# Stress axis : x y z
#
# Youngs Moduli (GPa) = 59.93477 145.74804 99.62735
#
# Poissons Ratio (x) = 0.42706 0.22858
# Poissons Ratio (y) = 0.17562 0.30458
# Poissons Ratio (z) = 0.13751 0.44559
#
# Static dielectric constant tensor:
#      x y z
#    x 1.798920 0.013130 0.007600 
#    y 0.013130 1.701260 0.005590 
#    z 0.007600 0.005590 1.778560 
# 
# From -- ./inp_files/298485.got.cif
#   From: 2010.05.17/outbox.cif.g08.bks.cpg/sg2_150_cif.got.tgz:298485.got - 2010.06.03 11:33:40.
