data_PCOD9061653
_publ_section_title
;
Structure prediction by ZEFSAII (Michael W. Deem and Ramdas Pophale) SiO2 
 PCOD9061653
Probable space group: P -1
;
_chemical_formula_sum "Si O2"
_cell_formula_units_Z 14
_cell_length_a 23.726422
_cell_length_b 5.405240
_cell_length_c 10.802427
_cell_angle_alpha 63.863649
_cell_angle_beta 29.638982
_cell_angle_gamma 79.087885
_cell_volume 553.523016
_symmetry_space_group_name_H-M "P -1"
_symmetry_group_IT_number 2
_symmetry_cell_setting 'triclinic'
loop_
_space_group_symop_operation_xyz
x,y,z
-x,-y,-z
loop_
_atom_site_type_symbol
_atom_site_label
_atom_site_fract_x
_atom_site_fract_y
_atom_site_fract_z
Si Si1 0.612675 0.474426 0.126577
Si Si2 0.469384 0.867676 0.383799
Si Si3 0.066423 0.563521 0.677049
Si Si4 0.135578 0.490817 0.111705
Si Si5 0.416967 0.139850 0.203119
Si Si6 0.175232 0.107810 0.523188
Si Si7 0.856471 0.094515 0.792918
O O1 0.539105 0.688180 0.221839
O O2 0.585759 0.315877 0.345355
O O3 0.563442 0.206994 0.177410
O O4 0.756461 0.688390 0.772532
O O5 0.381092 0.932698 0.441059
O O6 0.928578 0.448079 0.901841
O O7 0.106364 0.290819 0.679037
O O8 0.154128 0.780961 0.349177
O O9 0.087505 0.777897 0.707552
O O10 0.194135 0.774307 0.028668
O O11 0.009899 0.251058 0.483712
O O12 0.200465 0.269108 0.008592
O O13 0.290973 0.105521 0.381339
O O14 0.500000 0.500000 0.000000
O O15 0.500000 0.000000 0.000000
#
# Coordination Sequence:
#
# PCOD9061653 Si02
#       7
#     2   2   2   2   2   2   2
#     4  10  20  32  51  64  82 115 152 199 228 265
#     4  10  19  36  49  63  81 114 162 190 224 275
#     4  10  18  26  39  64  94 116 142 178 224 272
#     4   8  13  24  39  55  81 123 145 160 202 270
#     4  12  21  34  48  65  88 120 152 195 230 272
#     4  12  20  28  43  68  91 115 142 192 238 254
#     4   8  13  24  39  55  81 123 145 160 202 270
#
# _framework density 25.292536999999999
#
# number of rings (size 3 to 8) (size 9 to 14) (size 15 to 20)
#    0.857    1.143    2.857    3.429    0.000    0.000 
#    0.000    0.000    0.000    0.000    0.000    0.000 
#    0.000    0.000    0.000  102.857    0.000    0.000 
#
# Total GULP energy -78300.468577 kJ/mol
# GULP energy per Si atom -5592.890613 kJ/mol
# Density = 2.523497 g / cm^3
# Si number density = 25.292537 Si / 1000 Ang^3
#
#
#
# Elastic Constant Matrix: (Units=GPa)
#
#
# Indices 1 2 3 4 5 6 
#
# 1 129.8848 80.6595 10.1946 -14.0476 -4.0344 -11.0035
# 2 80.6595 260.9185 25.2475 -19.0624 -16.5684 3.3970
# 3 10.1946 25.2475 68.6802 -12.0130 14.4844 -2.1730
# 4 -14.0476 -19.0624 -12.0130 25.8096 -3.9368 -4.4989
# 5 -4.0344 -16.5684 14.4844 -3.9368 33.0447 -9.3360
# 6 -11.0035 3.3970 -2.1730 -4.4989 -9.3360 40.7852
#
#
#
# Elastic Compliance Matrix: (Units=1/GPa)
#
#
# Indices 1 2 3 4 5 6 
#
# 1 0.010297 -0.002830 0.000116 0.004449 0.001399 0.003831
# 2 -0.002830 0.005235 -0.001865 0.001888 0.003222 -0.000353
# 3 0.000116 -0.001865 0.017951 0.005789 -0.008122 -0.000077
# 4 0.004449 0.001888 0.005789 0.047749 0.006961 0.008212
# 5 0.001399 0.003222 -0.008122 0.006961 0.039091 0.009393
# 6 0.003831 -0.000353 -0.000077 0.008212 0.009393 0.028634
#
#
# Mechanical properties :
#
#
# Convention : Reuss Voigt Hill
#
# Bulk Modulus (GPa) = 41.10838 76.85404 58.98121
# Shear Modulus (GPa) = 30.07991 42.82001 36.44996
#
# Velocity S-wave (km/s) = 3.45234 4.11906 3.80035
# Velocity P-wave (km/s) = 5.67274 7.28521 6.52894
#
# Compressibility (1/GPa) = 0.02432594
#
# Stress axis : x y z
#
# Youngs Moduli (GPa) = 97.11639 191.01661 55.70581
#
# Poissons Ratio (x) = 0.54065 -0.00648
# Poissons Ratio (y) = 0.27487 0.10388
# Poissons Ratio (z) = -0.01130 0.35621
#
# Static dielectric constant tensor:
#      x y z
#    x 1.967900 -0.000010 -0.020500 
#    y -0.000010 2.049570 -0.004760 
#    z -0.020500 -0.004760 2.040710 
# 
# From -- ./inp_files/369680.got.cif
#   From: 2010.05.17/outbox.cif.g08.bks.cpg/sg2_185_cif.got.tgz:369680.got - 2010.06.03 11:33:40.
