data_PCOD9061588
_publ_section_title
;
Structure prediction by ZEFSAII (Michael W. Deem and Ramdas Pophale) SiO2 
 PCOD9061588
Probable space group: P -1
;
_chemical_formula_sum "Si O2"
_cell_formula_units_Z 16
_cell_length_a 9.624369
_cell_length_b 13.291954
_cell_length_c 10.014524
_cell_angle_alpha 130.371927
_cell_angle_beta 111.017495
_cell_angle_gamma 52.258456
_cell_volume 770.303334
_symmetry_space_group_name_H-M "P -1"
_symmetry_group_IT_number 2
_symmetry_cell_setting 'triclinic'
loop_
_space_group_symop_operation_xyz
x,y,z
-x,-y,-z
loop_
_atom_site_type_symbol
_atom_site_label
_atom_site_fract_x
_atom_site_fract_y
_atom_site_fract_z
Si Si1 0.300940 0.640718 0.540888
Si Si2 0.851830 0.608852 0.150012
Si Si3 0.210231 0.884269 0.959580
Si Si4 0.107889 0.137426 0.742619
Si Si5 0.472818 0.665688 0.094170
Si Si6 0.297819 0.110795 0.062198
Si Si7 0.253868 0.800471 0.380562
Si Si8 0.089279 0.470376 0.362598
O O1 0.500000 0.500000 0.500000
O O2 0.252945 0.776772 0.749491
O O3 0.291969 0.698473 0.437382
O O4 0.177157 0.572063 0.460477
O O5 0.845656 0.768348 0.262881
O O6 0.660047 0.636455 0.087062
O O7 0.935407 0.528218 0.249836
O O8 0.000000 0.500000 0.000000
O O9 0.322209 0.765238 0.016526
O O10 0.267849 0.008953 0.070387
O O11 0.000000 0.000000 0.000000
O O12 0.900867 0.208817 0.752758
O O13 0.182247 0.970711 0.559254
O O14 0.190230 0.128877 0.906462
O O15 0.406957 0.756143 0.290067
O O16 0.500000 0.500000 0.000000
O O17 0.233289 0.285777 0.235350
O O18 0.500000 0.000000 0.000000
O O19 0.000000 0.500000 0.500000
#
# Coordination Sequence:
#
# PCOD9061588 Si02
#       8
#     2   2   2   2   2   2   2   2
#     4  12  26  47  75 107 146 196 246 302 373 449
#     4  12  26  47  75 100 148 197 249 300 375 452
#     4  12  27  47  76 109 148 193 248 307 372 444
#     4  11  23  45  74 102 140 197 240 298 373 441
#     4  12  29  46  76 111 147 194 252 311 370 448
#     4  12  25  45  73 103 145 190 242 299 371 439
#     4  11  25  45  74 105 143 187 249 302 366 442
#     4  12  29  45  74 110 148 191 245 311 371 433
#
# _framework density 20.771037
#
# number of rings (size 3 to 8) (size 9 to 14) (size 15 to 20)
#    0.000    0.250    3.750    4.500    8.750    1.500 
#    0.000    0.000    0.000    0.000    0.000    0.000 
#    0.000    0.000    0.000    0.000    0.000    0.000 
#
# Total GULP energy -89478.913563 kJ/mol
# GULP energy per Si atom -5592.432098 kJ/mol
# Density = 2.072376 g / cm^3
# Si number density = 20.771037 Si / 1000 Ang^3
#
#
#
# Elastic Constant Matrix: (Units=GPa)
#
#
# Indices 1 2 3 4 5 6 
#
# 1 125.8998 47.2982 16.4275 -3.4200 -11.9088 -10.7481
# 2 47.2982 151.4482 38.1726 -11.7803 -1.8440 -5.5884
# 3 16.4275 38.1726 89.7865 -15.3243 -17.6716 -9.4595
# 4 -3.4200 -11.7803 -15.3243 39.6977 7.2979 2.1910
# 5 -11.9088 -1.8440 -17.6716 7.2979 33.1284 7.1185
# 6 -10.7481 -5.5884 -9.4595 2.1910 7.1185 35.3370
#
#
#
# Elastic Compliance Matrix: (Units=1/GPa)
#
#
# Indices 1 2 3 4 5 6 
#
# 1 0.009459 -0.002953 0.000221 -0.000648 0.003092 0.001887
# 2 -0.002953 0.008445 -0.003331 0.001461 -0.002689 -0.000003
# 3 0.000221 -0.003331 0.014570 0.003351 0.006515 0.001921
# 4 -0.000648 0.001461 0.003351 0.027680 -0.004487 0.000119
# 5 0.003092 -0.002689 0.006515 -0.004487 0.036652 -0.004846
# 6 0.001887 -0.000003 0.001921 0.000119 -0.004846 0.030355
#
#
# Mechanical properties :
#
#
# Convention : Reuss Voigt Hill
#
# Bulk Modulus (GPa) = 49.14074 63.43679 56.28877
# Shear Modulus (GPa) = 34.23020 39.31505 36.77262
#
# Velocity S-wave (km/s) = 4.06393 4.35533 4.21215
# Velocity P-wave (km/s) = 6.76242 7.47657 7.12845
#
# Compressibility (1/GPa) = 0.02034971
#
# Stress axis : x y z
#
# Youngs Moduli (GPa) = 105.71634 118.40706 68.63605
#
# Poissons Ratio (x) = 0.34968 -0.01520
# Poissons Ratio (y) = 0.31220 0.22860
# Poissons Ratio (z) = -0.02341 0.39436
#
# Static dielectric constant tensor:
#      x y z
#    x 1.723140 0.051870 -0.009750 
#    y 0.051870 1.751630 -0.032200 
#    z -0.009750 -0.032200 1.775280 
# 
# From -- ./inp_files/190168.got.cif
#   From: 2010.05.17/outbox.cif.g08.bks.cpg/sg2_96_cif.got.tgz:190168.got - 2010.06.03 11:33:40.
