data_PCOD9061993
_publ_section_title
;
Structure prediction by ZEFSAII (Michael W. Deem and Ramdas Pophale) SiO2 
 PCOD9061993
Probable space group: P -1
;
_chemical_formula_sum "Si O2"
_cell_formula_units_Z 14
_cell_length_a 14.522795
_cell_length_b 11.054127
_cell_length_c 13.649692
_cell_angle_alpha 43.566979
_cell_angle_beta 151.133699
_cell_angle_gamma 149.784962
_cell_volume 527.676163
_symmetry_space_group_name_H-M "P -1"
_symmetry_group_IT_number 2
_symmetry_cell_setting 'triclinic'
loop_
_space_group_symop_operation_xyz
x,y,z
-x,-y,-z
loop_
_atom_site_type_symbol
_atom_site_label
_atom_site_fract_x
_atom_site_fract_y
_atom_site_fract_z
Si Si1 0.993667 0.942463 0.853237
Si Si2 0.570376 0.399004 0.532923
Si Si3 0.714764 0.152403 0.697195
Si Si4 0.470301 0.169918 0.775884
Si Si5 0.755991 0.553442 0.230574
Si Si6 0.923542 0.369980 0.355071
Si Si7 0.862087 0.110234 0.195179
O O1 0.015785 0.165981 0.753808
O O2 0.096643 0.953460 0.834179
O O3 0.684819 0.698940 0.708112
O O4 0.179392 0.960921 0.091967
O O5 0.607675 0.219516 0.639084
O O6 0.150342 0.327293 0.382192
O O7 0.510898 0.337121 0.630333
O O8 0.976491 0.417959 0.748057
O O9 0.500000 0.000000 0.500000
O O10 0.343000 0.127262 0.788587
O O11 0.254380 0.894500 0.697080
O O12 0.734241 0.222506 0.999790
O O13 0.816805 0.549318 0.401782
O O14 0.767843 0.377353 0.289275
O O15 0.500000 0.500000 0.000000
#
# Coordination Sequence:
#
# PCOD9061993 Si02
#       7
#     2   2   2   2   2   2   2
#     4  12  26  45  75 113 149 193 248 310 370 443
#     4  12  25  48  74 108 156 193 248 307 375 441
#     4  12  27  46  74 107 150 198 249 303 371 440
#     4  11  23  46  77 106 143 198 249 301 367 445
#     4  11  24  43  72 104 146 192 246 306 366 435
#     4  11  24  46  70 104 145 194 242 302 368 435
#     4  11  25  46  76 111 146 199 247 304 373 447
#
# _framework density 26.531423
#
# number of rings (size 3 to 8) (size 9 to 14) (size 15 to 20)
#    0.000    0.571    4.286    3.429    2.000    4.000 
#    0.000    0.000    0.000    0.000    0.000    0.000 
#    0.000    0.000    0.000    0.000    0.000    0.000 
#
# Total GULP energy -78510.377926 kJ/mol
# GULP energy per Si atom -5607.884138 kJ/mol
# Density = 2.647104 g / cm^3
# Si number density = 26.531423 Si / 1000 Ang^3
#
#
#
# Elastic Constant Matrix: (Units=GPa)
#
#
# Indices 1 2 3 4 5 6 
#
# 1 61.3437 3.5547 26.4289 5.6291 3.9376 9.5890
# 2 3.5547 82.9726 10.1759 -0.5350 -7.1930 7.7205
# 3 26.4289 10.1759 160.3758 -1.8942 2.7059 10.2855
# 4 5.6291 -0.5350 -1.8942 51.5208 9.0250 -2.6745
# 5 3.9376 -7.1930 2.7059 9.0250 34.8367 5.7130
# 6 9.5890 7.7205 10.2855 -2.6745 5.7130 33.3768
#
#
#
# Elastic Compliance Matrix: (Units=1/GPa)
#
#
# Indices 1 2 3 4 5 6 
#
# 1 0.018445 -0.000096 -0.002761 -0.002253 -0.000567 -0.004509
# 2 -0.000096 0.012739 -0.000642 -0.000653 0.003411 -0.003357
# 3 -0.002761 -0.000642 0.006811 0.000546 -0.000317 -0.001059
# 4 -0.002253 -0.000653 0.000546 0.020869 -0.005871 0.003307
# 5 -0.000567 0.003411 -0.000317 -0.005871 0.032084 -0.006490
# 6 -0.004509 -0.003357 -0.001059 0.003307 -0.006490 0.033735
#
#
# Mechanical properties :
#
#
# Convention : Reuss Voigt Hill
#
# Bulk Modulus (GPa) = 32.26249 42.77900 37.52074
# Shear Modulus (GPa) = 35.20783 41.58237 38.39510
#
# Velocity S-wave (km/s) = 3.64679 3.96319 3.80828
# Velocity P-wave (km/s) = 5.46979 6.09109 5.78878
#
# Compressibility (1/GPa) = 0.03099575
#
# Stress axis : x y z
#
# Youngs Moduli (GPa) = 54.21576 78.49954 146.82379
#
# Poissons Ratio (x) = 0.00751 0.40543
# Poissons Ratio (y) = 0.00518 0.09433
# Poissons Ratio (z) = 0.14971 0.05043
#
# Static dielectric constant tensor:
#      x y z
#    x 2.164680 -0.030840 0.010590 
#    y -0.030840 2.083220 -0.025970 
#    z 0.010590 -0.025970 2.062680 
# 
# From -- ./inp_files/531752.got.cif
#   From: 2010.05.17/outbox.cif.g08.bks.cpg/sg2_266_cif.got.tgz:531752.got - 2010.06.03 11:33:40.
