data_PCOD9061155
_publ_section_title
;
Structure prediction by ZEFSAII (Michael W. Deem and Ramdas Pophale) SiO2 
 PCOD9061155
Probable space group: P -1
;
_chemical_formula_sum "Si O2"
_cell_formula_units_Z 14
_cell_length_a 15.180575
_cell_length_b 8.791940
_cell_length_c 12.571485
_cell_angle_alpha 49.699310
_cell_angle_beta 149.198648
_cell_angle_gamma 115.353549
_cell_volume 619.434389
_symmetry_space_group_name_H-M "P -1"
_symmetry_group_IT_number 2
_symmetry_cell_setting 'triclinic'
loop_
_space_group_symop_operation_xyz
x,y,z
-x,-y,-z
loop_
_atom_site_type_symbol
_atom_site_label
_atom_site_fract_x
_atom_site_fract_y
_atom_site_fract_z
Si Si1 0.018442 0.262665 0.162209
Si Si2 0.817629 0.485496 0.203346
Si Si3 0.569016 0.427637 0.336511
Si Si4 0.263858 0.822876 0.588481
Si Si5 0.372387 0.132195 0.010463
Si Si6 0.172644 0.303592 0.527305
Si Si7 0.621301 0.272292 0.688952
O O1 0.091670 0.230658 0.373041
O O2 0.157773 0.062668 0.338210
O O3 0.000000 0.500000 0.000000
O O4 0.823579 0.239463 0.953334
O O5 0.847924 0.285729 0.403830
O O6 0.997932 0.465201 0.332983
O O7 0.646931 0.493909 0.946179
O O8 0.751018 0.690905 0.116947
O O9 0.665214 0.313260 0.381288
O O10 0.673275 0.595467 0.392569
O O11 0.608506 0.273453 0.548123
O O12 0.446943 0.807612 0.849990
O O13 0.436551 0.910880 0.235612
O O14 0.268092 0.132174 0.792960
O O15 0.500000 0.500000 0.500000
#
# Coordination Sequence:
#
# PCOD9061155 Si02
#       7
#     2   2   2   2   2   2   2
#     4  12  27  44  65 103 141 180 235 279 345 415
#     4  11  23  44  73 109 134 176 243 286 332 420
#     4  11  24  46  74 101 140 183 229 284 355 398
#     4  11  24  45  72 104 140 178 234 291 334 421
#     4  11  24  44  73 102 138 181 232 287 347 403
#     4  12  24  44  76 100 138 188 228 284 349 406
#     4  12  27  46  68 102 143 183 229 289 346 413
#
# _framework density 22.601264
#
# number of rings (size 3 to 8) (size 9 to 14) (size 15 to 20)
#    0.000    0.571    4.286    3.857    2.000    8.000 
#    0.000    0.000    0.000    0.000    0.000    0.000 
#    0.000    0.000    0.000    0.000    0.000    0.000 
#
# Total GULP energy -78365.442448 kJ/mol
# GULP energy per Si atom -5597.531603 kJ/mol
# Density = 2.254982 g / cm^3
# Si number density = 22.601264 Si / 1000 Ang^3
#
#
#
# Elastic Constant Matrix: (Units=GPa)
#
#
# Indices 1 2 3 4 5 6 
#
# 1 42.6730 4.0901 27.3947 6.7316 -11.7266 10.5161
# 2 4.0901 55.1866 25.8910 -10.0741 -6.8517 11.1032
# 3 27.3947 25.8910 116.4298 22.2773 -13.4826 2.2284
# 4 6.7316 -10.0741 22.2773 50.3702 -1.1466 -0.8180
# 5 -11.7266 -6.8517 -13.4826 -1.1466 48.3490 -4.3437
# 6 10.5161 11.1032 2.2284 -0.8180 -4.3437 20.5819
#
#
#
# Elastic Compliance Matrix: (Units=1/GPa)
#
#
# Indices 1 2 3 4 5 6 
#
# 1 0.034274 0.005831 -0.008437 0.000130 0.005113 -0.018660
# 2 0.005831 0.026363 -0.008264 0.007931 0.001628 -0.015648
# 3 -0.008437 -0.008264 0.013624 -0.006408 0.001083 0.007267
# 4 0.000130 0.007931 -0.006408 0.024204 -0.000305 -0.002754
# 5 0.005113 0.001628 0.001083 -0.000305 0.022551 0.001139
# 6 -0.018660 -0.015648 0.007267 -0.002754 0.001139 0.065906
#
#
# Mechanical properties :
#
#
# Convention : Reuss Voigt Hill
#
# Bulk Modulus (GPa) = 19.03976 36.56012 27.79994
# Shear Modulus (GPa) = 22.10731 34.32113 28.21422
#
# Velocity S-wave (km/s) = 3.13092 3.90108 3.53703
# Velocity P-wave (km/s) = 4.63818 6.04173 5.38587
#
# Compressibility (1/GPa) = 0.05252166
#
# Stress axis : x y z
#
# Youngs Moduli (GPa) = 29.17654 37.93137 73.39982
#
# Poissons Ratio (x) = -0.22116 0.61925
# Poissons Ratio (y) = -0.17012 0.60657
# Poissons Ratio (z) = 0.24615 0.31346
#
# Static dielectric constant tensor:
#      x y z
#    x 1.824940 0.002850 0.009650 
#    y 0.002850 1.871380 -0.008540 
#    z 0.009650 -0.008540 1.841430 
# 
# From -- ./inp_files/156937.got.cif
#   From: 2010.05.17/outbox.cif.g08.bks.cpg/sg2_79_cif.got.tgz:156937.got - 2010.06.03 11:33:40.
