data_PCOD9061858
_publ_section_title
;
Structure prediction by ZEFSAII (Michael W. Deem and Ramdas Pophale) SiO2 
 PCOD9061858
Probable space group: P -1
;
_chemical_formula_sum "Si O2"
_cell_formula_units_Z 13
_cell_length_a 8.980479
_cell_length_b 10.340878
_cell_length_c 10.496993
_cell_angle_alpha 86.663770
_cell_angle_beta 118.892837
_cell_angle_gamma 53.845296
_cell_volume 602.430145
_symmetry_space_group_name_H-M "P -1"
_symmetry_group_IT_number 2
_symmetry_cell_setting 'triclinic'
loop_
_space_group_symop_operation_xyz
x,y,z
-x,-y,-z
loop_
_atom_site_type_symbol
_atom_site_label
_atom_site_fract_x
_atom_site_fract_y
_atom_site_fract_z
Si Si1 0.000000 0.500000 0.500000
Si Si2 0.858316 0.986085 0.047153
Si Si3 0.201838 0.047358 0.430381
Si Si4 0.412842 0.678603 0.611024
Si Si5 0.322936 0.696925 0.854070
Si Si6 0.482357 0.101565 0.685697
Si Si7 0.855596 0.386241 0.650767
O O1 0.282631 0.321262 0.588536
O O2 0.970477 0.612301 0.354413
O O3 0.744598 0.149067 0.090229
O O4 0.650293 0.023766 0.881564
O O5 0.018089 0.793352 0.199437
O O6 0.000000 0.000000 0.000000
O O7 0.330262 0.054099 0.597054
O O8 0.928571 0.237668 0.290817
O O9 0.216709 0.889164 0.476845
O O10 0.342372 0.987222 0.359748
O O11 0.440028 0.675995 0.771922
O O12 0.666323 0.561308 0.653467
O O13 0.304626 0.601424 0.523203
O O14 0.500000 0.500000 0.000000
#
# Coordination Sequence:
#
# PCOD9061858 Si02
#       7
#     1   2   2   2   2   2   2
#     4  12  26  46  68 110 142 198 236 292 366 442
#     4  12  25  48  73 109 146 192 244 307 363 429
#     4  11  23  48  69 105 140 196 236 300 367 433
#     4  11  23  46  72 106 138 194 245 299 361 437
#     4  12  26  41  74 108 142 183 250 301 355 431
#     4  11  26  44  72  99 152 188 238 300 371 428
#     4  11  25  45  76 106 147 191 244 301 365 434
#
# _framework density 21.579264999999999
#
# number of rings (size 3 to 8) (size 9 to 14) (size 15 to 20)
#    0.000    0.615    4.615    2.308    8.615    0.615 
#    0.000    0.769    0.000    0.000    0.000    0.000 
#    0.000    0.000    0.000    0.000    0.000    0.000 
#
# Total GULP energy -72418.748132 kJ/mol
# GULP energy per Si atom -5570.672933 kJ/mol
# Density = 2.153015 g / cm^3
# Si number density = 21.579265 Si / 1000 Ang^3
#
#
#
# Elastic Constant Matrix: (Units=GPa)
#
#
# Indices 1 2 3 4 5 6 
#
# 1 89.4443 44.3837 45.8709 3.3932 -13.6381 -15.5389
# 2 44.3837 93.5178 60.3852 -0.7362 -16.5309 -30.8682
# 3 45.8709 60.3852 117.5908 6.4848 -10.5929 -7.2261
# 4 3.3932 -0.7362 6.4848 51.7526 6.1417 -2.5752
# 5 -13.6381 -16.5309 -10.5929 6.1417 40.0888 5.3448
# 6 -15.5389 -30.8682 -7.2261 -2.5752 5.3448 31.1896
#
#
#
# Elastic Compliance Matrix: (Units=1/GPa)
#
#
# Indices 1 2 3 4 5 6 
#
# 1 0.015907 -0.003608 -0.003893 -0.000771 0.002621 0.002939
# 2 -0.003608 0.027977 -0.011361 0.002738 0.003844 0.022826
# 3 -0.003893 -0.011361 0.015356 -0.002281 -0.000301 -0.009763
# 4 -0.000771 0.002738 -0.002281 0.020302 -0.003387 0.004054
# 5 0.002621 0.003844 -0.000301 -0.003387 0.027863 -0.000013
# 6 0.002939 0.022826 -0.009763 0.004054 -0.000013 0.054192
#
#
# Mechanical properties :
#
#
# Convention : Reuss Voigt Hill
#
# Bulk Modulus (GPa) = 46.48000 66.87028 56.67514
# Shear Modulus (GPa) = 24.21393 34.60041 29.40717
#
# Velocity S-wave (km/s) = 3.35340 4.00860 3.69555
# Velocity P-wave (km/s) = 6.04811 7.24436 6.67309
#
# Compressibility (1/GPa) = 0.02151463
#
# Stress axis : x y z
#
# Youngs Moduli (GPa) = 62.86733 35.74310 65.12291
#
# Poissons Ratio (x) = 0.12898 0.25350
# Poissons Ratio (y) = 0.22685 0.73988
# Poissons Ratio (z) = 0.24472 0.40609
#
# Static dielectric constant tensor:
#      x y z
#    x 1.843280 0.043430 -0.006800 
#    y 0.043430 1.821320 0.006620 
#    z -0.006800 0.006620 1.804890 
# 
# From -- ./inp_files/152937.got.cif
#   From: 2010.05.17/outbox.cif.g08.bks.cpg/sg2_77_cif.got.tgz:152937.got - 2010.06.03 11:33:40.
