data_PCOD9061819
_publ_section_title
;
Structure prediction by ZEFSAII (Michael W. Deem and Ramdas Pophale) SiO2 
 PCOD9061819
Probable space group: P -1
;
_chemical_formula_sum "Si O2"
_cell_formula_units_Z 15
_cell_length_a 12.933280
_cell_length_b 7.841135
_cell_length_c 8.704699
_cell_angle_alpha 56.027476
_cell_angle_beta 104.698202
_cell_angle_gamma 77.165674
_cell_volume 631.056401
_symmetry_space_group_name_H-M "P -1"
_symmetry_group_IT_number 2
_symmetry_cell_setting 'triclinic'
loop_
_space_group_symop_operation_xyz
x,y,z
-x,-y,-z
loop_
_atom_site_type_symbol
_atom_site_label
_atom_site_fract_x
_atom_site_fract_y
_atom_site_fract_z
Si Si1 0.047813 0.618341 0.826504
Si Si2 0.214394 0.823484 0.386464
Si Si3 0.586203 0.685327 0.345607
Si Si4 0.550967 0.175996 0.465640
Si Si5 0.500000 0.500000 0.000000
Si Si6 0.841638 0.844811 0.065916
Si Si7 0.028024 0.099975 0.628207
Si Si8 0.623581 0.099339 0.074928
O O1 0.143615 0.391029 0.887159
O O2 0.953051 0.775819 0.578789
O O3 0.083029 0.818284 0.798747
O O4 0.000000 0.500000 0.000000
O O5 0.303964 0.564807 0.499159
O O6 0.306110 0.919384 0.428936
O O7 0.114812 0.816947 0.462181
O O8 0.142353 0.993377 0.136297
O O9 0.501111 0.715062 0.442402
O O10 0.629714 0.880710 0.276894
O O11 0.510714 0.753243 0.122178
O O12 0.497483 0.360166 0.219784
O O13 0.500000 0.000000 0.500000
O O14 0.630376 0.277249 0.106576
O O15 0.933521 0.803069 0.259391
O O16 0.713564 0.998710 0.019238
#
# Coordination Sequence:
#
# PCOD9061819 Si02
#       8
#     2   2   2   2   1   2   2   2
#     4  11  25  50  77 107 152 194 260 309 364 447
#     4  12  24  46  76 104 153 192 250 307 374 450
#     4  11  23  46  71 105 148 196 242 305 379 442
#     4  12  25  47  69 106 147 192 243 307 370 443
#     4  12  24  44  72 106 144 182 256 298 362 452
#     4  12  25  50  77 108 154 204 246 309 382 447
#     4  11  27  51  76 114 151 200 251 314 372 448
#     4  11  24  45  73 107 148 195 247 305 375 445
#
# _framework density 23.769665
#
# number of rings (size 3 to 8) (size 9 to 14) (size 15 to 20)
#    0.000    0.533    5.333    2.800    0.000    2.133 
#   14.400    0.000    0.000    0.000    0.000    0.000 
#    0.000    0.000    0.000    0.000    0.000    0.000 
#
# Total GULP energy -83505.128836 kJ/mol
# GULP energy per Si atom -5567.008589 kJ/mol
# Density = 2.371556 g / cm^3
# Si number density = 23.769665 Si / 1000 Ang^3
#
#
#
# Elastic Constant Matrix: (Units=GPa)
#
#
# Indices 1 2 3 4 5 6 
#
# 1 65.6283 33.6360 31.8190 -2.7180 -6.5967 -2.2918
# 2 33.6360 113.2915 17.0355 -39.2552 -1.6478 -12.2966
# 3 31.8190 17.0355 130.4958 -2.0460 -34.0447 6.6979
# 4 -2.7180 -39.2552 -2.0460 37.1258 -6.0894 5.3011
# 5 -6.5967 -1.6478 -34.0447 -6.0894 40.7712 2.9830
# 6 -2.2918 -12.2966 6.6979 5.3011 2.9830 30.0632
#
#
#
# Elastic Compliance Matrix: (Units=1/GPa)
#
#
# Indices 1 2 3 4 5 6 
#
# 1 0.021328 -0.008292 -0.004867 -0.007971 -0.002208 0.000943
# 2 -0.008292 0.017950 0.000376 0.018300 0.002198 0.003181
# 3 -0.004867 0.000376 0.011578 0.002867 0.009635 -0.004259
# 4 -0.007971 0.018300 0.002867 0.047814 0.009213 -0.003107
# 5 -0.002208 0.002198 0.009635 0.009213 0.034151 -0.006429
# 6 0.000943 0.003181 -0.004259 -0.003107 -0.006429 0.036771
#
#
# Mechanical properties :
#
#
# Convention : Reuss Voigt Hill
#
# Bulk Modulus (GPa) = 39.54374 52.71073 46.12724
# Shear Modulus (GPa) = 24.55922 36.72041 30.63981
#
# Velocity S-wave (km/s) = 3.21786 3.93471 3.59420
# Velocity P-wave (km/s) = 5.52073 6.54724 6.05578
#
# Compressibility (1/GPa) = 0.02528845
#
# Stress axis : x y z
#
# Youngs Moduli (GPa) = 46.88678 55.70932 86.36919
#
# Poissons Ratio (x) = 0.46195 0.42040
# Poissons Ratio (y) = 0.38879 -0.03244
# Poissons Ratio (z) = 0.22822 -0.02092
#
# Static dielectric constant tensor:
#      x y z
#    x 1.909960 -0.003800 0.009610 
#    y -0.003800 2.031260 0.067860 
#    z 0.009610 0.067860 1.912480 
# 
# From -- ./inp_files/297481.got.cif
#   From: 2010.05.17/outbox.cif.g08.bks.cpg/sg2_149_cif.got.tgz:297481.got - 2010.06.03 11:33:40.
