data_PCOD9061190
_publ_section_title
;
Structure prediction by ZEFSAII (Michael W. Deem and Ramdas Pophale) SiO2 
 PCOD9061190
Probable space group: P -1
;
_chemical_formula_sum "Si O2"
_cell_formula_units_Z 14
_cell_length_a 8.822524
_cell_length_b 14.295053
_cell_length_c 11.427751
_cell_angle_alpha 150.828022
_cell_angle_beta 53.094783
_cell_angle_gamma 117.405266
_cell_volume 554.114405
_symmetry_space_group_name_H-M "P -1"
_symmetry_group_IT_number 2
_symmetry_cell_setting 'triclinic'
loop_
_space_group_symop_operation_xyz
x,y,z
-x,-y,-z
loop_
_atom_site_type_symbol
_atom_site_label
_atom_site_fract_x
_atom_site_fract_y
_atom_site_fract_z
Si Si1 0.551003 0.204155 0.753242
Si Si2 0.881163 0.757334 0.711566
Si Si3 0.839379 0.872935 0.588930
Si Si4 0.715534 0.410767 0.328927
Si Si5 0.866927 0.246089 0.850367
Si Si6 0.306297 0.598792 0.322105
Si Si7 0.598178 0.128862 0.252492
O O1 0.688554 0.201246 0.801570
O O2 0.664566 0.308884 0.716846
O O3 0.500000 0.000000 0.500000
O O4 0.358970 0.365864 0.039076
O O5 0.887002 0.811406 0.630955
O O6 0.794843 0.560334 0.540159
O O7 0.101562 0.696820 0.576399
O O8 0.738051 0.939373 0.030923
O O9 0.609302 0.916583 0.734052
O O10 0.954305 0.724010 0.279612
O O11 0.921222 0.061641 0.711071
O O12 0.500000 0.500000 0.500000
O O13 0.704178 0.211871 0.184758
O O14 0.810100 0.404100 0.150126
O O15 0.449967 0.692022 0.440186
#
# Coordination Sequence:
#
# PCOD9061190 Si02
#       7
#     2   2   2   2   2   2   2
#     4  11  25  48  72 102 149 190 242 298 362 435
#     4  12  25  46  71 108 149 190 241 301 360 435
#     4  11  23  44  74 105 142 189 242 298 362 422
#     4  12  25  42  72 107 143 188 245 298 367 426
#     4  11  24  44  75 107 140 189 244 302 360 429
#     4  11  27  46  72 105 144 197 241 291 368 433
#     4  12  25  48  72 107 152 190 239 303 363 431
#
# _framework density 25.265542
#
# number of rings (size 3 to 8) (size 9 to 14) (size 15 to 20)
#    0.000    0.571    4.286    3.429    0.000    8.000 
#    0.000    0.000    0.000    0.000    0.000    0.000 
#    0.000    0.000    0.000    0.000    0.000    0.000 
#
# Total GULP energy -78260.044354 kJ/mol
# GULP energy per Si atom -5590.003168 kJ/mol
# Density = 2.520804 g / cm^3
# Si number density = 25.265542 Si / 1000 Ang^3
#
#
#
# Elastic Constant Matrix: (Units=GPa)
#
#
# Indices 1 2 3 4 5 6 
#
# 1 66.4412 13.8864 30.3665 19.1110 -9.2994 0.4142
# 2 13.8864 110.4822 32.0070 8.0658 -2.1948 -12.9457
# 3 30.3665 32.0070 160.7665 16.7022 -0.9661 8.8604
# 4 19.1110 8.0658 16.7022 44.9740 1.9731 4.1773
# 5 -9.2994 -2.1948 -0.9661 1.9731 45.1961 -4.6659
# 6 0.4142 -12.9457 8.8604 4.1773 -4.6659 41.8009
#
#
#
# Elastic Compliance Matrix: (Units=1/GPa)
#
#
# Indices 1 2 3 4 5 6 
#
# 1 0.019171 -0.000840 -0.002745 -0.007290 0.004302 0.001340
# 2 -0.000840 0.010271 -0.001973 -0.001137 0.000726 0.003802
# 3 -0.002745 -0.001973 0.007346 -0.000981 -0.000679 -0.002119
# 4 -0.007290 -0.001137 -0.000981 0.026317 -0.003039 -0.003041
# 5 0.004302 0.000726 -0.000679 -0.003039 0.023500 0.003253
# 6 0.001340 0.003802 -0.002119 -0.003041 0.003253 0.026203
#
#
# Mechanical properties :
#
#
# Convention : Reuss Voigt Hill
#
# Bulk Modulus (GPa) = 38.95075 54.46777 46.70926
# Shear Modulus (GPa) = 37.74063 43.82286 40.78174
#
# Velocity S-wave (km/s) = 3.86911 4.16924 4.02198
# Velocity P-wave (km/s) = 5.95063 6.69191 6.33213
#
# Compressibility (1/GPa) = 0.02567345
#
# Stress axis : x y z
#
# Youngs Moduli (GPa) = 52.16087 97.35703 136.12563
#
# Poissons Ratio (x) = 0.08176 0.37362
# Poissons Ratio (y) = 0.04380 0.26862
# Poissons Ratio (z) = 0.14317 0.19212
#
# Static dielectric constant tensor:
#      x y z
#    x 1.830860 0.004060 -0.033390 
#    y 0.004060 2.052420 -0.008280 
#    z -0.033390 -0.008280 2.144810 
# 
# From -- ./inp_files/272243.got.cif
#   From: 2010.05.17/outbox.cif.g08.bks.cpg/sg2_137_cif.got.tgz:272243.got - 2010.06.03 11:33:40.
