data_PCOD9061850
_publ_section_title
;
Structure prediction by ZEFSAII (Michael W. Deem and Ramdas Pophale) SiO2 
 PCOD9061850
Probable space group: P -1
;
_chemical_formula_sum "Si O2"
_cell_formula_units_Z 12
_cell_length_a 14.632071
_cell_length_b 8.571873
_cell_length_c 11.744765
_cell_angle_alpha 46.854650
_cell_angle_beta 27.934963
_cell_angle_gamma 53.166875
_cell_volume 503.458223
_symmetry_space_group_name_H-M "P -1"
_symmetry_group_IT_number 2
_symmetry_cell_setting 'triclinic'
loop_
_space_group_symop_operation_xyz
x,y,z
-x,-y,-z
loop_
_atom_site_type_symbol
_atom_site_label
_atom_site_fract_x
_atom_site_fract_y
_atom_site_fract_z
Si Si1 0.562429 0.271272 0.091820
Si Si2 0.756527 0.838664 0.336095
Si Si3 0.665658 0.056471 0.654256
Si Si4 0.140739 0.701662 0.077709
Si Si5 0.064741 0.255965 0.053182
Si Si6 0.695556 0.734770 0.986488
O O1 0.452447 0.224130 0.355357
O O2 0.786545 0.268918 0.886800
O O3 0.477693 0.094696 0.187348
O O4 0.500000 0.500000 0.000000
O O5 0.793502 0.093075 0.172584
O O6 0.802338 0.783936 0.182816
O O7 0.908913 0.710690 0.310982
O O8 0.864760 0.118628 0.341906
O O9 0.718114 0.923747 0.775432
O O10 0.534519 0.259857 0.730816
O O11 0.229429 0.484202 0.040888
O O12 0.180441 0.219977 0.059938
O O13 0.000000 0.500000 0.000000
#
# Coordination Sequence:
#
# PCOD9061850 Si02
#       6
#     2   2   2   2   2   2
#     4  12  26  47  75 102 139 186 232 287 351 411
#     4  11  26  46  69 104 143 179 237 285 344 415
#     4  11  26  48  70 103 144 184 233 285 344 412
#     4  11  23  46  72 105 136 186 228 286 347 407
#     4  12  26  46  73 104 140 188 229 287 351 409
#     4  11  25  46  75 103 142 185 233 283 347 413
#
# _framework density 23.835146000000002
#
# number of rings (size 3 to 8) (size 9 to 14) (size 15 to 20)
#    0.000    0.667    3.333    4.000    2.333    2.667 
#    6.000    0.000    0.000    0.000    0.000    0.000 
#    0.000    0.000    0.000    0.000    0.000    0.000 
#
# Total GULP energy -67228.332978 kJ/mol
# GULP energy per Si atom -5602.361081 kJ/mol
# Density = 2.378090 g / cm^3
# Si number density = 23.835146 Si / 1000 Ang^3
#
#
#
# Elastic Constant Matrix: (Units=GPa)
#
#
# Indices 1 2 3 4 5 6 
#
# 1 188.7311 28.2804 7.0073 0.4381 1.0530 -18.4147
# 2 28.2804 131.3292 5.3475 -1.8441 -2.2923 -17.9572
# 3 7.0073 5.3475 36.8503 6.5998 8.3947 7.6821
# 4 0.4381 -1.8441 6.5998 22.9282 4.3599 -0.3652
# 5 1.0530 -2.2923 8.3947 4.3599 26.8635 5.5789
# 6 -18.4147 -17.9572 7.6821 -0.3652 5.5789 37.0760
#
#
#
# Elastic Compliance Matrix: (Units=1/GPa)
#
#
# Indices 1 2 3 4 5 6 
#
# 1 0.005756 -0.000786 -0.001545 0.000407 -0.000473 0.002873
# 2 -0.000786 0.008467 -0.002270 0.001342 0.000386 0.004136
# 3 -0.001545 -0.002270 0.032492 -0.008223 -0.007380 -0.007569
# 4 0.000407 0.001342 -0.008223 0.047248 -0.005809 0.003895
# 5 -0.000473 0.000386 -0.007380 -0.005809 0.041528 -0.004825
# 6 0.002873 0.004136 -0.007569 0.003895 -0.004825 0.032734
#
#
# Mechanical properties :
#
#
# Convention : Reuss Voigt Hill
#
# Bulk Modulus (GPa) = 26.65680 48.68677 37.67179
# Shear Modulus (GPa) = 26.32539 38.45855 32.39197
#
# Velocity S-wave (km/s) = 3.32697 4.02123 3.69046
# Velocity P-wave (km/s) = 5.09573 6.48314 5.83085
#
# Compressibility (1/GPa) = 0.03751388
#
# Stress axis : x y z
#
# Youngs Moduli (GPa) = 173.74001 118.10175 30.77705
#
# Poissons Ratio (x) = 0.09286 0.04754
# Poissons Ratio (y) = 0.13660 0.06985
# Poissons Ratio (z) = 0.26835 0.26805
#
# Static dielectric constant tensor:
#      x y z
#    x 1.923300 0.023920 -0.037970 
#    y 0.023920 1.912410 0.015600 
#    z -0.037970 0.015600 1.891320 
# 
# From -- ./inp_files/271677.got.cif
#   From: 2010.05.17/outbox.cif.g08.bks.cpg/sg2_136_cif.got.tgz:271677.got - 2010.06.03 11:33:40.
