data_PCOD9061520
_publ_section_title
;
Structure prediction by ZEFSAII (Michael W. Deem and Ramdas Pophale) SiO2 
 PCOD9061520
Probable space group: P -1
;
_chemical_formula_sum "Si O2"
_cell_formula_units_Z 13
_cell_length_a 14.885668
_cell_length_b 9.272819
_cell_length_c 10.976449
_cell_angle_alpha 55.774699
_cell_angle_beta 148.037793
_cell_angle_gamma 137.559847
_cell_volume 532.566607
_symmetry_space_group_name_H-M "P -1"
_symmetry_group_IT_number 2
_symmetry_cell_setting 'triclinic'
loop_
_space_group_symop_operation_xyz
x,y,z
-x,-y,-z
loop_
_atom_site_type_symbol
_atom_site_label
_atom_site_fract_x
_atom_site_fract_y
_atom_site_fract_z
Si Si1 0.448446 0.421356 0.839075
Si Si2 0.105342 0.144708 0.242036
Si Si3 0.752309 0.038507 0.078633
Si Si4 0.583815 0.170185 0.629800
Si Si5 0.500000 0.500000 0.500000
Si Si6 0.892767 0.498156 0.656125
Si Si7 0.895325 0.688439 0.092522
O O1 0.296127 0.487508 0.597034
O O2 0.330994 0.164365 0.835666
O O3 0.500000 0.500000 0.000000
O O4 0.671735 0.544248 0.969214
O O5 0.327836 0.303212 0.489636
O O6 0.914576 0.064571 0.150906
O O7 0.159196 0.319190 0.111961
O O8 0.031027 0.930816 0.185283
O O9 0.892694 0.263664 0.202952
O O10 0.580655 0.039569 0.803160
O O11 0.496390 0.304690 0.507908
O O12 0.819147 0.361404 0.761966
O O13 0.500000 0.000000 0.500000
O O14 0.950657 0.380772 0.685996
#
# Coordination Sequence:
#
# PCOD9061520 Si02
#       7
#     2   2   2   2   1   2   2
#     4  12  27  48  72 106 152 196 247 310 384 454
#     4  11  23  45  72 108 143 187 252 308 367 453
#     4  12  25  49  70 106 153 190 241 318 375 446
#     4  12  25  45  75 111 146 197 256 314 375 450
#     4  12  24  40  74 112 142 192 254 312 370 444
#     4  12  25  47  75 105 148 198 250 311 376 452
#     4  11  25  46  75 105 145 196 249 307 378 454
#
# _framework density 24.410093
#
# number of rings (size 3 to 8) (size 9 to 14) (size 15 to 20)
#    0.000    0.308    4.615    4.615    2.154    1.231 
#    2.769    0.000    0.000    0.000    0.000    0.000 
#    0.000    0.000    0.000    0.000    0.000    0.000 
#
# Total GULP energy -72463.949595 kJ/mol
# GULP energy per Si atom -5574.149969 kJ/mol
# Density = 2.435453 g / cm^3
# Si number density = 24.410093 Si / 1000 Ang^3
#
#
#
# Elastic Constant Matrix: (Units=GPa)
#
#
# Indices 1 2 3 4 5 6 
#
# 1 115.6601 66.3288 54.0083 -10.1036 27.0257 0.3920
# 2 66.3288 164.9502 31.6808 -1.4102 23.3697 13.9999
# 3 54.0083 31.6808 86.6609 -17.5893 27.2238 9.9810
# 4 -10.1036 -1.4102 -17.5893 36.3880 -0.9879 6.1874
# 5 27.0257 23.3697 27.2238 -0.9879 34.4774 -1.8267
# 6 0.3920 13.9999 9.9810 6.1874 -1.8267 52.8791
#
#
#
# Elastic Compliance Matrix: (Units=1/GPa)
#
#
# Indices 1 2 3 4 5 6 
#
# 1 0.015325 -0.004537 -0.007125 0.000157 -0.003185 0.002304
# 2 -0.004537 0.008330 0.000979 -0.000129 -0.002996 -0.002445
# 3 -0.007125 0.000979 0.022200 0.009457 -0.012651 -0.005940
# 4 0.000157 -0.000129 0.009457 0.032898 -0.006869 -0.005839
# 5 -0.003185 -0.002996 -0.012651 -0.006869 0.043617 0.005515
# 6 0.002304 -0.002445 -0.005940 -0.005839 0.005515 0.021536
#
#
# Mechanical properties :
#
#
# Convention : Reuss Voigt Hill
#
# Bulk Modulus (GPa) = 40.83661 74.58969 57.71315
# Shear Modulus (GPa) = 28.82925 39.09911 33.96418
#
# Velocity S-wave (km/s) = 3.44035 4.00654 3.73419
# Velocity P-wave (km/s) = 5.70500 7.21293 6.50283
#
# Compressibility (1/GPa) = 0.02448783
#
# Stress axis : x y z
#
# Youngs Moduli (GPa) = 65.25206 120.05313 45.04517
#
# Poissons Ratio (x) = 0.54468 0.32096
# Poissons Ratio (y) = 0.29605 -0.04409
# Poissons Ratio (z) = 0.46494 -0.11751
#
# Static dielectric constant tensor:
#      x y z
#    x 2.962110 1.012130 -1.613770 
#    y 1.012130 2.932550 -1.883680 
#    z -1.613770 -1.883680 4.007670 
# 
# From -- ./inp_files/199127.got.cif
#   From: 2010.05.17/outbox.cif.g08.bks.cpg/sg2_100_cif.got.tgz:199127.got - 2010.06.03 11:33:40.
