data_PCOD9061302
_publ_section_title
;
Structure prediction by ZEFSAII (Michael W. Deem and Ramdas Pophale) SiO2 
 PCOD9061302
Probable space group: P -1
;
_chemical_formula_sum "Si O2"
_cell_formula_units_Z 16
_cell_length_a 14.896587
_cell_length_b 26.634398
_cell_length_c 17.983968
_cell_angle_alpha 160.126532
_cell_angle_beta 21.132965
_cell_angle_gamma 160.512502
_cell_volume 739.077479
_symmetry_space_group_name_H-M "P -1"
_symmetry_group_IT_number 2
_symmetry_cell_setting 'triclinic'
loop_
_space_group_symop_operation_xyz
x,y,z
-x,-y,-z
loop_
_atom_site_type_symbol
_atom_site_label
_atom_site_fract_x
_atom_site_fract_y
_atom_site_fract_z
Si Si1 0.394727 0.752396 0.794317
Si Si2 0.181429 0.629860 0.107308
Si Si3 0.092208 0.145145 0.351487
Si Si4 0.337912 0.079316 0.329965
Si Si5 0.496274 0.185358 0.607204
Si Si6 0.272435 0.536134 0.064366
Si Si7 0.349001 0.617970 0.382588
Si Si8 0.775357 0.963551 0.057217
O O1 0.605211 0.748996 0.688991
O O2 0.553519 0.797283 0.654494
O O3 0.062447 0.587437 0.819541
O O4 0.375908 0.919091 0.062140
O O5 0.246397 0.544535 0.007615
O O6 0.480769 0.782789 0.053545
O O7 0.018130 0.724067 0.395634
O O8 0.000000 0.500000 0.000000
O O9 0.123845 0.063001 0.137306
O O10 0.838810 0.979857 0.364343
O O11 0.533914 0.197363 0.410704
O O12 0.000000 0.000000 0.500000
O O13 0.582226 0.274171 0.745500
O O14 0.558982 0.335109 0.708903
O O15 0.700765 0.113056 0.325682
O O16 0.474317 0.461816 0.828449
O O17 0.000000 0.500000 0.500000
O O18 0.000000 0.000000 0.000000
#
# Coordination Sequence:
#
# PCOD9061302 Si02
#       8
#     2   2   2   2   2   2   2   2
#     4  11  25  41  71  98 136 184 226 287 341 406
#     4  11  27  46  71 104 141 179 232 289 343 414
#     4  11  25  46  72 101 136 180 236 282 347 409
#     4  11  23  45  66  99 139 182 234 276 340 413
#     4  11  26  45  69 102 141 180 234 286 340 417
#     4  12  26  46  68 105 146 179 233 289 346 415
#     4  12  27  43  71 103 142 187 228 285 354 411
#     4  11  24  45  74  98 133 188 232 284 350 401
#
# _framework density 21.648610999999999
#
# number of rings (size 3 to 8) (size 9 to 14) (size 15 to 20)
#    0.000    0.750    1.250    4.875    8.750    7.000 
#    0.000    0.000    0.000    0.000    0.000    0.000 
#    0.000    0.000    0.000    0.000    0.000    0.000 
#
# Total GULP energy -89593.835201 kJ/mol
# GULP energy per Si atom -5599.614700 kJ/mol
# Density = 2.159934 g / cm^3
# Si number density = 21.648611 Si / 1000 Ang^3
#
#
#
# Elastic Constant Matrix: (Units=GPa)
#
#
# Indices 1 2 3 4 5 6 
#
# 1 121.1328 25.4425 34.7306 -11.0184 -13.9275 1.6361
# 2 25.4425 97.1741 28.5977 -7.7862 -19.9409 21.7765
# 3 34.7306 28.5977 94.4223 -14.4142 -7.3395 -3.6206
# 4 -11.0184 -7.7862 -14.4142 30.8319 8.0390 2.2912
# 5 -13.9275 -19.9409 -7.3395 8.0390 40.7882 3.9922
# 6 1.6361 21.7765 -3.6206 2.2912 3.9922 44.8621
#
#
#
# Elastic Compliance Matrix: (Units=1/GPa)
#
#
# Indices 1 2 3 4 5 6 
#
# 1 0.009667 -0.001098 -0.002875 0.001330 0.002014 -0.000299
# 2 -0.001098 0.015019 -0.003857 0.000381 0.007002 -0.008204
# 3 -0.002875 -0.003857 0.013493 0.004507 -0.001619 0.002980
# 4 0.001330 0.000381 0.004507 0.036680 -0.005656 -0.001240
# 5 0.002014 0.007002 -0.001619 -0.005656 0.030037 -0.005987
# 6 -0.000299 -0.008204 0.002980 -0.001240 -0.005987 0.027120
#
#
# Mechanical properties :
#
#
# Convention : Reuss Voigt Hill
#
# Bulk Modulus (GPa) = 44.40762 54.47454 49.44108
# Shear Modulus (GPa) = 32.22003 38.22701 35.22352
#
# Velocity S-wave (km/s) = 3.86206 4.20670 4.03806
# Velocity P-wave (km/s) = 6.35962 6.98661 6.68048
#
# Compressibility (1/GPa) = 0.02251866
#
# Stress axis : x y z
#
# Youngs Moduli (GPa) = 103.44551 66.58054 74.11332
#
# Poissons Ratio (x) = 0.07312 0.21307
# Poissons Ratio (y) = 0.11361 0.28586
# Poissons Ratio (z) = 0.29740 0.25681
#
# Static dielectric constant tensor:
#      x y z
#    x 1.777700 -0.015080 -0.015380 
#    y -0.015080 1.744660 0.004270 
#    z -0.015380 0.004270 1.783690 
# 
# From -- ./inp_files/574537.got.cif
#   From: 2010.05.17/outbox.cif.g08.bks.cpg/sg2_288_cif.got.tgz:574537.got - 2010.06.03 11:33:40.
