data_PCOD9061093
_publ_section_title
;
Structure prediction by ZEFSAII (Michael W. Deem and Ramdas Pophale) SiO2 
 PCOD9061093
Probable space group: P -1
;
_chemical_formula_sum "Si O2"
_cell_formula_units_Z 16
_cell_length_a 8.865437
_cell_length_b 26.093665
_cell_length_c 7.973627
_cell_angle_alpha 51.918077
_cell_angle_beta 115.930313
_cell_angle_gamma 151.121752
_cell_volume 675.064909
_symmetry_space_group_name_H-M "P -1"
_symmetry_group_IT_number 2
_symmetry_cell_setting 'triclinic'
loop_
_space_group_symop_operation_xyz
x,y,z
-x,-y,-z
loop_
_atom_site_type_symbol
_atom_site_label
_atom_site_fract_x
_atom_site_fract_y
_atom_site_fract_z
Si Si1 0.641554 0.983394 0.194259
Si Si2 0.609148 0.789646 0.842662
Si Si3 0.624414 0.567738 0.250254
Si Si4 0.407392 0.865995 0.665615
Si Si5 0.608746 0.191748 0.863225
Si Si6 0.667037 0.643070 0.670874
Si Si7 0.355269 0.649194 0.329777
Si Si8 0.639994 0.394944 0.093045
O O1 0.556843 0.960557 0.399310
O O2 0.503314 0.878070 0.224248
O O3 0.026844 0.100599 0.141650
O O4 0.500000 0.000000 0.000000
O O5 0.496760 0.825857 0.711089
O O6 0.556069 0.737108 0.746349
O O7 0.375898 0.677670 0.090065
O O8 0.500000 0.500000 0.500000
O O9 0.449469 0.464850 0.235074
O O10 0.004944 0.686232 0.183911
O O11 0.524775 0.608844 0.104000
O O12 0.024234 0.754605 0.696132
O O13 0.513807 0.889402 0.865323
O O14 0.558153 0.253268 0.732361
O O15 0.627116 0.684356 0.424562
O O16 0.417080 0.589079 0.792336
O O17 0.000000 0.500000 0.500000
O O18 0.000000 0.500000 0.000000
#
# Coordination Sequence:
#
# PCOD9061093 Si02
#       8
#     2   2   2   2   2   2   2   2
#     4  12  27  51  79 107 147 198 260 316 383 446
#     4  11  26  49  71 108 152 194 256 311 373 457
#     4  12  24  42  69 102 152 196 245 303 375 451
#     4  11  26  49  75 106 150 196 253 314 379 452
#     4  11  26  47  73 110 149 199 252 309 378 455
#     4  12  24  42  71 107 148 195 245 306 381 455
#     4  11  23  44  72 108 151 195 246 307 376 452
#     4  12  26  40  69 107 146 189 244 305 379 446
#
# _framework density 23.701423999999999
#
# number of rings (size 3 to 8) (size 9 to 14) (size 15 to 20)
#    0.000    0.500    2.500    5.250    5.250    2.500 
#    2.250    0.000    0.000    0.000    0.000    0.000 
#    0.000    0.000    0.000    0.000    0.000    0.000 
#
# Total GULP energy -89423.626495 kJ/mol
# GULP energy per Si atom -5588.976656 kJ/mol
# Density = 2.364748 g / cm^3
# Si number density = 23.701424 Si / 1000 Ang^3
#
#
#
# Elastic Constant Matrix: (Units=GPa)
#
#
# Indices 1 2 3 4 5 6 
#
# 1 90.1062 -3.0871 -6.7314 -1.9002 15.3585 10.6509
# 2 -3.0871 41.0097 -5.5758 2.8100 4.7218 14.7822
# 3 -6.7314 -5.5758 92.7151 8.5595 -13.8059 8.2148
# 4 -1.9002 2.8100 8.5595 25.3599 1.7354 -0.3519
# 5 15.3585 4.7218 -13.8059 1.7354 50.9654 7.0853
# 6 10.6509 14.7822 8.2148 -0.3519 7.0853 45.6940
#
#
#
# Elastic Compliance Matrix: (Units=1/GPa)
#
#
# Indices 1 2 3 4 5 6 
#
# 1 0.012202 0.002557 0.000798 0.000539 -0.003257 -0.003306
# 2 0.002557 0.029173 0.003096 -0.004160 -0.001038 -0.010461
# 3 0.000798 0.003096 0.012348 -0.004748 0.003534 -0.003992
# 4 0.000539 -0.004160 -0.004748 0.041773 -0.002881 0.002842
# 5 -0.003257 -0.001038 0.003534 -0.002881 0.022171 -0.003000
# 6 -0.003306 -0.010461 -0.003992 0.002842 -0.003000 0.027244
#
#
# Mechanical properties :
#
#
# Convention : Reuss Voigt Hill
#
# Bulk Modulus (GPa) = 15.00913 21.44915 18.22914
# Shear Modulus (GPa) = 32.42131 40.35222 36.38676
#
# Velocity S-wave (km/s) = 3.70253 4.13064 3.92243
# Velocity P-wave (km/s) = 4.96232 5.64083 5.31242
#
# Compressibility (1/GPa) = 0.06662613
#
# Stress axis : x y z
#
# Youngs Moduli (GPa) = 81.95092 34.27777 80.98309
#
# Poissons Ratio (x) = -0.08764 -0.06462
# Poissons Ratio (y) = -0.20952 -0.25076
# Poissons Ratio (z) = -0.06539 -0.10614
#
# Static dielectric constant tensor:
#      x y z
#    x 1.836410 -0.054830 -0.064060 
#    y -0.054830 1.852280 0.008440 
#    z -0.064060 0.008440 1.996490 
# 
# From -- ./inp_files/227405.got.cif
#   From: 2010.05.17/outbox.cif.g08.bks.cpg/sg2_114_cif.got.tgz:227405.got - 2010.06.03 11:33:40.
