data_PCOD9061848
_publ_section_title
;
Structure prediction by ZEFSAII (Michael W. Deem and Ramdas Pophale) SiO2 
 PCOD9061848
Probable space group: P -1
;
_chemical_formula_sum "Si O2"
_cell_formula_units_Z 16
_cell_length_a 20.588570
_cell_length_b 17.981710
_cell_length_c 11.581080
_cell_angle_alpha 41.673260
_cell_angle_beta 149.866652
_cell_angle_gamma 159.158504
_cell_volume 719.239627
_symmetry_space_group_name_H-M "P -1"
_symmetry_group_IT_number 2
_symmetry_cell_setting 'triclinic'
loop_
_space_group_symop_operation_xyz
x,y,z
-x,-y,-z
loop_
_atom_site_type_symbol
_atom_site_label
_atom_site_fract_x
_atom_site_fract_y
_atom_site_fract_z
Si Si1 0.154305 0.090657 0.014162
Si Si2 0.615612 0.794290 0.097151
Si Si3 0.440175 0.080247 0.522668
Si Si4 0.347246 0.616058 0.306746
Si Si5 0.831073 0.965558 0.485475
Si Si6 0.813238 0.182795 0.860735
Si Si7 0.015272 0.381282 0.683998
Si Si8 0.360065 0.427578 0.722242
O O1 0.308814 0.090543 0.250718
O O2 0.385890 0.352766 0.069291
O O3 0.948878 0.951078 0.758108
O O4 0.000000 0.000000 0.000000
O O5 0.654305 0.711714 0.177909
O O6 0.760947 0.891586 0.330571
O O7 0.309644 0.567557 0.910161
O O8 0.706395 0.979124 0.964462
O O9 0.617956 0.261701 0.686233
O O10 0.603536 0.119316 0.648513
O O11 0.186725 0.826819 0.472606
O O12 0.393878 0.533587 0.540184
O O13 0.568795 0.801481 0.337319
O O14 0.067333 0.398094 0.075753
O O15 0.068818 0.231564 0.548124
O O16 0.906082 0.267686 0.773757
O O17 0.000000 0.500000 0.500000
#
# Coordination Sequence:
#
# PCOD9061848 Si02
#       8
#     2   2   2   2   2   2   2   2
#     4  11  23  46  72 104 143 184 236 294 350 413
#     4  12  27  44  72 108 145 187 236 289 361 422
#     4  11  25  47  74 103 143 188 236 292 356 412
#     4  11  25  47  71 104 148 183 238 297 346 421
#     4  12  24  45  71 105 141 190 237 291 354 418
#     4  12  26  50  71 105 146 184 239 294 351 425
#     4  12  27  48  71 104 142 190 238 287 353 426
#     4  11  25  43  70 108 142 188 238 289 357 418
#
# _framework density 22.245715000000001
#
# number of rings (size 3 to 8) (size 9 to 14) (size 15 to 20)
#    0.000    0.500    6.250    2.250    1.750    0.500 
#    4.500    1.250    0.000    0.000    0.000    0.000 
#    0.000    0.000    0.000    0.000    0.000    0.000 
#
# Total GULP energy -89424.279663 kJ/mol
# GULP energy per Si atom -5589.017479 kJ/mol
# Density = 2.219508 g / cm^3
# Si number density = 22.245715 Si / 1000 Ang^3
#
#
#
# Elastic Constant Matrix: (Units=GPa)
#
#
# Indices 1 2 3 4 5 6 
#
# 1 92.5150 63.1357 36.4315 -8.8975 14.2804 1.9842
# 2 63.1357 178.5028 44.5583 14.0022 13.6845 7.0783
# 3 36.4315 44.5583 97.3392 16.1972 12.0676 2.4303
# 4 -8.8975 14.0022 16.1972 51.2384 6.8536 3.0557
# 5 14.2804 13.6845 12.0676 6.8536 18.4857 8.3915
# 6 1.9842 7.0783 2.4303 3.0557 8.3915 39.7624
#
#
#
# Elastic Compliance Matrix: (Units=1/GPa)
#
#
# Indices 1 2 3 4 5 6 
#
# 1 0.018550 -0.005259 -0.004431 0.007439 -0.011248 0.002083
# 2 -0.005259 0.007998 -0.001271 -0.002694 0.000407 -0.000963
# 3 -0.004431 -0.001271 0.013616 -0.004335 -0.003201 0.000624
# 4 0.007439 -0.002694 -0.004335 0.024241 -0.010212 0.000666
# 5 -0.011248 0.000407 -0.003201 -0.010212 0.074864 -0.014330
# 6 0.002083 -0.000963 0.000624 0.000666 -0.014330 0.028152
#
#
# Mechanical properties :
#
#
# Convention : Reuss Voigt Hill
#
# Bulk Modulus (GPa) = 54.81739 72.95645 63.88692
# Shear Modulus (GPa) = 25.58558 36.84607 31.21582
#
# Velocity S-wave (km/s) = 3.39504 4.07421 3.75003
# Velocity P-wave (km/s) = 6.32959 7.41614 6.89430
#
# Compressibility (1/GPa) = 0.01824238
#
# Stress axis : x y z
#
# Youngs Moduli (GPa) = 53.90947 125.03614 73.44221
#
# Poissons Ratio (x) = 0.65753 0.32540
# Poissons Ratio (y) = 0.28350 0.09335
# Poissons Ratio (z) = 0.23886 0.15893
#
# Static dielectric constant tensor:
#      x y z
#    x 1.864020 0.025780 -0.019640 
#    y 0.025780 1.929770 -0.016030 
#    z -0.019640 -0.016030 1.897090 
# 
# From -- ./inp_files/280198.got.cif
#   From: 2010.05.17/outbox.cif.g08.bks.cpg/sg2_141_cif.got.tgz:280198.got - 2010.06.03 11:33:40.
