data_PCOD9061192
_publ_section_title
;
Structure prediction by ZEFSAII (Michael W. Deem and Ramdas Pophale) SiO2 
 PCOD9061192
Probable space group: P -1
;
_chemical_formula_sum "Si O2"
_cell_formula_units_Z 14
_cell_length_a 6.422445
_cell_length_b 9.274449
_cell_length_c 10.740999
_cell_angle_alpha 77.300560
_cell_angle_beta 117.331362
_cell_angle_gamma 103.008480
_cell_volume 548.738339
_symmetry_space_group_name_H-M "P -1"
_symmetry_group_IT_number 2
_symmetry_cell_setting 'triclinic'
loop_
_space_group_symop_operation_xyz
x,y,z
-x,-y,-z
loop_
_atom_site_type_symbol
_atom_site_label
_atom_site_fract_x
_atom_site_fract_y
_atom_site_fract_z
Si Si1 0.296250 0.318660 0.780152
Si Si2 0.762617 0.213628 0.288116
Si Si3 0.069620 0.873075 0.128992
Si Si4 0.193969 0.642627 0.001556
Si Si5 0.887528 0.526634 0.615336
Si Si6 0.475082 0.333662 0.379665
Si Si7 0.576494 0.882212 0.370020
O O1 0.536629 0.388020 0.900297
O O2 0.098206 0.429100 0.708552
O O3 0.368117 0.249319 0.682929
O O4 0.161824 0.180066 0.844701
O O5 0.535243 0.277342 0.271911
O O6 0.977023 0.307649 0.407138
O O7 0.732639 0.038460 0.344383
O O8 0.805812 0.268385 0.147569
O O9 0.137929 0.751139 0.075361
O O10 0.304131 0.908777 0.270079
O O11 0.000000 0.000000 0.000000
O O12 0.000000 0.500000 0.000000
O O13 0.299008 0.564774 0.512371
O O14 0.727665 0.561925 0.681588
O O15 0.411324 0.186628 0.476140
#
# Coordination Sequence:
#
# PCOD9061192 Si02
#       7
#     2   2   2   2   2   2   2
#     4  11  25  47  79 104 145 199 245 304 379 433
#     4  12  27  46  74 110 152 196 242 313 371 436
#     4  11  23  44  74 105 148 194 244 305 368 442
#     4  11  27  48  73 113 149 190 249 308 370 442
#     4  11  27  47  76 105 146 198 255 300 363 444
#     4  11  27  49  74 107 151 198 253 301 369 443
#     4  11  26  46  75 112 150 192 250 303 372 446
#
# _framework density 25.513071
#
# number of rings (size 3 to 8) (size 9 to 14) (size 15 to 20)
#    0.000    0.857    1.429    3.429    8.000    9.714 
#    0.000    0.714    0.000    0.000    0.000    0.000 
#    0.000    0.000    0.000    0.000    0.000    0.000 
#
# Total GULP energy -78385.804753 kJ/mol
# GULP energy per Si atom -5598.986054 kJ/mol
# Density = 2.545500 g / cm^3
# Si number density = 25.513071 Si / 1000 Ang^3
#
#
#
# Elastic Constant Matrix: (Units=GPa)
#
#
# Indices 1 2 3 4 5 6 
#
# 1 135.3780 28.3946 27.1397 -7.7801 17.0120 14.0095
# 2 28.3946 144.5622 17.8080 -22.7056 10.0363 30.6210
# 3 27.1397 17.8080 79.8322 -18.8028 -18.9468 17.4881
# 4 -7.7801 -22.7056 -18.8028 44.4547 -1.6427 -14.5282
# 5 17.0120 10.0363 -18.9468 -1.6427 56.0235 -8.6493
# 6 14.0095 30.6210 17.4881 -14.5282 -8.6493 49.6698
#
#
#
# Elastic Compliance Matrix: (Units=1/GPa)
#
#
# Indices 1 2 3 4 5 6 
#
# 1 0.008941 -0.000818 -0.003724 -0.001158 -0.004134 -0.001765
# 2 -0.000818 0.008647 -0.000579 0.002464 -0.002126 -0.004545
# 3 -0.003724 -0.000579 0.017406 0.006117 0.007037 -0.001707
# 4 -0.001158 0.002464 0.006117 0.028070 0.003651 0.005500
# 5 -0.004134 -0.002126 0.007037 0.003651 0.022749 0.005028
# 6 -0.001765 -0.004545 -0.001707 0.005500 0.005028 0.026518
#
#
# Mechanical properties :
#
#
# Convention : Reuss Voigt Hill
#
# Bulk Modulus (GPa) = 40.40327 56.27300 48.33813
# Shear Modulus (GPa) = 38.21903 49.12495 43.67199
#
# Velocity S-wave (km/s) = 3.87462 4.39279 4.14182
# Velocity P-wave (km/s) = 5.99063 6.91616 6.46996
#
# Compressibility (1/GPa) = 0.02475047
#
# Stress axis : x y z
#
# Youngs Moduli (GPa) = 111.84998 115.64735 57.45055
#
# Poissons Ratio (x) = 0.09465 0.21396
# Poissons Ratio (y) = 0.09154 0.03327
# Poissons Ratio (z) = 0.41655 0.06696
#
# Static dielectric constant tensor:
#      x y z
#    x 2.040640 0.029720 0.005230 
#    y 0.029720 1.977100 -0.023650 
#    z 0.005230 -0.023650 2.056270 
# 
# From -- ./inp_files/81041.got.cif
#   From: 2010.05.17/outbox.cif.g08.bks.cpg/sg2_41_cif.got.tgz:81041.got - 2010.06.03 11:33:40.
