data_PCOD9061958
_publ_section_title
;
Structure prediction by ZEFSAII (Michael W. Deem and Ramdas Pophale) SiO2 
 PCOD9061958
Probable space group: P -1
;
_chemical_formula_sum "Si O2"
_cell_formula_units_Z 14
_cell_length_a 7.992365
_cell_length_b 12.135640
_cell_length_c 9.102770
_cell_angle_alpha 54.234940
_cell_angle_beta 100.929312
_cell_angle_gamma 63.959468
_cell_volume 509.054097
_symmetry_space_group_name_H-M "P -1"
_symmetry_group_IT_number 2
_symmetry_cell_setting 'triclinic'
loop_
_space_group_symop_operation_xyz
x,y,z
-x,-y,-z
loop_
_atom_site_type_symbol
_atom_site_label
_atom_site_fract_x
_atom_site_fract_y
_atom_site_fract_z
Si Si1 0.500000 0.000000 0.500000
Si Si2 0.664657 0.213242 0.914026
Si Si3 0.536603 0.926253 0.830243
Si Si4 0.645062 0.419550 0.234969
Si Si5 0.899283 0.659253 0.582423
Si Si6 0.016466 0.313574 0.763134
Si Si7 0.883118 0.017364 0.623399
Si Si8 0.500000 0.500000 0.500000
O O1 0.586895 0.826362 0.762835
O O2 0.257002 0.043720 0.373819
O O3 0.509799 0.429176 0.779193
O O4 0.542835 0.300839 0.667540
O O5 0.571107 0.126112 0.039822
O O6 0.919702 0.088949 0.130768
O O7 0.345527 0.137925 0.560620
O O8 0.747643 0.881174 0.982687
O O9 0.708150 0.237922 0.443006
O O10 0.882614 0.375674 0.291723
O O11 0.500000 0.500000 0.000000
O O12 0.954951 0.470438 0.741132
O O13 0.907619 0.683193 0.389773
O O14 0.787603 0.351633 0.678116
O O15 0.000000 0.000000 0.500000
#
# Coordination Sequence:
#
# PCOD9061958 Si02
#       8
#     1   2   2   2   2   2   2   1
#     4  12  26  46  72 114 150 194 256 300 376 470
#     4  12  24  46  72 104 151 191 244 312 372 443
#     4  12  24  47  75 106 148 197 250 313 378 453
#     4  12  22  41  76 107 141 196 242 301 379 442
#     4  11  23  46  75 106 144 199 252 306 383 441
#     4  11  24  46  70 105 148 195 256 312 368 451
#     4  12  24  46  73 107 150 195 240 308 377 442
#     4  12  26  46  72 106 150 198 248 314 370 444
#
# _framework density 27.501985999999999
#
# number of rings (size 3 to 8) (size 9 to 14) (size 15 to 20)
#    0.000    0.286    7.143    2.143    0.000    1.143 
#    0.000    5.000    0.000    0.000    0.000    0.000 
#    0.000    0.000    0.000    0.000    0.000    0.000 
#
# Total GULP energy -77984.314742 kJ/mol
# GULP energy per Si atom -5570.308196 kJ/mol
# Density = 2.743939 g / cm^3
# Si number density = 27.501986 Si / 1000 Ang^3
#
#
#
# Elastic Constant Matrix: (Units=GPa)
#
#
# Indices 1 2 3 4 5 6 
#
# 1 111.1942 13.9701 22.7383 0.8800 35.3693 -4.4050
# 2 13.9701 95.9725 37.8933 -10.5691 -3.4799 0.0344
# 3 22.7383 37.8933 213.0201 13.4046 22.2975 4.3998
# 4 0.8800 -10.5691 13.4046 55.2315 11.6783 -6.2179
# 5 35.3693 -3.4799 22.2975 11.6783 49.0858 6.2969
# 6 -4.4050 0.0344 4.3998 -6.2179 6.2969 35.6875
#
#
#
# Elastic Compliance Matrix: (Units=1/GPa)
#
#
# Indices 1 2 3 4 5 6 
#
# 1 0.012614 -0.001922 -0.000150 0.002025 -0.010116 0.003715
# 2 -0.001922 0.011986 -0.002361 0.002308 0.002764 -0.000043
# 3 -0.000150 -0.002361 0.005452 -0.001383 -0.002136 -0.000552
# 4 0.002025 0.002308 -0.001383 0.020754 -0.006264 0.005139
# 5 -0.010116 0.002764 -0.002136 -0.006264 0.031293 -0.007601
# 6 0.003715 -0.000043 -0.000552 0.005139 -0.007601 0.030784
#
#
# Mechanical properties :
#
#
# Convention : Reuss Voigt Hill
#
# Bulk Modulus (GPa) = 47.19791 63.26555 55.23173
# Shear Modulus (GPa) = 38.81649 51.03998 44.92824
#
# Velocity S-wave (km/s) = 3.76095 4.31265 4.04621
# Velocity P-wave (km/s) = 6.00487 6.91755 6.47731
#
# Compressibility (1/GPa) = 0.02118738
#
# Stress axis : x y z
#
# Youngs Moduli (GPa) = 79.27538 83.43167 183.40743
#
# Poissons Ratio (x) = 0.16037 0.02748
# Poissons Ratio (y) = 0.15238 0.43294
# Poissons Ratio (z) = 0.01188 0.19694
#
# Static dielectric constant tensor:
#      x y z
#    x 10.836090 -23.279930 0.791970 
#    y -23.279930 64.781440 -2.262550 
#    z 0.791970 -2.262550 2.034500 
# 
# From -- ./inp_files/397099.got.cif
#   From: 2010.05.17/outbox.cif.g08.bks.cpg/sg2_199_cif.got.tgz:397099.got - 2010.06.03 11:33:40.
