data_PCOD9061257
_publ_section_title
;
Structure prediction by ZEFSAII (Michael W. Deem and Ramdas Pophale) SiO2 
 PCOD9061257
Probable space group: P -1
;
_chemical_formula_sum "Si O2"
_cell_formula_units_Z 14
_cell_length_a 10.588360
_cell_length_b 10.228369
_cell_length_c 9.629274
_cell_angle_alpha 43.417508
_cell_angle_beta 124.479084
_cell_angle_gamma 110.682269
_cell_volume 587.753065
_symmetry_space_group_name_H-M "P -1"
_symmetry_group_IT_number 2
_symmetry_cell_setting 'triclinic'
loop_
_space_group_symop_operation_xyz
x,y,z
-x,-y,-z
loop_
_atom_site_type_symbol
_atom_site_label
_atom_site_fract_x
_atom_site_fract_y
_atom_site_fract_z
Si Si1 0.854119 0.554096 0.464891
Si Si2 0.985756 0.601928 0.059959
Si Si3 0.326818 0.527220 0.030998
Si Si4 0.429218 0.695380 0.226184
Si Si5 0.145275 0.043984 0.153143
Si Si6 0.682532 0.900240 0.047275
Si Si7 0.372883 0.682747 0.655078
O O1 0.830146 0.780975 0.303253
O O2 0.709233 0.481250 0.350657
O O3 0.000000 0.500000 0.500000
O O4 0.878000 0.449887 0.707093
O O5 0.836350 0.513525 0.096525
O O6 0.929125 0.824935 0.869792
O O7 0.000000 0.500000 0.000000
O O8 0.311363 0.630832 0.088527
O O9 0.451486 0.341784 0.272199
O O10 0.392013 0.653466 0.854286
O O11 0.500000 0.500000 0.500000
O O12 0.549235 0.800689 0.122317
O O13 0.353785 0.871616 0.135927
O O14 0.252846 0.864524 0.414852
O O15 0.265028 0.135980 0.052032
O O16 0.000000 0.000000 0.000000
#
# Coordination Sequence:
#
# PCOD9061257 Si02
#       7
#     2   2   2   2   2   2   2
#     4  12  21  48  71 101 148 203 250 305 376 470
#     4  12  29  45  71 110 154 198 256 323 392 447
#     4  11  25  45  70 109 150 192 251 334 382 438
#     4  11  26  48  75 111 158 195 253 328 387 457
#     4  12  25  47  76 110 147 210 268 301 383 477
#     4  11  25  44  79 108 140 212 262 293 388 476
#     4  11  23  44  77 102 147 197 254 314 379 456
#
# _framework density 23.819527000000001
#
# number of rings (size 3 to 8) (size 9 to 14) (size 15 to 20)
#    0.000    0.571    5.714    0.857    6.000    1.714 
#    2.571    1.429    0.000    0.000    0.000    0.000 
#    0.000    0.000    0.000    0.000    0.000    0.000 
#
# Total GULP energy -78094.272197 kJ/mol
# GULP energy per Si atom -5578.162300 kJ/mol
# Density = 2.376531 g / cm^3
# Si number density = 23.819527 Si / 1000 Ang^3
#
#
#
# Elastic Constant Matrix: (Units=GPa)
#
#
# Indices 1 2 3 4 5 6 
#
# 1 79.7316 34.6039 20.3426 -0.2503 3.0213 -12.4438
# 2 34.6039 123.7927 56.9651 -5.3811 -0.3875 -37.2982
# 3 20.3426 56.9651 154.4751 -21.5937 10.1336 -18.2713
# 4 -0.2503 -5.3811 -21.5937 52.1317 -7.4717 7.8075
# 5 3.0213 -0.3875 10.1336 -7.4717 31.3639 -3.9174
# 6 -12.4438 -37.2982 -18.2713 7.8075 -3.9174 49.5467
#
#
#
# Elastic Compliance Matrix: (Units=1/GPa)
#
#
# Indices 1 2 3 4 5 6 
#
# 1 0.014402 -0.003615 -0.000501 -0.000818 -0.001374 0.000732
# 2 -0.003615 0.013185 -0.003750 -0.001053 0.002470 0.007996
# 3 -0.000501 -0.003750 0.008404 0.002862 -0.002090 -0.000466
# 4 -0.000818 -0.001053 0.002862 0.021252 0.003830 -0.002989
# 5 -0.001374 0.002470 -0.002090 0.003830 0.033988 0.002828
# 6 0.000732 0.007996 -0.000466 -0.002989 0.002828 0.026909
#
#
# Mechanical properties :
#
#
# Convention : Reuss Voigt Hill
#
# Bulk Modulus (GPa) = 49.35712 64.64698 57.00205
# Shear Modulus (GPa) = 35.55553 43.01430 39.28492
#
# Velocity S-wave (km/s) = 3.86775 4.25413 4.06553
# Velocity P-wave (km/s) = 6.38061 7.16445 6.78386
#
# Compressibility (1/GPa) = 0.02026050
#
# Stress axis : x y z
#
# Youngs Moduli (GPa) = 69.43271 75.84329 118.98518
#
# Poissons Ratio (x) = 0.27415 0.05966
# Poissons Ratio (y) = 0.25097 0.44615
# Poissons Ratio (z) = 0.03481 0.28439
#
# Static dielectric constant tensor:
#      x y z
#    x 2.048880 0.024310 -0.011390 
#    y 0.024310 1.934100 -0.084370 
#    z -0.011390 -0.084370 1.931200 
# 
# From -- ./inp_files/242243.got.cif
#   From: 2010.05.17/outbox.cif.g08.bks.cpg/sg2_122_cif.got.tgz:242243.got - 2010.06.03 11:33:40.
