data_PCOD9061814
_publ_section_title
;
Structure prediction by ZEFSAII (Michael W. Deem and Ramdas Pophale) SiO2 
 PCOD9061814
Probable space group: P -1
;
_chemical_formula_sum "Si O2"
_cell_formula_units_Z 16
_cell_length_a 8.266668
_cell_length_b 5.126352
_cell_length_c 22.340786
_cell_angle_alpha 111.081896
_cell_angle_beta 47.215212
_cell_angle_gamma 97.667649
_cell_volume 639.767406
_symmetry_space_group_name_H-M "P -1"
_symmetry_group_IT_number 2
_symmetry_cell_setting 'triclinic'
loop_
_space_group_symop_operation_xyz
x,y,z
-x,-y,-z
loop_
_atom_site_type_symbol
_atom_site_label
_atom_site_fract_x
_atom_site_fract_y
_atom_site_fract_z
Si Si1 0.683532 0.727432 0.273790
Si Si2 0.193675 0.721967 0.421433
Si Si3 0.697988 0.240852 0.136170
Si Si4 0.962786 0.217569 0.954066
Si Si5 0.199579 0.220079 0.620933
Si Si6 0.140860 0.907774 0.156018
Si Si7 0.181561 0.580018 0.547400
Si Si8 0.265173 0.503409 0.197085
O O1 0.414665 0.806066 0.341998
O O2 0.763723 0.481012 0.184681
O O3 0.706824 0.655691 0.332776
O O4 0.875624 0.925172 0.238030
O O5 0.254619 0.593500 0.461461
O O6 0.073436 0.481676 0.400748
O O7 0.000000 0.000000 0.500000
O O8 0.464024 0.391990 0.182559
O O9 0.806666 0.111431 0.034986
O O10 0.790975 0.967720 0.130398
O O11 0.831599 0.241834 0.927425
O O12 0.000000 0.500000 0.000000
O O13 0.288320 0.336400 0.546620
O O14 0.938500 0.339762 0.700309
O O15 0.212534 0.883781 0.590073
O O16 0.283252 0.724911 0.157015
O O17 0.197974 0.219710 0.162476
#
# Coordination Sequence:
#
# PCOD9061814 Si02
#       8
#     2   2   2   2   2   2   2   2
#     4  11  25  47  74 104 142 196 242 291 368 430
#     4  11  25  50  73 109 142 190 236 306 352 437
#     4  11  26  46  75 108 143 199 243 303 360 438
#     4  11  24  47  73 105 152 190 246 299 367 431
#     4  11  23  46  71 103 146 187 236 301 352 436
#     4  11  25  49  71 106 149 190 243 306 363 439
#     4  11  24  48  70 101 144 184 234 298 360 421
#     4  11  26  46  74 112 146 191 246 304 364 422
#
# _framework density 25.009091000000002
#
# number of rings (size 3 to 8) (size 9 to 14) (size 15 to 20)
#    0.000    1.000    2.500    3.750    3.500    2.000 
#   20.250    0.000    0.000    0.000    0.000    0.000 
#    0.000    0.000    0.000    0.000    0.000    0.000 
#
# Total GULP energy -89212.075100 kJ/mol
# GULP energy per Si atom -5575.754694 kJ/mol
# Density = 2.495217 g / cm^3
# Si number density = 25.009091 Si / 1000 Ang^3
#
#
#
# Elastic Constant Matrix: (Units=GPa)
#
#
# Indices 1 2 3 4 5 6 
#
# 1 120.4387 17.4252 41.7282 5.4621 2.2857 -11.1056
# 2 17.4252 92.3240 7.4105 24.6363 6.6764 -13.2424
# 3 41.7282 7.4105 55.5583 5.2603 16.6470 -6.3286
# 4 5.4621 24.6363 5.2603 28.6483 -6.6738 4.0882
# 5 2.2857 6.6764 16.6470 -6.6738 61.7766 2.1208
# 6 -11.1056 -13.2424 -6.3286 4.0882 2.1208 19.7999
#
#
#
# Elastic Compliance Matrix: (Units=1/GPa)
#
#
# Indices 1 2 3 4 5 6 
#
# 1 0.011835 -0.001634 -0.009204 0.001059 0.002260 0.002143
# 2 -0.001634 0.019725 0.004704 -0.021692 -0.006332 0.018937
# 3 -0.009204 0.004704 0.029532 -0.011531 -0.009744 0.010847
# 4 0.001059 -0.021692 -0.011531 0.063159 0.013336 -0.032069
# 5 0.002260 -0.006332 -0.009744 0.013336 0.021236 -0.011110
# 6 0.002143 0.018937 0.010847 -0.032069 -0.011110 0.075651
#
#
# Mechanical properties :
#
#
# Convention : Reuss Voigt Hill
#
# Bulk Modulus (GPa) = 20.48168 44.60544 32.54356
# Shear Modulus (GPa) = 20.02573 35.49545 27.76059
#
# Velocity S-wave (km/s) = 2.83280 3.77145 3.33531
# Velocity P-wave (km/s) = 4.34824 6.06956 5.27952
#
# Compressibility (1/GPa) = 0.04882411
#
# Stress axis : x y z
#
# Youngs Moduli (GPa) = 84.49512 50.69788 33.86204
#
# Poissons Ratio (x) = 0.08282 0.31168
# Poissons Ratio (y) = 0.13803 -0.15930
# Poissons Ratio (z) = 0.77772 -0.23850
#
# Static dielectric constant tensor:
#      x y z
#    x 2.085040 -0.028460 -0.030850 
#    y -0.028460 2.026710 -0.018130 
#    z -0.030850 -0.018130 1.936280 
# 
# From -- ./inp_files/605737.got.cif
#   From: 2010.05.17/outbox.cif.g08.bks.cpg/sg2_303_cif.got.tgz:605737.got - 2010.06.03 11:33:40.
