data_PCOD9061591
_publ_section_title
;
Structure prediction by ZEFSAII (Michael W. Deem and Ramdas Pophale) SiO2 
 PCOD9061591
Probable space group: P -1
;
_chemical_formula_sum "Si O2"
_cell_formula_units_Z 16
_cell_length_a 16.716894
_cell_length_b 12.569864
_cell_length_c 17.509052
_cell_angle_alpha 146.229692
_cell_angle_beta 19.230701
_cell_angle_gamma 139.887510
_cell_volume 669.531055
_symmetry_space_group_name_H-M "P -1"
_symmetry_group_IT_number 2
_symmetry_cell_setting 'triclinic'
loop_
_space_group_symop_operation_xyz
x,y,z
-x,-y,-z
loop_
_atom_site_type_symbol
_atom_site_label
_atom_site_fract_x
_atom_site_fract_y
_atom_site_fract_z
Si Si1 0.933452 0.792359 0.964300
Si Si2 0.920478 0.293422 0.472789
Si Si3 0.025387 0.441070 0.061432
Si Si4 0.343996 0.683611 0.125073
Si Si5 0.322313 0.615580 0.789620
Si Si6 0.092761 0.207588 0.519687
Si Si7 0.634572 0.304924 0.594911
Si Si8 0.668681 0.943385 0.935163
O O1 0.966838 0.719937 0.977413
O O2 0.166091 0.679582 0.642452
O O3 0.637484 0.774764 0.208577
O O4 0.000000 0.000000 0.000000
O O5 0.716842 0.342923 0.749318
O O6 0.797249 0.206099 0.458475
O O7 0.000000 0.500000 0.500000
O O8 0.122087 0.150091 0.250617
O O9 0.917101 0.359950 0.033870
O O10 0.881660 0.643578 0.344659
O O11 0.284372 0.498108 0.831192
O O12 0.119997 0.666269 0.260994
O O13 0.558817 0.526297 0.815380
O O14 0.419966 0.892638 0.166327
O O15 0.500000 0.500000 0.500000
O O16 0.351548 0.829702 0.916543
O O17 0.293191 0.152422 0.240173
O O18 0.000000 0.000000 0.500000
#
# Coordination Sequence:
#
# PCOD9061591 Si02
#       8
#     2   2   2   2   2   2   2   2
#     4  12  29  50  76 112 151 212 264 317 387 474
#     4  11  24  42  69 107 155 193 249 318 391 466
#     4  11  26  50  73 104 153 195 258 320 392 457
#     4  11  24  40  72 108 145 193 249 320 387 460
#     4  11  28  48  74 104 152 206 255 321 394 470
#     4  11  23  45  74 103 142 186 252 319 383 454
#     4  12  25  47  75 110 156 200 255 324 393 451
#     4  11  25  44  71 113 143 200 258 315 391 466
#
# _framework density 23.897321999999999
#
# number of rings (size 3 to 8) (size 9 to 14) (size 15 to 20)
#    0.000    0.750    3.750    2.250    7.000    2.500 
#    0.000    0.000    0.000    0.000    0.000    0.000 
#    0.000    0.000    0.000    0.000    0.000    0.000 
#
# Total GULP energy -89209.784855 kJ/mol
# GULP energy per Si atom -5575.611553 kJ/mol
# Density = 2.384293 g / cm^3
# Si number density = 23.897322 Si / 1000 Ang^3
#
#
#
# Elastic Constant Matrix: (Units=GPa)
#
#
# Indices 1 2 3 4 5 6 
#
# 1 93.9240 25.5967 32.5142 -18.3264 10.3042 -16.3049
# 2 25.5967 135.6150 35.6720 -24.8312 20.2743 -16.5543
# 3 32.5142 35.6720 116.2109 -14.9712 17.8737 -15.1923
# 4 -18.3264 -24.8312 -14.9712 46.6482 -6.2980 8.0373
# 5 10.3042 20.2743 17.8737 -6.2980 49.4028 -8.2850
# 6 -16.3049 -16.5543 -15.1923 8.0373 -8.2850 40.6001
#
#
#
# Elastic Compliance Matrix: (Units=1/GPa)
#
#
# Indices 1 2 3 4 5 6 
#
# 1 0.012961 -0.000717 -0.002476 0.003285 -0.000554 0.003223
# 2 -0.000717 0.009105 -0.001576 0.003460 -0.002294 0.001682
# 3 -0.002476 -0.001576 0.010461 0.000964 -0.002225 0.001633
# 4 0.003285 0.003460 0.000964 0.025254 0.000461 -0.001814
# 5 -0.000554 -0.002294 -0.002225 0.000461 0.022586 0.002527
# 6 0.003223 0.001682 0.001633 -0.001814 0.002527 0.028096
#
#
# Mechanical properties :
#
#
# Convention : Reuss Voigt Hill
#
# Bulk Modulus (GPa) = 43.49961 59.25729 51.37845
# Shear Modulus (GPa) = 39.78797 44.12802 41.95799
#
# Velocity S-wave (km/s) = 4.08481 4.30183 4.19473
# Velocity P-wave (km/s) = 6.36316 7.03739 6.70875
#
# Compressibility (1/GPa) = 0.02298871
#
# Stress axis : x y z
#
# Youngs Moduli (GPa) = 77.15549 109.82422 95.58862
#
# Poissons Ratio (x) = 0.07877 0.23672
# Poissons Ratio (y) = 0.05534 0.15064
# Poissons Ratio (z) = 0.19107 0.17308
#
# Static dielectric constant tensor:
#      x y z
#    x 1.976330 0.076220 -0.076800 
#    y 0.076220 2.004010 -0.060130 
#    z -0.076800 -0.060130 2.008440 
# 
# From -- ./inp_files/575973.got.cif
#   From: 2010.05.17/outbox.cif.g08.bks.cpg/sg2_288_cif.got.tgz:575973.got - 2010.06.03 11:33:40.
