data_PCOD9061252
_publ_section_title
;
Structure prediction by ZEFSAII (Michael W. Deem and Ramdas Pophale) SiO2 
 PCOD9061252
Probable space group: P -1
;
_chemical_formula_sum "Si O2"
_cell_formula_units_Z 14
_cell_length_a 5.284393
_cell_length_b 9.229227
_cell_length_c 11.921612
_cell_angle_alpha 84.687871
_cell_angle_beta 101.017743
_cell_angle_gamma 89.790679
_cell_volume 568.123768
_symmetry_space_group_name_H-M "P -1"
_symmetry_group_IT_number 2
_symmetry_cell_setting 'triclinic'
loop_
_space_group_symop_operation_xyz
x,y,z
-x,-y,-z
loop_
_atom_site_type_symbol
_atom_site_label
_atom_site_fract_x
_atom_site_fract_y
_atom_site_fract_z
Si Si1 0.391431 0.320636 0.209917
Si Si2 0.108533 0.495488 0.773264
Si Si3 0.317440 0.284530 0.642216
Si Si4 0.060870 0.002715 0.750066
Si Si5 0.205054 0.748275 0.162038
Si Si6 0.647712 0.861062 0.574470
Si Si7 0.440607 0.844879 0.953372
O O1 0.134246 0.398417 0.230665
O O2 0.486894 0.215038 0.326276
O O3 0.340674 0.229414 0.099645
O O4 0.621076 0.428057 0.189383
O O5 0.039927 0.354868 0.852171
O O6 0.140553 0.419552 0.659177
O O7 0.223684 0.133056 0.700662
O O8 0.597605 0.306160 0.719961
O O9 0.318357 0.255739 0.512965
O O10 0.878092 0.090466 0.816397
O O11 0.220818 0.885182 0.841823
O O12 0.904621 0.925762 0.644798
O O13 0.343929 0.749524 0.054825
O O14 0.500000 0.000000 0.500000
O O15 0.500000 0.000000 0.000000
#
# Coordination Sequence:
#
# PCOD9061252 Si02
#       7
#     2   2   2   2   2   2   2
#     4  12  28  50  74 112 152 196 254 314 370 458
#     4  11  27  52  72 112 151 203 262 296 378 447
#     4  11  23  47  77 109 152 203 249 312 370 452
#     4  11  23  44  76 116 153 191 250 312 394 441
#     4  11  23  47  77 109 152 203 249 312 370 452
#     4  12  25  46  79 113 152 193 250 317 385 448
#     4  12  25  46  79 113 152 193 250 317 385 448
#
# _framework density 24.642517000000002
#
# number of rings (size 3 to 8) (size 9 to 14) (size 15 to 20)
#    0.000    0.571    4.286    3.429    0.000    4.571 
#    0.000    0.000    0.000    0.000    0.000    0.000 
#    0.000    0.000    0.000    0.000    0.000    0.000 
#
# Total GULP energy -78409.107460 kJ/mol
# GULP energy per Si atom -5600.650533 kJ/mol
# Density = 2.458643 g / cm^3
# Si number density = 24.642517 Si / 1000 Ang^3
#
#
#
# Elastic Constant Matrix: (Units=GPa)
#
#
# Indices 1 2 3 4 5 6 
#
# 1 117.8796 45.4193 34.5774 15.1816 -5.4371 -3.6460
# 2 45.4193 106.2999 39.1628 31.7637 -11.9362 -2.0653
# 3 34.5774 39.1628 133.3543 20.7831 -14.6111 -18.2064
# 4 15.1816 31.7637 20.7831 27.3168 -10.1790 -11.2619
# 5 -5.4371 -11.9362 -14.6111 -10.1790 52.4278 6.3087
# 6 -3.6460 -2.0653 -18.2064 -11.2619 6.3087 58.9065
#
#
#
# Elastic Compliance Matrix: (Units=1/GPa)
#
#
# Indices 1 2 3 4 5 6 
#
# 1 0.010443 -0.003843 -0.001571 -0.000240 -0.000277 0.000010
# 2 -0.003843 0.016885 -0.001694 -0.017683 -0.000033 -0.003547
# 3 -0.001571 -0.001694 0.009269 -0.002920 0.001225 0.002019
# 4 -0.000240 -0.017683 -0.002920 0.066340 0.006761 0.010422
# 5 -0.000277 -0.000033 0.001225 0.006761 0.020760 -0.000571
# 6 0.000010 -0.003547 0.002019 0.010422 -0.000571 0.019530
#
#
# Mechanical properties :
#
#
# Convention : Reuss Voigt Hill
#
# Bulk Modulus (GPa) = 44.68110 66.20587 55.44348
# Shear Modulus (GPa) = 30.32095 43.62183 36.97139
#
# Velocity S-wave (km/s) = 3.51156 4.21192 3.87758
# Velocity P-wave (km/s) = 5.88324 7.11186 6.52652
#
# Compressibility (1/GPa) = 0.02238083
#
# Stress axis : x y z
#
# Youngs Moduli (GPa) = 95.75812 59.22507 107.89173
#
# Poissons Ratio (x) = 0.22758 0.16949
# Poissons Ratio (y) = 0.36796 0.18279
# Poissons Ratio (z) = 0.15043 0.10034
#
# Static dielectric constant tensor:
#      x y z
#    x 2.012010 -0.022070 -0.012070 
#    y -0.022070 2.048540 0.046160 
#    z -0.012070 0.046160 1.915820 
# 
# From -- ./inp_files/360773.got.cif
#   From: 2010.05.17/outbox.cif.g08.bks.cpg/sg2_181_cif.got.tgz:360773.got - 2010.06.03 11:33:40.
