data_PCOD9061842
_publ_section_title
;
Structure prediction by ZEFSAII (Michael W. Deem and Ramdas Pophale) SiO2 
 PCOD9061842
Probable space group: P -1
;
_chemical_formula_sum "Si O2"
_cell_formula_units_Z 16
_cell_length_a 14.104341
_cell_length_b 9.276582
_cell_length_c 8.642271
_cell_angle_alpha 45.207706
_cell_angle_beta 105.621623
_cell_angle_gamma 88.772013
_cell_volume 735.008955
_symmetry_space_group_name_H-M "P -1"
_symmetry_group_IT_number 2
_symmetry_cell_setting 'triclinic'
loop_
_space_group_symop_operation_xyz
x,y,z
-x,-y,-z
loop_
_atom_site_type_symbol
_atom_site_label
_atom_site_fract_x
_atom_site_fract_y
_atom_site_fract_z
Si Si1 0.586376 0.067864 0.569288
Si Si2 0.542147 0.484254 0.707897
Si Si3 0.224003 0.899388 0.542308
Si Si4 0.939160 0.244337 0.849503
Si Si5 0.785030 0.350194 0.973924
Si Si6 0.782200 0.516929 0.331583
Si Si7 0.568733 0.825205 0.046356
Si Si8 0.877942 0.668239 0.972770
O O1 0.534210 0.310766 0.402349
O O2 0.679032 0.029201 0.520666
O O3 0.500000 0.000000 0.500000
O O4 0.603715 0.943104 0.832018
O O5 0.500000 0.500000 0.500000
O O6 0.663437 0.462824 0.793382
O O7 0.514054 0.298411 0.929901
O O8 0.236086 0.684145 0.613278
O O9 0.134876 0.106896 0.288859
O O10 0.213973 0.832596 0.762704
O O11 0.849679 0.243018 0.933560
O O12 0.879382 0.401606 0.568688
O O13 0.009791 0.366779 0.875790
O O14 0.000000 0.000000 0.000000
O O15 0.841973 0.508781 0.961817
O O16 0.678024 0.651734 0.274061
O O17 0.811109 0.662004 0.102398
O O18 0.500000 0.000000 0.000000
#
# Coordination Sequence:
#
# PCOD9061842 Si02
#       8
#     2   2   2   2   2   2   2   2
#     4  12  25  41  70 104 145 192 240 288 359 436
#     4  12  25  45  70 106 153 188 240 302 358 438
#     4  11  23  46  72 102 147 191 240 298 363 435
#     4  12  26  49  77 107 142 191 245 308 372 425
#     4  11  28  46  73 106 144 191 243 304 367 437
#     4  11  24  46  75 106 144 189 247 300 358 437
#     4  12  25  42  71 108 147 195 237 292 365 432
#     4  11  24  50  73 105 144 190 242 305 368 432
#
# _framework density 21.768443000000001
#
# number of rings (size 3 to 8) (size 9 to 14) (size 15 to 20)
#    0.000    0.500    5.000    3.000    1.750    2.500 
#    4.500    0.000    0.000    0.000    0.000    0.000 
#    0.000    0.000    0.000    0.000    0.000    0.000 
#
# Total GULP energy -89217.428859 kJ/mol
# GULP energy per Si atom -5576.089304 kJ/mol
# Density = 2.171890 g / cm^3
# Si number density = 21.768443 Si / 1000 Ang^3
#
#
#
# Elastic Constant Matrix: (Units=GPa)
#
#
# Indices 1 2 3 4 5 6 
#
# 1 91.8606 10.2524 21.5538 8.7360 -0.9356 -6.3429
# 2 10.2524 43.9392 22.3765 2.0866 5.9176 -4.5928
# 3 21.5538 22.3765 114.4873 4.5727 -8.8621 -14.2359
# 4 8.7360 2.0866 4.5727 26.5261 4.4906 -2.0163
# 5 -0.9356 5.9176 -8.8621 4.4906 39.6000 0.1082
# 6 -6.3429 -4.5928 -14.2359 -2.0163 0.1082 40.8843
#
#
#
# Elastic Compliance Matrix: (Units=1/GPa)
#
#
# Indices 1 2 3 4 5 6 
#
# 1 0.011861 -0.001776 -0.001586 -0.003523 0.000588 0.000913
# 2 -0.001776 0.026586 -0.005161 0.000337 -0.005211 0.000944
# 3 -0.001586 -0.005161 0.010696 -0.001253 0.003262 0.002828
# 4 -0.003523 0.000337 -0.001253 0.039965 -0.004949 0.001039
# 5 0.000588 -0.005211 0.003262 -0.004949 0.027335 0.000325
# 6 0.000913 0.000944 0.002828 0.001039 0.000325 0.025742
#
#
# Mechanical properties :
#
#
# Convention : Reuss Voigt Hill
#
# Bulk Modulus (GPa) = 31.15668 39.85026 35.50347
# Shear Modulus (GPa) = 29.42376 34.47570 31.94973
#
# Velocity S-wave (km/s) = 3.68050 3.98395 3.83522
# Velocity P-wave (km/s) = 5.69256 6.28559 5.99641
#
# Compressibility (1/GPa) = 0.03209585
#
# Stress axis : x y z
#
# Youngs Moduli (GPa) = 84.31343 37.61380 93.49182
#
# Poissons Ratio (x) = 0.06681 0.14828
# Poissons Ratio (y) = 0.14975 0.48253
# Poissons Ratio (z) = 0.13372 0.19413
#
# Static dielectric constant tensor:
#      x y z
#    x 1.792850 0.032470 0.004990 
#    y 0.032470 1.816480 -0.012490 
#    z 0.004990 -0.012490 1.856810 
# 
# From -- ./inp_files/297317.got.cif
#   From: 2010.05.17/outbox.cif.g08.bks.cpg/sg2_149_cif.got.tgz:297317.got - 2010.06.03 11:33:40.
