data_PCOD9061261
_publ_section_title
;
Structure prediction by ZEFSAII (Michael W. Deem and Ramdas Pophale) SiO2 
 PCOD9061261
Probable space group: P -1
;
_chemical_formula_sum "Si O2"
_cell_formula_units_Z 12
_cell_length_a 12.106968
_cell_length_b 9.961514
_cell_length_c 8.309457
_cell_angle_alpha 47.666911
_cell_angle_beta 67.097258
_cell_angle_gamma 40.070231
_cell_volume 459.821634
_symmetry_space_group_name_H-M "P -1"
_symmetry_group_IT_number 2
_symmetry_cell_setting 'triclinic'
loop_
_space_group_symop_operation_xyz
x,y,z
-x,-y,-z
loop_
_atom_site_type_symbol
_atom_site_label
_atom_site_fract_x
_atom_site_fract_y
_atom_site_fract_z
Si Si1 0.182281 0.373624 0.066257
Si Si2 0.308218 0.581187 0.682664
Si Si3 0.321801 0.928003 0.564535
Si Si4 0.695000 0.612523 0.501096
Si Si5 0.668185 0.992591 0.015727
Si Si6 0.063656 0.131420 0.830289
O O1 0.236091 0.215110 0.327739
O O2 0.198552 0.570526 0.872561
O O3 0.320724 0.133423 0.052317
O O4 0.000000 0.500000 0.000000
O O5 0.273429 0.830297 0.535239
O O6 0.281530 0.539992 0.549081
O O7 0.513091 0.311478 0.830065
O O8 0.535164 0.711501 0.619164
O O9 0.227365 0.962189 0.749779
O O10 0.636135 0.878183 0.263198
O O11 0.888733 0.417572 0.624629
O O12 0.856166 0.872705 0.050524
O O13 0.000000 0.000000 0.000000
#
# Coordination Sequence:
#
# PCOD9061261 Si02
#       6
#     2   2   2   2   2   2
#     4  11  24  43  74 106 136 181 241 291 348 416
#     4  11  23  44  77 106 137 180 239 297 343 419
#     4  12  25  46  76 103 140 192 236 283 358 419
#     4  11  23  47  75 103 141 187 236 293 353 414
#     4  11  23  48  70 103 145 181 231 300 349 416
#     4  12  30  45  65 108 149 186 236 290 352 421
#
# _framework density 26.097076000000001
#
# number of rings (size 3 to 8) (size 9 to 14) (size 15 to 20)
#    0.000    0.667    3.333    5.000    4.667    4.667 
#    0.000    0.000    0.000    0.000    0.000    0.000 
#    0.000    0.000    0.000    0.000    0.000    0.000 
#
# Total GULP energy -67316.377986 kJ/mol
# GULP energy per Si atom -5609.698165 kJ/mol
# Density = 2.603768 g / cm^3
# Si number density = 26.097076 Si / 1000 Ang^3
#
#
#
# Elastic Constant Matrix: (Units=GPa)
#
#
# Indices 1 2 3 4 5 6 
#
# 1 152.8964 38.3449 20.7117 0.0304 2.3725 -15.0481
# 2 38.3449 85.8146 22.4009 17.2360 -4.7187 -4.2270
# 3 20.7117 22.4009 70.2228 8.2948 -7.7534 -8.0284
# 4 0.0304 17.2360 8.2948 39.6577 -20.1986 2.7957
# 5 2.3725 -4.7187 -7.7534 -20.1986 51.9517 1.0959
# 6 -15.0481 -4.2270 -8.0284 2.7957 1.0959 47.5919
#
#
#
# Elastic Compliance Matrix: (Units=1/GPa)
#
#
# Indices 1 2 3 4 5 6 
#
# 1 0.007732 -0.003349 -0.001200 0.001400 -0.000332 0.001870
# 2 -0.003349 0.015279 -0.003239 -0.006780 -0.001583 0.000187
# 3 -0.001200 -0.003239 0.016201 -0.001299 0.001629 0.002105
# 4 0.001400 -0.006780 -0.001299 0.035176 0.012861 -0.002741
# 5 -0.000332 -0.001583 0.001629 0.012861 0.024391 -0.001288
# 6 0.001870 0.000187 0.002105 -0.002741 -0.001288 0.022166
#
#
# Mechanical properties :
#
#
# Convention : Reuss Voigt Hill
#
# Bulk Modulus (GPa) = 42.30792 52.42764 47.36778
# Shear Modulus (GPa) = 34.62633 43.00534 38.81583
#
# Velocity S-wave (km/s) = 3.64652 4.06384 3.86082
# Velocity P-wave (km/s) = 5.82893 6.49252 6.16965
#
# Compressibility (1/GPa) = 0.02363624
#
# Stress axis : x y z
#
# Youngs Moduli (GPa) = 129.33700 65.45079 61.72269
#
# Poissons Ratio (x) = 0.21918 0.07409
# Poissons Ratio (y) = 0.43312 0.19990
# Poissons Ratio (z) = 0.15525 0.21198
#
# Static dielectric constant tensor:
#      x y z
#    x 2.018390 0.014500 0.050520 
#    y 0.014500 2.078230 0.020230 
#    z 0.050520 0.020230 2.150700 
# 
# From -- ./inp_files/154423.got.cif
#   From: 2010.05.17/outbox.cif.g08.bks.cpg/sg2_78_cif.got.tgz:154423.got - 2010.06.03 11:33:40.
