data_PCOD9061483
_publ_section_title
;
Structure prediction by ZEFSAII (Michael W. Deem and Ramdas Pophale) SiO2 
 PCOD9061483
Probable space group: P -1
;
_chemical_formula_sum "Si O2"
_cell_formula_units_Z 14
_cell_length_a 10.936405
_cell_length_b 6.066974
_cell_length_c 11.549285
_cell_angle_alpha 69.027018
_cell_angle_beta 126.568165
_cell_angle_gamma 98.510866
_cell_volume 572.503298
_symmetry_space_group_name_H-M "P -1"
_symmetry_group_IT_number 2
_symmetry_cell_setting 'triclinic'
loop_
_space_group_symop_operation_xyz
x,y,z
-x,-y,-z
loop_
_atom_site_type_symbol
_atom_site_label
_atom_site_fract_x
_atom_site_fract_y
_atom_site_fract_z
Si Si1 0.814149 0.112935 0.499008
Si Si2 0.096123 0.650010 0.114724
Si Si3 0.624756 0.470839 0.975599
Si Si4 0.813352 0.871383 0.039966
Si Si5 0.824270 0.029543 0.258522
Si Si6 0.353673 0.267209 0.416412
Si Si7 0.425045 0.501166 0.646118
O O1 0.769840 0.027656 0.360704
O O2 0.738719 0.380831 0.423612
O O3 0.743900 0.954677 0.586865
O O4 0.995755 0.053768 0.620365
O O5 0.233543 0.485570 0.274918
O O6 0.163653 0.871057 0.047334
O O7 0.000000 0.500000 0.000000
O O8 0.980072 0.739672 0.133752
O O9 0.691439 0.720104 0.937808
O O10 0.531323 0.388591 0.828707
O O11 0.500000 0.500000 0.000000
O O12 0.766846 0.293856 0.132374
O O13 0.767787 0.877699 0.148339
O O14 0.415398 0.325582 0.566982
O O15 0.487085 0.280420 0.396794
#
# Coordination Sequence:
#
# PCOD9061483 Si02
#       7
#     2   2   2   2   2   2   2
#     4  11  24  43  68  97 138 179 221 286 344 406
#     4  11  23  45  71 106 138 174 237 288 344 410
#     4  12  26  46  68  99 141 183 233 284 333 413
#     4  11  24  41  73 100 135 185 226 287 346 401
#     4  11  25  44  67 102 134 178 235 278 342 415
#     4  11  24  42  69  97 139 178 227 283 344 408
#     4  11  25  44  65 100 137 181 229 279 344 400
#
# _framework density 24.454006
#
# number of rings (size 3 to 8) (size 9 to 14) (size 15 to 20)
#    0.000    0.857    1.429    5.571    2.000    7.429 
#    0.000    3.571    0.000    0.000    0.000    0.000 
#    0.000    0.000    0.000    0.000    0.000    0.000 
#
# Total GULP energy -78317.075922 kJ/mol
# GULP energy per Si atom -5594.076852 kJ/mol
# Density = 2.439835 g / cm^3
# Si number density = 24.454006 Si / 1000 Ang^3
#
#
#
# Elastic Constant Matrix: (Units=GPa)
#
#
# Indices 1 2 3 4 5 6 
#
# 1 88.5571 11.8965 12.3429 -13.6950 1.0632 -8.9798
# 2 11.8965 39.5530 23.7383 -7.9910 12.7481 3.0848
# 3 12.3429 23.7383 127.4584 4.5777 5.1623 -5.3915
# 4 -13.6950 -7.9910 4.5777 36.2958 -9.3684 -2.1154
# 5 1.0632 12.7481 5.1623 -9.3684 27.5533 2.8174
# 6 -8.9798 3.0848 -5.3915 -2.1154 2.8174 44.3430
#
#
#
# Elastic Compliance Matrix: (Units=1/GPa)
#
#
# Indices 1 2 3 4 5 6 
#
# 1 0.012905 -0.003484 -0.000772 0.005059 0.002689 0.002832
# 2 -0.003484 0.035176 -0.005912 0.003513 -0.013548 -0.002843
# 3 -0.000772 -0.005912 0.009170 -0.002674 0.000011 0.001242
# 4 0.005059 0.003513 -0.002674 0.033188 0.009820 0.001414
# 5 0.002689 -0.013548 0.000011 0.009820 0.045893 -0.000959
# 6 0.002832 -0.002843 0.001242 0.001414 -0.000959 0.023602
#
#
# Mechanical properties :
#
#
# Convention : Reuss Voigt Hill
#
# Bulk Modulus (GPa) = 27.08822 39.05823 33.07323
# Shear Modulus (GPa) = 25.96409 35.47781 30.72095
#
# Velocity S-wave (km/s) = 3.26199 3.81307 3.54824
# Velocity P-wave (km/s) = 5.02879 5.94918 5.50824
#
# Compressibility (1/GPa) = 0.03691641
#
# Stress axis : x y z
#
# Youngs Moduli (GPa) = 77.48967 28.42815 109.05643
#
# Poissons Ratio (x) = 0.09904 0.08415
# Poissons Ratio (y) = 0.26997 0.64471
# Poissons Ratio (z) = 0.05979 0.16806
#
# Static dielectric constant tensor:
#      x y z
#    x 1.949920 -0.008470 -0.016830 
#    y -0.008470 1.968870 -0.003640 
#    z -0.016830 -0.003640 1.900450 
# 
# From -- ./inp_files/410153.got.cif
#   From: 2010.05.17/outbox.cif.g08.bks.cpg/sg2_206_cif.got.tgz:410153.got - 2010.06.03 11:33:40.
