data_PCOD9061670
_publ_section_title
;
Structure prediction by ZEFSAII (Michael W. Deem and Ramdas Pophale) SiO2 
 PCOD9061670
Probable space group: P -1
;
_chemical_formula_sum "Si O2"
_cell_formula_units_Z 14
_cell_length_a 6.624908
_cell_length_b 8.594662
_cell_length_c 11.326771
_cell_angle_alpha 100.776590
_cell_angle_beta 81.496245
_cell_angle_gamma 94.712488
_cell_volume 625.606962
_symmetry_space_group_name_H-M "P -1"
_symmetry_group_IT_number 2
_symmetry_cell_setting 'triclinic'
loop_
_space_group_symop_operation_xyz
x,y,z
-x,-y,-z
loop_
_atom_site_type_symbol
_atom_site_label
_atom_site_fract_x
_atom_site_fract_y
_atom_site_fract_z
Si Si1 0.828417 0.425921 0.595650
Si Si2 0.226652 0.442345 0.959338
Si Si3 0.471893 0.181702 0.500924
Si Si4 0.126711 0.273179 0.724643
Si Si5 0.462057 0.759715 0.994923
Si Si6 0.340082 0.251027 0.260362
Si Si7 0.898651 0.021657 0.882759
O O1 0.665081 0.303911 0.528838
O O2 0.720657 0.570931 0.686555
O O3 0.000000 0.500000 0.500000
O O4 0.939477 0.335574 0.676822
O O5 0.241622 0.407370 0.814475
O O6 0.345800 0.597158 0.021879
O O7 0.309872 0.282794 0.988322
O O8 0.000000 0.500000 0.000000
O O9 0.287636 0.224135 0.607763
O O10 0.408710 0.191783 0.372201
O O11 0.500000 0.000000 0.500000
O O12 0.038487 0.137933 0.803352
O O13 0.480973 0.761554 0.852808
O O14 0.323208 0.899381 0.069169
O O15 0.152831 0.140248 0.207567
O O16 0.000000 0.000000 0.000000
#
# Coordination Sequence:
#
# PCOD9061670 Si02
#       7
#     2   2   2   2   2   2   2
#     4  12  28  50  77 116 153 201 266 313 392 463
#     4  11  23  45  76 110 145 198 248 320 383 457
#     4  12  30  50  78 113 153 210 255 320 395 461
#     4  12  27  48  79 107 159 193 265 318 387 465
#     4  11  26  45  73 109 148 196 259 306 393 455
#     4  12  27  48  77 106 157 198 257 323 384 463
#     4  12  29  48  77 117 157 207 262 323 394 469
#
# _framework density 22.378270000000001
#
# number of rings (size 3 to 8) (size 9 to 14) (size 15 to 20)
#    0.000    0.286    2.857    4.286   14.000    1.143 
#    0.000    0.000    0.000    0.000    0.000    0.000 
#    0.000    0.000    0.000    0.000    0.000    0.000 
#
# Total GULP energy -78228.240210 kJ/mol
# GULP energy per Si atom -5587.731444 kJ/mol
# Density = 2.232734 g / cm^3
# Si number density = 22.378270 Si / 1000 Ang^3
#
#
#
# Elastic Constant Matrix: (Units=GPa)
#
#
# Indices 1 2 3 4 5 6 
#
# 1 97.4461 70.0285 45.2483 -8.8925 16.7709 -7.3352
# 2 70.0285 110.4132 42.1458 0.7386 23.7073 7.4548
# 3 45.2483 42.1458 136.8557 -13.7949 18.4309 -12.0750
# 4 -8.8925 0.7386 -13.7949 48.6369 -0.3083 1.9522
# 5 16.7709 23.7073 18.4309 -0.3083 53.1042 -0.0631
# 6 -7.3352 7.4548 -12.0750 1.9522 -0.0631 48.3069
#
#
#
# Elastic Compliance Matrix: (Units=1/GPa)
#
#
# Indices 1 2 3 4 5 6 
#
# 1 0.021269 -0.012904 -0.002316 0.003246 -0.000128 0.004511
# 2 -0.012904 0.019163 -0.001884 -0.002997 -0.003849 -0.005271
# 3 -0.002316 -0.001884 0.009280 0.002140 -0.001634 0.002170
# 4 0.003246 -0.002997 0.002140 0.021780 -0.000302 0.000610
# 5 -0.000128 -0.003849 -0.001634 -0.000302 0.021155 0.000206
# 6 0.004511 -0.005271 0.002170 0.000610 0.000206 0.022718
#
#
# Mechanical properties :
#
#
# Convention : Reuss Voigt Hill
#
# Bulk Modulus (GPa) = 64.49868 73.28447 68.89157
# Shear Modulus (GPa) = 32.31241 42.49577 37.40409
#
# Velocity S-wave (km/s) = 3.80402 4.36245 4.09277
# Velocity P-wave (km/s) = 6.94108 7.62848 7.29289
#
# Compressibility (1/GPa) = 0.01550419
#
# Stress axis : x y z
#
# Youngs Moduli (GPa) = 47.01752 52.18433 107.76097
#
# Poissons Ratio (x) = 0.67340 0.24953
# Poissons Ratio (y) = 0.60673 0.20298
# Poissons Ratio (z) = 0.10887 0.09830
#
# Static dielectric constant tensor:
#      x y z
#    x 2.010450 0.014490 -0.003930 
#    y 0.014490 1.792230 -0.084540 
#    z -0.003930 -0.084540 1.776630 
# 
# From -- ./inp_files/360822.got.cif
#   From: 2010.05.17/outbox.cif.g08.bks.cpg/sg2_181_cif.got.tgz:360822.got - 2010.06.03 11:33:40.
