data_PCOD9061462
_publ_section_title
;
Structure prediction by ZEFSAII (Michael W. Deem and Ramdas Pophale) SiO2 
 PCOD9061462
Probable space group: P -1
;
_chemical_formula_sum "Si O2"
_cell_formula_units_Z 16
_cell_length_a 16.727491
_cell_length_b 8.246773
_cell_length_c 12.302403
_cell_angle_alpha 122.165443
_cell_angle_beta 150.158052
_cell_angle_gamma 49.073323
_cell_volume 635.141835
_symmetry_space_group_name_H-M "P -1"
_symmetry_group_IT_number 2
_symmetry_cell_setting 'triclinic'
loop_
_space_group_symop_operation_xyz
x,y,z
-x,-y,-z
loop_
_atom_site_type_symbol
_atom_site_label
_atom_site_fract_x
_atom_site_fract_y
_atom_site_fract_z
Si Si1 0.397874 0.825992 0.257590
Si Si2 0.696242 0.951820 0.166494
Si Si3 0.014455 0.143763 0.976200
Si Si4 0.507715 0.862217 0.621821
Si Si5 0.043659 0.530693 0.404611
Si Si6 0.178814 0.027553 0.452281
Si Si7 0.311854 0.693846 0.884877
Si Si8 0.086860 0.422309 0.954526
O O1 0.487271 0.732815 0.446837
O O2 0.529387 0.900094 0.377067
O O3 0.328735 0.719378 0.044667
O O4 0.226017 0.050206 0.171606
O O5 0.702126 0.096335 0.123440
O O6 0.829034 0.694835 0.221960
O O7 0.785713 0.011096 0.393758
O O8 0.500000 0.000000 0.000000
O O9 0.889817 0.367841 0.964713
O O10 0.943674 0.084998 0.763713
O O11 0.000000 0.000000 0.000000
O O12 0.711131 0.762442 0.870423
O O13 0.362985 0.899128 0.556094
O O14 0.100952 0.282952 0.418856
O O15 0.158837 0.625053 0.641570
O O16 0.055262 0.563604 0.299557
O O17 0.500000 0.500000 0.000000
O O18 0.000000 0.500000 0.000000
#
# Coordination Sequence:
#
# PCOD9061462 Si02
#       8
#     2   2   2   2   2   2   2   2
#     4  11  23  45  71 101 144 186 241 285 361 432
#     4  12  27  47  74 108 148 188 245 301 356 439
#     4  12  24  46  68 107 139 184 231 304 362 424
#     4  11  24  44  75 105 142 190 235 302 356 433
#     4  12  26  49  72 104 148 199 241 293 371 436
#     4  12  26  48  73 105 148 186 245 301 370 416
#     4  12  28  47  75 107 147 198 242 294 363 444
#     4  12  26  43  75 106 144 187 245 296 365 432
#
# _framework density 25.191222
#
# number of rings (size 3 to 8) (size 9 to 14) (size 15 to 20)
#    0.000    0.250    3.750    5.250    5.250    1.500 
#    2.250    0.000    0.000    0.000    0.000    0.000 
#    0.000    0.000    0.000    0.000    0.000    0.000 
#
# Total GULP energy -89284.067544 kJ/mol
# GULP energy per Si atom -5580.254222 kJ/mol
# Density = 2.513389 g / cm^3
# Si number density = 25.191222 Si / 1000 Ang^3
#
#
#
# Elastic Constant Matrix: (Units=GPa)
#
#
# Indices 1 2 3 4 5 6 
#
# 1 60.3058 5.9148 19.6048 -8.5403 -18.1940 -11.9878
# 2 5.9148 89.1642 33.6622 -6.2731 -9.6058 -11.1841
# 3 19.6048 33.6622 168.7131 18.5778 -33.4545 -18.9010
# 4 -8.5403 -6.2731 18.5778 40.1608 -13.4908 -1.6462
# 5 -18.1940 -9.6058 -33.4545 -13.4908 61.5329 0.1188
# 6 -11.9878 -11.1841 -18.9010 -1.6462 0.1188 34.4340
#
#
#
# Elastic Compliance Matrix: (Units=1/GPa)
#
#
# Indices 1 2 3 4 5 6 
#
# 1 0.021990 0.001470 -0.001359 0.008485 0.007838 0.007766
# 2 0.001470 0.013014 -0.002425 0.004316 0.002087 0.003607
# 3 -0.001359 -0.002425 0.007787 -0.003233 0.002739 0.002850
# 4 0.008485 0.004316 -0.003233 0.031864 0.008403 0.004076
# 5 0.007838 0.002087 0.002739 0.008403 0.022216 0.005235
# 6 0.007766 0.003607 0.002850 0.004076 0.005235 0.034657
#
#
# Mechanical properties :
#
#
# Convention : Reuss Voigt Hill
#
# Bulk Modulus (GPa) = 26.20280 48.50519 37.35400
# Shear Modulus (GPa) = 33.58471 44.49229 39.03850
#
# Velocity S-wave (km/s) = 3.65525 4.20716 3.94088
# Velocity P-wave (km/s) = 5.31400 6.54957 5.96387
#
# Compressibility (1/GPa) = 0.03816386
#
# Stress axis : x y z
#
# Youngs Moduli (GPa) = 45.47571 76.83992 128.41343
#
# Poissons Ratio (x) = -0.11293 0.17447
# Poissons Ratio (y) = -0.06683 0.31136
# Poissons Ratio (z) = 0.06179 0.18631
#
# Static dielectric constant tensor:
#      x y z
#    x 2.068370 -0.009010 -0.105240 
#    y -0.009010 1.786920 0.036540 
#    z -0.105240 0.036540 2.095100 
# 
# From -- ./inp_files/462383.got.cif
#   From: 2010.05.17/outbox.cif.g08.bks.cpg/sg2_232_cif.got.tgz:462383.got - 2010.06.03 11:33:40.
