data_PCOD9061356
_publ_section_title
;
Structure prediction by ZEFSAII (Michael W. Deem and Ramdas Pophale) SiO2 
 PCOD9061356
Probable space group: P -1
;
_chemical_formula_sum "Si O2"
_cell_formula_units_Z 14
_cell_length_a 7.432806
_cell_length_b 13.114648
_cell_length_c 18.695576
_cell_angle_alpha 21.134630
_cell_angle_beta 106.202368
_cell_angle_gamma 107.438897
_cell_volume 626.890069
_symmetry_space_group_name_H-M "P -1"
_symmetry_group_IT_number 2
_symmetry_cell_setting 'triclinic'
loop_
_space_group_symop_operation_xyz
x,y,z
-x,-y,-z
loop_
_atom_site_type_symbol
_atom_site_label
_atom_site_fract_x
_atom_site_fract_y
_atom_site_fract_z
Si Si1 0.207500 0.848691 0.522408
Si Si2 0.932504 0.765090 0.027958
Si Si3 0.999700 0.794700 0.847969
Si Si4 0.338988 0.218920 0.580370
Si Si5 0.646183 0.214780 0.713849
Si Si6 0.634499 0.728469 0.618332
Si Si7 0.645304 0.075981 0.030578
O O1 0.104109 0.545382 0.736699
O O2 0.421385 0.798543 0.559609
O O3 0.769612 0.924508 0.558126
O O4 0.113411 0.992593 0.350802
O O5 0.137924 0.926518 0.964530
O O6 0.929609 0.745680 0.953595
O O7 0.774047 0.964446 0.901131
O O8 0.213603 0.940697 0.776096
O O9 0.000000 0.500000 0.000000
O O10 0.563142 0.230577 0.614533
O O11 0.266800 0.495128 0.429442
O O12 0.311013 0.225536 0.488184
O O13 0.445937 0.144202 0.777745
O O14 0.637652 0.394393 0.850307
O O15 0.500000 0.000000 0.000000
#
# Coordination Sequence:
#
# PCOD9061356 Si02
#       7
#     2   2   2   2   2   2   2
#     4  11  26  44  72 108 137 189 240 287 352 420
#     4  12  26  47  76 104 143 186 235 291 352 420
#     4  12  26  45  72 105 142 186 235 289 351 417
#     4  11  24  45  70  99 144 184 230 297 348 414
#     4  11  25  46  69 105 139 183 237 286 353 418
#     4  11  23  45  69 100 146 179 235 297 344 415
#     4  12  24  44  70 101 142 185 229 292 350 412
#
# _framework density 22.332464999999999
#
# number of rings (size 3 to 8) (size 9 to 14) (size 15 to 20)
#    0.000    0.571    4.286    3.429    0.000    4.000 
#    0.000    3.571    0.000    0.000    0.000    0.000 
#    0.000    0.000    0.000    0.000    0.000    0.000 
#
# Total GULP energy -78293.810812 kJ/mol
# GULP energy per Si atom -5592.415058 kJ/mol
# Density = 2.228164 g / cm^3
# Si number density = 22.332465 Si / 1000 Ang^3
#
#
#
# Elastic Constant Matrix: (Units=GPa)
#
#
# Indices 1 2 3 4 5 6 
#
# 1 89.1095 21.9822 35.4221 -3.6593 -0.1086 16.6349
# 2 21.9822 94.6544 29.3468 2.1241 -2.8581 13.5329
# 3 35.4221 29.3468 127.2617 -7.2743 -0.7968 0.9138
# 4 -3.6593 2.1241 -7.2743 47.5669 7.4737 -1.8245
# 5 -0.1086 -2.8581 -0.7968 7.4737 35.3232 4.8567
# 6 16.6349 13.5329 0.9138 -1.8245 4.8567 31.8512
#
#
#
# Elastic Compliance Matrix: (Units=1/GPa)
#
#
# Indices 1 2 3 4 5 6 
#
# 1 0.014263 -0.001173 -0.003633 0.000205 0.000780 -0.006954
# 2 -0.001173 0.012445 -0.002583 -0.001540 0.001957 -0.004987
# 3 -0.003633 -0.002583 0.009526 0.001519 -0.000728 0.002920
# 4 0.000205 -0.001540 0.001519 0.022247 -0.005149 0.002563
# 5 0.000780 0.001957 -0.000728 -0.005149 0.030389 -0.006146
# 6 -0.006954 -0.004987 0.002920 0.002563 -0.006146 0.038147
#
#
# Mechanical properties :
#
#
# Convention : Reuss Voigt Hill
#
# Bulk Modulus (GPa) = 46.60792 53.83642 50.22217
# Shear Modulus (GPa) = 33.56891 37.89988 35.73440
#
# Velocity S-wave (km/s) = 3.88125 4.12403 4.00448
# Velocity P-wave (km/s) = 6.40318 6.84368 6.62709
#
# Compressibility (1/GPa) = 0.02145558
#
# Stress axis : x y z
#
# Youngs Moduli (GPa) = 70.11074 80.35524 104.97527
#
# Poissons Ratio (x) = 0.09425 0.38138
# Poissons Ratio (y) = 0.08223 0.27118
# Poissons Ratio (z) = 0.25471 0.20758
#
# Static dielectric constant tensor:
#      x y z
#    x 1.835210 0.022490 0.006910 
#    y 0.022490 2.099240 0.175050 
#    z 0.006910 0.175050 1.867530 
# 
# From -- ./inp_files/119442.got.cif
#   From: 2010.05.17/outbox.cif.g08.bks.cpg/sg2_60_cif.got.tgz:119442.got - 2010.06.03 11:33:40.
