data_PCOD9061655
_publ_section_title
;
Structure prediction by ZEFSAII (Michael W. Deem and Ramdas Pophale) SiO2 
 PCOD9061655
Probable space group: P -1
;
_chemical_formula_sum "Si O2"
_cell_formula_units_Z 16
_cell_length_a 8.141735
_cell_length_b 19.190055
_cell_length_c 20.130447
_cell_angle_alpha 159.534312
_cell_angle_beta 130.452563
_cell_angle_gamma 39.899751
_cell_volume 670.238014
_symmetry_space_group_name_H-M "P -1"
_symmetry_group_IT_number 2
_symmetry_cell_setting 'triclinic'
loop_
_space_group_symop_operation_xyz
x,y,z
-x,-y,-z
loop_
_atom_site_type_symbol
_atom_site_label
_atom_site_fract_x
_atom_site_fract_y
_atom_site_fract_z
Si Si1 0.451231 0.478019 0.187657
Si Si2 0.050762 0.842277 0.640626
Si Si3 0.599086 0.708248 0.612343
Si Si4 0.348783 0.881223 0.446305
Si Si5 0.055779 0.737456 0.793245
Si Si6 0.576656 0.985886 0.724800
Si Si7 0.734551 0.422200 0.043242
Si Si8 0.018643 0.648086 0.322106
O O1 0.245088 0.742487 0.333707
O O2 0.748881 0.391779 0.207162
O O3 0.319610 0.518128 0.260435
O O4 0.472477 0.263003 0.961624
O O5 0.359639 0.745526 0.626602
O O6 0.009060 0.708782 0.450703
O O7 0.896576 0.831893 0.654060
O O8 0.879709 0.138890 0.847733
O O9 0.788753 0.440060 0.387707
O O10 0.510342 0.884000 0.679852
O O11 0.782032 0.762630 0.750028
O O12 0.441659 0.976600 0.614283
O O13 0.592155 0.631763 0.250100
O O14 0.184354 0.087895 0.532207
O O15 0.000000 0.000000 0.000000
O O16 0.949091 0.466337 0.115448
O O17 0.500000 0.500000 0.000000
#
# Coordination Sequence:
#
# PCOD9061655 Si02
#       8
#     2   2   2   2   2   2   2   2
#     4  12  25  44  70 101 136 183 235 287 347 415
#     4  12  24  44  73 104 138 187 236 280 344 419
#     4  11  25  45  73 103 137 181 229 290 354 414
#     4  12  24  42  65 100 144 181 231 286 338 406
#     4  11  23  45  75  97 140 182 221 292 365 404
#     4  12  24  44  71 101 141 183 231 290 341 405
#     4  12  24  41  65  97 140 187 232 278 343 406
#     4  12  25  42  68  98 142 189 232 278 341 417
#
# _framework density 23.872116999999999
#
# number of rings (size 3 to 8) (size 9 to 14) (size 15 to 20)
#    0.000    0.250    7.500    2.250    0.000    0.500 
#    0.000    3.125    2.750    0.000    0.000    0.000 
#    0.000    0.000    0.000    0.000    0.000    0.000 
#
# Total GULP energy -89433.450671 kJ/mol
# GULP energy per Si atom -5589.590667 kJ/mol
# Density = 2.381778 g / cm^3
# Si number density = 23.872117 Si / 1000 Ang^3
#
#
#
# Elastic Constant Matrix: (Units=GPa)
#
#
# Indices 1 2 3 4 5 6 
#
# 1 69.7466 -1.1100 5.0810 -0.3940 0.7570 -13.3576
# 2 -1.1100 88.3536 28.4266 -13.2078 13.5796 -1.2886
# 3 5.0810 28.4266 137.2189 -19.2225 10.1028 -3.8468
# 4 -0.3940 -13.2078 -19.2225 27.7540 -4.0952 5.4226
# 5 0.7570 13.5796 10.1028 -4.0952 38.1294 -3.6682
# 6 -13.3576 -1.2886 -3.8468 5.4226 -3.6682 29.2036
#
#
#
# Elastic Compliance Matrix: (Units=1/GPa)
#
#
# Indices 1 2 3 4 5 6 
#
# 1 0.015810 0.000241 -0.000665 -0.001534 0.000331 0.007481
# 2 0.000241 0.013173 -0.001837 0.004612 -0.003799 -0.000884
# 3 -0.000665 -0.001837 0.008445 0.004868 -0.001078 -0.000312
# 4 -0.001534 0.004612 0.004868 0.043238 0.000996 -0.007761
# 5 0.000331 -0.003799 -0.001078 0.000996 0.028274 0.003209
# 6 0.007481 -0.000884 -0.000312 -0.007761 0.003209 0.039428
#
#
# Mechanical properties :
#
#
# Convention : Reuss Voigt Hill
#
# Bulk Modulus (GPa) = 30.38816 40.01273 35.20044
# Shear Modulus (GPa) = 30.51411 36.54550 33.52980
#
# Velocity S-wave (km/s) = 3.57912 3.91690 3.75181
# Velocity P-wave (km/s) = 5.46235 6.10359 5.79185
#
# Compressibility (1/GPa) = 0.03290756
#
# Stress axis : x y z
#
# Youngs Moduli (GPa) = 63.24952 75.91501 118.41002
#
# Poissons Ratio (x) = -0.01833 0.07874
# Poissons Ratio (y) = -0.01527 0.21750
# Poissons Ratio (z) = 0.04206 0.13944
#
# Static dielectric constant tensor:
#      x y z
#    x 2.319120 -0.002990 0.032190 
#    y -0.002990 1.908000 0.030600 
#    z 0.032190 0.030600 1.857800 
# 
# From -- ./inp_files/591722.got.cif
#   From: 2010.05.17/outbox.cif.g08.bks.cpg/sg2_296_cif.got.tgz:591722.got - 2010.06.03 11:33:40.
