data_PCOD9061923
_publ_section_title
;
Structure prediction by ZEFSAII (Michael W. Deem and Ramdas Pophale) SiO2 
 PCOD9061923
Probable space group: P -1
;
_chemical_formula_sum "Si O2"
_cell_formula_units_Z 15
_cell_length_a 8.705922
_cell_length_b 12.545869
_cell_length_c 11.971827
_cell_angle_alpha 129.812023
_cell_angle_beta 129.605834
_cell_angle_gamma 36.637350
_cell_volume 577.145756
_symmetry_space_group_name_H-M "P -1"
_symmetry_group_IT_number 2
_symmetry_cell_setting 'triclinic'
loop_
_space_group_symop_operation_xyz
x,y,z
-x,-y,-z
loop_
_atom_site_type_symbol
_atom_site_label
_atom_site_fract_x
_atom_site_fract_y
_atom_site_fract_z
Si Si1 0.271018 0.683614 0.450073
Si Si2 0.000000 0.000000 0.000000
Si Si3 0.573599 0.730359 0.436526
Si Si4 0.764717 0.442429 0.139273
Si Si5 0.895249 0.522217 0.843207
Si Si6 0.594688 0.067312 0.174214
Si Si7 0.969032 0.971491 0.704106
Si Si8 0.720328 0.913278 0.767702
O O1 0.500000 0.500000 0.500000
O O2 0.417323 0.722649 0.459463
O O3 0.105964 0.640614 0.285039
O O4 0.088302 0.830267 0.561709
O O5 0.314487 0.906343 0.110893
O O6 0.063189 0.915713 0.837266
O O7 0.712155 0.548771 0.302218
O O8 0.742032 0.787144 0.595239
O O9 0.344890 0.897165 0.362513
O O10 0.918228 0.478945 0.156111
O O11 0.990330 0.215725 0.113457
O O12 0.500000 0.500000 0.000000
O O13 0.593956 0.715454 0.802915
O O14 0.000000 0.500000 0.000000
O O15 0.908038 0.938690 0.214843
O O16 0.507087 0.055085 0.245057
O O17 0.500000 0.000000 0.000000
#
# Coordination Sequence:
#
# PCOD9061923 Si02
#       8
#     2   1   2   2   2   2   2   2
#     4  12  25  48  76 110 146 189 248 306 366 443
#     4  12  28  44  74 102 152 186 252 308 362 440
#     4  12  27  47  77 105 150 193 243 309 384 447
#     4  11  25  47  70 101 151 194 246 296 376 449
#     4  11  26  44  73 110 140 191 248 303 358 443
#     4  11  23  46  73  98 148 191 236 292 373 442
#     4  12  27  48  73 111 144 196 245 306 379 442
#     4  11  25  46  70 103 139 199 237 304 375 432
#
# _framework density 25.989971000000001
#
# number of rings (size 3 to 8) (size 9 to 14) (size 15 to 20)
#    0.000    0.533    4.000    3.200    7.467    2.667 
#    2.400    0.000    0.000    0.000    0.000    0.000 
#    0.000    0.000    0.000    0.000    0.000    0.000 
#
# Total GULP energy -83589.915192 kJ/mol
# GULP energy per Si atom -5572.661013 kJ/mol
# Density = 2.593082 g / cm^3
# Si number density = 25.989971 Si / 1000 Ang^3
#
#
#
# Elastic Constant Matrix: (Units=GPa)
#
#
# Indices 1 2 3 4 5 6 
#
# 1 114.2929 13.0556 56.9247 -10.5437 -6.1738 16.2356
# 2 13.0556 69.9569 25.3754 -8.8159 -1.7058 -5.8764
# 3 56.9247 25.3754 243.4478 8.2130 16.9325 1.6712
# 4 -10.5437 -8.8159 8.2130 38.1523 -14.4087 6.7434
# 5 -6.1738 -1.7058 16.9325 -14.4087 58.3480 1.5371
# 6 16.2356 -5.8764 1.6712 6.7434 1.5371 33.4812
#
#
#
# Elastic Compliance Matrix: (Units=1/GPa)
#
#
# Indices 1 2 3 4 5 6 
#
# 1 0.012405 -0.000795 -0.003284 0.006849 0.004133 -0.007560
# 2 -0.000795 0.015834 -0.001746 0.004094 0.001835 0.002343
# 3 -0.003284 -0.001746 0.005385 -0.003943 -0.002986 0.001949
# 4 0.006849 0.004094 -0.003943 0.035890 0.011119 -0.010145
# 5 0.004133 0.001835 -0.002986 0.011119 0.021367 -0.004753
# 6 -0.007560 0.002343 0.001949 -0.010145 -0.004753 0.036109
#
#
# Mechanical properties :
#
#
# Convention : Reuss Voigt Hill
#
# Bulk Modulus (GPa) = 45.51150 68.71213 57.11182
# Shear Modulus (GPa) = 34.25467 48.15241 41.20354
#
# Velocity S-wave (km/s) = 3.63436 4.30901 3.98598
# Velocity P-wave (km/s) = 5.92964 7.15905 6.57315
#
# Compressibility (1/GPa) = 0.02197247
#
# Stress axis : x y z
#
# Youngs Moduli (GPa) = 80.61224 63.15622 185.70129
#
# Poissons Ratio (x) = 0.05021 0.60991
# Poissons Ratio (y) = 0.06408 0.32430
# Poissons Ratio (z) = 0.26476 0.11029
#
# Static dielectric constant tensor:
#      x y z
#    x 1.471310 -0.571130 -0.309860 
#    y -0.571130 1.579260 -0.269160 
#    z -0.309860 -0.269160 1.412480 
# 
# From -- ./inp_files/343502.got.cif
#   From: 2010.05.17/outbox.cif.g08.bks.cpg/sg2_172_cif.got.tgz:343502.got - 2010.06.03 11:33:40.
