data_PCOD9061371
_publ_section_title
;
Structure prediction by ZEFSAII (Michael W. Deem and Ramdas Pophale) SiO2 
 PCOD9061371
Probable space group: P -1
;
_chemical_formula_sum "Si O2"
_cell_formula_units_Z 16
_cell_length_a 23.067049
_cell_length_b 20.078721
_cell_length_c 9.825275
_cell_angle_alpha 32.703827
_cell_angle_beta 33.403677
_cell_angle_gamma 17.592692
_cell_volume 728.091382
_symmetry_space_group_name_H-M "P -1"
_symmetry_group_IT_number 2
_symmetry_cell_setting 'triclinic'
loop_
_space_group_symop_operation_xyz
x,y,z
-x,-y,-z
loop_
_atom_site_type_symbol
_atom_site_label
_atom_site_fract_x
_atom_site_fract_y
_atom_site_fract_z
Si Si1 0.723631 0.739713 0.502386
Si Si2 0.042429 0.328521 0.411228
Si Si3 0.126126 0.149718 0.040163
Si Si4 0.076546 0.830817 0.027405
Si Si5 0.745828 0.644466 0.921683
Si Si6 0.320914 0.964490 0.268651
Si Si7 0.138509 0.905462 0.272452
Si Si8 0.543487 0.428259 0.197827
O O1 0.753944 0.628315 0.768684
O O2 0.819483 0.593547 0.426261
O O3 0.500000 0.000000 0.500000
O O4 0.835018 0.757920 0.264185
O O5 0.177207 0.296113 0.282531
O O6 0.148150 0.210929 0.259990
O O7 0.018897 0.209814 0.707517
O O8 0.246901 0.011343 0.179896
O O9 0.187386 0.993983 0.073426
O O10 0.896786 0.390327 0.114174
O O11 0.309554 0.611306 0.965973
O O12 0.998347 0.963779 0.813969
O O13 0.000000 0.000000 0.000000
O O14 0.526106 0.835273 0.075476
O O15 0.364082 0.796049 0.558579
O O16 0.337326 0.638704 0.315556
O O17 0.000000 0.000000 0.500000
O O18 0.500000 0.500000 0.000000
#
# Coordination Sequence:
#
# PCOD9061371 Si02
#       8
#     2   2   2   2   2   2   2   2
#     4  11  23  45  69 103 138 185 235 290 355 430
#     4  11  25  44  72 101 144 190 235 293 366 419
#     4  11  25  44  72 103 149 185 242 294 359 429
#     4  12  24  48  73 102 149 188 246 295 356 438
#     4  11  24  46  72 103 146 183 241 299 361 430
#     4  12  25  46  71 106 146 187 241 302 360 431
#     4  12  26  44  72 108 143 190 239 300 367 420
#     4  12  27  46  74 106 141 195 243 295 363 434
#
# _framework density 21.975263999999999
#
# number of rings (size 3 to 8) (size 9 to 14) (size 15 to 20)
#    0.000    0.500    3.750    4.875    1.750    6.000 
#    2.250    0.000    0.000    0.000    0.000    0.000 
#    0.000    0.000    0.000    0.000    0.000    0.000 
#
# Total GULP energy -89259.044249 kJ/mol
# GULP energy per Si atom -5578.690266 kJ/mol
# Density = 2.192525 g / cm^3
# Si number density = 21.975264 Si / 1000 Ang^3
#
#
#
# Elastic Constant Matrix: (Units=GPa)
#
#
# Indices 1 2 3 4 5 6 
#
# 1 108.8168 48.4930 23.8190 0.5685 15.7673 -5.4674
# 2 48.4930 158.1000 32.6357 23.5238 6.9964 -2.0174
# 3 23.8190 32.6357 79.7250 12.9430 -3.2824 -3.0961
# 4 0.5685 23.5238 12.9430 39.4925 0.9447 -0.1726
# 5 15.7673 6.9964 -3.2824 0.9447 32.4070 -1.3577
# 6 -5.4674 -2.0174 -3.0961 -0.1726 -1.3577 43.8277
#
#
#
# Elastic Compliance Matrix: (Units=1/GPa)
#
#
# Indices 1 2 3 4 5 6 
#
# 1 0.012134 -0.003287 -0.002937 0.002882 -0.005534 0.000995
# 2 -0.003287 0.008350 -0.001748 -0.004348 -0.000261 -0.000174
# 3 -0.002937 -0.001748 0.014938 -0.003892 0.003462 0.000700
# 4 0.002882 -0.004348 -0.003892 0.029186 -0.001711 -0.000054
# 5 -0.005534 -0.000261 0.003462 -0.001711 0.034032 0.000590
# 6 0.000995 -0.000174 0.000700 -0.000054 0.000590 0.023000
#
#
# Mechanical properties :
#
#
# Convention : Reuss Voigt Hill
#
# Bulk Modulus (GPa) = 51.33763 61.83746 56.58754
# Shear Modulus (GPa) = 34.70381 39.25837 36.98109
#
# Velocity S-wave (km/s) = 3.97825 4.23126 4.10671
# Velocity P-wave (km/s) = 6.67190 7.21610 6.94933
#
# Compressibility (1/GPa) = 0.01947889
#
# Stress axis : x y z
#
# Youngs Moduli (GPa) = 82.41203 119.75484 66.94502
#
# Poissons Ratio (x) = 0.39362 0.19661
# Poissons Ratio (y) = 0.27088 0.11701
# Poissons Ratio (z) = 0.24204 0.20931
#
# Static dielectric constant tensor:
#      x y z
#    x 1.723770 -0.059820 0.027420 
#    y -0.059820 1.930670 0.067120 
#    z 0.027420 0.067120 1.783880 
# 
# From -- ./inp_files/348824.got.cif
#   From: 2010.05.17/outbox.cif.g08.bks.cpg/sg2_175_cif.got.tgz:348824.got - 2010.06.03 11:33:40.
