data_PCOD9061121
_publ_section_title
;
Structure prediction by ZEFSAII (Michael W. Deem and Ramdas Pophale) SiO2 
 PCOD9061121
Probable space group: P -1
;
_chemical_formula_sum "Si O2"
_cell_formula_units_Z 16
_cell_length_a 9.091598
_cell_length_b 25.005946
_cell_length_c 9.606655
_cell_angle_alpha 44.507927
_cell_angle_beta 124.987423
_cell_angle_gamma 151.068161
_cell_volume 732.314705
_symmetry_space_group_name_H-M "P -1"
_symmetry_group_IT_number 2
_symmetry_cell_setting 'triclinic'
loop_
_space_group_symop_operation_xyz
x,y,z
-x,-y,-z
loop_
_atom_site_type_symbol
_atom_site_label
_atom_site_fract_x
_atom_site_fract_y
_atom_site_fract_z
Si Si1 0.798612 0.868781 0.548894
Si Si2 0.373230 0.093158 0.894549
Si Si3 0.943827 0.182215 0.077748
Si Si4 0.304633 0.460153 0.838042
Si Si5 0.865805 0.803912 0.141016
Si Si6 0.190380 0.643563 0.819356
Si Si7 0.727349 0.609505 0.537782
Si Si8 0.296659 0.688025 0.106457
O O1 0.697354 0.876009 0.334890
O O2 0.481690 0.739890 0.696971
O O3 0.001996 0.859730 0.687745
O O4 0.000000 0.000000 0.500000
O O5 0.522420 0.194259 0.909999
O O6 0.613095 0.103413 0.997560
O O7 0.055701 0.941498 0.039337
O O8 0.137462 0.325650 0.943681
O O9 0.080550 0.184867 0.014487
O O10 0.530073 0.565787 0.645157
O O11 0.047792 0.432416 0.797800
O O12 0.500000 0.500000 0.000000
O O13 0.956010 0.754965 0.344543
O O14 0.508314 0.687115 0.205694
O O15 0.941539 0.613908 0.680381
O O16 0.283549 0.709038 0.899719
O O17 0.000000 0.500000 0.000000
O O18 0.500000 0.500000 0.500000
#
# Coordination Sequence:
#
# PCOD9061121 Si02
#       8
#     2   2   2   2   2   2   2   2
#     4  12  25  43  77 109 139 190 247 289 360 429
#     4  11  26  47  72 106 146 183 239 301 357 419
#     4  11  23  44  73 101 139 185 237 294 344 426
#     4  11  24  45  66 102 146 180 233 297 360 418
#     4  12  23  45  71 101 141 186 236 293 354 430
#     4  12  25  47  73 104 143 190 240 293 356 437
#     4  12  25  42  73 104 137 189 242 289 361 429
#     4  11  25  46  69  98 147 183 223 303 362 411
#
# _framework density 21.848531999999999
#
# number of rings (size 3 to 8) (size 9 to 14) (size 15 to 20)
#    0.000    0.500    5.000    3.000    3.500    1.500 
#    0.000    0.625    0.000    0.000    0.000    0.000 
#    0.000    0.000    0.000    0.000    0.000    0.000 
#
# Total GULP energy -89280.046660 kJ/mol
# GULP energy per Si atom -5580.002916 kJ/mol
# Density = 2.179880 g / cm^3
# Si number density = 21.848532 Si / 1000 Ang^3
#
#
#
# Elastic Constant Matrix: (Units=GPa)
#
#
# Indices 1 2 3 4 5 6 
#
# 1 79.6566 15.0061 19.4540 15.1795 5.7724 26.2482
# 2 15.0061 93.2326 51.0472 21.9595 -7.3193 1.8126
# 3 19.4540 51.0472 147.7211 13.8053 20.6677 12.1595
# 4 15.1795 21.9595 13.8053 43.7494 7.2249 -0.5574
# 5 5.7724 -7.3193 20.6677 7.2249 31.4969 8.2069
# 6 26.2482 1.8126 12.1595 -0.5574 8.2069 43.1196
#
#
#
# Elastic Compliance Matrix: (Units=1/GPa)
#
#
# Indices 1 2 3 4 5 6 
#
# 1 0.017402 -0.000680 -0.000820 -0.005787 0.001294 -0.010655
# 2 -0.000680 0.017080 -0.006462 -0.008008 0.010314 -0.000548
# 3 -0.000820 -0.006462 0.010151 0.001684 -0.008269 -0.000496
# 4 -0.005787 -0.008008 0.001684 0.030130 -0.010311 0.005737
# 5 0.001294 0.010314 -0.008269 -0.010311 0.043608 -0.007323
# 6 -0.010655 -0.000548 -0.000496 0.005737 -0.007323 0.031308
#
#
# Mechanical properties :
#
#
# Convention : Reuss Voigt Hill
#
# Bulk Modulus (GPa) = 34.83263 54.62499 44.72881
# Shear Modulus (GPa) = 28.54318 39.34673 33.94496
#
# Velocity S-wave (km/s) = 3.61835 4.24829 3.94591
# Velocity P-wave (km/s) = 5.78222 7.00856 6.42472
#
# Compressibility (1/GPa) = 0.02870871
#
# Stress axis : x y z
#
# Youngs Moduli (GPa) = 57.46419 58.54755 98.51226
#
# Poissons Ratio (x) = 0.03982 0.08078
# Poissons Ratio (y) = 0.03908 0.63661
# Poissons Ratio (z) = 0.04712 0.37835
#
# Static dielectric constant tensor:
#      x y z
#    x 1.874650 -0.012200 -0.031570 
#    y -0.012200 1.874530 0.055930 
#    z -0.031570 0.055930 1.828760 
# 
# From -- ./inp_files/226181.got.cif
#   From: 2010.05.17/outbox.cif.g08.bks.cpg/sg2_114_cif.got.tgz:226181.got - 2010.06.03 11:33:40.
