data_PCOD9061106
_publ_section_title
;
Structure prediction by ZEFSAII (Michael W. Deem and Ramdas Pophale) SiO2 
 PCOD9061106
Probable space group: P -1
;
_chemical_formula_sum "Si O2"
_cell_formula_units_Z 16
_cell_length_a 10.428196
_cell_length_b 7.770566
_cell_length_c 16.519010
_cell_angle_alpha 47.322245
_cell_angle_beta 134.906372
_cell_angle_gamma 130.008746
_cell_volume 661.364579
_symmetry_space_group_name_H-M "P -1"
_symmetry_group_IT_number 2
_symmetry_cell_setting 'triclinic'
loop_
_space_group_symop_operation_xyz
x,y,z
-x,-y,-z
loop_
_atom_site_type_symbol
_atom_site_label
_atom_site_fract_x
_atom_site_fract_y
_atom_site_fract_z
Si Si1 0.512845 0.897648 0.356379
Si Si2 0.453518 0.144423 0.858125
Si Si3 0.199204 0.212081 0.607264
Si Si4 0.523863 0.780552 0.901298
Si Si5 0.123681 0.671089 0.350940
Si Si6 0.161248 0.067259 0.385142
Si Si7 0.833841 0.599881 0.861769
Si Si8 0.056708 0.059301 0.914725
O O1 0.622933 0.782698 0.374687
O O2 0.306812 0.745664 0.348124
O O3 0.651066 0.932017 0.483354
O O4 0.485767 0.136804 0.222007
O O5 0.285476 0.256288 0.723664
O O6 0.637333 0.385980 0.855536
O O7 0.385024 0.903891 0.844421
O O8 0.500000 0.000000 0.000000
O O9 0.116951 0.418630 0.470026
O O10 0.008906 0.982967 0.609605
O O11 0.500000 0.500000 0.000000
O O12 0.724715 0.933414 0.985608
O O13 0.952933 0.689828 0.210505
O O14 0.136125 0.856020 0.373151
O O15 0.167455 0.311042 0.259506
O O16 0.895781 0.851225 0.860955
O O17 0.000000 0.500000 0.000000
O O18 0.000000 0.000000 0.000000
#
# Coordination Sequence:
#
# PCOD9061106 Si02
#       8
#     2   2   2   2   2   2   2   2
#     4  11  24  46  67 101 140 187 232 285 357 417
#     4  11  25  44  70 103 142 186 236 286 354 418
#     4  11  25  44  67 105 141 182 233 294 351 416
#     4  11  26  44  68 103 142 183 230 293 351 418
#     4  11  24  43  72  98 139 185 233 294 345 420
#     4  11  25  43  68 105 140 182 238 287 354 413
#     4  11  23  44  72  98 140 186 234 290 342 425
#     4  11  24  44  68 104 137 183 238 283 356 409
#
# _framework density 24.192404
#
# number of rings (size 3 to 8) (size 9 to 14) (size 15 to 20)
#    0.000    1.000    2.500    3.000    5.250    4.000 
#    0.000    0.000    0.000    0.000    0.000    0.000 
#    0.000    0.000    0.000    0.000    0.000    0.000 
#
# Total GULP energy -89131.292591 kJ/mol
# GULP energy per Si atom -5570.705787 kJ/mol
# Density = 2.413734 g / cm^3
# Si number density = 24.192404 Si / 1000 Ang^3
#
#
#
# Elastic Constant Matrix: (Units=GPa)
#
#
# Indices 1 2 3 4 5 6 
#
# 1 68.4778 6.2552 15.6956 -5.8642 -9.8685 4.9431
# 2 6.2552 74.3819 37.3264 -13.5217 -8.3014 9.1730
# 3 15.6956 37.3264 241.3448 -13.5477 -25.3414 9.0462
# 4 -5.8642 -13.5217 -13.5477 43.8505 10.6876 -5.5232
# 5 -9.8685 -8.3014 -25.3414 10.6876 43.8924 2.2098
# 6 4.9431 9.1730 9.0462 -5.5232 2.2098 29.4403
#
#
#
# Elastic Compliance Matrix: (Units=1/GPa)
#
#
# Indices 1 2 3 4 5 6 
#
# 1 0.015427 -0.000260 -0.000507 0.000773 0.003061 -0.002438
# 2 -0.000260 0.015652 -0.001955 0.003453 0.001117 -0.003668
# 3 -0.000507 -0.001955 0.004760 0.000129 0.002279 -0.000915
# 4 0.000773 0.003453 0.000129 0.025887 -0.005605 0.004032
# 5 0.003061 0.001117 0.002279 -0.005605 0.026595 -0.004610
# 6 -0.002438 -0.003668 -0.000915 0.004032 -0.004610 0.036903
#
#
# Mechanical properties :
#
#
# Convention : Reuss Voigt Hill
#
# Bulk Modulus (GPa) = 32.90140 55.86211 44.38176
# Shear Modulus (GPa) = 35.51175 45.09846 40.30510
#
# Velocity S-wave (km/s) = 3.83546 4.32227 4.08612
# Velocity P-wave (km/s) = 5.76574 6.93183 6.37550
#
# Compressibility (1/GPa) = 0.03039384
#
# Stress axis : x y z
#
# Youngs Moduli (GPa) = 64.82339 63.88963 210.10024
#
# Poissons Ratio (x) = 0.01662 0.10648
# Poissons Ratio (y) = 0.01686 0.41079
# Poissons Ratio (z) = 0.03285 0.12492
#
# Static dielectric constant tensor:
#      x y z
#    x 2.135830 -0.072790 -0.047020 
#    y -0.072790 2.032570 -0.090520 
#    z -0.047020 -0.090520 2.095830 
# 
# From -- ./inp_files/566456.got.cif
#   From: 2010.05.17/outbox.cif.g08.bks.cpg/sg2_284_cif.got.tgz:566456.got - 2010.06.03 11:33:40.
