data_PCOD9061930
_publ_section_title
;
Structure prediction by ZEFSAII (Michael W. Deem and Ramdas Pophale) SiO2 
 PCOD9061930
Probable space group: P -1
;
_chemical_formula_sum "Si O2"
_cell_formula_units_Z 12
_cell_length_a 10.891082
_cell_length_b 7.208046
_cell_length_c 8.737438
_cell_angle_alpha 82.877736
_cell_angle_beta 62.703025
_cell_angle_gamma 57.451572
_cell_volume 506.855091
_symmetry_space_group_name_H-M "P -1"
_symmetry_group_IT_number 2
_symmetry_cell_setting 'triclinic'
loop_
_space_group_symop_operation_xyz
x,y,z
-x,-y,-z
loop_
_atom_site_type_symbol
_atom_site_label
_atom_site_fract_x
_atom_site_fract_y
_atom_site_fract_z
Si Si1 0.661820 0.024594 0.006618
Si Si2 0.118308 0.301821 0.564549
Si Si3 0.635418 0.570227 0.464861
Si Si4 0.320160 0.681627 0.798755
Si Si5 0.586069 0.094233 0.717460
Si Si6 0.881115 0.508057 0.934979
O O1 0.736013 0.104403 0.086319
O O2 0.507511 0.029961 0.170880
O O3 0.607540 0.169113 0.866842
O O4 0.784700 0.766642 0.913168
O O5 0.242646 0.361985 0.558168
O O6 0.233214 0.072010 0.436357
O O7 0.000000 0.500000 0.500000
O O8 0.999151 0.322652 0.764343
O O9 0.514334 0.585598 0.665175
O O10 0.730010 0.332634 0.346501
O O11 0.521277 0.745580 0.378220
O O12 0.254119 0.544533 0.933806
O O13 0.000000 0.500000 0.000000
#
# Coordination Sequence:
#
# PCOD9061930 Si02
#       6
#     2   2   2   2   2   2
#     4  11  24  45  72 107 138 190 244 286 350 423
#     4  12  24  46  72 105 149 183 230 301 361 410
#     4  11  24  47  72 106 138 190 244 283 349 431
#     4  11  25  45  73 107 139 190 241 291 343 433
#     4  11  23  46  74 103 144 191 237 289 350 429
#     4  12  25  47  69 107 150 185 231 300 364 406
#
# _framework density 23.675404
#
# number of rings (size 3 to 8) (size 9 to 14) (size 15 to 20)
#    0.000    0.667    6.667    0.500    2.333    1.333 
#    6.000    0.833    0.000    0.000    0.000    0.000 
#    0.000    0.000    0.000    0.000    0.000    0.000 
#
# Total GULP energy -66938.928825 kJ/mol
# GULP energy per Si atom -5578.244069 kJ/mol
# Density = 2.362152 g / cm^3
# Si number density = 23.675404 Si / 1000 Ang^3
#
#
#
# Elastic Constant Matrix: (Units=GPa)
#
#
# Indices 1 2 3 4 5 6 
#
# 1 45.1230 30.8770 42.0463 -12.9853 -4.1704 -6.5519
# 2 30.8770 75.8445 50.0284 -5.5502 5.1303 -14.0205
# 3 42.0463 50.0284 159.7071 5.2947 -16.1719 -5.4165
# 4 -12.9853 -5.5502 5.2947 39.1793 -1.0798 7.0203
# 5 -4.1704 5.1303 -16.1719 -1.0798 33.2279 1.6730
# 6 -6.5519 -14.0205 -5.4165 7.0203 1.6730 47.2108
#
#
#
# Elastic Compliance Matrix: (Units=1/GPa)
#
#
# Indices 1 2 3 4 5 6 
#
# 1 0.040565 -0.011122 -0.007271 0.013059 0.003723 -0.000581
# 2 -0.011122 0.021998 -0.004498 -0.001037 -0.007261 0.004885
# 3 -0.007271 -0.004498 0.010167 -0.004164 0.004631 -0.000723
# 4 0.013059 -0.001037 -0.004164 0.030940 0.000960 -0.003608
# 5 0.003723 -0.007261 0.004631 0.000960 0.034093 -0.002459
# 6 -0.000581 0.004885 -0.000723 -0.003608 -0.002459 0.023092
#
#
# Mechanical properties :
#
#
# Convention : Reuss Voigt Hill
#
# Bulk Modulus (GPa) = 37.10843 58.50867 47.80855
# Shear Modulus (GPa) = 23.18878 34.43846 28.81362
#
# Velocity S-wave (km/s) = 3.13301 3.81807 3.49238
# Velocity P-wave (km/s) = 5.36614 6.64856 6.04148
#
# Compressibility (1/GPa) = 0.02694806
#
# Stress axis : x y z
#
# Youngs Moduli (GPa) = 24.65149 45.45884 98.35462
#
# Poissons Ratio (x) = 0.50559 0.71518
# Poissons Ratio (y) = 0.27417 0.44240
# Poissons Ratio (z) = 0.17925 0.20447
#
# Static dielectric constant tensor:
#      x y z
#    x 1.863780 0.002590 0.037300 
#    y 0.002590 2.075600 -0.026500 
#    z 0.037300 -0.026500 2.013420 
# 
# From -- ./inp_files/238182.got.cif
#   From: 2010.05.17/outbox.cif.g08.bks.cpg/sg2_120_cif.got.tgz:238182.got - 2010.06.03 11:33:40.
