data_PCOD9061088
_publ_section_title
;
Structure prediction by ZEFSAII (Michael W. Deem and Ramdas Pophale) SiO2 
 PCOD9061088
Probable space group: P -1
;
_chemical_formula_sum "Si O2"
_cell_formula_units_Z 16
_cell_length_a 12.787233
_cell_length_b 11.927543
_cell_length_c 8.728516
_cell_angle_alpha 47.099870
_cell_angle_beta 64.130039
_cell_angle_gamma 46.680427
_cell_volume 708.328561
_symmetry_space_group_name_H-M "P -1"
_symmetry_group_IT_number 2
_symmetry_cell_setting 'triclinic'
loop_
_space_group_symop_operation_xyz
x,y,z
-x,-y,-z
loop_
_atom_site_type_symbol
_atom_site_label
_atom_site_fract_x
_atom_site_fract_y
_atom_site_fract_z
Si Si1 0.415599 0.686152 0.065657
Si Si2 0.635176 0.983600 0.005926
Si Si3 0.951955 0.376382 0.079296
Si Si4 0.450789 0.873726 0.578789
Si Si5 0.688413 0.408377 0.312402
Si Si6 0.314281 0.482086 0.450010
Si Si7 0.101057 0.385881 0.685237
Si Si8 0.199968 0.018016 0.383504
O O1 0.559027 0.485374 0.206599
O O2 0.295350 0.648724 0.201613
O O3 0.409165 0.823745 0.068806
O O4 0.433835 0.761191 0.827262
O O5 0.745669 0.823977 0.207995
O O6 0.733065 0.941513 0.837678
O O7 0.500000 0.000000 0.000000
O O8 0.786217 0.465831 0.123974
O O9 0.034387 0.188748 0.307544
O O10 0.001587 0.362824 0.885274
O O11 0.000000 0.500000 0.000000
O O12 0.568388 0.718280 0.524480
O O13 0.292727 0.005745 0.479114
O O14 0.500000 0.000000 0.500000
O O15 0.638661 0.494819 0.433808
O O16 0.770119 0.183572 0.471407
O O17 0.168888 0.502026 0.564255
O O18 0.000000 0.500000 0.500000
#
# Coordination Sequence:
#
# PCOD9061088 Si02
#       8
#     2   2   2   2   2   2   2   2
#     4  12  25  41  74 107 140 180 237 300 360 421
#     4  11  23  44  72 107 139 188 244 287 352 429
#     4  11  26  44  70 102 137 191 245 283 350 435
#     4  12  27  43  69 108 145 182 230 301 362 419
#     4  12  24  46  73 102 141 187 242 294 353 430
#     4  12  24  46  70 104 142 185 236 292 358 422
#     4  11  26  45  72 102 148 191 232 297 360 428
#     4  11  24  45  70  99 140 187 237 292 356 424
#
# _framework density 22.588387000000001
#
# number of rings (size 3 to 8) (size 9 to 14) (size 15 to 20)
#    0.000    0.500    3.750    4.875    5.250    1.000 
#    0.000    0.625    0.000    0.000    0.000    0.000 
#    0.000    0.000    0.000    0.000    0.000    0.000 
#
# Total GULP energy -89242.599656 kJ/mol
# GULP energy per Si atom -5577.662478 kJ/mol
# Density = 2.253697 g / cm^3
# Si number density = 22.588387 Si / 1000 Ang^3
#
#
#
# Elastic Constant Matrix: (Units=GPa)
#
#
# Indices 1 2 3 4 5 6 
#
# 1 110.7280 25.7233 35.9040 0.4272 -4.8944 7.8659
# 2 25.7233 64.7630 25.1154 -6.5582 -0.3177 13.3552
# 3 35.9040 25.1154 136.9727 -11.1882 5.4198 -4.9982
# 4 0.4272 -6.5582 -11.1882 32.1284 -7.4817 -10.8902
# 5 -4.8944 -0.3177 5.4198 -7.4817 51.2276 1.3845
# 6 7.8659 13.3552 -4.9982 -10.8902 1.3845 30.8306
#
#
#
# Elastic Compliance Matrix: (Units=1/GPa)
#
#
# Indices 1 2 3 4 5 6 
#
# 1 0.010820 -0.002934 -0.002635 -0.002371 0.001024 -0.002800
# 2 -0.002934 0.019515 -0.003099 0.000290 0.000431 -0.008124
# 3 -0.002635 -0.003099 0.009104 0.004076 -0.000773 0.004965
# 4 -0.002371 0.000290 0.004076 0.038649 0.004594 0.014586
# 5 0.001024 0.000431 -0.000773 0.004594 0.020370 0.000135
# 6 -0.002800 -0.008124 0.004965 0.014586 0.000135 0.042620
#
#
# Mechanical properties :
#
#
# Convention : Reuss Voigt Hill
#
# Bulk Modulus (GPa) = 45.23951 53.99434 49.61693
# Shear Modulus (GPa) = 30.16013 37.88538 34.02276
#
# Velocity S-wave (km/s) = 3.65801 4.09981 3.88520
# Velocity P-wave (km/s) = 6.15732 6.80932 6.49151
#
# Compressibility (1/GPa) = 0.02210457
#
# Stress axis : x y z
#
# Youngs Moduli (GPa) = 92.41898 51.24315 109.83832
#
# Poissons Ratio (x) = 0.15032 0.28940
# Poissons Ratio (y) = 0.27111 0.34040
# Poissons Ratio (z) = 0.24350 0.15881
#
# Static dielectric constant tensor:
#      x y z
#    x 1.455010 0.188320 0.247890 
#    y 0.188320 1.863810 -0.118000 
#    z 0.247890 -0.118000 1.784110 
# 
# From -- ./inp_files/261575.got.cif
#   From: 2010.05.17/outbox.cif.g08.bks.cpg/sg2_131_cif.got.tgz:261575.got - 2010.06.03 11:33:40.
