data_PCOD9061469
_publ_section_title
;
Structure prediction by ZEFSAII (Michael W. Deem and Ramdas Pophale) SiO2 
 PCOD9061469
Probable space group: P -1
;
_chemical_formula_sum "Si O2"
_cell_formula_units_Z 15
_cell_length_a 15.357663
_cell_length_b 24.108020
_cell_length_c 8.799381
_cell_angle_alpha 140.746457
_cell_angle_beta 143.515604
_cell_angle_gamma 21.285620
_cell_volume 698.422068
_symmetry_space_group_name_H-M "P -1"
_symmetry_group_IT_number 2
_symmetry_cell_setting 'triclinic'
loop_
_space_group_symop_operation_xyz
x,y,z
-x,-y,-z
loop_
_atom_site_type_symbol
_atom_site_label
_atom_site_fract_x
_atom_site_fract_y
_atom_site_fract_z
Si Si1 0.334865 0.415174 0.329308
Si Si2 0.833782 0.046859 0.217156
Si Si3 0.000000 0.000000 0.000000
Si Si4 0.547762 0.855893 0.700211
Si Si5 0.606690 0.452709 0.880770
Si Si6 0.969463 0.556183 0.841051
Si Si7 0.798128 0.888545 0.996769
Si Si8 0.522267 0.689001 0.149312
O O1 0.569921 0.232613 0.242183
O O2 0.448665 0.456059 0.577855
O O3 0.202891 0.443550 0.358733
O O4 0.109811 0.520808 0.113908
O O5 0.768289 0.977673 0.017470
O O6 0.967389 0.983947 0.105656
O O7 0.000000 0.000000 0.500000
O O8 0.736829 0.186115 0.046217
O O9 0.787353 0.719323 0.858249
O O10 0.470106 0.799144 0.413805
O O11 0.315224 0.013113 0.799402
O O12 0.637259 0.877364 0.738080
O O13 0.904740 0.280600 0.930049
O O14 0.500000 0.500000 0.000000
O O15 0.567983 0.570362 0.023219
O O16 0.207671 0.417161 0.773296
#
# Coordination Sequence:
#
# PCOD9061469 Si02
#       8
#     2   2   1   2   2   2   2   2
#     4  11  25  44  71 104 149 193 254 303 377 446
#     4  12  23  47  76 102 152 195 242 314 370 440
#     4  12  28  48  72 116 140 198 256 298 382 446
#     4  11  24  45  75 108 147 197 250 303 380 455
#     4  12  26  44  72 109 140 194 254 308 367 450
#     4  11  23  45  71 102 147 201 240 310 380 434
#     4  11  24  43  75 107 141 199 254 297 379 450
#     4  12  26  47  73 104 154 187 248 313 364 444
#
# _framework density 21.476984000000002
#
# number of rings (size 3 to 8) (size 9 to 14) (size 15 to 20)
#    0.000    0.533    5.333    2.800    1.867    0.533 
#    7.200    0.667    0.000    0.000    0.000    0.000 
#    0.000    0.000    0.000    0.000    0.000    0.000 
#
# Total GULP energy -83505.541533 kJ/mol
# GULP energy per Si atom -5567.036102 kJ/mol
# Density = 2.142810 g / cm^3
# Si number density = 21.476984 Si / 1000 Ang^3
#
#
#
# Elastic Constant Matrix: (Units=GPa)
#
#
# Indices 1 2 3 4 5 6 
#
# 1 153.4161 60.5570 48.0013 3.2168 18.7254 -7.9982
# 2 60.5570 -239.2122 -167.4116 152.4470 119.0278 -70.6028
# 3 48.0013 -167.4116 -40.8701 86.1744 89.1550 -15.9347
# 4 3.2168 152.4470 86.1744 -26.9577 -29.8541 24.6528
# 5 18.7254 119.0278 89.1550 -29.8541 -3.8622 15.7039
# 6 -7.9982 -70.6028 -15.9347 24.6528 15.7039 34.4778
#
#
#
# Elastic Compliance Matrix: (Units=1/GPa)
#
#
# Indices 1 2 3 4 5 6 
#
# 1 0.008161 -0.000833 -0.001726 -0.001336 -0.004991 0.002617
# 2 -0.000833 0.009896 -0.014969 -0.003798 0.017269 0.008002
# 3 -0.001726 -0.014969 0.029856 0.021089 -0.026299 -0.020357
# 4 -0.001336 -0.003798 0.021089 0.046534 -0.043807 -0.011660
# 5 -0.004991 0.017269 -0.026299 -0.043807 0.069298 0.021810
# 6 0.002617 0.008002 -0.020357 -0.011660 0.021810 0.034993
#
#
# Mechanical properties :
#
#
# Convention : Reuss Voigt Hill
#
# Bulk Modulus (GPa) = 77.79264 -27.15252 25.32006
# Shear Modulus (GPa) = 21.00130 -3.78927 8.60601
#
# Velocity S-wave (km/s) = 3.13045 -1.32973 2.00394
# Velocity P-wave (km/s) = 7.02612 3.87655 4.14359
#
# Compressibility (1/GPa) = 0.01285469
#
# Stress axis : x y z
#
# Youngs Moduli (GPa) = 122.53632 101.05505 33.49427
#
# Poissons Ratio (x) = 0.08422 0.05781
# Poissons Ratio (y) = 0.10212 0.50139
# Poissons Ratio (z) = 0.21151 1.51273
#
# Static dielectric constant tensor:
#      x y z
#    x 1.839010 -0.014690 0.007000 
#    y -0.014690 1.767670 -0.066520 
#    z 0.007000 -0.066520 1.900580 
# 
# From -- ./inp_files/320222.got.cif
#   From: 2010.05.17/outbox.cif.g08.bks.cpg/sg2_161_cif.got.tgz:320222.got - 2010.06.03 11:33:40.
