data_PCOD9061175
_publ_section_title
;
Structure prediction by ZEFSAII (Michael W. Deem and Ramdas Pophale) SiO2 
 PCOD9061175
Probable space group: P -1
;
_chemical_formula_sum "Si O2"
_cell_formula_units_Z 16
_cell_length_a 19.959586
_cell_length_b 26.133030
_cell_length_c 5.348423
_cell_angle_alpha 113.666723
_cell_angle_beta 74.421279
_cell_angle_gamma 162.535045
_cell_volume 697.350173
_symmetry_space_group_name_H-M "P -1"
_symmetry_group_IT_number 2
_symmetry_cell_setting 'triclinic'
loop_
_space_group_symop_operation_xyz
x,y,z
-x,-y,-z
loop_
_atom_site_type_symbol
_atom_site_label
_atom_site_fract_x
_atom_site_fract_y
_atom_site_fract_z
Si Si1 0.889029 0.441483 0.247199
Si Si2 0.691384 0.015394 0.148566
Si Si3 0.060268 0.393104 0.589323
Si Si4 0.806830 0.037721 0.586548
Si Si5 0.230409 0.312983 0.966568
Si Si6 0.544743 0.321343 0.886252
Si Si7 0.125990 0.047201 0.116035
Si Si8 0.398638 0.558374 0.331356
O O1 0.948961 0.553558 0.415926
O O2 0.000000 0.500000 0.500000
O O3 0.597536 0.208133 0.051838
O O4 0.000000 0.500000 0.000000
O O5 0.755022 0.025760 0.346747
O O6 0.805679 0.163793 0.391280
O O7 0.804693 0.080153 0.900572
O O8 0.249609 0.494942 0.474060
O O9 0.204118 0.511567 0.938908
O O10 0.061255 0.200139 0.678710
O O11 0.586347 0.824182 0.449035
O O12 0.500000 0.500000 0.000000
O O13 0.282642 0.411630 0.246802
O O14 0.075794 0.148544 0.948381
O O15 0.614327 0.435844 0.935597
O O16 0.318112 0.158637 0.980606
O O17 0.312201 0.217634 0.463429
O O18 0.000000 0.000000 0.000000
#
# Coordination Sequence:
#
# PCOD9061175 Si02
#       8
#     2   2   2   2   2   2   2   2
#     4  12  29  50  78 116 158 195 241 313 393 456
#     4  12  26  49  81 112 152 199 258 307 374 470
#     4  11  26  45  79 109 147 196 252 311 372 464
#     4  12  24  47  77 111 148 205 258 311 378 449
#     4  12  26  44  70 107 153 199 260 329 379 439
#     4  11  23  44  74 100 145 195 260 315 377 449
#     4  11  26  44  64  96 147 200 251 318 391 446
#     4  11  24  45  70 103 139 196 261 311 381 449
#
# _framework density 22.943997
#
# number of rings (size 3 to 8) (size 9 to 14) (size 15 to 20)
#    0.000    0.500    3.750    3.750    3.500    3.500 
#    0.000    0.000    0.000    0.000    0.000    0.000 
#    0.000    0.000    0.000    0.000    0.000    0.000 
#
# Total GULP energy -89457.592183 kJ/mol
# GULP energy per Si atom -5591.099511 kJ/mol
# Density = 2.289178 g / cm^3
# Si number density = 22.943997 Si / 1000 Ang^3
#
#
#
# Elastic Constant Matrix: (Units=GPa)
#
#
# Indices 1 2 3 4 5 6 
#
# 1 186.7901 61.3868 75.2388 27.6472 20.2698 -25.9049
# 2 61.3868 117.7729 41.3096 28.0561 9.4764 -11.8920
# 3 75.2388 41.3096 103.3600 17.8335 17.8682 -8.8849
# 4 27.6472 28.0561 17.8335 41.7156 -6.3866 -12.8808
# 5 20.2698 9.4764 17.8682 -6.3866 51.9552 5.6007
# 6 -25.9049 -11.8920 -8.8849 -12.8808 5.6007 43.6060
#
#
#
# Elastic Compliance Matrix: (Units=1/GPa)
#
#
# Indices 1 2 3 4 5 6 
#
# 1 0.008886 -0.002052 -0.004688 -0.001736 -0.002073 0.003517
# 2 -0.002052 0.011771 -0.001941 -0.005936 -0.001411 0.000024
# 3 -0.004688 -0.001941 0.014801 -0.002603 -0.003156 -0.000662
# 4 -0.001736 -0.005936 -0.002603 0.032940 0.006083 0.005768
# 5 -0.002073 -0.001411 -0.003156 0.006083 0.022508 -0.003353
# 6 0.003517 0.000024 -0.000662 0.005768 -0.003353 0.027028
#
#
# Mechanical properties :
#
#
# Convention : Reuss Voigt Hill
#
# Bulk Modulus (GPa) = 55.25834 84.86594 70.06214
# Shear Modulus (GPa) = 35.37876 42.78789 39.08332
#
# Velocity S-wave (km/s) = 3.93104 4.32312 4.13173
# Velocity P-wave (km/s) = 6.68883 7.87323 7.30507
#
# Compressibility (1/GPa) = 0.01809681
#
# Stress axis : x y z
#
# Youngs Moduli (GPa) = 112.53681 84.95375 67.56341
#
# Poissons Ratio (x) = 0.17429 0.31674
# Poissons Ratio (y) = 0.23089 0.13113
# Poissons Ratio (z) = 0.52758 0.16488
#
# Static dielectric constant tensor:
#      x y z
#    x 1.867330 -0.020480 -0.006630 
#    y -0.020480 1.891480 -0.064420 
#    z -0.006630 -0.064420 2.025600 
# 
# From -- ./inp_files/48814.got.cif
#   From: 2010.05.17/outbox.cif.g08.bks.cpg/sg2_25_cif.got.tgz:48814.got - 2010.06.03 11:33:40.
