data_PCOD9061034
_publ_section_title
;
Structure prediction by ZEFSAII (Michael W. Deem and Ramdas Pophale) SiO2 
 PCOD9061034
Probable space group: P -1
;
_chemical_formula_sum "Si O2"
_cell_formula_units_Z 16
_cell_length_a 11.759594
_cell_length_b 9.322758
_cell_length_c 17.348565
_cell_angle_alpha 149.809248
_cell_angle_beta 126.008863
_cell_angle_gamma 63.447711
_cell_volume 764.910882
_symmetry_space_group_name_H-M "P -1"
_symmetry_group_IT_number 2
_symmetry_cell_setting 'triclinic'
loop_
_space_group_symop_operation_xyz
x,y,z
-x,-y,-z
loop_
_atom_site_type_symbol
_atom_site_label
_atom_site_fract_x
_atom_site_fract_y
_atom_site_fract_z
Si Si1 0.873268 0.180884 0.016116
Si Si2 0.556650 0.323575 0.198376
Si Si3 0.136141 0.211685 0.624062
Si Si4 0.865491 0.650793 0.494112
Si Si5 0.394478 0.872307 0.607042
Si Si6 0.393825 0.268274 0.256914
Si Si7 0.554719 0.193564 0.685905
Si Si8 0.874180 0.255212 0.866508
O O1 0.877578 0.483135 0.201347
O O2 0.873444 0.235105 0.949515
O O3 0.733641 0.986989 0.903888
O O4 0.000000 0.000000 0.000000
O O5 0.717732 0.426252 0.339186
O O6 0.444268 0.377970 0.244365
O O7 0.534452 0.543267 0.223480
O O8 0.500000 0.000000 0.000000
O O9 0.132838 0.246504 0.546470
O O10 0.271695 0.067036 0.639085
O O11 0.000000 0.000000 0.500000
O O12 0.000000 0.500000 0.500000
O O13 0.876158 0.936585 0.683792
O O14 0.348764 0.539927 0.410321
O O15 0.468462 0.849141 0.707463
O O16 0.519721 0.997569 0.655934
O O17 0.720000 0.317717 0.806980
O O18 0.500000 0.000000 0.500000
O O19 0.000000 0.500000 0.000000
#
# Coordination Sequence:
#
# PCOD9061034 Si02
#       8
#     2   2   2   2   2   2   2   2
#     4  12  27  46  69 104 144 182 233 293 354 424
#     4  12  27  44  73 103 141 187 233 295 356 420
#     4  12  26  46  71 100 140 188 232 289 354 423
#     4  12  27  47  69 104 145 182 234 293 352 421
#     4  11  23  44  71  99 134 182 233 285 350 419
#     4  11  25  42  71 101 136 180 233 288 354 415
#     4  12  22  47  72 101 140 184 242 289 352 429
#     4  12  27  46  73 104 138 190 235 288 353 424
#
# _framework density 20.917470999999999
#
# number of rings (size 3 to 8) (size 9 to 14) (size 15 to 20)
#    0.000    0.250    5.000    3.000    7.000    1.500 
#    0.000    0.000    0.000    0.000    0.000    0.000 
#    0.000    0.000    0.000    0.000    0.000    0.000 
#
# Total GULP energy -89426.214742 kJ/mol
# GULP energy per Si atom -5589.138421 kJ/mol
# Density = 2.086986 g / cm^3
# Si number density = 20.917471 Si / 1000 Ang^3
#
#
#
# Elastic Constant Matrix: (Units=GPa)
#
#
# Indices 1 2 3 4 5 6 
#
# 1 80.9125 10.6312 32.6525 -0.8139 27.2643 -4.7717
# 2 10.6312 94.0089 4.7918 3.9486 6.6257 -19.0795
# 3 32.6525 4.7918 129.3472 20.0560 29.6322 -11.4223
# 4 -0.8139 3.9486 20.0560 31.2844 4.2661 -2.4118
# 5 27.2643 6.6257 29.6322 4.2661 47.1571 3.1702
# 6 -4.7717 -19.0795 -11.4223 -2.4118 3.1702 54.6705
#
#
#
# Elastic Compliance Matrix: (Units=1/GPa)
#
#
# Indices 1 2 3 4 5 6 
#
# 1 0.016392 -0.001071 -0.002702 0.003473 -0.008018 0.001110
# 2 -0.001071 0.011754 0.000827 -0.001485 -0.001701 0.004214
# 3 -0.002702 0.000827 0.010650 -0.006166 -0.004842 0.002287
# 4 0.003473 -0.001485 -0.006166 0.036376 -0.001227 0.000173
# 5 -0.008018 -0.001701 -0.004842 -0.001227 0.029507 -0.004070
# 6 0.001110 0.004214 0.002287 0.000173 -0.004070 0.020581
#
#
# Mechanical properties :
#
#
# Convention : Reuss Voigt Hill
#
# Bulk Modulus (GPa) = 30.39232 44.49107 37.44169
# Shear Modulus (GPa) = 35.18145 43.70192 39.44169
#
# Velocity S-wave (km/s) = 4.10557 4.57580 4.34704
# Velocity P-wave (km/s) = 6.08567 7.01664 6.56767
#
# Compressibility (1/GPa) = 0.03290305
#
# Stress axis : x y z
#
# Youngs Moduli (GPa) = 61.00421 85.07841 93.89882
#
# Poissons Ratio (x) = 0.09116 0.25372
# Poissons Ratio (y) = 0.06536 -0.07766
# Poissons Ratio (z) = 0.16484 -0.07036
#
# Static dielectric constant tensor:
#      x y z
#    x 1.749710 -0.025280 -0.061850 
#    y -0.025280 1.737480 -0.006220 
#    z -0.061850 -0.006220 1.712540 
# 
# From -- ./inp_files/381668.got.cif
#   From: 2010.05.17/outbox.cif.g08.bks.cpg/sg2_191_cif.got.tgz:381668.got - 2010.06.03 11:33:40.
