data_PCOD9061951
_publ_section_title
;
Structure prediction by ZEFSAII (Michael W. Deem and Ramdas Pophale) SiO2 
 PCOD9061951
Probable space group: P -1
;
_chemical_formula_sum "Si O2"
_cell_formula_units_Z 16
_cell_length_a 8.736193
_cell_length_b 11.724409
_cell_length_c 8.827549
_cell_angle_alpha 101.294361
_cell_angle_beta 64.238681
_cell_angle_gamma 119.050628
_cell_volume 711.732256
_symmetry_space_group_name_H-M "P -1"
_symmetry_group_IT_number 2
_symmetry_cell_setting 'triclinic'
loop_
_space_group_symop_operation_xyz
x,y,z
-x,-y,-z
loop_
_atom_site_type_symbol
_atom_site_label
_atom_site_fract_x
_atom_site_fract_y
_atom_site_fract_z
Si Si1 0.522456 0.867513 0.921617
Si Si2 0.129528 0.142926 0.046835
Si Si3 0.800685 0.616835 0.424070
Si Si4 0.128671 0.608318 0.098391
Si Si5 0.340763 0.269601 0.713249
Si Si6 0.222978 0.049525 0.460032
Si Si7 0.239940 0.601049 0.376597
Si Si8 0.054726 0.784431 0.583045
O O1 0.686079 0.859573 0.954624
O O2 0.617498 0.885289 0.719258
O O3 0.321414 0.733495 0.989828
O O4 0.500000 0.000000 0.000000
O O5 0.005978 0.182206 0.223570
O O6 0.200757 0.245113 0.906082
O O7 0.000000 0.000000 0.000000
O O8 0.646711 0.615677 0.373015
O O9 0.765502 0.495491 0.512670
O O10 0.985404 0.656566 0.248461
O O11 0.863317 0.732257 0.549178
O O12 0.181206 0.551380 0.215547
O O13 0.000000 0.500000 0.000000
O O14 0.264664 0.142275 0.609708
O O15 0.541582 0.296581 0.700869
O O16 0.220267 0.914021 0.475555
O O17 0.000000 0.000000 0.500000
O O18 0.120865 0.672511 0.511056
#
# Coordination Sequence:
#
# PCOD9061951 Si02
#       8
#     2   2   2   2   2   2   2   2
#     4  12  26  46  75 110 152 196 253 312 379 463
#     4  12  25  45  72 114 150 189 242 313 388 448
#     4  11  25  48  75  99 151 203 243 306 376 442
#     4  11  26  48  73 108 152 196 255 318 371 448
#     4  12  25  45  73 112 149 187 253 309 373 452
#     4  12  23  44  74 107 148 195 241 305 386 447
#     4  11  26  49  74 106 145 199 259 300 375 455
#     4  11  23  46  75 100 150 194 240 309 373 449
#
# _framework density 22.480363000000001
#
# number of rings (size 3 to 8) (size 9 to 14) (size 15 to 20)
#    0.000    0.500    5.000    3.375    3.500    3.500 
#    2.250    1.250    0.000    0.000    0.000    0.000 
#    0.000    0.000    0.000    0.000    0.000    0.000 
#
# Total GULP energy -89304.395826 kJ/mol
# GULP energy per Si atom -5581.524739 kJ/mol
# Density = 2.242920 g / cm^3
# Si number density = 22.480363 Si / 1000 Ang^3
#
#
#
# Elastic Constant Matrix: (Units=GPa)
#
#
# Indices 1 2 3 4 5 6 
#
# 1 109.7394 51.2101 44.6814 -4.0702 16.8265 14.1058
# 2 51.2101 112.5144 69.0453 -20.2907 5.6121 4.2792
# 3 44.6814 69.0453 172.2638 -10.7813 9.5922 14.7159
# 4 -4.0702 -20.2907 -10.7813 40.6835 3.2386 1.5464
# 5 16.8265 5.6121 9.5922 3.2386 33.6816 -7.2530
# 6 14.1058 4.2792 14.7159 1.5464 -7.2530 45.6878
#
#
#
# Elastic Compliance Matrix: (Units=1/GPa)
#
#
# Indices 1 2 3 4 5 6 
#
# 1 0.013415 -0.005369 -0.000638 -0.000818 -0.006502 -0.004438
# 2 -0.005369 0.014947 -0.004469 0.005565 0.001298 0.001715
# 3 -0.000638 -0.004469 0.008054 0.000064 -0.001722 -0.002254
# 4 -0.000818 0.005565 0.000064 0.027644 -0.003581 -0.001794
# 5 -0.006502 0.001298 -0.001722 -0.003581 0.035316 0.008168
# 6 -0.004438 0.001715 -0.002254 -0.001794 0.008168 0.025181
#
#
# Mechanical properties :
#
#
# Convention : Reuss Voigt Hill
#
# Bulk Modulus (GPa) = 64.66054 80.48792 72.57423
# Shear Modulus (GPa) = 33.18681 39.31597 36.25139
#
# Velocity S-wave (km/s) = 3.84638 4.18653 4.02005
# Velocity P-wave (km/s) = 6.96791 7.69745 7.34175
#
# Compressibility (1/GPa) = 0.01546538
#
# Stress axis : x y z
#
# Youngs Moduli (GPa) = 74.54593 66.90165 124.15890
#
# Poissons Ratio (x) = 0.35917 0.07917
# Poissons Ratio (y) = 0.40021 0.55487
# Poissons Ratio (z) = 0.04753 0.29899
#
# Static dielectric constant tensor:
#      x y z
#    x 1.924690 -0.046130 0.043240 
#    y -0.046130 1.922540 -0.050640 
#    z 0.043240 -0.050640 1.797280 
# 
# From -- ./inp_files/189053.got.cif
#   From: 2010.05.17/outbox.cif.g08.bks.cpg/sg2_95_cif.got.tgz:189053.got - 2010.06.03 11:33:40.
