data_PCOD9061932
_publ_section_title
;
Structure prediction by ZEFSAII (Michael W. Deem and Ramdas Pophale) SiO2 
 PCOD9061932
Probable space group: P -1
;
_chemical_formula_sum "Si O2"
_cell_formula_units_Z 16
_cell_length_a 8.807624
_cell_length_b 6.281964
_cell_length_c 16.275666
_cell_angle_alpha 117.378975
_cell_angle_beta 82.860921
_cell_angle_gamma 119.132159
_cell_volume 692.708272
_symmetry_space_group_name_H-M "P -1"
_symmetry_group_IT_number 2
_symmetry_cell_setting 'triclinic'
loop_
_space_group_symop_operation_xyz
x,y,z
-x,-y,-z
loop_
_atom_site_type_symbol
_atom_site_label
_atom_site_fract_x
_atom_site_fract_y
_atom_site_fract_z
Si Si1 0.284014 0.698726 0.194236
Si Si2 0.546351 0.572488 0.247862
Si Si3 0.052314 0.600723 0.420202
Si Si4 0.810700 0.923503 0.620681
Si Si5 0.444380 0.963326 0.902380
Si Si6 0.048836 0.853577 0.899675
Si Si7 0.910157 0.065651 0.267373
Si Si8 0.416283 0.669232 0.433512
O O1 0.375122 0.555772 0.214505
O O2 0.085387 0.472640 0.146024
O O3 0.280373 0.938596 0.292557
O O4 0.403870 0.808419 0.124449
O O5 0.567503 0.314249 0.179844
O O6 0.537271 0.622502 0.353717
O O7 0.713272 0.835092 0.248294
O O8 0.234450 0.605350 0.392358
O O9 0.000000 0.500000 0.500000
O O10 0.914507 0.357689 0.329647
O O11 0.102652 0.896646 0.434375
O O12 0.670002 0.606281 0.551440
O O13 0.970036 0.951293 0.671667
O O14 0.253010 0.937608 0.904508
O O15 0.500000 0.000000 0.000000
O O16 0.019270 0.946988 0.828621
O O17 0.000000 0.000000 0.000000
O O18 0.500000 0.000000 0.500000
#
# Coordination Sequence:
#
# PCOD9061932 Si02
#       8
#     2   2   2   2   2   2   2   2
#     4  12  24  48  75 102 152 198 254 311 378 452
#     4  12  24  46  72 106 148 192 250 320 372 455
#     4  11  24  46  70 105 146 192 254 314 386 464
#     4  11  23  46  74 103 147 204 247 316 390 455
#     4  12  29  46  74 113 148 202 258 308 389 455
#     4  12  27  47  74 112 155 202 253 318 378 460
#     4  11  25  43  72 105 147 193 255 306 387 454
#     4  11  24  43  70 109 145 193 251 312 382 457
#
# _framework density 23.097746000000001
#
# number of rings (size 3 to 8) (size 9 to 14) (size 15 to 20)
#    0.000    0.500    5.000    3.000    3.500    4.000 
#    0.000    0.000    0.000    0.000    0.000    0.000 
#    0.000    0.000    0.000    0.000    0.000    0.000 
#
# Total GULP energy -89345.700990 kJ/mol
# GULP energy per Si atom -5584.106312 kJ/mol
# Density = 2.304517 g / cm^3
# Si number density = 23.097746 Si / 1000 Ang^3
#
#
#
# Elastic Constant Matrix: (Units=GPa)
#
#
# Indices 1 2 3 4 5 6 
#
# 1 92.0264 21.6960 18.4382 -11.9004 -6.8564 11.8162
# 2 21.6960 182.1251 65.3312 -16.7596 -0.6971 24.5422
# 3 18.4382 65.3312 123.6166 -15.2008 -20.5747 4.6501
# 4 -11.9004 -16.7596 -15.2008 41.2175 1.6096 -5.3253
# 5 -6.8564 -0.6971 -20.5747 1.6096 43.4092 2.8486
# 6 11.8162 24.5422 4.6501 -5.3253 2.8486 37.7735
#
#
#
# Elastic Compliance Matrix: (Units=1/GPa)
#
#
# Indices 1 2 3 4 5 6 
#
# 1 0.011988 -0.000468 -0.000852 0.002493 0.001594 -0.003110
# 2 -0.000468 0.007588 -0.003924 0.001044 -0.001586 -0.004034
# 3 -0.000852 -0.003924 0.011359 0.002329 0.005010 0.001368
# 4 0.002493 0.001044 0.002329 0.026502 0.000403 0.001961
# 5 0.001594 -0.001586 0.005010 0.000403 0.025752 -0.001970
# 6 -0.003110 -0.004034 0.001368 0.001961 -0.001970 0.030324
#
#
# Mechanical properties :
#
#
# Convention : Reuss Voigt Hill
#
# Bulk Modulus (GPa) = 48.90769 67.63320 58.27045
# Shear Modulus (GPa) = 38.22150 43.96689 41.09419
#
# Velocity S-wave (km/s) = 4.07230 4.36766 4.22256
# Velocity P-wave (km/s) = 6.58268 7.40136 7.00399
#
# Compressibility (1/GPa) = 0.02044668
#
# Stress axis : x y z
#
# Youngs Moduli (GPa) = 83.41779 131.79287 88.03337
#
# Poissons Ratio (x) = 0.06166 0.07501
# Poissons Ratio (y) = 0.03903 0.34546
# Poissons Ratio (z) = 0.07107 0.51718
#
# Static dielectric constant tensor:
#      x y z
#    x 1.852820 -0.066610 -0.007870 
#    y -0.066610 2.014880 0.064170 
#    z -0.007870 0.064170 1.916220 
# 
# From -- ./inp_files/553844.got.cif
#   From: 2010.05.17/outbox.cif.g08.bks.cpg/sg2_277_cif.got.tgz:553844.got - 2010.06.03 11:33:40.
