data_PCOD9061074
_publ_section_title
;
Structure prediction by ZEFSAII (Michael W. Deem and Ramdas Pophale) SiO2 
 PCOD9061074
Probable space group: P -1
;
_chemical_formula_sum "Si O2"
_cell_formula_units_Z 16
_cell_length_a 11.863388
_cell_length_b 24.239720
_cell_length_c 24.080148
_cell_angle_alpha 11.590567
_cell_angle_beta 149.688223
_cell_angle_gamma 150.210738
_cell_volume 685.192451
_symmetry_space_group_name_H-M "P -1"
_symmetry_group_IT_number 2
_symmetry_cell_setting 'triclinic'
loop_
_space_group_symop_operation_xyz
x,y,z
-x,-y,-z
loop_
_atom_site_type_symbol
_atom_site_label
_atom_site_fract_x
_atom_site_fract_y
_atom_site_fract_z
Si Si1 0.112254 0.739410 0.475034
Si Si2 0.921115 0.448583 0.117591
Si Si3 0.185310 0.812132 0.099207
Si Si4 0.447427 0.356889 0.306570
Si Si5 0.350577 0.848533 0.844170
Si Si6 0.734284 0.828147 0.421250
Si Si7 0.641595 0.242304 0.895939
Si Si8 0.675093 0.302268 0.274232
O O1 0.331724 0.722445 0.548684
O O2 0.177889 0.676145 0.628426
O O3 0.021958 0.025976 0.153999
O O4 0.909773 0.484573 0.619915
O O5 0.839213 0.397116 0.197822
O O6 0.055221 0.193651 0.427626
O O7 0.700262 0.514672 0.928194
O O8 0.120514 0.663538 0.956176
O O9 0.394687 0.031162 0.999363
O O10 0.282047 0.727704 0.164691
O O11 0.323243 0.060597 0.573837
O O12 0.488557 0.615753 0.112921
O O13 0.445727 0.061776 0.724629
O O14 0.651784 0.531116 0.648173
O O15 0.804142 0.066165 0.169740
O O16 0.500000 0.000000 0.500000
O O17 0.500000 0.500000 0.000000
#
# Coordination Sequence:
#
# PCOD9061074 Si02
#       8
#     2   2   2   2   2   2   2   2
#     4  12  25  46  69 101 147 190 219 280 345 441
#     4  12  26  43  71 103 138 187 237 291 339 411
#     4  11  24  44  72 104 134 183 229 278 359 415
#     4  12  27  43  69  97 148 184 245 277 341 407
#     4  12  26  45  68 102 135 191 243 296 329 399
#     4  12  24  41  70 102 136 172 225 301 353 387
#     4  11  23  44  72 105 138 169 229 302 343 419
#     4  12  27  42  64 100 146 186 220 268 351 415
#
# _framework density 23.351105
#
# number of rings (size 3 to 8) (size 9 to 14) (size 15 to 20)
#    0.000    0.250    3.750    5.250    5.250    2.000 
#    0.000    0.000    0.000   15.000    0.000    0.000 
#    0.000    0.000    0.000    0.000    0.000    0.000 
#
# Total GULP energy -89245.901105 kJ/mol
# GULP energy per Si atom -5577.868819 kJ/mol
# Density = 2.329796 g / cm^3
# Si number density = 23.351105 Si / 1000 Ang^3
#
#
#
# Elastic Constant Matrix: (Units=GPa)
#
#
# Indices 1 2 3 4 5 6 
#
# 1 138.0913 35.3358 36.8343 -10.1513 3.3195 10.3662
# 2 35.3358 68.9694 17.3115 -11.4306 -0.0452 7.6404
# 3 36.8343 17.3115 145.4893 -11.2674 5.7713 -3.1534
# 4 -10.1513 -11.4306 -11.2674 35.1196 1.0918 0.9075
# 5 3.3195 -0.0452 5.7713 1.0918 38.2984 -4.5158
# 6 10.3662 7.6404 -3.1534 0.9075 -4.5158 21.9083
#
#
#
# Elastic Compliance Matrix: (Units=1/GPa)
#
#
# Indices 1 2 3 4 5 6 
#
# 1 0.009006 -0.003612 -0.001814 0.000966 -0.000952 -0.003499
# 2 -0.003612 0.017897 -0.000955 0.004609 -0.000232 -0.004909
# 3 -0.001814 -0.000955 0.007646 0.001589 -0.000798 0.002061
# 4 0.000966 0.004609 0.001589 0.030902 -0.001605 -0.003446
# 5 -0.000952 -0.000232 -0.000798 -0.001605 0.027074 0.006063
# 6 -0.003499 -0.004909 0.002061 -0.003446 0.006063 0.050701
#
#
# Mechanical properties :
#
#
# Convention : Reuss Voigt Hill
#
# Bulk Modulus (GPa) = 45.89922 59.05700 52.47811
# Shear Modulus (GPa) = 30.62782 36.60317 33.61549
#
# Velocity S-wave (km/s) = 3.62556 3.96348 3.79828
# Velocity P-wave (km/s) = 6.10123 6.80377 6.46206
#
# Compressibility (1/GPa) = 0.02178686
#
# Stress axis : x y z
#
# Youngs Moduli (GPa) = 111.03555 55.87548 130.79353
#
# Poissons Ratio (x) = 0.20182 0.23721
# Poissons Ratio (y) = 0.40105 0.12495
# Poissons Ratio (z) = 0.20138 0.05338
#
# Static dielectric constant tensor:
#      x y z
#    x 1.919110 -0.096570 0.028140 
#    y -0.096570 1.914450 -0.033790 
#    z 0.028140 -0.033790 1.881610 
# 
# From -- ./inp_files/618862.got.cif
#   From: 2010.05.17/outbox.cif.g08.bks.cpg/sg2_310_cif.got.tgz:618862.got - 2010.06.03 11:33:40.
