data_PCOD9061062
_publ_section_title
;
Structure prediction by ZEFSAII (Michael W. Deem and Ramdas Pophale) SiO2 
 PCOD9061062
Probable space group: P -1
;
_chemical_formula_sum "Si O2"
_cell_formula_units_Z 14
_cell_length_a 14.397285
_cell_length_b 8.305285
_cell_length_c 15.174312
_cell_angle_alpha 141.464201
_cell_angle_beta 151.719582
_cell_angle_gamma 38.311535
_cell_volume 506.580303
_symmetry_space_group_name_H-M "P -1"
_symmetry_group_IT_number 2
_symmetry_cell_setting 'triclinic'
loop_
_space_group_symop_operation_xyz
x,y,z
-x,-y,-z
loop_
_atom_site_type_symbol
_atom_site_label
_atom_site_fract_x
_atom_site_fract_y
_atom_site_fract_z
Si Si1 0.845182 0.509687 0.473877
Si Si2 0.957715 0.305358 0.736876
Si Si3 0.245890 0.087647 0.173609
Si Si4 0.747272 0.762871 0.188595
Si Si5 0.064383 0.880610 0.777928
Si Si6 0.509828 0.242793 0.310837
Si Si7 0.415462 0.611322 0.236382
O O1 0.853710 0.807382 0.581573
O O2 0.663111 0.534560 0.399867
O O3 0.073192 0.373885 0.648402
O O4 0.819761 0.344539 0.294981
O O5 0.929448 0.621916 0.833184
O O6 0.734509 0.269510 0.527140
O O7 0.120913 0.130521 0.727060
O O8 0.040600 0.175073 0.843452
O O9 0.409729 0.170857 0.284505
O O10 0.320435 0.920414 0.253852
O O11 0.167587 0.890546 0.961380
O O12 0.562116 0.988935 0.178658
O O13 0.652198 0.574159 0.970770
O O14 0.379424 0.510198 0.260208
#
# Coordination Sequence:
#
# PCOD9061062 Si02
#       7
#     2   2   2   2   2   2   2
#     4  11  23  44  75 107 140 190 241 306 358 419
#     4  12  25  47  72 103 150 196 238 295 366 433
#     4  12  28  46  71 110 151 193 236 297 367 437
#     4  12  24  48  74 107 142 188 248 301 356 424
#     4  11  23  44  72 103 145 190 245 297 357 433
#     4  12  25  47  74 107 146 189 246 303 355 427
#     4  12  26  45  73 111 146 185 243 301 360 432
#
# _framework density 27.636289999999999
#
# number of rings (size 3 to 8) (size 9 to 14) (size 15 to 20)
#    0.000    0.286    4.286    5.143    2.000    2.286 
#    2.571    0.000    0.000    0.000    0.000    0.000 
#    0.000    0.000    0.000    0.000    0.000    0.000 
#
# Total GULP energy -78529.786598 kJ/mol
# GULP energy per Si atom -5609.270471 kJ/mol
# Density = 2.757339 g / cm^3
# Si number density = 27.636290 Si / 1000 Ang^3
#
#
#
# Elastic Constant Matrix: (Units=GPa)
#
#
# Indices 1 2 3 4 5 6 
#
# 1 109.0975 45.0541 13.2117 3.1839 16.2788 1.8254
# 2 45.0541 132.5289 22.8408 -6.9525 -2.3938 30.0420
# 3 13.2117 22.8408 106.6227 11.3121 -3.6153 4.5979
# 4 3.1839 -6.9525 11.3121 42.8481 7.5767 -9.3599
# 5 16.2788 -2.3938 -3.6153 7.5767 41.0284 -0.6929
# 6 1.8254 30.0420 4.5979 -9.3599 -0.6929 46.6278
#
#
#
# Elastic Compliance Matrix: (Units=1/GPa)
#
#
# Indices 1 2 3 4 5 6 
#
# 1 0.011837 -0.004540 -0.000771 0.000008 -0.004989 0.002465
# 2 -0.004540 0.010900 -0.001497 0.000711 0.002064 -0.006524
# 3 -0.000771 -0.001497 0.010236 -0.003337 0.001725 -0.000659
# 4 0.000008 0.000711 -0.003337 0.026334 -0.005033 0.005082
# 5 -0.004989 0.002064 0.001725 -0.005033 0.027523 -0.001906
# 6 0.002465 -0.006524 -0.000659 0.005082 -0.001906 0.026610
#
#
# Mechanical properties :
#
#
# Convention : Reuss Voigt Hill
#
# Bulk Modulus (GPa) = 51.65436 56.71805 54.18621
# Shear Modulus (GPa) = 37.45099 43.91037 40.68068
#
# Velocity S-wave (km/s) = 3.68521 3.99038 3.84083
# Velocity P-wave (km/s) = 6.06952 6.46517 6.27047
#
# Compressibility (1/GPa) = 0.01935945
#
# Stress axis : x y z
#
# Youngs Moduli (GPa) = 84.47925 91.74032 97.69513
#
# Poissons Ratio (x) = 0.41648 0.07528
# Poissons Ratio (y) = 0.38352 0.14622
# Poissons Ratio (z) = 0.06510 0.13730
#
# Static dielectric constant tensor:
#      x y z
#    x 2.111590 0.055050 0.012920 
#    y 0.055050 2.227580 0.026190 
#    z 0.012920 0.026190 2.116680 
# 
# From -- ./inp_files/261324.got.cif
#   From: 2010.05.17/outbox.cif.g08.bks.cpg/sg2_131_cif.got.tgz:261324.got - 2010.06.03 11:33:40.
