data_PCOD9061100
_publ_section_title
;
Structure prediction by ZEFSAII (Michael W. Deem and Ramdas Pophale) SiO2 
 PCOD9061100
Probable space group: P -1
;
_chemical_formula_sum "Si O2"
_cell_formula_units_Z 10
_cell_length_a 10.277670
_cell_length_b 6.209258
_cell_length_c 22.636584
_cell_angle_alpha 42.073423
_cell_angle_beta 26.284716
_cell_angle_gamma 39.403369
_cell_volume 399.732200
_symmetry_space_group_name_H-M "P -1"
_symmetry_group_IT_number 2
_symmetry_cell_setting 'triclinic'
loop_
_space_group_symop_operation_xyz
x,y,z
-x,-y,-z
loop_
_atom_site_type_symbol
_atom_site_label
_atom_site_fract_x
_atom_site_fract_y
_atom_site_fract_z
Si Si1 0.253821 0.943147 0.066429
Si Si2 0.612881 0.872492 0.819256
Si Si3 0.654010 0.983843 0.648280
Si Si4 0.373552 0.971998 0.654013
Si Si5 0.035050 0.254839 0.613969
O O1 0.297610 0.539239 0.135883
O O2 0.342208 0.006110 0.951345
O O3 0.896579 0.159811 0.186075
O O4 0.500000 0.000000 0.000000
O O5 0.529474 0.033581 0.755070
O O6 0.910929 0.960239 0.703212
O O7 0.445618 0.176421 0.638698
O O8 0.725155 0.587199 0.682641
O O9 0.000000 0.000000 0.500000
O O10 0.706226 0.721559 0.542793
O O11 0.211703 0.188781 0.618157
#
# Coordination Sequence:
#
# PCOD9061100 Si02
#       5
#     2   2   2   2   2
#     4  11  23  46  69  99 138 180 226 270 334 407
#     4  11  23  44  72  92 143 178 214 290 327 387
#     4  12  25  43  69 106 137 167 228 290 328 395
#     4  11  24  42  74  96 135 185 217 278 341 393
#     4  11  24  46  66 103 137 173 232 275 330 404
#
# _framework density 25.016746999999999
#
# number of rings (size 3 to 8) (size 9 to 14) (size 15 to 20)
#    0.000    0.800    6.000    0.600    0.000    5.600 
#    0.000    4.000    0.000    0.000    0.000    0.000 
#    0.000    0.000    0.000    0.000    0.000    0.000 
#
# Total GULP energy -55945.800832 kJ/mol
# GULP energy per Si atom -5594.580083 kJ/mol
# Density = 2.495981 g / cm^3
# Si number density = 25.016747 Si / 1000 Ang^3
#
#
#
# Elastic Constant Matrix: (Units=GPa)
#
#
# Indices 1 2 3 4 5 6 
#
# 1 231.1935 13.7482 87.5062 0.7699 26.9734 17.3754
# 2 13.7482 77.1901 38.2957 -5.9402 -6.6368 17.2850
# 3 87.5062 38.2957 195.6373 30.9202 22.1989 25.2286
# 4 0.7699 -5.9402 30.9202 47.5723 18.9087 -5.8783
# 5 26.9734 -6.6368 22.1989 18.9087 72.4506 4.9047
# 6 17.3754 17.2850 25.2286 -5.8783 4.9047 23.7725
#
#
#
# Elastic Compliance Matrix: (Units=1/GPa)
#
#
# Indices 1 2 3 4 5 6 
#
# 1 0.005552 0.000508 -0.002665 0.002326 -0.001766 -0.000659
# 2 0.000508 0.016761 -0.002820 0.001776 0.002398 -0.009621
# 3 -0.002665 -0.002820 0.008875 -0.007118 0.000363 -0.007255
# 4 0.002326 0.001776 -0.007118 0.030452 -0.007392 0.013618
# 5 -0.001766 0.002398 0.000363 -0.007392 0.016914 -0.006156
# 6 -0.000659 -0.009621 -0.007255 0.013618 -0.006156 0.061880
#
#
# Mechanical properties :
#
#
# Convention : Reuss Voigt Hill
#
# Bulk Modulus (GPa) = 47.09525 87.01345 67.05435
# Shear Modulus (GPa) = 31.75284 53.05715 42.40499
#
# Velocity S-wave (km/s) = 3.56654 4.61028 4.12158
# Velocity P-wave (km/s) = 5.98553 7.94967 7.03647
#
# Compressibility (1/GPa) = 0.02123357
#
# Stress axis : x y z
#
# Youngs Moduli (GPa) = 180.12493 59.66229 112.67661
#
# Poissons Ratio (x) = -0.03032 0.30027
# Poissons Ratio (y) = -0.09152 0.31778
# Poissons Ratio (z) = 0.48001 0.16827
#
# Static dielectric constant tensor:
#      x y z
#    x 1.991770 -0.008970 0.014100 
#    y -0.008970 2.030010 -0.007900 
#    z 0.014100 -0.007900 1.953090 
# 
# From -- ./inp_files/18721.got.cif
#   From: 2010.05.17/outbox.cif.g08.bks.cpg/sg2_10_cif.got.tgz:18721.got - 2010.06.03 11:33:40.
