data_PCOD9061511
_publ_section_title
;
Structure prediction by ZEFSAII (Michael W. Deem and Ramdas Pophale) SiO2 
 PCOD9061511
Probable space group: P -1
;
_chemical_formula_sum "Si O2"
_cell_formula_units_Z 16
_cell_length_a 22.051461
_cell_length_b 9.222112
_cell_length_c 12.621995
_cell_angle_alpha 132.363109
_cell_angle_beta 142.255967
_cell_angle_gamma 30.694632
_cell_volume 801.904651
_symmetry_space_group_name_H-M "P -1"
_symmetry_group_IT_number 2
_symmetry_cell_setting 'triclinic'
loop_
_space_group_symop_operation_xyz
x,y,z
-x,-y,-z
loop_
_atom_site_type_symbol
_atom_site_label
_atom_site_fract_x
_atom_site_fract_y
_atom_site_fract_z
Si Si1 0.401620 0.628637 0.821367
Si Si2 0.341062 0.781956 0.383667
Si Si3 0.146907 0.686295 0.515331
Si Si4 0.583890 0.091232 0.661695
Si Si5 0.184277 0.274175 0.771424
Si Si6 0.875078 0.515048 0.835744
Si Si7 0.147202 0.687310 0.079811
Si Si8 0.150087 0.357354 0.524356
O O1 0.269705 0.670551 0.674625
O O2 0.493334 0.392713 0.739757
O O3 0.318891 0.943865 0.825021
O O4 0.500000 0.500000 0.000000
O O5 0.500000 0.500000 0.500000
O O6 0.362153 0.899405 0.371448
O O7 0.266285 0.679045 0.214721
O O8 0.235471 0.042091 0.448939
O O9 0.127279 0.600044 0.334839
O O10 0.193942 0.465727 0.560297
O O11 0.000000 0.000000 0.500000
O O12 0.500000 0.000000 0.500000
O O13 0.726649 0.844544 0.803545
O O14 0.193702 0.334990 0.693915
O O15 0.023222 0.409572 0.614389
O O16 0.176259 0.457839 0.935152
O O17 0.873446 0.361053 0.852821
O O18 0.000000 0.500000 0.000000
O O19 0.000000 0.000000 0.000000
#
# Coordination Sequence:
#
# PCOD9061511 Si02
#       8
#     2   2   2   2   2   2   2   2
#     4  12  27  46  70 104 147 190 235 297 361 426
#     4  12  25  43  71 103 136 184 234 289 355 420
#     4  12  26  44  74 105 139 186 240 292 361 428
#     4  12  24  47  70 101 141 187 237 290 353 425
#     4  11  25  45  70 103 145 184 232 293 359 427
#     4  12  26  45  74 103 143 185 243 298 349 427
#     4  12  26  44  70 105 140 185 239 290 352 420
#     4  11  23  45  72 103 140 183 233 292 357 427
#
# _framework density 19.952496
#
# number of rings (size 3 to 8) (size 9 to 14) (size 15 to 20)
#    0.000    0.250    5.000    3.750    5.250    2.000 
#    0.000    1.875    0.000    0.000    0.000    0.000 
#    0.000    0.000    0.000    0.000    0.000    0.000 
#
# Total GULP energy -89373.243446 kJ/mol
# GULP energy per Si atom -5585.827715 kJ/mol
# Density = 1.990708 g / cm^3
# Si number density = 19.952496 Si / 1000 Ang^3
#
#
#
# Elastic Constant Matrix: (Units=GPa)
#
#
# Indices 1 2 3 4 5 6 
#
# 1 129.1305 28.6394 51.0058 -2.5523 -8.6599 14.5278
# 2 28.6394 160.3097 36.6904 -14.4533 -10.2002 -2.1977
# 3 51.0058 36.6904 104.4003 -8.8528 10.7123 -1.5049
# 4 -2.5523 -14.4533 -8.8528 43.6411 -8.5442 -3.5753
# 5 -8.6599 -10.2002 10.7123 -8.5442 38.5327 -0.2092
# 6 14.5278 -2.1977 -1.5049 -3.5753 -0.2092 42.0493
#
#
#
# Elastic Compliance Matrix: (Units=1/GPa)
#
#
# Indices 1 2 3 4 5 6 
#
# 1 0.010725 -0.000488 -0.005530 -0.000246 0.003743 -0.003931
# 2 -0.000488 0.007315 -0.002420 0.002562 0.003071 0.000697
# 3 -0.005530 -0.002420 0.013798 0.000780 -0.005534 0.002317
# 4 -0.000246 0.002562 0.000780 0.025285 0.006026 0.002426
# 5 0.003743 0.003071 -0.005534 0.006026 0.030477 -0.000667
# 6 -0.003931 0.000697 0.002317 0.002426 -0.000667 0.025462
#
#
# Mechanical properties :
#
#
# Convention : Reuss Voigt Hill
#
# Bulk Modulus (GPa) = 66.83688 69.61241 68.22465
# Shear Modulus (GPa) = 37.05744 43.34494 40.20119
#
# Velocity S-wave (km/s) = 4.31430 4.66596 4.49357
# Velocity P-wave (km/s) = 7.64122 7.99957 7.82245
#
# Compressibility (1/GPa) = 0.01496180
#
# Stress axis : x y z
#
# Youngs Moduli (GPa) = 93.24006 136.70581 72.47441
#
# Poissons Ratio (x) = 0.06676 0.40076
# Poissons Ratio (y) = 0.04553 0.17539
# Poissons Ratio (z) = 0.51559 0.33084
#
# Static dielectric constant tensor:
#      x y z
#    x 1.741240 0.034600 -0.048760 
#    y 0.034600 1.684190 -0.002150 
#    z -0.048760 -0.002150 1.669000 
# 
# From -- ./inp_files/188546.got.cif
#   From: 2010.05.17/outbox.cif.g08.bks.cpg/sg2_95_cif.got.tgz:188546.got - 2010.06.03 11:33:40.
