data_PCOD9061769
_publ_section_title
;
Structure prediction by ZEFSAII (Michael W. Deem and Ramdas Pophale) SiO2 
 PCOD9061769
Probable space group: P -1
;
_chemical_formula_sum "Si O2"
_cell_formula_units_Z 14
_cell_length_a 9.426772
_cell_length_b 9.222730
_cell_length_c 8.401711
_cell_angle_alpha 113.550720
_cell_angle_beta 78.857738
_cell_angle_gamma 83.122382
_cell_volume 641.039741
_symmetry_space_group_name_H-M "P -1"
_symmetry_group_IT_number 2
_symmetry_cell_setting 'triclinic'
loop_
_space_group_symop_operation_xyz
x,y,z
-x,-y,-z
loop_
_atom_site_type_symbol
_atom_site_label
_atom_site_fract_x
_atom_site_fract_y
_atom_site_fract_z
Si Si1 0.654569 0.536449 0.436703
Si Si2 0.154663 0.056379 0.464613
Si Si3 0.421768 0.903418 0.106169
Si Si4 0.330266 0.206826 0.728515
Si Si5 0.880323 0.662258 0.611592
Si Si6 0.893285 0.834216 0.016932
Si Si7 0.783948 0.204265 0.111255
O O1 0.500000 0.500000 0.500000
O O2 0.641020 0.662253 0.347324
O O3 0.720431 0.620677 0.606059
O O4 0.760454 0.362659 0.295473
O O5 0.270082 0.063451 0.586636
O O6 0.096198 0.241027 0.508472
O O7 0.266901 0.988131 0.264793
O O8 0.000000 0.000000 0.500000
O O9 0.535178 0.850462 0.203131
O O10 0.361966 0.772929 0.955673
O O11 0.500000 0.000000 0.000000
O O12 0.191515 0.269682 0.901376
O O13 0.894632 0.764471 0.808815
O O14 0.000000 0.500000 0.500000
O O15 0.062196 0.813353 0.024491
O O16 0.812750 0.026103 0.111215
#
# Coordination Sequence:
#
# PCOD9061769 Si02
#       7
#     2   2   2   2   2   2   2
#     4  11  28  46  66 102 148 183 230 288 363 412
#     4  11  25  44  69 104 140 182 237 290 351 421
#     4  12  24  43  72 103 139 184 238 294 350 420
#     4  11  26  43  70 103 141 184 231 295 352 419
#     4  11  23  46  69  99 136 186 224 294 350 418
#     4  11  23  46  74 102 135 182 246 285 353 416
#     4  11  24  42  74 101 137 183 233 290 349 421
#
# _framework density 21.839518000000002
#
# number of rings (size 3 to 8) (size 9 to 14) (size 15 to 20)
#    0.000    0.857    4.286    1.286    8.000    3.429 
#    2.571    0.000    0.000    0.000    0.000    0.000 
#    0.000    0.000    0.000    0.000    0.000    0.000 
#
# Total GULP energy -78036.284369 kJ/mol
# GULP energy per Si atom -5574.020312 kJ/mol
# Density = 2.178981 g / cm^3
# Si number density = 21.839518 Si / 1000 Ang^3
#
#
#
# Elastic Constant Matrix: (Units=GPa)
#
#
# Indices 1 2 3 4 5 6 
#
# 1 170.9175 66.9744 42.1147 -16.1630 8.6093 37.1123
# 2 66.9744 92.1163 36.8712 -8.0776 -8.4073 16.1334
# 3 42.1147 36.8712 70.8183 -5.8110 10.5394 -6.0001
# 4 -16.1630 -8.0776 -5.8110 32.8704 5.9942 -3.5255
# 5 8.6093 -8.4073 10.5394 5.9942 45.3328 0.3767
# 6 37.1123 16.1334 -6.0001 -3.5255 0.3767 23.1718
#
#
#
# Elastic Compliance Matrix: (Units=1/GPa)
#
#
# Indices 1 2 3 4 5 6 
#
# 1 0.014357 -0.002973 -0.008474 0.002666 -0.001472 -0.022689
# 2 -0.002973 0.020069 -0.010859 -0.001055 0.007053 -0.012299
# 3 -0.008474 -0.010859 0.028646 0.002748 -0.007669 0.029094
# 4 0.002666 -0.001055 0.002748 0.033260 -0.005758 0.002331
# 5 -0.001472 0.007053 -0.007669 -0.005758 0.026240 -0.005842
# 6 -0.022689 -0.012299 0.029094 0.002331 -0.005842 0.096040
#
#
# Mechanical properties :
#
#
# Convention : Reuss Voigt Hill
#
# Bulk Modulus (GPa) = 54.17537 69.53031 61.85284
# Shear Modulus (GPa) = 18.56136 32.80111 25.68124
#
# Velocity S-wave (km/s) = 2.91846 3.87966 3.43287
# Velocity P-wave (km/s) = 6.01802 7.20937 6.64047
#
# Compressibility (1/GPa) = 0.01845857
#
# Stress axis : x y z
#
# Youngs Moduli (GPa) = 69.65472 49.82776 34.90913
#
# Poissons Ratio (x) = 0.14814 0.29583
# Poissons Ratio (y) = 0.20708 0.37908
# Poissons Ratio (z) = 0.59028 0.54109
#
# Static dielectric constant tensor:
#      x y z
#    x 1.887230 -0.004660 0.030690 
#    y -0.004660 1.793190 0.019620 
#    z 0.030690 0.019620 1.905120 
# 
# From -- ./inp_files/160080.got.cif
#   From: 2010.05.17/outbox.cif.g08.bks.cpg/sg2_81_cif.got.tgz:160080.got - 2010.06.03 11:33:40.
