data_PCOD9061747
_publ_section_title
;
Structure prediction by ZEFSAII (Michael W. Deem and Ramdas Pophale) SiO2 
 PCOD9061747
Probable space group: P -1
;
_chemical_formula_sum "Si O2"
_cell_formula_units_Z 15
_cell_length_a 8.377311
_cell_length_b 21.964953
_cell_length_c 16.036719
_cell_angle_alpha 157.403048
_cell_angle_beta 139.120247
_cell_angle_gamma 32.174270
_cell_volume 599.118668
_symmetry_space_group_name_H-M "P -1"
_symmetry_group_IT_number 2
_symmetry_cell_setting 'triclinic'
loop_
_space_group_symop_operation_xyz
x,y,z
-x,-y,-z
loop_
_atom_site_type_symbol
_atom_site_label
_atom_site_fract_x
_atom_site_fract_y
_atom_site_fract_z
Si Si1 0.283908 0.932979 0.466446
Si Si2 0.282069 0.517337 0.755834
Si Si3 0.922586 0.343087 0.389735
Si Si4 0.715128 0.519665 0.714552
Si Si5 0.078769 0.758952 0.426216
Si Si6 0.509349 0.038587 0.837270
Si Si7 0.500000 0.500000 0.000000
Si Si8 0.785959 0.959512 0.111207
O O1 0.498030 0.949548 0.633460
O O2 0.406296 0.718590 0.213794
O O3 0.000000 0.000000 0.500000
O O4 0.179517 0.084020 0.539855
O O5 0.627301 0.384739 0.695958
O O6 0.307147 0.505228 0.850430
O O7 0.113963 0.422847 0.539923
O O8 0.077689 0.742892 0.933016
O O9 0.826993 0.411235 0.533662
O O10 0.606934 0.440804 0.342443
O O11 0.151482 0.107909 0.179028
O O12 0.948161 0.385524 0.709778
O O13 0.625550 0.736635 0.944715
O O14 0.148814 0.880021 0.668596
O O15 0.300306 0.033321 0.816742
O O16 0.500000 0.000000 0.000000
#
# Coordination Sequence:
#
# PCOD9061747 Si02
#       8
#     2   2   2   2   2   2   1   2
#     4  12  22  43  71 102 134 173 231 286 335 400
#     4  12  23  41  75  98 132 182 226 282 337 397
#     4  11  23  46  68  94 134 192 222 273 343 410
#     4  11  28  43  65  99 143 176 229 277 344 408
#     4  12  26  44  67 106 137 173 229 290 330 403
#     4  12  24  46  70  98 136 188 223 278 346 409
#     4  12  20  40  72 104 122 172 232 286 328 400
#     4  12  25  39  69 104 135 172 231 281 327 404
#
# _framework density 25.036776
#
# number of rings (size 3 to 8) (size 9 to 14) (size 15 to 20)
#    0.000    0.267    8.000    1.200    3.733    2.667 
#    0.000    0.667    0.000    0.000    0.000    0.000 
#    0.000    0.000    0.000    0.000    0.000    0.000 
#
# Total GULP energy -83817.276733 kJ/mol
# GULP energy per Si atom -5587.818449 kJ/mol
# Density = 2.497979 g / cm^3
# Si number density = 25.036776 Si / 1000 Ang^3
#
#
#
# Elastic Constant Matrix: (Units=GPa)
#
#
# Indices 1 2 3 4 5 6 
#
# 1 47.2540 18.6408 25.5911 16.1022 -0.9206 5.0929
# 2 18.6408 114.6565 24.3540 21.4179 -4.2323 28.3436
# 3 25.5911 24.3540 106.0379 45.5718 1.3822 6.6812
# 4 16.1022 21.4179 45.5718 54.9568 6.9361 4.6461
# 5 -0.9206 -4.2323 1.3822 6.9361 22.2203 7.4855
# 6 5.0929 28.3436 6.6812 4.6461 7.4855 40.7066
#
#
#
# Elastic Compliance Matrix: (Units=1/GPa)
#
#
# Indices 1 2 3 4 5 6 
#
# 1 0.025632 -0.002349 -0.004190 -0.003324 0.002220 -0.000913
# 2 -0.002349 0.012372 0.000026 -0.004226 0.006629 -0.009062
# 3 -0.004190 0.000026 0.015647 -0.012035 0.003035 -0.001246
# 4 -0.003324 -0.004226 -0.012035 0.031919 -0.011435 0.003793
# 5 0.002220 0.006629 0.003035 -0.011435 0.054492 -0.014107
# 6 -0.000913 -0.009062 -0.001246 0.003793 -0.014107 0.033356
#
#
# Mechanical properties :
#
#
# Convention : Reuss Voigt Hill
#
# Bulk Modulus (GPa) = 24.61476 45.01335 34.81405
# Shear Modulus (GPa) = 25.00189 36.86758 30.93474
#
# Velocity S-wave (km/s) = 3.16350 3.84153 3.51888
# Velocity P-wave (km/s) = 4.81627 6.13957 5.51774
#
# Compressibility (1/GPa) = 0.04062603
#
# Stress axis : x y z
#
# Youngs Moduli (GPa) = 39.01388 80.82610 63.90966
#
# Poissons Ratio (x) = 0.18985 0.26775
# Poissons Ratio (y) = 0.09164 -0.00165
# Poissons Ratio (z) = 0.16345 -0.00209
#
# Static dielectric constant tensor:
#      x y z
#    x 2.004240 -0.011790 -0.007280 
#    y -0.011790 1.970640 0.000080 
#    z -0.007280 0.000080 1.922020 
# 
# From -- ./inp_files/563330.got.cif
#   From: 2010.05.17/outbox.cif.g08.bks.cpg/sg2_282_cif.got.tgz:563330.got - 2010.06.03 11:33:40.
