data_PCOD9061574
_publ_section_title
;
Structure prediction by ZEFSAII (Michael W. Deem and Ramdas Pophale) SiO2 
 PCOD9061574
Probable space group: P -1
;
_chemical_formula_sum "Si O2"
_cell_formula_units_Z 16
_cell_length_a 15.625691
_cell_length_b 9.043938
_cell_length_c 9.531687
_cell_angle_alpha 49.997989
_cell_angle_beta 92.754029
_cell_angle_gamma 57.574876
_cell_volume 691.904858
_symmetry_space_group_name_H-M "P -1"
_symmetry_group_IT_number 2
_symmetry_cell_setting 'triclinic'
loop_
_space_group_symop_operation_xyz
x,y,z
-x,-y,-z
loop_
_atom_site_type_symbol
_atom_site_label
_atom_site_fract_x
_atom_site_fract_y
_atom_site_fract_z
Si Si1 0.448924 0.579917 0.103463
Si Si2 0.337573 0.463525 0.351054
Si Si3 0.102384 0.014983 0.139034
Si Si4 0.788420 0.746836 0.974502
Si Si5 0.175642 0.142131 0.637568
Si Si6 0.187050 0.389397 0.255762
Si Si7 0.069528 0.669405 0.495344
Si Si8 0.495014 0.803325 0.196732
O O1 0.305506 0.894738 0.879768
O O2 0.500000 0.500000 0.000000
O O3 0.430447 0.404727 0.281235
O O4 0.520711 0.596681 0.208938
O O5 0.296662 0.322323 0.385281
O O6 0.405237 0.362054 0.568164
O O7 0.202136 0.799475 0.154849
O O8 0.149959 0.145302 0.112934
O O9 0.106559 0.823452 0.359712
O O10 0.954349 0.290197 0.920695
O O11 0.790308 0.641413 0.888818
O O12 0.645128 0.001123 0.868307
O O13 0.871052 0.495314 0.251097
O O14 0.192226 0.169919 0.459125
O O15 0.117803 0.428984 0.533473
O O16 0.081609 0.117413 0.648573
O O17 0.500000 0.000000 0.000000
#
# Coordination Sequence:
#
# PCOD9061574 Si02
#       8
#     2   2   2   2   2   2   2   2
#     4  12  28  48  74 111 147 190 257 309 361 445
#     4  12  26  48  74 105 144 199 249 299 371 444
#     4  12  24  47  78 107 147 198 247 299 381 438
#     4  12  27  49  72 111 152 190 249 308 372 436
#     4  11  23  45  73 109 148 189 244 305 372 435
#     4  12  27  45  75 110 150 191 242 317 362 440
#     4  11  23  45  78 106 148 196 240 302 374 450
#     4  12  27  51  75 100 148 205 245 301 376 439
#
# _framework density 23.124568
#
# number of rings (size 3 to 8) (size 9 to 14) (size 15 to 20)
#    0.000    0.250    5.000    3.375    5.250    1.000 
#    2.250    0.000    0.000    0.000    0.000    0.000 
#    0.000    0.000    0.000    0.000    0.000    0.000 
#
# Total GULP energy -89586.139521 kJ/mol
# GULP energy per Si atom -5599.133720 kJ/mol
# Density = 2.307194 g / cm^3
# Si number density = 23.124568 Si / 1000 Ang^3
#
#
#
# Elastic Constant Matrix: (Units=GPa)
#
#
# Indices 1 2 3 4 5 6 
#
# 1 181.4404 43.4219 61.9902 15.9604 -6.9936 -3.2775
# 2 43.4219 60.6949 53.8208 27.7671 10.5562 -23.2639
# 3 61.9902 53.8208 106.7885 38.0685 -2.6984 6.2482
# 4 15.9604 27.7671 38.0685 36.9185 2.8032 -12.0805
# 5 -6.9936 10.5562 -2.6984 2.8032 41.4725 12.0358
# 6 -3.2775 -23.2639 6.2482 -12.0805 12.0358 8.2352
#
#
#
# Elastic Compliance Matrix: (Units=1/GPa)
#
#
# Indices 1 2 3 4 5 6 
#
# 1 0.007383 -0.003006 -0.004117 0.003647 0.001125 0.001277
# 2 -0.003006 0.008909 0.008332 -0.025175 0.008795 -0.032134
# 3 -0.004117 0.008332 0.007526 -0.004223 -0.008578 0.022530
# 4 0.003647 -0.025175 -0.004223 0.044101 0.007434 -0.012634
# 5 0.001125 0.008795 -0.008578 0.007434 0.014950 0.020856
# 6 0.001277 -0.032134 0.022530 -0.012634 0.020856 -0.034947
#
#
# Mechanical properties :
#
#
# Convention : Reuss Voigt Hill
#
# Bulk Modulus (GPa) = 38.11658 74.15439 56.13549
# Shear Modulus (GPa) = 92.16702 29.97132 61.06917
#
# Velocity S-wave (km/s) = 6.32007 3.60402 5.14452
# Velocity P-wave (km/s) = 8.35324 7.03247 7.72115
#
# Compressibility (1/GPa) = 0.02623530
#
# Stress axis : x y z
#
# Youngs Moduli (GPa) = 135.44454 112.24550 132.87684
#
# Poissons Ratio (x) = 0.33736 0.54710
# Poissons Ratio (y) = 0.40709 -1.10707
# Poissons Ratio (z) = 0.55767 -0.93518
#
# Static dielectric constant tensor:
#      x y z
#    x 1.870050 -0.026080 -0.017830 
#    y -0.026080 1.901180 -0.016890 
#    z -0.017830 -0.016890 1.854790 
# 
# From -- ./inp_files/297677.got.cif
#   From: 2010.05.17/outbox.cif.g08.bks.cpg/sg2_149_cif.got.tgz:297677.got - 2010.06.03 11:33:40.
