data_PCOD9061579
_publ_section_title
;
Structure prediction by ZEFSAII (Michael W. Deem and Ramdas Pophale) SiO2 
 PCOD9061579
Probable space group: P -1
;
_chemical_formula_sum "Si O2"
_cell_formula_units_Z 16
_cell_length_a 22.601352
_cell_length_b 5.412041
_cell_length_c 5.845896
_cell_angle_alpha 102.778994
_cell_angle_beta 107.169594
_cell_angle_gamma 69.364633
_cell_volume 633.855140
_symmetry_space_group_name_H-M "P -1"
_symmetry_group_IT_number 2
_symmetry_cell_setting 'triclinic'
loop_
_space_group_symop_operation_xyz
x,y,z
-x,-y,-z
loop_
_atom_site_type_symbol
_atom_site_label
_atom_site_fract_x
_atom_site_fract_y
_atom_site_fract_z
Si Si1 0.736800 0.769758 0.520475
Si Si2 0.038215 0.217317 0.099358
Si Si3 0.533476 0.490185 0.286397
Si Si4 0.644353 0.050147 0.121109
Si Si5 0.870637 0.681847 0.426885
Si Si6 0.376550 0.276373 0.353102
Si Si7 0.148817 0.843748 0.849394
Si Si8 0.708570 0.293199 0.901286
O O1 0.812539 0.668859 0.532099
O O2 0.697777 0.636484 0.619514
O O3 0.693696 0.796919 0.248028
O O4 0.721760 0.055393 0.682652
O O5 0.063961 0.287922 0.384176
O O6 0.000000 0.500000 0.000000
O O7 0.105395 0.060896 0.016922
O O8 0.000000 0.000000 0.000000
O O9 0.500000 0.500000 0.500000
O O10 0.592515 0.215436 0.274310
O O11 0.570187 0.714446 0.401896
O O12 0.500000 0.500000 0.000000
O O13 0.693290 0.197770 0.113820
O O14 0.609822 0.980514 0.842227
O O15 0.885251 0.387390 0.273850
O O16 0.844240 0.955901 0.305966
O O17 0.362804 0.508472 0.199376
O O18 0.220043 0.677158 0.986100
#
# Coordination Sequence:
#
# PCOD9061579 Si02
#       8
#     2   2   2   2   2   2   2   2
#     4  11  24  43  75 111 142 190 250 321 409 464
#     4  12  28  50  74 104 155 208 260 316 384 475
#     4  12  29  50  73 107 155 209 264 317 393 495
#     4  11  25  47  73 108 145 191 255 315 401 464
#     4  12  27  46  76 114 150 199 255 329 392 474
#     4  11  27  44  77 104 149 200 248 334 389 478
#     4  12  27  45  75 112 152 198 261 324 394 474
#     4  11  23  45  73 110 149 188 251 322 401 463
#
# _framework density 25.242357999999999
#
# number of rings (size 3 to 8) (size 9 to 14) (size 15 to 20)
#    0.000    0.500    3.750    3.000   10.500    5.000 
#    0.000    0.000    0.000    0.000    0.000    0.000 
#    0.000    0.000    0.000    0.000    0.000    0.000 
#
# Total GULP energy -89261.115088 kJ/mol
# GULP energy per Si atom -5578.819693 kJ/mol
# Density = 2.518491 g / cm^3
# Si number density = 25.242358 Si / 1000 Ang^3
#
#
#
# Elastic Constant Matrix: (Units=GPa)
#
#
# Indices 1 2 3 4 5 6 
#
# 1 99.3596 18.5039 59.6840 8.8479 13.9723 -10.4995
# 2 18.5039 81.0075 31.1727 18.8624 17.0497 3.0589
# 3 59.6840 31.1727 135.0793 16.1028 32.4054 1.9448
# 4 8.8479 18.8624 16.1028 41.2070 0.3838 4.8320
# 5 13.9723 17.0497 32.4054 0.3838 48.2445 13.5547
# 6 -10.4995 3.0589 1.9448 4.8320 13.5547 37.4818
#
#
#
# Elastic Compliance Matrix: (Units=1/GPa)
#
#
# Indices 1 2 3 4 5 6 
#
# 1 0.014560 -0.000699 -0.005865 -0.001100 -0.001457 0.005109
# 2 -0.000699 0.015475 -0.001408 -0.006470 -0.004579 0.001104
# 3 -0.005865 -0.001408 0.012090 -0.002809 -0.006009 0.000380
# 4 -0.001100 -0.006470 -0.002809 0.029153 0.005803 -0.005491
# 5 -0.001457 -0.004579 -0.006009 0.005803 0.029932 -0.011295
# 6 0.005109 0.001104 0.000380 -0.005491 -0.011295 0.032793
#
#
# Mechanical properties :
#
#
# Convention : Reuss Voigt Hill
#
# Bulk Modulus (GPa) = 38.19601 59.35197 48.77399
# Shear Modulus (GPa) = 31.51082 39.12571 35.31826
#
# Velocity S-wave (km/s) = 3.53701 3.94128 3.74460
# Velocity P-wave (km/s) = 5.64315 6.65398 6.16930
#
# Compressibility (1/GPa) = 0.02618075
#
# Stress axis : x y z
#
# Youngs Moduli (GPa) = 68.67973 64.62125 82.70958
#
# Poissons Ratio (x) = 0.04518 0.48509
# Poissons Ratio (y) = 0.04802 0.11648
# Poissons Ratio (z) = 0.40280 0.09101
#
# Static dielectric constant tensor:
#      x y z
#    x 2.007860 0.051140 -0.013720 
#    y 0.051140 2.021750 -0.015860 
#    z -0.013720 -0.015860 2.059670 
# 
# From -- ./inp_files/10621.got.cif
#   From: 2010.05.17/outbox.cif.g08.bks.cpg/sg2_6_cif.got.tgz:10621.got - 2010.06.03 11:33:40.
