data_PCOD9061889
_publ_section_title
;
Structure prediction by ZEFSAII (Michael W. Deem and Ramdas Pophale) SiO2 
 PCOD9061889
Probable space group: P -1
;
_chemical_formula_sum "Si O2"
_cell_formula_units_Z 12
_cell_length_a 14.888136
_cell_length_b 8.118457
_cell_length_c 14.622870
_cell_angle_alpha 139.715406
_cell_angle_beta 151.247429
_cell_angle_gamma 48.995808
_cell_volume 549.264425
_symmetry_space_group_name_H-M "P -1"
_symmetry_group_IT_number 2
_symmetry_cell_setting 'triclinic'
loop_
_space_group_symop_operation_xyz
x,y,z
-x,-y,-z
loop_
_atom_site_type_symbol
_atom_site_label
_atom_site_fract_x
_atom_site_fract_y
_atom_site_fract_z
Si Si1 0.119239 0.437548 0.713148
Si Si2 0.482446 0.273658 0.547022
Si Si3 0.061848 0.293025 0.179228
Si Si4 0.365165 0.222041 0.004810
Si Si5 0.105009 0.899446 0.776620
Si Si6 0.135199 0.711966 0.169459
O O1 0.201366 0.680992 0.830948
O O2 0.956433 0.553897 0.679605
O O3 0.025407 0.242387 0.475285
O O4 0.251444 0.302281 0.846153
O O5 0.272780 0.301331 0.335365
O O6 0.522832 0.523115 0.751339
O O7 0.644245 0.274099 0.614905
O O8 0.500000 0.000000 0.500000
O O9 0.896423 0.372775 0.999677
O O10 0.000000 0.000000 0.000000
O O11 0.500000 0.000000 0.000000
O O12 0.241460 0.093562 0.923622
O O13 0.964479 0.038561 0.778857
O O14 0.000000 0.500000 0.000000
#
# Coordination Sequence:
#
# PCOD9061889 Si02
#       6
#     2   2   2   2   2   2
#     4  11  23  46  73 102 148 197 237 302 372 436
#     4  12  24  43  75 106 138 198 243 289 370 441
#     4  12  22  44  73  99 141 190 234 295 361 426
#     4  12  26  46  70 107 149 190 250 303 368 440
#     4  11  24  44  73 106 146 194 239 305 370 431
#     4  12  24  45  69 106 147 182 242 304 355 435
#
# _framework density 21.8474
#
# number of rings (size 3 to 8) (size 9 to 14) (size 15 to 20)
#    0.000    0.333    6.667    1.500    0.000    4.000 
#    3.000    0.000    0.000    0.000    0.000    0.000 
#    0.000    0.000    0.000    0.000    0.000    0.000 
#
# Total GULP energy -66864.632070 kJ/mol
# GULP energy per Si atom -5572.052672 kJ/mol
# Density = 2.179767 g / cm^3
# Si number density = 21.847400 Si / 1000 Ang^3
#
#
#
# Elastic Constant Matrix: (Units=GPa)
#
#
# Indices 1 2 3 4 5 6 
#
# 1 95.0384 48.1832 43.4175 -1.9012 4.4567 -10.5846
# 2 48.1832 128.8095 44.1498 6.4535 11.2211 -6.0131
# 3 43.4175 44.1498 98.3549 6.5999 14.2916 -13.3574
# 4 -1.9012 6.4535 6.5999 42.0802 -7.3056 -0.6753
# 5 4.4567 11.2211 14.2916 -7.3056 42.7498 3.1961
# 6 -10.5846 -6.0131 -13.3574 -0.6753 3.1961 40.8942
#
#
#
# Elastic Compliance Matrix: (Units=1/GPa)
#
#
# Indices 1 2 3 4 5 6 
#
# 1 0.015011 -0.004091 -0.004941 0.002357 0.001444 0.001596
# 2 -0.004091 0.010382 -0.002525 -0.001684 -0.001724 -0.000250
# 3 -0.004941 -0.002525 0.014808 -0.002888 -0.004527 0.003493
# 4 0.002357 -0.001684 -0.002888 0.025540 0.005571 -0.000595
# 5 0.001444 -0.001724 -0.004527 0.005571 0.026408 -0.003330
# 6 0.001596 -0.000250 0.003493 -0.000595 -0.003330 0.026221
#
#
# Mechanical properties :
#
#
# Convention : Reuss Voigt Hill
#
# Bulk Modulus (GPa) = 58.52571 65.96708 62.24640
# Shear Modulus (GPa) = 33.97240 37.57501 35.77370
#
# Velocity S-wave (km/s) = 3.94761 4.15165 4.05091
# Velocity P-wave (km/s) = 6.90107 7.29668 7.10163
#
# Compressibility (1/GPa) = 0.01708651
#
# Stress axis : x y z
#
# Youngs Moduli (GPa) = 66.62003 96.32157 67.53151
#
# Poissons Ratio (x) = 0.39402 0.33369
# Poissons Ratio (y) = 0.27252 0.17051
# Poissons Ratio (z) = 0.32919 0.24321
#
# Static dielectric constant tensor:
#      x y z
#    x 1.853800 0.048640 0.001240 
#    y 0.048640 1.942930 -0.146040 
#    z 0.001240 -0.146040 2.295800 
# 
# From -- ./inp_files/296017.got.cif
#   From: 2010.05.17/outbox.cif.g08.bks.cpg/sg2_149_cif.got.tgz:296017.got - 2010.06.03 11:33:40.
