data_PCOD9061744
_publ_section_title
;
Structure prediction by ZEFSAII (Michael W. Deem and Ramdas Pophale) SiO2 
 PCOD9061744
Probable space group: P -1
;
_chemical_formula_sum "Si O2"
_cell_formula_units_Z 16
_cell_length_a 8.068116
_cell_length_b 12.469474
_cell_length_c 10.856589
_cell_angle_alpha 126.444324
_cell_angle_beta 57.769073
_cell_angle_gamma 101.345145
_cell_volume 731.566838
_symmetry_space_group_name_H-M "P -1"
_symmetry_group_IT_number 2
_symmetry_cell_setting 'triclinic'
loop_
_space_group_symop_operation_xyz
x,y,z
-x,-y,-z
loop_
_atom_site_type_symbol
_atom_site_label
_atom_site_fract_x
_atom_site_fract_y
_atom_site_fract_z
Si Si1 0.345434 0.153919 0.435627
Si Si2 0.661320 0.886536 0.076356
Si Si3 0.921225 0.846520 0.693201
Si Si4 0.648067 0.600659 0.973767
Si Si5 0.883532 0.898006 0.259500
Si Si6 0.014128 0.615921 0.980629
Si Si7 0.573405 0.545176 0.373201
Si Si8 0.829655 0.435395 0.588089
O O1 0.199316 0.193825 0.404197
O O2 0.254700 0.105804 0.567063
O O3 0.421074 0.294789 0.528875
O O4 0.499837 0.023929 0.235855
O O5 0.786301 0.901962 0.162888
O O6 0.792666 0.873045 0.888998
O O7 0.579798 0.742805 0.025462
O O8 0.103039 0.723698 0.560732
O O9 0.007802 0.974625 0.699380
O O10 0.825025 0.498184 0.767439
O O11 0.778239 0.649849 0.063168
O O12 0.500000 0.500000 0.000000
O O13 0.046857 0.761493 0.111972
O O14 0.210341 0.548668 0.784866
O O15 0.000000 0.500000 0.000000
O O16 0.500000 0.500000 0.500000
O O17 0.399197 0.518667 0.331100
O O18 0.000000 0.500000 0.500000
#
# Coordination Sequence:
#
# PCOD9061744 Si02
#       8
#     2   2   2   2   2   2   2   2
#     4  12  26  47  69 108 143 183 240 291 355 427
#     4  11  26  46  71 102 146 183 242 288 354 429
#     4  12  26  46  72 103 144 188 233 301 351 423
#     4  11  25  42  72 104 141 191 232 296 353 420
#     4  11  26  45  74 100 145 190 232 294 354 421
#     4  11  23  46  68 104 143 180 244 286 355 424
#     4  12  27  43  74 102 140 191 232 300 354 425
#     4  12  25  47  70 102 142 182 242 290 361 424
#
# _framework density 21.870867000000001
#
# number of rings (size 3 to 8) (size 9 to 14) (size 15 to 20)
#    0.000    0.500    2.500    5.250    7.000    2.000 
#    0.000    0.000    0.000    0.000    0.000    0.000 
#    0.000    0.000    0.000    0.000    0.000    0.000 
#
# Total GULP energy -89105.008555 kJ/mol
# GULP energy per Si atom -5569.063035 kJ/mol
# Density = 2.182109 g / cm^3
# Si number density = 21.870867 Si / 1000 Ang^3
#
#
#
# Elastic Constant Matrix: (Units=GPa)
#
#
# Indices 1 2 3 4 5 6 
#
# 1 60.0785 -14.2869 -17.9820 -2.3394 2.9265 3.7331
# 2 -14.2869 127.7854 33.6344 8.6087 -9.3144 15.6281
# 3 -17.9820 33.6344 104.8101 3.3376 -7.7039 1.0085
# 4 -2.3394 8.6087 3.3376 54.0777 -11.5554 5.7141
# 5 2.9265 -9.3144 -7.7039 -11.5554 29.9880 -0.8001
# 6 3.7331 15.6281 1.0085 5.7141 -0.8001 34.2836
#
#
#
# Elastic Compliance Matrix: (Units=1/GPa)
#
#
# Indices 1 2 3 4 5 6 
#
# 1 0.018017 0.001625 0.002546 0.000571 -0.000457 -0.002883
# 2 0.001625 0.009356 -0.002535 -0.000424 0.001819 -0.004254
# 3 0.002546 -0.002535 0.010916 0.000175 0.001851 0.000571
# 4 0.000571 -0.000424 0.000175 0.020546 0.007692 -0.003119
# 5 -0.000457 0.001819 0.001851 0.007692 0.037363 -0.001244
# 6 -0.002883 -0.004254 0.000571 -0.003119 -0.001244 0.031896
#
#
# Mechanical properties :
#
#
# Convention : Reuss Voigt Hill
#
# Bulk Modulus (GPa) = 24.06146 32.82277 28.44211
# Shear Modulus (GPa) = 36.05506 43.09044 39.57275
#
# Velocity S-wave (km/s) = 4.06463 4.44353 4.25830
# Velocity P-wave (km/s) = 5.74924 6.43170 6.10002
#
# Compressibility (1/GPa) = 0.04156024
#
# Stress axis : x y z
#
# Youngs Moduli (GPa) = 55.50339 106.88141 91.60496
#
# Poissons Ratio (x) = -0.17371 -0.23319
# Poissons Ratio (y) = -0.09021 0.23226
# Poissons Ratio (z) = -0.14129 0.27099
#
# Static dielectric constant tensor:
#      x y z
#    x 2.331840 0.075390 0.140920 
#    y 0.075390 1.914060 0.095480 
#    z 0.140920 0.095480 1.785750 
# 
# From -- ./inp_files/392963.got.cif
#   From: 2010.05.17/outbox.cif.g08.bks.cpg/sg2_197_cif.got.tgz:392963.got - 2010.06.03 11:33:40.
