data_PCOD9061228
_publ_section_title
;
Structure prediction by ZEFSAII (Michael W. Deem and Ramdas Pophale) SiO2 
 PCOD9061228
Probable space group: P -1
;
_chemical_formula_sum "Si O2"
_cell_formula_units_Z 14
_cell_length_a 11.498952
_cell_length_b 18.764617
_cell_length_c 9.600364
_cell_angle_alpha 151.122520
_cell_angle_beta 54.018536
_cell_angle_gamma 137.810858
_cell_volume 659.754332
_symmetry_space_group_name_H-M "P -1"
_symmetry_group_IT_number 2
_symmetry_cell_setting 'triclinic'
loop_
_space_group_symop_operation_xyz
x,y,z
-x,-y,-z
loop_
_atom_site_type_symbol
_atom_site_label
_atom_site_fract_x
_atom_site_fract_y
_atom_site_fract_z
Si Si1 0.325908 0.058882 0.170712
Si Si2 0.088704 0.443648 0.729954
Si Si3 0.863102 0.356111 0.462898
Si Si4 0.563046 0.177320 0.945649
Si Si5 0.657277 0.908701 0.312410
Si Si6 0.473208 0.654186 0.243972
Si Si7 0.045021 0.097992 0.284437
O O1 0.395278 0.168052 0.451361
O O2 0.187753 0.089577 0.252323
O O3 0.489542 0.143862 0.094746
O O4 0.236537 0.845505 0.874326
O O5 0.106868 0.299003 0.546861
O O6 0.963168 0.362343 0.543300
O O7 0.274738 0.618623 0.848490
O O8 0.000000 0.500000 0.000000
O O9 0.720761 0.396078 0.675162
O O10 0.000000 0.500000 0.500000
O O11 0.403939 0.119015 0.851916
O O12 0.622477 0.048006 0.642280
O O13 0.532732 0.719968 0.156971
O O14 0.862462 0.994472 0.321058
O O15 0.500000 0.500000 0.000000
O O16 0.000000 0.000000 0.000000
#
# Coordination Sequence:
#
# PCOD9061228 Si02
#       7
#     2   2   2   2   2   2   2
#     4  12  27  49  73 101 145 188 233 291 355 420
#     4  12  25  42  74 105 137 179 238 290 342 413
#     4  12  27  48  71 101 145 188 235 283 353 423
#     4  11  23  44  76 101 135 189 233 289 347 418
#     4  11  24  45  71 101 144 182 235 285 353 415
#     4  12  30  47  71 106 144 187 236 289 354 423
#     4  12  25  46  71 108 138 179 237 295 348 407
#
# _framework density 21.220020000000002
#
# number of rings (size 3 to 8) (size 9 to 14) (size 15 to 20)
#    0.000    0.286    5.714    2.143    8.000    2.286 
#    0.000    0.000    0.000    0.000    0.000    0.000 
#    0.000    0.000    0.000    0.000    0.000    0.000 
#
# Total GULP energy -78431.427844 kJ/mol
# GULP energy per Si atom -5602.244846 kJ/mol
# Density = 2.117172 g / cm^3
# Si number density = 21.220020 Si / 1000 Ang^3
#
#
#
# Elastic Constant Matrix: (Units=GPa)
#
#
# Indices 1 2 3 4 5 6 
#
# 1 108.6640 25.4989 14.4501 -3.4013 -17.1708 10.5243
# 2 25.4989 141.5339 25.8728 19.8521 -22.4339 5.5946
# 3 14.4501 25.8728 75.9794 18.9948 -13.1610 -4.5514
# 4 -3.4013 19.8521 18.9948 31.1576 -12.7854 3.2350
# 5 -17.1708 -22.4339 -13.1610 -12.7854 42.6661 -0.6694
# 6 10.5243 5.5946 -4.5514 3.2350 -0.6694 36.7350
#
#
#
# Elastic Compliance Matrix: (Units=1/GPa)
#
#
# Indices 1 2 3 4 5 6 
#
# 1 0.011183 -0.001509 -0.002535 0.006034 0.004675 -0.003734
# 2 -0.001509 0.008497 -0.001302 -0.003765 0.002320 -0.000649
# 3 -0.002535 -0.001302 0.016902 -0.009910 0.000600 0.003903
# 4 0.006034 -0.003765 -0.009910 0.046446 0.011211 -0.006269
# 5 0.004675 0.002320 0.000600 0.011211 0.030051 -0.002058
# 6 -0.003734 -0.000649 0.003903 -0.006269 -0.002058 0.029389
#
#
# Mechanical properties :
#
#
# Convention : Reuss Voigt Hill
#
# Bulk Modulus (GPa) = 38.62598 50.86897 44.74747
# Shear Modulus (GPa) = 30.90397 39.46877 35.18637
#
# Velocity S-wave (km/s) = 3.82037 4.31742 4.07648
# Velocity P-wave (km/s) = 6.14023 6.99126 6.57952
#
# Compressibility (1/GPa) = 0.02588931
#
# Stress axis : x y z
#
# Youngs Moduli (GPa) = 89.41996 117.68998 59.16321
#
# Poissons Ratio (x) = 0.17760 0.15001
# Poissons Ratio (y) = 0.13494 0.07703
# Poissons Ratio (z) = 0.22672 0.15324
#
# Static dielectric constant tensor:
#      x y z
#    x 1.755280 0.004120 0.002530 
#    y 0.004120 1.720990 0.003830 
#    z 0.002530 0.003830 1.752740 
# 
# From -- ./inp_files/156616.got.cif
#   From: 2010.05.17/outbox.cif.g08.bks.cpg/sg2_79_cif.got.tgz:156616.got - 2010.06.03 11:33:40.
