data_PCOD9061222
_publ_section_title
;
Structure prediction by ZEFSAII (Michael W. Deem and Ramdas Pophale) SiO2 
 PCOD9061222
Probable space group: P -1
;
_chemical_formula_sum "Si O2"
_cell_formula_units_Z 14
_cell_length_a 8.238408
_cell_length_b 10.676173
_cell_length_c 9.508176
_cell_angle_alpha 84.339586
_cell_angle_beta 134.746868
_cell_angle_gamma 97.947868
_cell_volume 588.245703
_symmetry_space_group_name_H-M "P -1"
_symmetry_group_IT_number 2
_symmetry_cell_setting 'triclinic'
loop_
_space_group_symop_operation_xyz
x,y,z
-x,-y,-z
loop_
_atom_site_type_symbol
_atom_site_label
_atom_site_fract_x
_atom_site_fract_y
_atom_site_fract_z
Si Si1 0.472324 0.623103 0.880026
Si Si2 0.145200 0.790770 0.969220
Si Si3 0.894384 0.979224 0.286533
Si Si4 0.384777 0.599701 0.516229
Si Si5 0.293388 0.883594 0.354479
Si Si6 0.373452 0.250000 0.790421
Si Si7 0.047464 0.372750 0.356136
O O1 0.507594 0.605882 0.741041
O O2 0.210039 0.653174 0.738458
O O3 0.500000 0.500000 0.000000
O O4 0.648405 0.717758 0.062031
O O5 0.177566 0.864055 0.129807
O O6 0.369288 0.713996 0.107280
O O7 0.949211 0.689281 0.791894
O O8 0.143889 0.899172 0.839371
O O9 0.661763 0.899554 0.201369
O O10 0.083216 0.907457 0.325668
O O11 0.000000 0.000000 0.500000
O O12 0.500000 0.500000 0.500000
O O13 0.379053 0.744754 0.449739
O O14 0.131554 0.522101 0.388988
O O15 0.500000 0.000000 0.500000
O O16 0.207207 0.307651 0.572531
#
# Coordination Sequence:
#
# PCOD9061222 Si02
#       7
#     2   2   2   2   2   2   2
#     4  11  25  43  76 108 145 191 242 309 372 431
#     4  11  26  47  76 106 149 196 238 302 373 436
#     4  12  25  45  77 107 145 195 246 304 367 433
#     4  12  28  47  75 109 150 197 246 304 366 438
#     4  12  30  49  71 108 155 198 245 301 369 441
#     4  11  23  44  75 111 144 183 251 306 363 436
#     4  11  24  47  76 108 149 186 249 308 364 436
#
# _framework density 23.799579999999999
#
# number of rings (size 3 to 8) (size 9 to 14) (size 15 to 20)
#    0.000    0.571    2.857    3.857   10.000    1.714 
#    0.000    0.000    0.000    0.000    0.000    0.000 
#    0.000    0.000    0.000    0.000    0.000    0.000 
#
# Total GULP energy -78070.857617 kJ/mol
# GULP energy per Si atom -5576.489830 kJ/mol
# Density = 2.374541 g / cm^3
# Si number density = 23.799580 Si / 1000 Ang^3
#
#
#
# Elastic Constant Matrix: (Units=GPa)
#
#
# Indices 1 2 3 4 5 6 
#
# 1 94.8625 13.2130 61.2202 2.4830 -14.5403 -25.6208
# 2 13.2130 135.3123 63.5930 0.6139 -9.0453 2.7111
# 3 61.2202 63.5930 205.9927 9.5582 -38.2492 -17.5063
# 4 2.4830 0.6139 9.5582 56.2764 -13.0186 1.8886
# 5 -14.5403 -9.0453 -38.2492 -13.0186 53.3316 5.0746
# 6 -25.6208 2.7111 -17.5063 1.8886 5.0746 37.1849
#
#
#
# Elastic Compliance Matrix: (Units=1/GPa)
#
#
# Indices 1 2 3 4 5 6 
#
# 1 0.015414 0.000123 -0.003743 -0.000188 0.000659 0.008769
# 2 0.000123 0.008803 -0.003002 0.000394 -0.000345 -0.001943
# 3 -0.003743 -0.003002 0.007683 -0.000241 0.003851 0.000744
# 4 -0.000188 0.000394 -0.000241 0.018952 0.004647 -0.001868
# 5 0.000659 -0.000345 0.003851 0.004647 0.022869 -0.001065
# 6 0.008769 -0.001943 0.000744 -0.001868 -0.001065 0.033667
#
#
# Mechanical properties :
#
#
# Convention : Reuss Voigt Hill
#
# Bulk Modulus (GPa) = 53.59801 79.13556 66.36679
# Shear Modulus (GPa) = 39.41659 49.23466 44.32563
#
# Velocity S-wave (km/s) = 4.07404 4.55325 4.32030
# Velocity P-wave (km/s) = 6.68580 7.80806 7.26862
#
# Compressibility (1/GPa) = 0.01865741
#
# Stress axis : x y z
#
# Youngs Moduli (GPa) = 64.87565 113.59655 130.15737
#
# Poissons Ratio (x) = -0.01397 0.48714
# Poissons Ratio (y) = -0.00798 0.39069
# Poissons Ratio (z) = 0.24281 0.34098
#
# Static dielectric constant tensor:
#      x y z
#    x 1.975580 -0.043430 -0.015300 
#    y -0.043430 1.888670 0.004310 
#    z -0.015300 0.004310 1.824150 
# 
# From -- ./inp_files/46618.got.cif
#   From: 2010.05.17/outbox.cif.g08.bks.cpg/sg2_24_cif.got.tgz:46618.got - 2010.06.03 11:33:40.
