data_PCOD9061124
_publ_section_title
;
Structure prediction by ZEFSAII (Michael W. Deem and Ramdas Pophale) SiO2 
 PCOD9061124
Probable space group: P -1
;
_chemical_formula_sum "Si O2"
_cell_formula_units_Z 14
_cell_length_a 6.004406
_cell_length_b 9.028235
_cell_length_c 20.277716
_cell_angle_alpha 42.375378
_cell_angle_beta 95.835723
_cell_angle_gamma 71.664610
_cell_volume 599.765168
_symmetry_space_group_name_H-M "P -1"
_symmetry_group_IT_number 2
_symmetry_cell_setting 'triclinic'
loop_
_space_group_symop_operation_xyz
x,y,z
-x,-y,-z
loop_
_atom_site_type_symbol
_atom_site_label
_atom_site_fract_x
_atom_site_fract_y
_atom_site_fract_z
Si Si1 0.198946 0.561093 0.948491
Si Si2 0.556826 0.206714 0.963378
Si Si3 0.061931 0.285938 0.786797
Si Si4 0.305919 0.521794 0.647813
Si Si5 0.551731 0.650363 0.729103
Si Si6 0.821981 0.176945 0.694794
Si Si7 0.068246 0.222443 0.562263
O O1 0.298617 0.386458 0.943473
O O2 0.500000 0.500000 0.000000
O O3 0.995020 0.871664 0.822862
O O4 0.000000 0.500000 0.000000
O O5 0.579821 0.415813 0.852709
O O6 0.500000 0.000000 0.000000
O O7 0.832919 0.997481 0.082880
O O8 0.855092 0.527120 0.750749
O O9 0.930117 0.304874 0.705741
O O10 0.300220 0.314923 0.763557
O O11 0.398291 0.661132 0.653632
O O12 0.508914 0.346233 0.651687
O O13 0.027754 0.728308 0.532516
O O14 0.376965 0.942143 0.663381
O O15 0.886018 0.175706 0.620835
O O16 0.000000 0.500000 0.500000
#
# Coordination Sequence:
#
# PCOD9061124 Si02
#       7
#     2   2   2   2   2   2   2
#     4  12  27  46  77 110 154 199 249 308 384 452
#     4  12  24  45  70 110 145 189 241 304 380 456
#     4  11  23  44  73 101 143 186 235 299 375 448
#     4  11  24  47  70  98 141 187 241 299 365 437
#     4  11  26  45  70 102 141 186 239 296 375 444
#     4  11  24  46  70 104 142 190 246 306 365 443
#     4  12  25  48  71 102 140 188 249 305 367 434
#
# _framework density 23.342469999999999
#
# number of rings (size 3 to 8) (size 9 to 14) (size 15 to 20)
#    0.000    0.571    5.714    2.143    2.000    1.714 
#    7.714    0.000    0.000    0.000    0.000    0.000 
#    0.000    0.000    0.000    0.000    0.000    0.000 
#
# Total GULP energy -78062.065216 kJ/mol
# GULP energy per Si atom -5575.861801 kJ/mol
# Density = 2.328934 g / cm^3
# Si number density = 23.342470 Si / 1000 Ang^3
#
#
#
# Elastic Constant Matrix: (Units=GPa)
#
#
# Indices 1 2 3 4 5 6 
#
# 1 40.2463 5.0857 15.7665 -1.9022 -10.3513 -5.8708
# 2 5.0857 107.5589 17.9245 -20.3422 -7.0194 -17.9898
# 3 15.7665 17.9245 121.0779 -3.0538 -3.1998 -4.5580
# 4 -1.9022 -20.3422 -3.0538 48.5050 -5.5640 7.6155
# 5 -10.3513 -7.0194 -3.1998 -5.5640 29.0713 4.8155
# 6 -5.8708 -17.9898 -4.5580 7.6155 4.8155 38.4180
#
#
#
# Elastic Compliance Matrix: (Units=1/GPa)
#
#
# Indices 1 2 3 4 5 6 
#
# 1 0.029214 0.000681 -0.003487 0.001944 0.010105 0.002718
# 2 0.000681 0.011173 -0.001407 0.004346 0.002965 0.003936
# 3 -0.003487 -0.001407 0.008898 -0.000239 -0.000646 -0.000007
# 4 0.001944 0.004346 -0.000239 0.023794 0.006811 -0.003266
# 5 0.010105 0.002965 -0.000646 0.006811 0.040537 -0.003575
# 6 0.002718 0.003936 -0.000007 -0.003266 -0.003575 0.029383
#
#
# Mechanical properties :
#
#
# Convention : Reuss Voigt Hill
#
# Bulk Modulus (GPa) = 24.47285 38.49295 31.48290
# Shear Modulus (GPa) = 30.29503 38.53928 34.41716
#
# Velocity S-wave (km/s) = 3.60648 4.06770 3.84401
# Velocity P-wave (km/s) = 5.27724 6.21192 5.76356
#
# Compressibility (1/GPa) = 0.04086161
#
# Stress axis : x y z
#
# Youngs Moduli (GPa) = 34.23003 89.49940 112.38456
#
# Poissons Ratio (x) = -0.06099 0.39185
# Poissons Ratio (y) = -0.02333 0.15809
# Poissons Ratio (z) = 0.11935 0.12590
#
# Static dielectric constant tensor:
#      x y z
#    x 2.049150 0.086170 0.052790 
#    y 0.086170 1.893600 0.039650 
#    z 0.052790 0.039650 1.931070 
# 
# From -- ./inp_files/27539.got.cif
#   From: 2010.05.17/outbox.cif.g08.bks.cpg/sg2_14_cif.got.tgz:27539.got - 2010.06.03 11:33:40.
