data_PCOD9061867
_publ_section_title
;
Structure prediction by ZEFSAII (Michael W. Deem and Ramdas Pophale) SiO2 
 PCOD9061867
Probable space group: P -1
;
_chemical_formula_sum "Si O2"
_cell_formula_units_Z 14
_cell_length_a 12.663316
_cell_length_b 11.901602
_cell_length_c 5.171882
_cell_angle_alpha 107.876540
_cell_angle_beta 57.059089
_cell_angle_gamma 91.234776
_cell_volume 612.177718
_symmetry_space_group_name_H-M "P -1"
_symmetry_group_IT_number 2
_symmetry_cell_setting 'triclinic'
loop_
_space_group_symop_operation_xyz
x,y,z
-x,-y,-z
loop_
_atom_site_type_symbol
_atom_site_label
_atom_site_fract_x
_atom_site_fract_y
_atom_site_fract_z
Si Si1 0.086307 0.301876 0.921370
Si Si2 0.219416 0.160887 0.026482
Si Si3 0.427036 0.965265 0.822442
Si Si4 0.327225 0.738668 0.953833
Si Si5 0.037406 0.856113 0.363316
Si Si6 0.364135 0.585200 0.291118
Si Si7 0.174325 0.405185 0.371048
O O1 0.979594 0.226129 0.923934
O O2 0.108978 0.387668 0.717020
O O3 0.204352 0.190678 0.761612
O O4 0.085240 0.387513 0.232049
O O5 0.071427 0.175555 0.322911
O O6 0.274512 0.276624 0.133158
O O7 0.288927 0.042784 0.987924
O O8 0.500000 0.000000 0.500000
O O9 0.412802 0.829489 0.791656
O O10 0.500000 0.000000 0.000000
O O11 0.343254 0.632176 0.645770
O O12 0.360608 0.690701 0.162054
O O13 0.182428 0.811576 0.218356
O O14 0.000000 0.000000 0.500000
O O15 0.248627 0.513855 0.332463
O O16 0.500000 0.500000 0.000000
#
# Coordination Sequence:
#
# PCOD9061867 Si02
#       7
#     2   2   2   2   2   2   2
#     4   9  21  39  70 102 131 190 232 276 357 434
#     4   9  23  43  72 103 141 194 227 287 372 419
#     4  12  28  45  70 108 148 184 240 301 349 445
#     4  12  29  47  74 115 139 189 248 292 368 431
#     4  11  23  46  72 108 154 183 232 300 370 433
#     4  12  28  50  73 101 147 196 244 307 346 416
#     4   9  21  43  70  97 132 189 241 279 349 423
#
# _framework density 22.869178999999999
#
# number of rings (size 3 to 8) (size 9 to 14) (size 15 to 20)
#    0.857    0.571    1.429    2.143   10.000    1.714 
#    0.000   10.000    0.000    0.000    0.000    0.000 
#    0.000    0.000    0.000    0.000    0.000    0.000 
#
# Total GULP energy -77986.996643 kJ/mol
# GULP energy per Si atom -5570.499760 kJ/mol
# Density = 2.281713 g / cm^3
# Si number density = 22.869179 Si / 1000 Ang^3
#
#
#
# Elastic Constant Matrix: (Units=GPa)
#
#
# Indices 1 2 3 4 5 6 
#
# 1 86.7134 19.6403 33.8117 -7.4793 7.0249 -5.6325
# 2 19.6403 86.5078 14.6059 -15.8038 -0.5703 10.4182
# 3 33.8117 14.6059 83.6791 -13.1358 6.2374 -9.2023
# 4 -7.4793 -15.8038 -13.1358 33.9900 -13.2655 0.3112
# 5 7.0249 -0.5703 6.2374 -13.2655 35.8542 -0.6624
# 6 -5.6325 10.4182 -9.2023 0.3112 -0.6624 48.2776
#
#
#
# Elastic Compliance Matrix: (Units=1/GPa)
#
#
# Indices 1 2 3 4 5 6 
#
# 1 0.014349 -0.002739 -0.005171 -0.001029 -0.002313 0.001254
# 2 -0.002739 0.014049 -0.000897 0.006951 0.003423 -0.003520
# 3 -0.005171 -0.000897 0.015136 0.004269 -0.000010 0.002448
# 4 -0.001029 0.006951 0.004269 0.039632 0.014217 -0.000867
# 5 -0.002313 0.003423 -0.000010 0.014217 0.033648 -0.000640
# 6 0.001254 -0.003520 0.002448 -0.000867 -0.000640 0.022083
#
#
# Mechanical properties :
#
#
# Convention : Reuss Voigt Hill
#
# Bulk Modulus (GPa) = 38.57785 43.66845 41.12315
# Shear Modulus (GPa) = 30.27531 36.21386 33.24459
#
# Velocity S-wave (km/s) = 3.64242 3.98367 3.81686
# Velocity P-wave (km/s) = 5.88177 6.34790 6.11927
#
# Compressibility (1/GPa) = 0.02592161
#
# Stress axis : x y z
#
# Youngs Moduli (GPa) = 69.69117 71.17827 66.06634
#
# Poissons Ratio (x) = 0.19495 0.34163
# Poissons Ratio (y) = 0.19088 0.05924
# Poissons Ratio (z) = 0.36037 0.06382
#
# Static dielectric constant tensor:
#      x y z
#    x 2.046130 0.003630 -0.058140 
#    y 0.003630 1.917470 0.048400 
#    z -0.058140 0.048400 1.981680 
# 
# From -- ./inp_files/66999.got.cif
#   From: 2010.05.17/outbox.cif.g08.bks.cpg/sg2_34_cif.got.tgz:66999.got - 2010.06.03 11:33:40.
