data_PCOD9061721
_publ_section_title
;
Structure prediction by ZEFSAII (Michael W. Deem and Ramdas Pophale) SiO2 
 PCOD9061721
Probable space group: P -1
;
_chemical_formula_sum "Si O2"
_cell_formula_units_Z 10
_cell_length_a 5.206505
_cell_length_b 14.239501
_cell_length_c 12.575901
_cell_angle_alpha 29.065037
_cell_angle_beta 62.408225
_cell_angle_gamma 54.472954
_cell_volume 366.252412
_symmetry_space_group_name_H-M "P -1"
_symmetry_group_IT_number 2
_symmetry_cell_setting 'triclinic'
loop_
_space_group_symop_operation_xyz
x,y,z
-x,-y,-z
loop_
_atom_site_type_symbol
_atom_site_label
_atom_site_fract_x
_atom_site_fract_y
_atom_site_fract_z
Si Si1 0.540865 0.734749 0.446934
Si Si2 0.169145 0.700131 0.276674
Si Si3 0.734783 0.808588 0.041978
Si Si4 0.089834 0.495775 0.109085
Si Si5 0.314938 0.791382 0.662855
O O1 0.603304 0.548378 0.535093
O O2 0.404828 0.687887 0.629752
O O3 0.894892 0.735406 0.381195
O O4 0.313923 0.971176 0.221753
O O5 0.383333 0.830218 0.120544
O O6 0.983985 0.750733 0.147759
O O7 0.841659 0.616345 0.127343
O O8 0.321689 0.252557 0.332586
O O9 0.249176 0.667024 0.897282
O O10 0.000000 0.500000 0.000000
O O11 0.000000 0.000000 0.500000
#
# Coordination Sequence:
#
# PCOD9061721 Si02
#       5
#     2   2   2   2   2
#     4  11  24  46  74 108 142 197 240 296 367 440
#     4  11  27  47  73 109 150 186 242 303 362 437
#     4  12  25  48  74 107 149 188 242 304 364 433
#     4  11  25  43  70 101 147 187 240 308 361 427
#     4  11  23  46  67 101 139 188 241 293 363 430
#
# _framework density 27.303573
#
# number of rings (size 3 to 8) (size 9 to 14) (size 15 to 20)
#    0.000    0.800    4.000    2.400    2.800    5.600 
#    7.200    0.000    0.000    0.000    0.000    0.000 
#    0.000    0.000    0.000    0.000    0.000    0.000 
#
# Total GULP energy -55847.650969 kJ/mol
# GULP energy per Si atom -5584.765097 kJ/mol
# Density = 2.724143 g / cm^3
# Si number density = 27.303573 Si / 1000 Ang^3
#
#
#
# Elastic Constant Matrix: (Units=GPa)
#
#
# Indices 1 2 3 4 5 6 
#
# 1 84.6502 24.1278 19.1832 -7.7839 23.2596 6.4383
# 2 24.1278 181.7690 31.8967 -8.6099 34.9473 -23.7029
# 3 19.1832 31.8967 120.6104 -11.1760 17.3291 -13.7319
# 4 -7.7839 -8.6099 -11.1760 64.6307 -18.3953 4.1703
# 5 23.2596 34.9473 17.3291 -18.3953 46.8216 6.4296
# 6 6.4383 -23.7029 -13.7319 4.1703 6.4296 36.4864
#
#
#
# Elastic Compliance Matrix: (Units=1/GPa)
#
#
# Indices 1 2 3 4 5 6 
#
# 1 0.014110 -0.000920 -0.001538 -0.000052 -0.005402 -0.002708
# 2 -0.000920 0.007721 -0.000352 -0.001437 -0.006615 0.006375
# 3 -0.001538 -0.000352 0.009551 0.000314 -0.002951 0.004121
# 4 -0.000052 -0.001437 0.000314 0.018088 0.008694 -0.004406
# 5 -0.005402 -0.006615 -0.002951 0.008694 0.035084 -0.011631
# 6 -0.002708 0.006375 0.004121 -0.004406 -0.011631 0.036131
#
#
# Mechanical properties :
#
#
# Convention : Reuss Voigt Hill
#
# Bulk Modulus (GPa) = 38.81874 59.71612 49.26743
# Shear Modulus (GPa) = 37.06674 50.37586 43.72130
#
# Velocity S-wave (km/s) = 3.68853 4.30004 4.00597
# Velocity P-wave (km/s) = 5.69110 6.82440 6.28335
#
# Compressibility (1/GPa) = 0.02576076
#
# Stress axis : x y z
#
# Youngs Moduli (GPa) = 70.87390 129.52361 104.69914
#
# Poissons Ratio (x) = 0.11918 0.16101
# Poissons Ratio (y) = 0.06521 0.03689
# Poissons Ratio (z) = 0.10900 0.04563
#
# Static dielectric constant tensor:
#      x y z
#    x 2.454980 -0.108060 -0.129320 
#    y -0.108060 2.180130 -0.026410 
#    z -0.129320 -0.026410 2.300940 
# 
# From -- ./inp_files/27403.got.cif
#   From: 2010.05.17/outbox.cif.g08.bks.cpg/sg2_14_cif.got.tgz:27403.got - 2010.06.03 11:33:40.
