data_PCOD9061227
_publ_section_title
;
Structure prediction by ZEFSAII (Michael W. Deem and Ramdas Pophale) SiO2 
 PCOD9061227
Probable space group: P -1
;
_chemical_formula_sum "Si O2"
_cell_formula_units_Z 16
_cell_length_a 17.958183
_cell_length_b 9.895984
_cell_length_c 12.656352
_cell_angle_alpha 135.110729
_cell_angle_beta 39.011296
_cell_angle_gamma 106.004325
_cell_volume 785.113069
_symmetry_space_group_name_H-M "P -1"
_symmetry_group_IT_number 2
_symmetry_cell_setting 'triclinic'
loop_
_space_group_symop_operation_xyz
x,y,z
-x,-y,-z
loop_
_atom_site_type_symbol
_atom_site_label
_atom_site_fract_x
_atom_site_fract_y
_atom_site_fract_z
Si Si1 0.338982 0.406809 0.406318
Si Si2 0.315192 0.010773 0.273245
Si Si3 0.622556 0.205727 0.696341
Si Si4 0.101003 0.570580 0.385513
Si Si5 0.143196 0.781447 0.658373
Si Si6 0.569104 0.930779 0.268170
Si Si7 0.903188 0.938979 0.633400
Si Si8 0.355842 0.729537 0.725668
O O1 0.234544 0.530993 0.486686
O O2 0.316129 0.621757 0.616945
O O3 0.304426 0.251296 0.425474
O O4 0.514116 0.212079 0.073376
O O5 0.295098 0.916076 0.351215
O O6 0.197080 0.067967 0.346616
O O7 0.742753 0.157165 0.452088
O O8 0.539746 0.092461 0.695159
O O9 0.500000 0.500000 0.000000
O O10 0.099827 0.737163 0.568074
O O11 0.000000 0.500000 0.500000
O O12 0.027586 0.697265 0.425961
O O13 0.271227 0.334658 0.052631
O O14 0.000000 0.000000 0.000000
O O15 0.500000 0.000000 0.500000
O O16 0.599034 0.109489 0.283644
O O17 0.000000 0.000000 0.500000
O O18 0.782455 0.121181 0.957249
O O19 0.500000 0.500000 0.500000
#
# Coordination Sequence:
#
# PCOD9061227 Si02
#       8
#     2   2   2   2   2   2   2   2
#     4  11  23  44  75  99 137 181 233 289 347 411
#     4  11  24  45  71 103 135 185 235 281 350 410
#     4  12  24  46  74 101 137 180 240 291 338 418
#     4  12  25  47  69 102 147 185 236 287 353 426
#     4  12  26  44  73 104 141 182 231 293 355 410
#     4  12  28  45  75 108 138 186 240 293 354 419
#     4  12  27  44  71 100 145 189 227 287 355 417
#     4  12  25  45  69 105 143 180 235 289 348 418
#
# _framework density 20.379228999999999
#
# number of rings (size 3 to 8) (size 9 to 14) (size 15 to 20)
#    0.000    0.250    5.000    3.750    5.250    0.000 
#    0.000    1.250    0.000    0.000    0.000    0.000 
#    0.000    0.000    0.000    0.000    0.000    0.000 
#
# Total GULP energy -89511.795065 kJ/mol
# GULP energy per Si atom -5594.487192 kJ/mol
# Density = 2.033284 g / cm^3
# Si number density = 20.379229 Si / 1000 Ang^3
#
#
#
# Elastic Constant Matrix: (Units=GPa)
#
#
# Indices 1 2 3 4 5 6 
#
# 1 107.2060 37.2519 37.6486 13.8159 -4.6543 -6.6880
# 2 37.2519 165.3428 57.5745 -3.1444 -0.6023 -5.9434
# 3 37.6486 57.5745 121.3952 -14.6991 -5.5292 6.3474
# 4 13.8159 -3.1444 -14.6991 35.1868 -3.5622 -7.5560
# 5 -4.6543 -0.6023 -5.5292 -3.5622 35.0924 7.9831
# 6 -6.6880 -5.9434 6.3474 -7.5560 7.9831 44.3226
#
#
#
# Elastic Compliance Matrix: (Units=1/GPa)
#
#
# Indices 1 2 3 4 5 6 
#
# 1 0.012064 -0.001452 -0.003862 -0.006235 0.000083 0.001101
# 2 -0.001452 0.007551 -0.003233 0.000113 -0.000887 0.001436
# 3 -0.003862 -0.003233 0.011915 0.005990 0.002403 -0.002134
# 4 -0.006235 0.000113 0.005990 0.034433 0.002799 0.003582
# 5 0.000083 -0.000887 0.002403 0.002799 0.030394 -0.005448
# 6 0.001101 0.001436 -0.002134 0.003582 -0.005448 0.024818
#
#
# Mechanical properties :
#
#
# Convention : Reuss Voigt Hill
#
# Bulk Modulus (GPa) = 69.26506 73.21045 71.23775
# Shear Modulus (GPa) = 34.94519 40.35163 37.64841
#
# Velocity S-wave (km/s) = 4.14544 4.45459 4.30279
# Velocity P-wave (km/s) = 7.54816 7.90315 7.72770
#
# Compressibility (1/GPa) = 0.01443729
#
# Stress axis : x y z
#
# Youngs Moduli (GPa) = 82.88883 132.42452 83.92973
#
# Poissons Ratio (x) = 0.19230 0.32410
# Poissons Ratio (y) = 0.12037 0.27134
# Poissons Ratio (z) = 0.32008 0.42812
#
# Static dielectric constant tensor:
#      x y z
#    x 1.746190 0.014360 -0.003440 
#    y 0.014360 1.709600 -0.003440 
#    z -0.003440 -0.003440 1.702420 
# 
# From -- ./inp_files/332258.got.cif
#   From: 2010.05.17/outbox.cif.g08.bks.cpg/sg2_167_cif.got.tgz:332258.got - 2010.06.03 11:33:40.
