data_PCOD9061432
_publ_section_title
;
Structure prediction by ZEFSAII (Michael W. Deem and Ramdas Pophale) SiO2 
 PCOD9061432
Probable space group: P -1
;
_chemical_formula_sum "Si O2"
_cell_formula_units_Z 14
_cell_length_a 27.397446
_cell_length_b 14.819357
_cell_length_c 6.381420
_cell_angle_alpha 132.834054
_cell_angle_beta 47.348976
_cell_angle_gamma 161.773342
_cell_volume 588.549576
_symmetry_space_group_name_H-M "P -1"
_symmetry_group_IT_number 2
_symmetry_cell_setting 'triclinic'
loop_
_space_group_symop_operation_xyz
x,y,z
-x,-y,-z
loop_
_atom_site_type_symbol
_atom_site_label
_atom_site_fract_x
_atom_site_fract_y
_atom_site_fract_z
Si Si1 0.384071 0.803548 0.330849
Si Si2 0.951426 0.872034 0.712130
Si Si3 0.517466 0.673026 0.698361
Si Si4 0.754720 0.725436 0.811006
Si Si5 0.121643 0.699523 0.263090
Si Si6 0.459206 0.743540 0.637989
Si Si7 0.095819 0.851085 0.213328
O O1 0.214289 0.475633 0.370180
O O2 0.500000 0.000000 0.500000
O O3 0.393625 0.954654 0.439086
O O4 0.432904 0.791318 0.984427
O O5 0.912551 0.929552 0.778392
O O6 0.062732 0.940112 0.474611
O O7 0.000000 0.000000 0.000000
O O8 0.500000 0.500000 0.500000
O O9 0.481175 0.649688 0.529557
O O10 0.696193 0.018196 0.765294
O O11 0.383888 0.504786 0.973759
O O12 0.684852 0.511497 0.505146
O O13 0.772217 0.897617 0.952370
O O14 0.127896 0.833204 0.308179
O O15 0.000000 0.500000 0.500000
O O16 0.046719 0.464475 0.971531
#
# Coordination Sequence:
#
# PCOD9061432 Si02
#       7
#     2   2   2   2   2   2   2
#     4  11  23  45  70 108 151 187 249 310 371 456
#     4  12  27  45  78 109 154 198 243 318 388 448
#     4  12  27  45  78 105 148 199 254 314 373 442
#     4  12  26  50  72 113 150 190 260 311 376 464
#     4  11  28  51  73 109 150 198 253 310 375 455
#     4  11  24  41  75 104 145 192 247 308 376 429
#     4  11  28  46  76 106 153 198 248 304 388 444
#
# _framework density 23.787289999999999
#
# number of rings (size 3 to 8) (size 9 to 14) (size 15 to 20)
#    0.000    0.571    2.857    3.000   10.000    3.429 
#    0.000    0.000    0.000    0.000    0.000    0.000 
#    0.000    0.000    0.000    0.000    0.000    0.000 
#
# Total GULP energy -78116.999340 kJ/mol
# GULP energy per Si atom -5579.785667 kJ/mol
# Density = 2.373315 g / cm^3
# Si number density = 23.787290 Si / 1000 Ang^3
#
#
#
# Elastic Constant Matrix: (Units=GPa)
#
#
# Indices 1 2 3 4 5 6 
#
# 1 166.4004 20.4040 26.3467 4.1681 15.3840 -32.1477
# 2 20.4040 91.7211 -8.5981 1.9758 4.0047 -15.9872
# 3 26.3467 -8.5981 70.3399 15.0308 1.3784 13.1134
# 4 4.1681 1.9758 15.0308 39.4304 6.5395 3.9054
# 5 15.3840 4.0047 1.3784 6.5395 28.5618 7.5943
# 6 -32.1477 -15.9872 13.1134 3.9054 7.5943 59.2618
#
#
#
# Elastic Compliance Matrix: (Units=1/GPa)
#
#
# Indices 1 2 3 4 5 6 
#
# 1 0.008594 -0.001040 -0.004651 0.001338 -0.006191 0.006116
# 2 -0.001040 0.011823 0.001625 -0.001088 -0.001603 0.002543
# 3 -0.004651 0.001625 0.018721 -0.006865 0.004639 -0.006369
# 4 0.001338 -0.001088 -0.006865 0.028978 -0.007125 0.000955
# 5 -0.006191 -0.001603 0.004639 -0.007125 0.042586 -0.009805
# 6 0.006116 0.002543 -0.006369 0.000955 -0.009805 0.023481
#
#
# Mechanical properties :
#
#
# Convention : Reuss Voigt Hill
#
# Bulk Modulus (GPa) = 32.25308 44.97405 38.61357
# Shear Modulus (GPa) = 32.75470 44.80470 38.77970
#
# Velocity S-wave (km/s) = 3.71480 4.34470 4.04204
# Velocity P-wave (km/s) = 5.65580 6.64202 6.16865
#
# Compressibility (1/GPa) = 0.03100479
#
# Stress axis : x y z
#
# Youngs Moduli (GPa) = 116.36177 84.58114 53.41698
#
# Poissons Ratio (x) = 0.08799 0.24843
# Poissons Ratio (y) = 0.12105 -0.08679
# Poissons Ratio (z) = 0.54117 -0.13742
#
# Static dielectric constant tensor:
#      x y z
#    x 1.964160 -0.173540 0.128050 
#    y -0.173540 2.492120 -0.561720 
#    z 0.128050 -0.561720 2.331580 
# 
# From -- ./inp_files/127263.got.cif
#   From: 2010.05.17/outbox.cif.g08.bks.cpg/sg2_64_cif.got.tgz:127263.got - 2010.06.03 11:33:40.
