data_PCOD9061780
_publ_section_title
;
Structure prediction by ZEFSAII (Michael W. Deem and Ramdas Pophale) SiO2 
 PCOD9061780
Probable space group: P -1
;
_chemical_formula_sum "Si O2"
_cell_formula_units_Z 16
_cell_length_a 13.580022
_cell_length_b 8.853704
_cell_length_c 14.802326
_cell_angle_alpha 32.688803
_cell_angle_beta 134.690417
_cell_angle_gamma 132.176647
_cell_volume 668.507833
_symmetry_space_group_name_H-M "P -1"
_symmetry_group_IT_number 2
_symmetry_cell_setting 'triclinic'
loop_
_space_group_symop_operation_xyz
x,y,z
-x,-y,-z
loop_
_atom_site_type_symbol
_atom_site_label
_atom_site_fract_x
_atom_site_fract_y
_atom_site_fract_z
Si Si1 0.231572 0.080324 0.944323
Si Si2 0.549742 0.789499 0.830510
Si Si3 0.622234 0.778424 0.430389
Si Si4 0.092408 0.318092 0.397077
Si Si5 0.326736 0.192197 0.292778
Si Si6 0.842765 0.457790 0.466026
Si Si7 0.460188 0.770119 0.167242
Si Si8 0.964486 0.641130 0.000615
O O1 0.242035 0.347873 0.747947
O O2 0.298476 0.110289 0.072465
O O3 0.321176 0.857360 0.075569
O O4 0.066445 0.950724 0.908904
O O5 0.579564 0.799897 0.739607
O O6 0.429825 0.972892 0.675895
O O7 0.500000 0.500000 0.000000
O O8 0.500000 0.500000 0.500000
O O9 0.773815 0.704256 0.569484
O O10 0.601073 0.856884 0.273936
O O11 0.134842 0.438953 0.465328
O O12 0.004309 0.498904 0.189598
O O13 0.000000 0.000000 0.500000
O O14 0.423295 0.429273 0.299634
O O15 0.249229 0.868566 0.431371
O O16 0.197309 0.343806 0.110601
O O17 0.000000 0.500000 0.500000
O O18 0.500000 0.000000 0.000000
O O19 0.000000 0.500000 0.000000
#
# Coordination Sequence:
#
# PCOD9061780 Si02
#       8
#     2   2   2   2   2   2   2   2
#     4  11  23  46  70 101 153 197 246 303 374 456
#     4  11  27  46  73 108 145 199 246 314 375 444
#     4  11  25  49  72 101 143 191 252 298 370 452
#     4  12  29  46  78 111 150 206 257 312 382 461
#     4  12  26  46  77 114 151 195 255 317 390 438
#     4  12  27  45  69 118 157 193 251 321 384 441
#     4  11  24  44  76 100 141 201 248 296 367 463
#     4  12  25  46  77 109 149 200 253 307 384 460
#
# _framework density 23.933900000000001
#
# number of rings (size 3 to 8) (size 9 to 14) (size 15 to 20)
#    0.000    0.500    2.500    6.000    5.250    2.000 
#    0.000    3.750    0.000    0.000    0.000    0.000 
#    0.000    0.000    0.000    0.000    0.000    0.000 
#
# Total GULP energy -89400.832355 kJ/mol
# GULP energy per Si atom -5587.552022 kJ/mol
# Density = 2.387943 g / cm^3
# Si number density = 23.933900 Si / 1000 Ang^3
#
#
#
# Elastic Constant Matrix: (Units=GPa)
#
#
# Indices 1 2 3 4 5 6 
#
# 1 99.6121 30.6416 11.4325 -14.3028 8.5886 -2.2345
# 2 30.6416 81.7910 22.3806 -0.6195 15.6705 -7.3218
# 3 11.4325 22.3806 131.3607 -12.0612 -9.8886 -17.4107
# 4 -14.3028 -0.6195 -12.0612 49.0279 5.5000 -6.8022
# 5 8.5886 15.6705 -9.8886 5.5000 31.3435 -5.8923
# 6 -2.2345 -7.3218 -17.4107 -6.8022 -5.8923 37.9808
#
#
#
# Elastic Compliance Matrix: (Units=1/GPa)
#
#
# Indices 1 2 3 4 5 6 
#
# 1 0.011993 -0.004044 -0.000132 0.003660 -0.001906 0.000225
# 2 -0.004044 0.016048 -0.003022 -0.000839 -0.007698 0.000126
# 3 -0.000132 -0.003022 0.009383 0.002350 0.005018 0.004910
# 4 0.003660 -0.000839 0.002350 0.023031 -0.002982 0.004793
# 5 -0.001906 -0.007698 0.005018 -0.002982 0.039568 0.006309
# 6 0.000225 0.000126 0.004910 0.004793 0.006309 0.030455
#
#
# Mechanical properties :
#
#
# Convention : Reuss Voigt Hill
#
# Bulk Modulus (GPa) = 43.42554 49.07478 46.25016
# Shear Modulus (GPa) = 32.77604 40.22437 36.50021
#
# Velocity S-wave (km/s) = 3.70461 4.10401 3.90942
# Velocity P-wave (km/s) = 6.04005 6.55790 6.30429
#
# Compressibility (1/GPa) = 0.02302792
#
# Stress axis : x y z
#
# Youngs Moduli (GPa) = 83.38239 62.31379 106.57099
#
# Poissons Ratio (x) = 0.25197 0.01411
# Poissons Ratio (y) = 0.33716 0.32207
# Poissons Ratio (z) = 0.01104 0.18832
#
# Static dielectric constant tensor:
#      x y z
#    x 1.846750 0.155330 0.125760 
#    y 0.155330 1.779740 -0.085520 
#    z 0.125760 -0.085520 1.919340 
# 
# From -- ./inp_files/347520.got.cif
#   From: 2010.05.17/outbox.cif.g08.bks.cpg/sg2_174_cif.got.tgz:347520.got - 2010.06.03 11:33:40.
