data_PCOD9061994
_publ_section_title
;
Structure prediction by ZEFSAII (Michael W. Deem and Ramdas Pophale) SiO2 
 PCOD9061994
Probable space group: P -1
;
_chemical_formula_sum "Si O2"
_cell_formula_units_Z 14
_cell_length_a 13.975490
_cell_length_b 23.787990
_cell_length_c 7.591509
_cell_angle_alpha 136.920403
_cell_angle_beta 52.920281
_cell_angle_gamma 159.862669
_cell_volume 555.410996
_symmetry_space_group_name_H-M "P -1"
_symmetry_group_IT_number 2
_symmetry_cell_setting 'triclinic'
loop_
_space_group_symop_operation_xyz
x,y,z
-x,-y,-z
loop_
_atom_site_type_symbol
_atom_site_label
_atom_site_fract_x
_atom_site_fract_y
_atom_site_fract_z
Si Si1 0.737709 0.575839 0.399476
Si Si2 0.215050 0.208377 0.664268
Si Si3 0.132337 0.331480 0.910852
Si Si4 0.739318 0.183186 0.519214
Si Si5 0.779398 0.262483 0.296356
Si Si6 0.730672 0.308887 0.097208
Si Si7 0.665099 0.799589 0.852258
O O1 0.500000 0.500000 0.500000
O O2 0.931076 0.713728 0.328438
O O3 0.536091 0.367796 0.158077
O O4 0.992648 0.713342 0.573369
O O5 0.061549 0.199989 0.779138
O O6 0.346424 0.260692 0.451587
O O7 0.512913 0.422829 0.926984
O O8 0.000000 0.000000 0.500000
O O9 0.975792 0.310035 0.121992
O O10 0.602182 0.123917 0.349477
O O11 0.500000 0.000000 0.500000
O O12 0.857653 0.331804 0.852462
O O13 0.007691 0.470235 0.608739
O O14 0.373696 0.800304 0.854495
O O15 0.464574 0.194028 0.044036
O O16 0.000000 0.000000 0.000000
#
# Coordination Sequence:
#
# PCOD9061994 Si02
#       7
#     2   2   2   2   2   2   2
#     4  12  25  48  74 108 156 199 256 323 392 464
#     4  11  24  44  68 111 149 199 257 318 387 468
#     4  11  23  46  77 106 152 206 256 323 394 455
#     4  12  28  47  76 112 151 207 257 318 393 465
#     4  11  24  50  78 105 149 208 256 325 383 460
#     4  11  25  48  76 107 151 196 265 308 392 456
#     4  12  26  46  75 112 148 200 253 323 393 465
#
# _framework density 25.206561000000001
#
# number of rings (size 3 to 8) (size 9 to 14) (size 15 to 20)
#    0.000    0.571    5.714    1.286    4.000    1.714 
#    5.143    0.000    0.000    0.000    0.000    0.000 
#    0.000    0.000    0.000    0.000    0.000    0.000 
#
# Total GULP energy -78261.150039 kJ/mol
# GULP energy per Si atom -5590.082146 kJ/mol
# Density = 2.514919 g / cm^3
# Si number density = 25.206561 Si / 1000 Ang^3
#
#
#
# Elastic Constant Matrix: (Units=GPa)
#
#
# Indices 1 2 3 4 5 6 
#
# 1 204.6258 64.1206 33.4705 3.0590 -10.6257 -8.5992
# 2 64.1206 104.9115 15.5064 3.6827 -14.7722 -16.7957
# 3 33.4705 15.5064 66.7546 -1.6298 -22.7374 -8.3020
# 4 3.0590 3.6827 -1.6298 60.4482 -5.2558 -1.0638
# 5 -10.6257 -14.7722 -22.7374 -5.2558 40.0306 -0.0749
# 6 -8.5992 -16.7957 -8.3020 -1.0638 -0.0749 54.3542
#
#
#
# Elastic Compliance Matrix: (Units=1/GPa)
#
#
# Indices 1 2 3 4 5 6 
#
# 1 0.006461 -0.003799 -0.002910 -0.000305 -0.001381 -0.000604
# 2 -0.003799 0.012894 0.000762 -0.000149 0.004170 0.003503
# 3 -0.002910 0.000762 0.020561 0.001700 0.011416 0.002965
# 4 -0.000305 -0.000149 0.001700 0.016887 0.003048 0.000500
# 5 -0.001381 0.004170 0.011416 0.003048 0.033043 0.002919
# 6 -0.000604 0.003503 0.002965 0.000500 0.002919 0.019851
#
#
# Mechanical properties :
#
#
# Convention : Reuss Voigt Hill
#
# Bulk Modulus (GPa) = 35.68655 66.94298 51.31476
# Shear Modulus (GPa) = 38.18756 48.51288 43.35022
#
# Velocity S-wave (km/s) = 3.89650 4.39180 4.15155
# Velocity P-wave (km/s) = 5.86788 7.23413 6.58653
#
# Compressibility (1/GPa) = 0.02802176
#
# Stress axis : x y z
#
# Youngs Moduli (GPa) = 154.77737 77.55349 48.63585
#
# Poissons Ratio (x) = 0.29464 0.14153
# Poissons Ratio (y) = 0.58803 -0.03705
# Poissons Ratio (z) = 0.45039 -0.05909
#
# Static dielectric constant tensor:
#      x y z
#    x 1.075650 -0.016470 0.088720 
#    y -0.016470 2.030620 0.083650 
#    z 0.088720 0.083650 2.165040 
# 
# From -- ./inp_files/319942.got.cif
#   From: 2010.05.17/outbox.cif.g08.bks.cpg/sg2_160_cif.got.tgz:319942.got - 2010.06.03 11:33:40.
