data_PCOD9061358
_publ_section_title
;
Structure prediction by ZEFSAII (Michael W. Deem and Ramdas Pophale) SiO2 
 PCOD9061358
Probable space group: P -1
;
_chemical_formula_sum "Si O2"
_cell_formula_units_Z 16
_cell_length_a 13.950677
_cell_length_b 12.265754
_cell_length_c 7.830887
_cell_angle_alpha 45.535000
_cell_angle_beta 87.732463
_cell_angle_gamma 55.355380
_cell_volume 622.924546
_symmetry_space_group_name_H-M "P -1"
_symmetry_group_IT_number 2
_symmetry_cell_setting 'triclinic'
loop_
_space_group_symop_operation_xyz
x,y,z
-x,-y,-z
loop_
_atom_site_type_symbol
_atom_site_label
_atom_site_fract_x
_atom_site_fract_y
_atom_site_fract_z
Si Si1 0.200023 0.026937 0.183337
Si Si2 0.473826 0.214136 0.284505
Si Si3 0.091768 0.604904 0.025903
Si Si4 0.082799 0.067515 0.780488
Si Si5 0.241553 0.118694 0.521948
Si Si6 0.565261 0.089507 0.918953
Si Si7 0.698685 0.473215 0.706579
Si Si8 0.202431 0.680436 0.645256
O O1 0.243074 0.808992 0.493930
O O2 0.323847 0.994465 0.148171
O O3 0.119509 0.082515 0.948463
O O4 0.072992 0.238826 0.085387
O O5 0.398487 0.372439 0.286325
O O6 0.500000 0.000000 0.500000
O O7 0.635479 0.090561 0.386105
O O8 0.353639 0.404674 0.941662
O O9 0.177877 0.358905 0.211993
O O10 0.178628 0.542979 0.263023
O O11 0.114828 0.725022 0.771815
O O12 0.109031 0.172147 0.530046
O O13 0.207660 0.793419 0.021168
O O14 0.917565 0.205842 0.618363
O O15 0.342384 0.013649 0.801188
O O16 0.422460 0.370847 0.603672
O O17 0.500000 0.000000 0.000000
#
# Coordination Sequence:
#
# PCOD9061358 Si02
#       8
#     2   2   2   2   2   2   2   2
#     4  11  26  44  72 107 138 186 239 284 359 411
#     4  11  23  45  69 101 139 187 237 290 345 411
#     4  11  23  47  71 100 145 181 239 293 337 424
#     4  11  27  44  67 106 143 182 235 292 345 424
#     4  11  25  47  67 103 145 180 239 293 346 416
#     4  11  24  46  70 102 138 186 231 294 348 415
#     4  11  24  44  70 100 140 186 235 288 348 417
#     4  11  24  44  71 102 144 184 229 293 347 415
#
# _framework density 25.685293999999999
#
# number of rings (size 3 to 8) (size 9 to 14) (size 15 to 20)
#    0.000    1.000    5.000    0.750    5.250    5.000 
#    6.750    0.000    0.000    0.000    0.000    0.000 
#    0.000    0.000    0.000    0.000    0.000    0.000 
#
# Total GULP energy -89560.094419 kJ/mol
# GULP energy per Si atom -5597.505901 kJ/mol
# Density = 2.562683 g / cm^3
# Si number density = 25.685294 Si / 1000 Ang^3
#
#
#
# Elastic Constant Matrix: (Units=GPa)
#
#
# Indices 1 2 3 4 5 6 
#
# 1 127.8220 28.7195 22.0637 2.9739 -8.9559 -35.0772
# 2 28.7195 122.8564 43.1536 0.1744 -13.3326 -14.7609
# 3 22.0637 43.1536 125.2811 -12.5359 -8.9030 -12.2767
# 4 2.9739 0.1744 -12.5359 42.8712 1.2865 8.6359
# 5 -8.9559 -13.3326 -8.9030 1.2865 38.7564 2.4044
# 6 -35.0772 -14.7609 -12.2767 8.6359 2.4044 49.1523
#
#
#
# Elastic Compliance Matrix: (Units=1/GPa)
#
#
# Indices 1 2 3 4 5 6 
#
# 1 0.010357 -0.001082 -0.000889 -0.002469 0.001452 0.007207
# 2 -0.001082 0.009902 -0.003021 -0.001232 0.002408 0.001546
# 3 -0.000889 -0.003021 0.009547 0.002777 0.000837 0.000314
# 4 -0.002469 -0.001232 0.002777 0.025524 -0.000839 -0.005882
# 5 0.001452 0.002408 0.000837 -0.000839 0.027137 0.000788
# 6 0.007207 0.001546 0.000314 -0.005882 0.000788 0.027026
#
#
# Mechanical properties :
#
#
# Convention : Reuss Voigt Hill
#
# Bulk Modulus (GPa) = 50.44730 62.64813 56.54771
# Shear Modulus (GPa) = 39.65575 44.95749 42.30662
#
# Velocity S-wave (km/s) = 3.93352 4.18822 4.06287
# Velocity P-wave (km/s) = 6.34928 6.91606 6.63872
#
# Compressibility (1/GPa) = 0.01982267
#
# Stress axis : x y z
#
# Youngs Moduli (GPa) = 96.55469 100.98541 104.74056
#
# Poissons Ratio (x) = 0.10925 0.09312
# Poissons Ratio (y) = 0.10446 0.31644
# Poissons Ratio (z) = 0.08584 0.30509
#
# Static dielectric constant tensor:
#      x y z
#    x 2.036430 0.019890 0.058410 
#    y 0.019890 2.080680 0.102580 
#    z 0.058410 0.102580 2.071360 
# 
# From -- ./inp_files/314483.got.cif
#   From: 2010.05.17/outbox.cif.g08.bks.cpg/sg2_158_cif.got.tgz:314483.got - 2010.06.03 11:33:40.
