data_PCOD9061791
_publ_section_title
;
Structure prediction by ZEFSAII (Michael W. Deem and Ramdas Pophale) SiO2 
 PCOD9061791
Probable space group: P -1
;
_chemical_formula_sum "Si O2"
_cell_formula_units_Z 15
_cell_length_a 11.530856
_cell_length_b 11.945161
_cell_length_c 11.601911
_cell_angle_alpha 31.627252
_cell_angle_beta 55.630440
_cell_angle_gamma 55.797077
_cell_volume 679.333036
_symmetry_space_group_name_H-M "P -1"
_symmetry_group_IT_number 2
_symmetry_cell_setting 'triclinic'
loop_
_space_group_symop_operation_xyz
x,y,z
-x,-y,-z
loop_
_atom_site_type_symbol
_atom_site_label
_atom_site_fract_x
_atom_site_fract_y
_atom_site_fract_z
Si Si1 0.018308 0.270853 0.128368
Si Si2 0.788973 0.185357 0.980465
Si Si3 0.170313 0.233063 0.831415
Si Si4 0.520699 0.694382 0.399679
Si Si5 0.520605 0.546987 0.136586
Si Si6 0.701537 0.908369 0.746633
Si Si7 0.000000 0.500000 0.500000
Si Si8 0.262721 0.852549 0.701872
O O1 0.137811 0.123321 0.268714
O O2 0.864388 0.211025 0.247514
O O3 0.081175 0.272857 0.963039
O O4 0.000000 0.500000 0.000000
O O5 0.891072 0.359599 0.752991
O O6 0.622894 0.296211 0.961682
O O7 0.797383 0.080412 0.196403
O O8 0.835625 0.994040 0.029650
O O9 0.334336 0.225838 0.778992
O O10 0.120074 0.422924 0.600614
O O11 0.500000 0.500000 0.500000
O O12 0.390330 0.895590 0.301861
O O13 0.528489 0.593219 0.610899
O O14 0.631447 0.695970 0.987020
O O15 0.612807 0.360652 0.168200
O O16 0.688341 0.967283 0.565414
#
# Coordination Sequence:
#
# PCOD9061791 Si02
#       8
#     2   2   2   2   2   2   1   2
#     4  12  26  47  71 104 147 188 241 295 356 428
#     4  12  26  49  75 106 141 185 247 294 357 427
#     4  12  27  47  75 105 140 190 238 297 360 424
#     4  11  25  44  73 108 142 186 242 291 360 426
#     4  11  23  46  70 106 142 185 237 294 361 418
#     4  11  25  46  73 101 146 191 235 298 353 422
#     4  12  26  48  72 104 146 184 230 306 356 418
#     4  11  26  46  70 107 142 190 240 290 358 427
#
# _framework density 22.080480000000001
#
# number of rings (size 3 to 8) (size 9 to 14) (size 15 to 20)
#    0.000    0.533    5.333    2.000    3.733    3.733 
#    0.000    0.000    0.000    0.000    0.000    0.000 
#    0.000    0.000    0.000    0.000    0.000    0.000 
#
# Total GULP energy -83624.706507 kJ/mol
# GULP energy per Si atom -5574.980434 kJ/mol
# Density = 2.203022 g / cm^3
# Si number density = 22.080480 Si / 1000 Ang^3
#
#
#
# Elastic Constant Matrix: (Units=GPa)
#
#
# Indices 1 2 3 4 5 6 
#
# 1 72.6898 25.7541 -2.5674 -3.5462 3.8929 -15.9407
# 2 25.7541 123.2074 25.4982 7.9204 9.8389 9.8219
# 3 -2.5674 25.4982 54.3760 11.4256 6.4673 -2.8668
# 4 -3.5462 7.9204 11.4256 21.6156 -7.4114 2.3979
# 5 3.8929 9.8389 6.4673 -7.4114 44.9180 1.0332
# 6 -15.9407 9.8219 -2.8668 2.3979 1.0332 36.3240
#
#
#
# Elastic Compliance Matrix: (Units=1/GPa)
#
#
# Indices 1 2 3 4 5 6 
#
# 1 0.017974 -0.005296 0.003592 0.001638 -0.000864 0.009520
# 2 -0.005296 0.010960 -0.005073 -0.002082 -0.001428 -0.005510
# 3 0.003592 -0.005073 0.024553 -0.012896 -0.004998 0.005879
# 4 0.001638 -0.002082 -0.012896 0.058642 0.011937 -0.003947
# 5 -0.000864 -0.001428 -0.004998 0.011937 0.025383 -0.001897
# 6 0.009520 -0.005510 0.005879 -0.003947 -0.001897 0.033976
#
#
# Mechanical properties :
#
#
# Convention : Reuss Voigt Hill
#
# Bulk Modulus (GPa) = 25.04061 38.62700 31.83380
# Shear Modulus (GPa) = 25.20754 34.01075 29.60914
#
# Velocity S-wave (km/s) = 3.38245 3.92893 3.66589
# Velocity P-wave (km/s) = 5.15945 6.17363 5.68918
#
# Compressibility (1/GPa) = 0.03993513
#
# Stress axis : x y z
#
# Youngs Moduli (GPa) = 55.63533 91.23779 40.72812
#
# Poissons Ratio (x) = 0.48318 -0.14631
# Poissons Ratio (y) = 0.29464 0.20660
# Poissons Ratio (z) = -0.19987 0.46283
#
# Static dielectric constant tensor:
#      x y z
#    x 1.870210 0.009730 0.007800 
#    y 0.009730 1.840260 0.001360 
#    z 0.007800 0.001360 1.798400 
# 
# From -- ./inp_files/66289.got.cif
#   From: 2010.05.17/outbox.cif.g08.bks.cpg/sg2_34_cif.got.tgz:66289.got - 2010.06.03 11:33:40.
