data_PCOD9061636
_publ_section_title
;
Structure prediction by ZEFSAII (Michael W. Deem and Ramdas Pophale) SiO2 
 PCOD9061636
Probable space group: P -1
;
_chemical_formula_sum "Si O2"
_cell_formula_units_Z 15
_cell_length_a 9.377627
_cell_length_b 9.651203
_cell_length_c 12.016719
_cell_angle_alpha 63.652203
_cell_angle_beta 60.814230
_cell_angle_gamma 41.364034
_cell_volume 621.734305
_symmetry_space_group_name_H-M "P -1"
_symmetry_group_IT_number 2
_symmetry_cell_setting 'triclinic'
loop_
_space_group_symop_operation_xyz
x,y,z
-x,-y,-z
loop_
_atom_site_type_symbol
_atom_site_label
_atom_site_fract_x
_atom_site_fract_y
_atom_site_fract_z
Si Si1 0.224809 0.893822 0.888414
Si Si2 0.095908 0.877601 0.267895
Si Si3 0.593778 0.505253 0.152728
Si Si4 0.389674 0.076503 0.891436
Si Si5 0.572695 0.320513 0.451940
Si Si6 0.806435 0.943560 0.654960
Si Si7 0.902482 0.434894 0.479006
Si Si8 0.000000 0.500000 0.000000
O O1 0.359364 0.935775 0.888039
O O2 0.116678 0.014277 0.768113
O O3 0.364366 0.650052 0.900926
O O4 0.000000 0.000000 0.000000
O O5 0.338591 0.731237 0.167710
O O6 0.114533 0.715938 0.395615
O O7 0.081943 0.042999 0.287143
O O8 0.612582 0.391229 0.299744
O O9 0.784364 0.513104 0.073294
O O10 0.565734 0.053267 0.756300
O O11 0.144687 0.304438 0.924447
O O12 0.500000 0.000000 0.000000
O O13 0.500000 0.500000 0.500000
O O14 0.354112 0.353595 0.517200
O O15 0.760418 0.096040 0.519763
O O16 0.950587 0.707371 0.634977
O O17 0.000000 0.500000 0.500000
#
# Coordination Sequence:
#
# PCOD9061636 Si02
#       8
#     2   2   2   2   2   2   2   1
#     4  12  27  46  72 102 145 193 236 299 365 425
#     4  11  25  47  71 105 144 190 243 294 363 429
#     4  11  25  45  75 106 148 185 242 300 357 435
#     4  12  29  49  72 108 143 190 246 299 357 436
#     4  11  23  45  75 105 141 191 240 290 362 425
#     4  12  25  46  76 103 146 197 239 298 361 432
#     4  11  27  44  69 110 147 188 240 301 359 428
#     4  12  24  48  74 106 140 188 244 296 354 432
#
# _framework density 24.126059999999999
#
# number of rings (size 3 to 8) (size 9 to 14) (size 15 to 20)
#    0.000    0.533    5.333    2.000    7.467    3.200 
#    0.000    0.000    0.000    0.000    0.000    0.000 
#    0.000    0.000    0.000    0.000    0.000    0.000 
#
# Total GULP energy -83649.562758 kJ/mol
# GULP energy per Si atom -5576.637517 kJ/mol
# Density = 2.407115 g / cm^3
# Si number density = 24.126060 Si / 1000 Ang^3
#
#
#
# Elastic Constant Matrix: (Units=GPa)
#
#
# Indices 1 2 3 4 5 6 
#
# 1 182.2884 59.0254 34.1490 12.7498 0.0473 19.0363
# 2 59.0254 121.9046 29.7936 35.4220 2.1797 9.4300
# 3 34.1490 29.7936 95.9445 17.8632 -10.7651 -10.3840
# 4 12.7498 35.4220 17.8632 42.4906 -13.3782 8.8719
# 5 0.0473 2.1797 -10.7651 -13.3782 45.8530 6.3980
# 6 19.0363 9.4300 -10.3840 8.8719 6.3980 58.2942
#
#
#
# Elastic Compliance Matrix: (Units=1/GPa)
#
#
# Indices 1 2 3 4 5 6 
#
# 1 0.007090 -0.003422 -0.002101 0.002371 0.000713 -0.002575
# 2 -0.003422 0.013424 -0.001256 -0.011183 -0.004318 0.000898
# 3 -0.002101 -0.001256 0.012866 -0.004055 0.001391 0.003646
# 4 0.002371 -0.011183 -0.004055 0.039060 0.011942 -0.006943
# 5 0.000713 -0.004318 0.001391 0.011942 0.026382 -0.004000
# 6 -0.002575 0.000898 0.003646 -0.006943 -0.004000 0.019995
#
#
# Mechanical properties :
#
#
# Convention : Reuss Voigt Hill
#
# Bulk Modulus (GPa) = 50.44671 71.78593 61.11632
# Shear Modulus (GPa) = 35.97543 47.80554 41.89048
#
# Velocity S-wave (km/s) = 3.86572 4.45622 4.17143
# Velocity P-wave (km/s) = 6.39376 7.50309 6.97052
#
# Compressibility (1/GPa) = 0.01982290
#
# Stress axis : x y z
#
# Youngs Moduli (GPa) = 141.03575 74.49243 77.72403
#
# Poissons Ratio (x) = 0.25491 0.16331
# Poissons Ratio (y) = 0.48263 0.09760
# Poissons Ratio (z) = 0.29633 0.09354
#
# Static dielectric constant tensor:
#      x y z
#    x 2.107680 -0.122590 -0.052010 
#    y -0.122590 1.994320 0.069970 
#    z -0.052010 0.069970 2.278600 
# 
# From -- ./inp_files/381597.got.cif
#   From: 2010.05.17/outbox.cif.g08.bks.cpg/sg2_191_cif.got.tgz:381597.got - 2010.06.03 11:33:40.
