data_PCOD9061445
_publ_section_title
;
Structure prediction by ZEFSAII (Michael W. Deem and Ramdas Pophale) SiO2 
 PCOD9061445
Probable space group: P -1
;
_chemical_formula_sum "Si O2"
_cell_formula_units_Z 14
_cell_length_a 19.159254
_cell_length_b 9.779788
_cell_length_c 5.678863
_cell_angle_alpha 118.726399
_cell_angle_beta 57.088295
_cell_angle_gamma 130.984222
_cell_volume 661.246832
_symmetry_space_group_name_H-M "P -1"
_symmetry_group_IT_number 2
_symmetry_cell_setting 'triclinic'
loop_
_space_group_symop_operation_xyz
x,y,z
-x,-y,-z
loop_
_atom_site_type_symbol
_atom_site_label
_atom_site_fract_x
_atom_site_fract_y
_atom_site_fract_z
Si Si1 0.965799 0.541291 0.351733
Si Si2 0.623994 0.371132 0.064204
Si Si3 0.752342 0.375575 0.448283
Si Si4 0.403533 0.941451 0.782689
Si Si5 0.243948 0.317572 0.611679
Si Si6 0.445822 0.341270 0.163932
Si Si7 0.962443 0.035395 0.350131
O O1 0.846844 0.421906 0.460094
O O2 0.000000 0.500000 0.500000
O O3 0.006036 0.755789 0.493260
O O4 0.000000 0.500000 0.000000
O O5 0.600524 0.200003 0.130490
O O6 0.722686 0.566349 0.111587
O O7 0.530604 0.390068 0.242337
O O8 0.654708 0.333049 0.728119
O O9 0.705851 0.186723 0.232922
O O10 0.781426 0.556172 0.393563
O O11 0.500000 0.000000 0.500000
O O12 0.416708 0.133933 0.986331
O O13 0.344589 0.330794 0.377477
O O14 0.153967 0.110872 0.584838
O O15 0.500000 0.500000 0.000000
O O16 0.000000 0.000000 0.500000
O O17 0.000000 0.000000 0.000000
#
# Coordination Sequence:
#
# PCOD9061445 Si02
#       7
#     2   2   2   2   2   2   2
#     4  12  29  50  75 111 150 189 253 315 370 442
#     4  11  23  45  70  98 143 188 227 288 364 439
#     4  11  24  46  73  96 141 192 230 290 376 435
#     4  11  24  43  68 100 139 187 232 284 358 436
#     4  11  25  42  73 103 140 186 238 298 360 430
#     4  12  23  43  66 106 143 178 239 292 349 432
#     4  12  26  50  79 108 146 197 253 306 374 443
#
# _framework density 21.172124
#
# number of rings (size 3 to 8) (size 9 to 14) (size 15 to 20)
#    0.000    0.571    4.286    3.429    6.000    0.000 
#    2.571    0.000    0.000    0.000    0.000    0.000 
#    0.000    0.000    0.000    0.000    0.000    0.000 
#
# Total GULP energy -77998.857254 kJ/mol
# GULP energy per Si atom -5571.346947 kJ/mol
# Density = 2.112394 g / cm^3
# Si number density = 21.172124 Si / 1000 Ang^3
#
#
#
# Elastic Constant Matrix: (Units=GPa)
#
#
# Indices 1 2 3 4 5 6 
#
# 1 161.9349 62.1717 27.6204 15.1375 9.0294 17.8148
# 2 62.1717 141.6180 25.1674 26.2212 17.6049 17.8305
# 3 27.6204 25.1674 84.8854 12.7293 4.5464 6.1199
# 4 15.1375 26.2212 12.7293 30.4494 6.1819 -5.4391
# 5 9.0294 17.6049 4.5464 6.1819 25.6870 -3.7633
# 6 17.8148 17.8305 6.1199 -5.4391 -3.7633 44.7192
#
#
#
# Elastic Compliance Matrix: (Units=1/GPa)
#
#
# Indices 1 2 3 4 5 6 
#
# 1 0.007796 -0.002580 -0.001386 -0.001305 -0.000722 -0.002107
# 2 -0.002580 0.010970 -0.000648 -0.007638 -0.005338 -0.004636
# 3 -0.001386 -0.000648 0.013237 -0.004455 -0.000573 -0.001591
# 4 -0.001305 -0.007638 -0.004455 0.044158 -0.002781 0.009312
# 5 -0.000722 -0.005338 -0.000573 -0.002781 0.044478 0.005899
# 6 -0.002107 -0.004636 -0.001591 0.009312 0.005899 0.026896
#
#
# Mechanical properties :
#
#
# Convention : Reuss Voigt Hill
#
# Bulk Modulus (GPa) = 43.90300 68.70638 56.30469
# Shear Modulus (GPa) = 30.42218 38.40304 34.41261
#
# Velocity S-wave (km/s) = 3.79476 4.26355 4.03597
# Velocity P-wave (km/s) = 6.32309 7.53385 6.95487
#
# Compressibility (1/GPa) = 0.02277749
#
# Stress axis : x y z
#
# Youngs Moduli (GPa) = 128.26919 91.15413 75.54606
#
# Poissons Ratio (x) = 0.23515 0.10468
# Poissons Ratio (y) = 0.33090 0.04893
# Poissons Ratio (z) = 0.17774 0.05903
#
# Static dielectric constant tensor:
#      x y z
#    x 1.805510 -0.018100 0.038160 
#    y -0.018100 1.833450 0.052210 
#    z 0.038160 0.052210 1.847850 
# 
# From -- ./inp_files/43128.got.cif
#   From: 2010.05.17/outbox.cif.g08.bks.cpg/sg2_22_cif.got.tgz:43128.got - 2010.06.03 11:33:40.
