data_PCOD9061501
_publ_section_title
;
Structure prediction by ZEFSAII (Michael W. Deem and Ramdas Pophale) SiO2 
 PCOD9061501
Probable space group: P -1
;
_chemical_formula_sum "Si O2"
_cell_formula_units_Z 16
_cell_length_a 14.897199
_cell_length_b 8.600966
_cell_length_c 11.926072
_cell_angle_alpha 143.817474
_cell_angle_beta 46.783091
_cell_angle_gamma 122.709157
_cell_volume 657.167447
_symmetry_space_group_name_H-M "P -1"
_symmetry_group_IT_number 2
_symmetry_cell_setting 'triclinic'
loop_
_space_group_symop_operation_xyz
x,y,z
-x,-y,-z
loop_
_atom_site_type_symbol
_atom_site_label
_atom_site_fract_x
_atom_site_fract_y
_atom_site_fract_z
Si Si1 0.697402 0.518791 0.910117
Si Si2 0.871448 0.487552 0.442935
Si Si3 0.381691 0.244489 0.189038
Si Si4 0.043198 0.305648 0.750144
Si Si5 0.573779 0.536654 0.345339
Si Si6 0.080384 0.795376 0.556228
Si Si7 0.766407 0.242954 0.912758
Si Si8 0.503158 0.892923 0.223815
O O1 0.826553 0.442829 0.699070
O O2 0.723681 0.441384 0.968908
O O3 0.600723 0.324247 0.822443
O O4 0.625556 0.797262 0.129664
O O5 0.726283 0.540842 0.617012
O O6 0.911697 0.221704 0.324246
O O7 0.900280 0.539969 0.315887
O O8 0.948506 0.710168 0.572167
O O9 0.491678 0.383275 0.237100
O O10 0.306508 0.025441 0.192756
O O11 0.440578 0.101242 0.946889
O O12 0.911344 0.200514 0.758901
O O13 0.112168 0.060947 0.614694
O O14 0.000000 0.500000 0.000000
O O15 0.500000 0.500000 0.500000
O O16 0.562559 0.848225 0.520189
O O17 0.709177 0.399782 0.159650
#
# Coordination Sequence:
#
# PCOD9061501 Si02
#       8
#     2   2   2   2   2   2   2   2
#     4  11  23  45  71  98 140 186 231 294 361 422
#     4  11  24  45  75 100 136 190 241 288 361 426
#     4  12  23  46  72 101 140 184 234 294 355 425
#     4  12  28  45  68 111 147 184 242 300 350 435
#     4  12  26  42  70 106 137 186 236 292 355 427
#     4  11  23  46  75 101 136 192 240 289 362 425
#     4  12  24  45  70  99 141 190 233 289 361 424
#     4  11  25  45  69 105 140 179 239 290 353 428
#
# _framework density 24.346914000000002
#
# number of rings (size 3 to 8) (size 9 to 14) (size 15 to 20)
#    0.000    0.500    6.250    2.250    3.500    1.000 
#    2.250    0.000    0.000    0.000    0.000    0.000 
#    0.000    0.000    0.000    0.000    0.000    0.000 
#
# Total GULP energy -89327.143818 kJ/mol
# GULP energy per Si atom -5582.946489 kJ/mol
# Density = 2.429150 g / cm^3
# Si number density = 24.346914 Si / 1000 Ang^3
#
#
#
# Elastic Constant Matrix: (Units=GPa)
#
#
# Indices 1 2 3 4 5 6 
#
# 1 71.7807 19.9749 16.9010 -3.5230 -17.4463 -17.6244
# 2 19.9749 87.6990 23.4491 -17.3089 4.8929 -27.0216
# 3 16.9010 23.4491 90.1840 -8.7746 -11.5610 -6.5828
# 4 -3.5230 -17.3089 -8.7746 41.5099 -0.2657 -5.8033
# 5 -17.4463 4.8929 -11.5610 -0.2657 38.4267 -6.8542
# 6 -17.6244 -27.0216 -6.5828 -5.8033 -6.8542 47.1437
#
#
#
# Elastic Compliance Matrix: (Units=1/GPa)
#
#
# Indices 1 2 3 4 5 6 
#
# 1 0.019072 -0.001965 -0.001078 0.001684 0.009935 0.007505
# 2 -0.001965 0.017135 -0.002955 0.007637 -0.002254 0.009286
# 3 -0.001078 -0.002955 0.012716 0.001446 0.003795 0.000409
# 4 0.001684 0.007637 0.001446 0.029006 0.002047 0.009077
# 5 0.009935 -0.002254 0.003795 0.002047 0.033415 0.008063
# 6 0.007505 0.009286 0.000409 0.009077 0.008063 0.031687
#
#
# Mechanical properties :
#
#
# Convention : Reuss Voigt Hill
#
# Bulk Modulus (GPa) = 27.08096 41.14595 34.11346
# Shear Modulus (GPa) = 29.87999 38.03863 33.95931
#
# Velocity S-wave (km/s) = 3.50703 3.95696 3.73877
# Velocity P-wave (km/s) = 5.24844 6.14925 5.71661
#
# Compressibility (1/GPa) = 0.03692631
#
# Stress axis : x y z
#
# Youngs Moduli (GPa) = 52.43257 58.36087 78.64214
#
# Poissons Ratio (x) = 0.11470 0.08477
# Poissons Ratio (y) = 0.10305 0.23239
# Poissons Ratio (z) = 0.05652 0.17245
#
# Static dielectric constant tensor:
#      x y z
#    x 1.992880 -0.082080 0.034090 
#    y -0.082080 2.074440 -0.005310 
#    z 0.034090 -0.005310 2.083750 
# 
# From -- ./inp_files/448300.got.cif
#   From: 2010.05.17/outbox.cif.g08.bks.cpg/sg2_225_cif.got.tgz:448300.got - 2010.06.03 11:33:40.
