data_PCOD9061188
_publ_section_title
;
Structure prediction by ZEFSAII (Michael W. Deem and Ramdas Pophale) SiO2 
 PCOD9061188
Probable space group: P -1
;
_chemical_formula_sum "Si O2"
_cell_formula_units_Z 16
_cell_length_a 5.251049
_cell_length_b 11.548121
_cell_length_c 13.489900
_cell_angle_alpha 96.138590
_cell_angle_beta 54.024911
_cell_angle_gamma 79.444272
_cell_volume 626.690304
_symmetry_space_group_name_H-M "P -1"
_symmetry_group_IT_number 2
_symmetry_cell_setting 'triclinic'
loop_
_space_group_symop_operation_xyz
x,y,z
-x,-y,-z
loop_
_atom_site_type_symbol
_atom_site_label
_atom_site_fract_x
_atom_site_fract_y
_atom_site_fract_z
Si Si1 0.048772 0.513143 0.717160
Si Si2 0.368740 0.152521 0.324204
Si Si3 0.311546 0.768958 0.439507
Si Si4 0.645160 0.605688 0.541623
Si Si5 0.790389 0.140880 0.051610
Si Si6 0.702625 0.718970 0.972932
Si Si7 0.717014 0.940215 0.350090
Si Si8 0.748031 0.301639 0.763403
O O1 0.391288 0.546697 0.646037
O O2 0.058016 0.495699 0.591967
O O3 0.819627 0.618901 0.849338
O O4 0.955854 0.391453 0.759923
O O5 0.316784 0.286717 0.389797
O O6 0.455995 0.153478 0.191069
O O7 0.026596 0.134399 0.434230
O O8 0.673219 0.050808 0.295521
O O9 0.467367 0.688787 0.492570
O O10 0.527596 0.846485 0.349657
O O11 0.275765 0.685668 0.348535
O O12 0.640582 0.187744 0.983056
O O13 0.014470 0.219231 0.055338
O O14 0.000000 0.000000 0.000000
O O15 0.587318 0.666097 0.094488
O O16 0.067802 0.844464 0.283809
O O17 0.500000 0.000000 0.500000
#
# Coordination Sequence:
#
# PCOD9061188 Si02
#       8
#     2   2   2   2   2   2   2   2
#     4  11  23  50  70 105 147 192 249 304 368 441
#     4  12  24  44  74 107 145 188 244 311 375 441
#     4  12  23  41  70 109 141 189 241 303 383 431
#     4  11  23  44  74 104 147 182 246 312 371 432
#     4  12  29  53  77 112 150 198 251 308 371 446
#     4  12  29  51  77 109 149 205 253 299 372 447
#     4  12  23  42  66 107 148 184 241 304 378 444
#     4  12  27  45  69 105 147 199 243 307 369 442
#
# _framework density 25.530951000000002
#
# number of rings (size 3 to 8) (size 9 to 14) (size 15 to 20)
#    0.000    0.250    6.250    2.625    3.500    1.500 
#    0.000    1.875    0.000    0.000    0.000    0.000 
#    0.000    0.000    0.000    0.000    0.000    0.000 
#
# Total GULP energy -89329.784388 kJ/mol
# GULP energy per Si atom -5583.111524 kJ/mol
# Density = 2.547284 g / cm^3
# Si number density = 25.530951 Si / 1000 Ang^3
#
#
#
# Elastic Constant Matrix: (Units=GPa)
#
#
# Indices 1 2 3 4 5 6 
#
# 1 61.0335 15.4885 -3.5797 10.3188 -1.8149 -3.0321
# 2 15.4885 118.0972 19.3422 15.4627 -3.6539 -8.6160
# 3 -3.5797 19.3422 155.6519 2.5149 -0.2324 -2.9003
# 4 10.3188 15.4627 2.5149 30.8384 1.3334 1.7666
# 5 -1.8149 -3.6539 -0.2324 1.3334 25.6627 -6.2171
# 6 -3.0321 -8.6160 -2.9003 1.7666 -6.2171 40.9346
#
#
#
# Elastic Compliance Matrix: (Units=1/GPa)
#
#
# Indices 1 2 3 4 5 6 
#
# 1 0.017871 -0.001591 0.000727 -0.005402 0.001695 0.001531
# 2 -0.001591 0.009677 -0.001120 -0.004451 0.002054 0.002344
# 3 0.000727 -0.001120 0.006590 -0.000238 0.000037 0.000301
# 4 -0.005402 -0.004451 -0.000238 0.036851 -0.003785 -0.003519
# 5 0.001695 0.002054 0.000037 -0.003785 0.041270 0.006992
# 6 0.001531 0.002344 0.000301 -0.003519 0.006992 0.026271
#
#
# Mechanical properties :
#
#
# Convention : Reuss Voigt Hill
#
# Bulk Modulus (GPa) = 33.14724 44.14274 38.64499
# Shear Modulus (GPa) = 32.77477 39.72259 36.24868
#
# Velocity S-wave (km/s) = 3.58680 3.94872 3.77210
# Velocity P-wave (km/s) = 5.49225 6.17392 5.84304
#
# Compressibility (1/GPa) = 0.03016842
#
# Stress axis : x y z
#
# Youngs Moduli (GPa) = 55.95743 103.33541 151.74391
#
# Poissons Ratio (x) = 0.16445 -0.11033
# Poissons Ratio (y) = 0.08905 0.17003
# Poissons Ratio (z) = -0.04069 0.11579
#
# Static dielectric constant tensor:
#      x y z
#    x 2.202380 -0.026380 -0.072740 
#    y -0.026380 2.066220 -0.006390 
#    z -0.072740 -0.006390 2.013660 
# 
# From -- ./inp_files/482858.got.cif
#   From: 2010.05.17/outbox.cif.g08.bks.cpg/sg2_242_cif.got.tgz:482858.got - 2010.06.03 11:33:40.
