data_PCOD9061154
_publ_section_title
;
Structure prediction by ZEFSAII (Michael W. Deem and Ramdas Pophale) SiO2 
 PCOD9061154
Probable space group: P -1
;
_chemical_formula_sum "Si O2"
_cell_formula_units_Z 16
_cell_length_a 14.537227
_cell_length_b 9.668720
_cell_length_c 7.942516
_cell_angle_alpha 49.365430
_cell_angle_beta 51.208266
_cell_angle_gamma 73.911580
_cell_volume 643.958455
_symmetry_space_group_name_H-M "P -1"
_symmetry_group_IT_number 2
_symmetry_cell_setting 'triclinic'
loop_
_space_group_symop_operation_xyz
x,y,z
-x,-y,-z
loop_
_atom_site_type_symbol
_atom_site_label
_atom_site_fract_x
_atom_site_fract_y
_atom_site_fract_z
Si Si1 0.126065 0.744088 0.033766
Si Si2 0.614339 0.106316 0.391289
Si Si3 0.323157 0.165711 0.201578
Si Si4 0.488901 0.541727 0.779582
Si Si5 0.132579 0.997857 0.275494
Si Si6 0.761826 0.644898 0.304657
Si Si7 0.872738 0.355120 0.262604
Si Si8 0.129719 0.342682 0.479225
O O1 0.119517 0.522708 0.239996
O O2 0.005138 0.776267 0.234423
O O3 0.251649 0.865166 0.865068
O O4 0.132346 0.765908 0.806266
O O5 0.595567 0.314294 0.269559
O O6 0.500000 0.000000 0.500000
O O7 0.621173 0.988575 0.644743
O O8 0.249070 0.091622 0.180880
O O9 0.221617 0.230512 0.382526
O O10 0.430531 0.347115 0.912713
O O11 0.621861 0.638667 0.489656
O O12 0.500000 0.500000 0.000000
O O13 0.135780 0.780732 0.458888
O O14 0.156168 0.148826 0.980684
O O15 0.000000 0.000000 0.500000
O O16 0.779353 0.490157 0.271514
O O17 0.811689 0.580262 0.472532
O O18 0.000000 0.500000 0.000000
#
# Coordination Sequence:
#
# PCOD9061154 Si02
#       8
#     2   2   2   2   2   2   2   2
#     4  11  23  44  73 108 146 191 251 303 373 444
#     4  12  24  44  72 103 145 196 239 304 366 432
#     4  12  26  47  76 104 152 193 246 313 365 440
#     4  12  25  50  74 104 150 193 251 305 371 434
#     4  12  27  48  74 111 149 197 246 302 375 444
#     4  12  26  47  76 109 147 196 248 307 372 445
#     4  12  24  48  74 105 154 193 238 305 378 445
#     4  11  23  44  74 113 141 192 248 311 382 425
#
# _framework density 24.846322000000001
#
# number of rings (size 3 to 8) (size 9 to 14) (size 15 to 20)
#    0.000    0.250    7.500    0.750    0.000    2.000 
#    6.750    1.250    0.000    0.000    0.000    0.000 
#    0.000    0.000    0.000    0.000    0.000    0.000 
#
# Total GULP energy -89606.118861 kJ/mol
# GULP energy per Si atom -5600.382429 kJ/mol
# Density = 2.478977 g / cm^3
# Si number density = 24.846322 Si / 1000 Ang^3
#
#
#
# Elastic Constant Matrix: (Units=GPa)
#
#
# Indices 1 2 3 4 5 6 
#
# 1 93.8341 -7.2410 5.9962 -5.1458 -13.4169 -4.7529
# 2 -7.2410 59.5807 23.4273 -16.8782 9.0613 -18.5752
# 3 5.9962 23.4273 111.0350 -9.9477 -18.6590 -17.0200
# 4 -5.1458 -16.8782 -9.9477 45.8190 -11.0532 -2.8249
# 5 -13.4169 9.0613 -18.6590 -11.0532 62.7883 -7.2043
# 6 -4.7529 -18.5752 -17.0200 -2.8249 -7.2043 39.3368
#
#
#
# Elastic Compliance Matrix: (Units=1/GPa)
#
#
# Indices 1 2 3 4 5 6 
#
# 1 0.011709 0.003031 0.000136 0.003448 0.003140 0.003728
# 2 0.003031 0.024541 -0.002946 0.009223 -0.000863 0.011185
# 3 0.000136 -0.002946 0.011415 0.002875 0.004888 0.004666
# 4 0.003448 0.009223 0.002875 0.028321 0.006302 0.009204
# 5 0.003140 -0.000863 0.004888 0.006302 0.019995 0.006201
# 6 0.003728 0.011185 0.004666 0.009204 0.006201 0.034969
#
#
# Mechanical properties :
#
#
# Convention : Reuss Voigt Hill
#
# Bulk Modulus (GPa) = 20.78679 34.31277 27.54978
# Shear Modulus (GPa) = 34.11937 45.73997 39.92967
#
# Velocity S-wave (km/s) = 3.70971 4.29524 4.01317
# Velocity P-wave (km/s) = 5.17045 6.19990 5.70843
#
# Compressibility (1/GPa) = 0.04810748
#
# Stress axis : x y z
#
# Youngs Moduli (GPa) = 85.40303 40.74745 87.60764
#
# Poissons Ratio (x) = -0.12351 -0.01193
# Poissons Ratio (y) = -0.25886 0.25809
# Poissons Ratio (z) = -0.01163 0.12004
#
# Static dielectric constant tensor:
#      x y z
#    x 1.945720 0.027520 0.026770 
#    y 0.027520 2.021980 0.000110 
#    z 0.026770 0.000110 1.982630 
# 
# From -- ./inp_files/306171.got.cif
#   From: 2010.05.17/outbox.cif.g08.bks.cpg/sg2_154_cif.got.tgz:306171.got - 2010.06.03 11:33:40.
