data_PCOD9061903
_publ_section_title
;
Structure prediction by ZEFSAII (Michael W. Deem and Ramdas Pophale) SiO2 
 PCOD9061903
Probable space group: P -1
;
_chemical_formula_sum "Si O2"
_cell_formula_units_Z 16
_cell_length_a 17.327538
_cell_length_b 20.273419
_cell_length_c 11.752951
_cell_angle_alpha 40.334023
_cell_angle_beta 151.192403
_cell_angle_gamma 158.374810
_cell_volume 700.694228
_symmetry_space_group_name_H-M "P -1"
_symmetry_group_IT_number 2
_symmetry_cell_setting 'triclinic'
loop_
_space_group_symop_operation_xyz
x,y,z
-x,-y,-z
loop_
_atom_site_type_symbol
_atom_site_label
_atom_site_fract_x
_atom_site_fract_y
_atom_site_fract_z
Si Si1 0.741841 0.852245 0.266995
Si Si2 0.181298 0.072591 0.985088
Si Si3 0.483017 0.236933 0.491288
Si Si4 0.013110 0.783554 0.686663
Si Si5 0.225407 0.871303 0.394320
Si Si6 0.473483 0.002018 0.789333
Si Si7 0.278305 0.585663 0.199627
Si Si8 0.627928 0.456943 0.188876
O O1 0.436601 0.706164 0.131194
O O2 0.803449 0.767647 0.420751
O O3 0.758680 0.919677 0.080562
O O4 0.000000 0.000000 0.500000
O O5 0.421027 0.278815 0.073982
O O6 0.159848 0.956056 0.180471
O O7 0.858964 0.949368 0.737621
O O8 0.601398 0.185503 0.706085
O O9 0.497612 0.284032 0.577066
O O10 0.646054 0.400282 0.402338
O O11 0.816164 0.580329 0.720358
O O12 0.220520 0.871753 0.729846
O O13 0.256349 0.923253 0.917908
O O14 0.945707 0.652576 0.290777
O O15 0.500000 0.000000 0.500000
O O16 0.323093 0.898671 0.612356
O O17 0.000000 0.500000 0.000000
O O18 0.500000 0.500000 0.000000
#
# Coordination Sequence:
#
# PCOD9061903 Si02
#       8
#     2   2   2   2   2   2   2   2
#     4  12  27  47  72 106 147 194 238 306 372 432
#     4  12  26  47  75 108 151 189 251 309 364 441
#     4  12  22  46  75 105 147 190 246 310 367 435
#     4  11  25  43  75 107 145 194 246 300 366 445
#     4  12  29  48  73 108 151 195 243 310 373 438
#     4  11  23  46  73 105 146 194 243 304 371 430
#     4  12  26  45  71 110 143 193 248 303 366 443
#     4  12  26  46  79 106 139 195 248 300 372 443
#
# _framework density 22.834496999999999
#
# number of rings (size 3 to 8) (size 9 to 14) (size 15 to 20)
#    0.000    0.250    6.250    2.250    5.250    2.500 
#    0.000    0.000    0.000    0.000    0.000    0.000 
#    0.000    0.000    0.000    0.000    0.000    0.000 
#
# Total GULP energy -89570.135446 kJ/mol
# GULP energy per Si atom -5598.133465 kJ/mol
# Density = 2.278252 g / cm^3
# Si number density = 22.834497 Si / 1000 Ang^3
#
#
#
# Elastic Constant Matrix: (Units=GPa)
#
#
# Indices 1 2 3 4 5 6 
#
# 1 82.4318 26.9979 25.4265 12.7715 -18.7693 24.7928
# 2 26.9979 136.1744 21.5832 10.3846 -8.2861 8.3185
# 3 25.4265 21.5832 84.3828 4.3795 -12.6442 8.9285
# 4 12.7715 10.3846 4.3795 35.5127 0.4122 -4.8189
# 5 -18.7693 -8.2861 -12.6442 0.4122 38.8957 5.0989
# 6 24.7928 8.3185 8.9285 -4.8189 5.0989 42.0313
#
#
#
# Elastic Compliance Matrix: (Units=1/GPa)
#
#
# Indices 1 2 3 4 5 6 
#
# 1 0.021755 -0.001662 -0.002433 -0.009125 0.011339 -0.014408
# 2 -0.001662 0.008085 -0.001328 -0.001691 0.000586 -0.000603
# 3 -0.002433 -0.001328 0.013613 -0.000678 0.003193 -0.001659
# 4 -0.009125 -0.001691 -0.000678 0.033524 -0.006718 0.010519
# 5 0.011339 0.000586 0.003193 -0.006718 0.034038 -0.012382
# 6 -0.014408 -0.000603 -0.001659 0.010519 -0.012382 0.035471
#
#
# Mechanical properties :
#
#
# Convention : Reuss Voigt Hill
#
# Bulk Modulus (GPa) = 30.66797 50.11157 40.38977
# Shear Modulus (GPa) = 29.72656 38.55337 34.13996
#
# Velocity S-wave (km/s) = 3.61200 4.11345 3.87085
# Velocity P-wave (km/s) = 5.55473 6.67487 6.14040
#
# Compressibility (1/GPa) = 0.03260731
#
# Stress axis : x y z
#
# Youngs Moduli (GPa) = 45.96650 123.68769 73.46111
#
# Poissons Ratio (x) = 0.20551 0.17874
# Poissons Ratio (y) = 0.07638 0.09755
# Poissons Ratio (z) = 0.11184 0.16424
#
# Static dielectric constant tensor:
#      x y z
#    x 1.880230 -0.031520 0.020450 
#    y -0.031520 1.855740 -0.008570 
#    z 0.020450 -0.008570 1.948750 
# 
# From -- ./inp_files/402990.got.cif
#   From: 2010.05.17/outbox.cif.g08.bks.cpg/sg2_202_cif.got.tgz:402990.got - 2010.06.03 11:33:40.
