data_PCOD9061542
_publ_section_title
;
Structure prediction by ZEFSAII (Michael W. Deem and Ramdas Pophale) SiO2 
 PCOD9061542
Probable space group: P -1
;
_chemical_formula_sum "Si O2"
_cell_formula_units_Z 10
_cell_length_a 8.532714
_cell_length_b 13.053977
_cell_length_c 10.276947
_cell_angle_alpha 148.742745
_cell_angle_beta 136.079544
_cell_angle_gamma 56.183231
_cell_volume 406.397446
_symmetry_space_group_name_H-M "P -1"
_symmetry_group_IT_number 2
_symmetry_cell_setting 'triclinic'
loop_
_space_group_symop_operation_xyz
x,y,z
-x,-y,-z
loop_
_atom_site_type_symbol
_atom_site_label
_atom_site_fract_x
_atom_site_fract_y
_atom_site_fract_z
Si Si1 0.665897 0.011906 0.813318
Si Si2 0.254899 0.856259 0.726610
Si Si3 0.040474 0.301996 0.227291
Si Si4 0.253079 0.440602 0.224141
Si Si5 0.821147 0.903171 0.394901
O O1 0.395847 0.986169 0.598911
O O2 0.767583 0.816165 0.715041
O O3 0.710535 0.170436 0.130783
O O4 0.809052 0.141234 0.928840
O O5 0.213078 0.660845 0.400524
O O6 0.999488 0.907579 0.622964
O O7 0.500000 0.000000 0.000000
O O8 0.103953 0.352720 0.167229
O O9 0.000000 0.500000 0.500000
O O10 0.500000 0.500000 0.500000
O O11 0.261023 0.307939 0.956971
O O12 0.000000 0.000000 0.500000
#
# Coordination Sequence:
#
# PCOD9061542 Si02
#       5
#     2   2   2   2   2
#     4  11  24  45  74 102 143 187 235 294 355 420
#     4  12  23  44  73 104 141 184 236 296 352 416
#     4  11  23  45  73 100 145 192 231 290 358 420
#     4  12  23  43  74 106 140 187 237 292 353 421
#     4  12  24  43  73 109 140 184 240 295 354 420
#
# _framework density 24.606452999999998
#
# number of rings (size 3 to 8) (size 9 to 14) (size 15 to 20)
#    0.000    0.400    6.000    3.000    0.000    0.000 
#    3.600   10.000    0.000    0.000    0.000    0.000 
#    0.000    0.000    0.000    0.000    0.000    0.000 
#
# Total GULP energy -55669.845418 kJ/mol
# GULP energy per Si atom -5566.984542 kJ/mol
# Density = 2.455045 g / cm^3
# Si number density = 24.606453 Si / 1000 Ang^3
#
#
#
# Elastic Constant Matrix: (Units=GPa)
#
#
# Indices 1 2 3 4 5 6 
#
# 1 140.4580 54.1086 43.6235 -0.8294 20.3390 -15.5334
# 2 54.1086 123.5033 59.2266 -15.8108 19.9696 -43.0821
# 3 43.6235 59.2266 107.4757 5.1602 -5.9307 -18.5434
# 4 -0.8294 -15.8108 5.1602 59.6823 -10.8739 1.5015
# 5 20.3390 19.9696 -5.9307 -10.8739 51.6176 -2.6356
# 6 -15.5334 -43.0821 -18.5434 1.5015 -2.6356 57.8299
#
#
#
# Elastic Compliance Matrix: (Units=1/GPa)
#
#
# Indices 1 2 3 4 5 6 
#
# 1 0.009324 -0.002592 -0.002551 -0.000906 -0.003174 -0.000366
# 2 -0.002592 0.017525 -0.007428 0.004047 -0.005268 0.009632
# 3 -0.002551 -0.007428 0.014606 -0.002323 0.005004 -0.001247
# 4 -0.000906 0.004047 -0.002323 0.018428 0.002491 0.001662
# 5 -0.003174 -0.005268 0.005004 0.002491 0.023651 -0.002159
# 6 -0.000366 0.009632 -0.001247 0.001662 -0.002159 0.023828
#
#
# Mechanical properties :
#
#
# Convention : Reuss Voigt Hill
#
# Bulk Modulus (GPa) = 61.30415 76.15049 68.72732
# Shear Modulus (GPa) = 36.24714 48.12452 42.18583
#
# Velocity S-wave (km/s) = 3.84223 4.42720 4.14505
# Velocity P-wave (km/s) = 6.68218 7.55963 7.13441
#
# Compressibility (1/GPa) = 0.01631211
#
# Stress axis : x y z
#
# Youngs Moduli (GPa) = 107.24826 57.06234 68.46582
#
# Poissons Ratio (x) = 0.14791 0.17465
# Poissons Ratio (y) = 0.27799 0.50859
# Poissons Ratio (z) = 0.27359 0.42388
#
# Static dielectric constant tensor:
#      x y z
#    x 2.164710 -0.305120 -0.077750 
#    y -0.305120 2.416260 0.355780 
#    z -0.077750 0.355780 2.030280 
# 
# From -- ./inp_files/395006.got.cif
#   From: 2010.05.17/outbox.cif.g08.bks.cpg/sg2_198_cif.got.tgz:395006.got - 2010.06.03 11:33:40.
