data_PCOD9061060
_publ_section_title
;
Structure prediction by ZEFSAII (Michael W. Deem and Ramdas Pophale) SiO2 
 PCOD9061060
Probable space group: P -1
;
_chemical_formula_sum "Si O2"
_cell_formula_units_Z 16
_cell_length_a 8.731965
_cell_length_b 13.599090
_cell_length_c 8.611354
_cell_angle_alpha 78.194748
_cell_angle_beta 50.299642
_cell_angle_gamma 71.289669
_cell_volume 745.182763
_symmetry_space_group_name_H-M "P -1"
_symmetry_group_IT_number 2
_symmetry_cell_setting 'triclinic'
loop_
_space_group_symop_operation_xyz
x,y,z
-x,-y,-z
loop_
_atom_site_type_symbol
_atom_site_label
_atom_site_fract_x
_atom_site_fract_y
_atom_site_fract_z
Si Si1 0.702802 0.783808 0.971697
Si Si2 0.556342 0.273998 0.369799
Si Si3 0.986725 0.216371 0.971669
Si Si4 0.737045 0.616496 0.730529
Si Si5 0.310977 0.100237 0.591263
Si Si6 0.088948 0.100177 0.408532
Si Si7 0.330207 0.726100 0.369661
Si Si8 0.146428 0.616408 0.269293
O O1 0.714576 0.701638 0.851776
O O2 0.752643 0.886160 0.832627
O O3 0.483261 0.793961 0.189696
O O4 0.878017 0.743712 0.999964
O O5 0.777302 0.206226 0.189611
O O6 0.407651 0.198348 0.514215
O O7 0.589315 0.321370 0.500172
O O8 0.452124 0.352973 0.277368
O O9 0.916387 0.298635 0.851912
O O10 0.138762 0.114014 0.832409
O O11 0.766874 0.500090 0.810117
O O12 0.940939 0.618137 0.499941
O O13 0.197086 0.106091 0.499833
O O14 0.500000 0.000000 0.500000
O O15 0.894190 0.198313 0.485642
O O16 0.000000 0.000000 0.500000
O O17 0.305026 0.647163 0.276994
#
# Coordination Sequence:
#
# PCOD9061060 Si02
#       8
#     2   2   2   2   2   2   2   2
#     4  12  24  44  71  98 138 184 226 281 344 404
#     4  12  23  44  70  98 142 183 226 284 339 403
#     4  12  24  44  71  98 138 184 226 281 344 404
#     4  11  23  44  72 103 140 182 229 284 344 409
#     4  12  26  47  68 102 135 177 233 286 339 410
#     4  12  26  47  68 102 135 177 233 286 339 410
#     4  12  23  44  70  98 142 183 226 284 339 403
#     4  11  23  44  72 103 140 182 229 284 344 409
#
# _framework density 21.471242
#
# number of rings (size 3 to 8) (size 9 to 14) (size 15 to 20)
#    0.000    0.250    7.500    1.500    0.000    4.000 
#    0.000    0.000    0.000    0.000    0.000    0.000 
#    0.000    0.000    0.000    0.000    0.000    0.000 
#
# Total GULP energy -89483.715494 kJ/mol
# GULP energy per Si atom -5592.732218 kJ/mol
# Density = 2.142237 g / cm^3
# Si number density = 21.471242 Si / 1000 Ang^3
#
#
#
# Elastic Constant Matrix: (Units=GPa)
#
#
# Indices 1 2 3 4 5 6 
#
# 1 167.2244 23.2067 36.4835 -1.5491 21.0455 -3.1056
# 2 23.2067 62.4923 0.8750 1.4077 11.7584 0.1908
# 3 36.4835 0.8750 107.1014 -2.4524 -9.9022 -1.2383
# 4 -1.5491 1.4077 -2.4524 11.1722 -0.7069 -10.9958
# 5 21.0455 11.7584 -9.9022 -0.7069 52.7756 -1.4984
# 6 -3.1056 0.1908 -1.2383 -10.9958 -1.4984 21.3563
#
#
#
# Elastic Compliance Matrix: (Units=1/GPa)
#
#
# Indices 1 2 3 4 5 6 
#
# 1 0.007276 -0.002198 -0.002640 0.002522 -0.002816 0.002026
# 2 -0.002198 0.017594 0.000099 -0.006876 -0.003237 -0.004239
# 3 -0.002640 0.000099 0.010690 0.005317 0.003198 0.003197
# 4 0.002522 -0.006876 0.005317 0.189607 0.006870 0.098842
# 5 -0.002816 -0.003237 0.003198 0.006870 0.021622 0.004859
# 6 0.002026 -0.004239 0.003197 0.098842 0.004859 0.098574
#
#
# Mechanical properties :
#
#
# Convention : Reuss Voigt Hill
#
# Bulk Modulus (GPa) = 38.34010 50.88317 44.61163
# Shear Modulus (GPa) = 13.75383 35.47768 24.61576
#
# Velocity S-wave (km/s) = 2.53369 4.06930 3.38960
# Velocity P-wave (km/s) = 5.14342 6.76969 6.01180
#
# Compressibility (1/GPa) = 0.02608235
#
# Stress axis : x y z
#
# Youngs Moduli (GPa) = 137.43131 56.83809 93.54716
#
# Poissons Ratio (x) = 0.12495 0.24695
# Poissons Ratio (y) = 0.30211 -0.00929
# Poissons Ratio (z) = 0.36280 -0.00565
#
# Static dielectric constant tensor:
#      x y z
#    x 1.761070 0.000240 -0.010460 
#    y 0.000240 1.757500 -0.001560 
#    z -0.010460 -0.001560 1.812270 
# 
# From -- ./inp_files/206668.got.cif
#   From: 2010.05.17/outbox.cif.g08.bks.cpg/sg2_104_cif.got.tgz:206668.got - 2010.06.03 11:33:40.
