data_PCOD9061485
_publ_section_title
;
Structure prediction by ZEFSAII (Michael W. Deem and Ramdas Pophale) SiO2 
 PCOD9061485
Probable space group: P -1
;
_chemical_formula_sum "Si O2"
_cell_formula_units_Z 10
_cell_length_a 6.855327
_cell_length_b 8.251971
_cell_length_c 10.361567
_cell_angle_alpha 43.199902
_cell_angle_beta 103.771512
_cell_angle_gamma 86.658067
_cell_volume 365.256252
_symmetry_space_group_name_H-M "P -1"
_symmetry_group_IT_number 2
_symmetry_cell_setting 'triclinic'
loop_
_space_group_symop_operation_xyz
x,y,z
-x,-y,-z
loop_
_atom_site_type_symbol
_atom_site_label
_atom_site_fract_x
_atom_site_fract_y
_atom_site_fract_z
Si Si1 0.110903 0.324625 0.997563
Si Si2 0.236714 0.964636 0.607985
Si Si3 0.296050 0.393257 0.725229
Si Si4 0.561469 0.185246 0.539781
Si Si5 0.235023 0.905189 0.931515
O O1 0.946063 0.197568 0.991881
O O2 0.308085 0.084450 0.219969
O O3 0.191144 0.450425 0.818268
O O4 0.000000 0.500000 0.000000
O O5 0.393716 0.820046 0.603053
O O6 0.266174 0.836134 0.825384
O O7 0.313596 0.208686 0.498299
O O8 0.000000 0.000000 0.500000
O O9 0.319628 0.621680 0.512583
O O10 0.189697 0.203814 0.758304
O O11 0.546789 0.230155 0.880380
#
# Coordination Sequence:
#
# PCOD9061485 Si02
#       5
#     2   2   2   2   2
#     4  12  26  46  73 104 145 188 239 293 345 421
#     4  11  23  45  71 106 139 180 242 290 353 415
#     4  11  27  47  69 105 145 186 239 287 357 427
#     4  11  26  44  72 105 139 187 239 290 350 421
#     4  11  25  47  70 103 147 187 230 299 355 417
#
# _framework density 27.378039999999999
#
# number of rings (size 3 to 8) (size 9 to 14) (size 15 to 20)
#    0.000    0.800    4.000    1.800    5.600    3.200 
#    0.000    0.000    0.000    0.000    0.000    0.000 
#    0.000    0.000    0.000    0.000    0.000    0.000 
#
# Total GULP energy -55987.722105 kJ/mol
# GULP energy per Si atom -5598.772211 kJ/mol
# Density = 2.731573 g / cm^3
# Si number density = 27.378040 Si / 1000 Ang^3
#
#
#
# Elastic Constant Matrix: (Units=GPa)
#
#
# Indices 1 2 3 4 5 6 
#
# 1 203.2252 42.3845 56.9039 -16.8013 -36.1286 52.6930
# 2 42.3845 90.1070 15.7675 -12.6441 -12.0393 5.3941
# 3 56.9039 15.7675 92.4002 -17.5430 -19.7319 4.3665
# 4 -16.8013 -12.6441 -17.5430 37.5543 4.4836 -19.2862
# 5 -36.1286 -12.0393 -19.7319 4.4836 53.7254 4.5162
# 6 52.6930 5.3941 4.3665 -19.2862 4.5162 56.9063
#
#
#
# Elastic Compliance Matrix: (Units=1/GPa)
#
#
# Indices 1 2 3 4 5 6 
#
# 1 0.010654 -0.003382 -0.005204 -0.005383 0.005906 -0.011438
# 2 -0.003382 0.013087 0.000672 0.004989 0.000193 0.003515
# 3 -0.005204 0.000672 0.015404 0.008176 0.001100 0.006257
# 4 -0.005383 0.004989 0.008176 0.039219 -0.004244 0.017513
# 5 0.005906 0.000193 0.001100 -0.004244 0.024136 -0.008925
# 6 -0.011438 0.003515 0.006257 0.017513 -0.008925 0.033994
#
#
# Mechanical properties :
#
#
# Convention : Reuss Voigt Hill
#
# Bulk Modulus (GPa) = 42.88844 68.42712 55.65778
# Shear Modulus (GPa) = 31.23139 47.68230 39.45684
#
# Velocity S-wave (km/s) = 3.38116 4.17781 3.80041
# Velocity P-wave (km/s) = 5.56258 6.95124 6.29532
#
# Compressibility (1/GPa) = 0.02331631
#
# Stress axis : x y z
#
# Youngs Moduli (GPa) = 93.86302 76.41346 64.91702
#
# Poissons Ratio (x) = 0.25844 0.33784
# Poissons Ratio (y) = 0.31746 -0.04363
# Poissons Ratio (z) = 0.48848 -0.05136
#
# Static dielectric constant tensor:
#      x y z
#    x 2.088300 0.043460 0.007910 
#    y 0.043460 2.322820 -0.131090 
#    z 0.007910 -0.131090 2.148120 
# 
# From -- ./inp_files/360519.got.cif
#   From: 2010.05.17/outbox.cif.g08.bks.cpg/sg2_181_cif.got.tgz:360519.got - 2010.06.03 11:33:40.
