data_PCOD9061777
_publ_section_title
;
Structure prediction by ZEFSAII (Michael W. Deem and Ramdas Pophale) SiO2 
 PCOD9061777
Probable space group: P -1
;
_chemical_formula_sum "Si O2"
_cell_formula_units_Z 14
_cell_length_a 18.035139
_cell_length_b 6.566195
_cell_length_c 8.595837
_cell_angle_alpha 98.127702
_cell_angle_beta 139.623457
_cell_angle_gamma 79.028076
_cell_volume 647.364199
_symmetry_space_group_name_H-M "P -1"
_symmetry_group_IT_number 2
_symmetry_cell_setting 'triclinic'
loop_
_space_group_symop_operation_xyz
x,y,z
-x,-y,-z
loop_
_atom_site_type_symbol
_atom_site_label
_atom_site_fract_x
_atom_site_fract_y
_atom_site_fract_z
Si Si1 0.591700 0.490676 0.779815
Si Si2 0.518284 0.708121 0.140907
Si Si3 0.209888 0.853445 0.964568
Si Si4 0.928300 0.871320 0.991616
Si Si5 0.056403 0.646245 0.476570
Si Si6 0.665057 0.918387 0.065743
Si Si7 0.215456 0.308030 0.512170
O O1 0.500000 0.500000 0.500000
O O2 0.531178 0.342685 0.779018
O O3 0.714698 0.369068 0.914632
O O4 0.611465 0.707604 0.915237
O O5 0.654467 0.713050 0.347944
O O6 0.500000 0.500000 0.000000
O O7 0.431092 0.915539 0.990007
O O8 0.104331 0.815490 0.680404
O O9 0.167746 0.958648 0.068245
O O10 0.285070 0.998715 0.003338
O O11 0.984262 0.749589 0.222752
O O12 0.870256 0.719430 0.767988
O O13 0.000000 0.000000 0.000000
O O14 0.166209 0.511939 0.552683
O O15 0.000000 0.500000 0.500000
O O16 0.770048 0.868689 0.350228
#
# Coordination Sequence:
#
# PCOD9061777 Si02
#       7
#     2   2   2   2   2   2   2
#     4  11  26  41  70 101 141 184 236 288 349 446
#     4  11  24  42  67 107 139 181 233 285 363 437
#     4  11  25  46  72 100 139 191 237 285 369 430
#     4  12  28  45  69 109 141 181 246 313 351 410
#     4  12  25  49  74  99 141 193 247 293 358 433
#     4  11  23  46  70 101 144 191 231 283 366 443
#     4  12  24  43  72 102 141 184 231 301 362 412
#
# _framework density 21.626156000000002
#
# number of rings (size 3 to 8) (size 9 to 14) (size 15 to 20)
#    0.000    0.571    2.857    4.714    4.000    2.286 
#    0.000    0.000    0.000    0.000    0.000    0.000 
#    0.000    0.000    0.000    0.000    0.000    0.000 
#
# Total GULP energy -78049.377930 kJ/mol
# GULP energy per Si atom -5574.955566 kJ/mol
# Density = 2.157693 g / cm^3
# Si number density = 21.626156 Si / 1000 Ang^3
#
#
#
# Elastic Constant Matrix: (Units=GPa)
#
#
# Indices 1 2 3 4 5 6 
#
# 1 108.6087 20.1973 -5.8141 -5.4695 0.8403 1.3766
# 2 20.1973 75.3123 11.6729 -18.5388 -0.3609 -9.7137
# 3 -5.8141 11.6729 90.8950 -12.5225 -16.3651 6.9695
# 4 -5.4695 -18.5388 -12.5225 32.8952 -0.4866 4.5054
# 5 0.8403 -0.3609 -16.3651 -0.4866 35.2245 -1.1620
# 6 1.3766 -9.7137 6.9695 4.5054 -1.1620 47.6234
#
#
#
# Elastic Compliance Matrix: (Units=1/GPa)
#
#
# Indices 1 2 3 4 5 6 
#
# 1 0.009839 -0.002800 0.001215 0.000674 0.000274 -0.001090
# 2 -0.002800 0.016583 -0.001488 0.007909 -0.000249 0.002927
# 3 0.001215 -0.001488 0.013232 0.004844 0.006085 -0.002585
# 4 0.000674 0.007909 0.004844 0.037205 0.002745 -0.002568
# 5 0.000274 -0.000249 0.006085 0.002745 0.031230 -0.000447
# 6 -0.001090 0.002927 -0.002585 -0.002568 -0.000447 0.022237
#
#
# Mechanical properties :
#
#
# Convention : Reuss Voigt Hill
#
# Bulk Modulus (GPa) = 29.84603 36.32535 33.08569
# Shear Modulus (GPa) = 33.86564 39.73261 36.79913
#
# Velocity S-wave (km/s) = 3.96151 4.29096 4.12952
# Velocity P-wave (km/s) = 5.89539 6.43298 6.17004
#
# Compressibility (1/GPa) = 0.03350530
#
# Stress axis : x y z
#
# Youngs Moduli (GPa) = 101.63864 60.30310 75.57630
#
# Poissons Ratio (x) = 0.16887 -0.09181
# Poissons Ratio (y) = 0.28463 0.11249
# Poissons Ratio (z) = -0.12347 0.08975
#
# Static dielectric constant tensor:
#      x y z
#    x 1.767860 0.010130 0.034420 
#    y 0.010130 1.728770 -0.017280 
#    z 0.034420 -0.017280 1.767210 
# 
# From -- ./inp_files/84437.got.cif
#   From: 2010.05.17/outbox.cif.g08.bks.cpg/sg2_43_cif.got.tgz:84437.got - 2010.06.03 11:33:40.
