data_PCOD9061148
_publ_section_title
;
Structure prediction by ZEFSAII (Michael W. Deem and Ramdas Pophale) SiO2 
 PCOD9061148
Probable space group: P -1
;
_chemical_formula_sum "Si O2"
_cell_formula_units_Z 16
_cell_length_a 10.904113
_cell_length_b 10.430151
_cell_length_c 9.954072
_cell_angle_alpha 51.478114
_cell_angle_beta 127.698967
_cell_angle_gamma 116.597437
_cell_volume 696.708786
_symmetry_space_group_name_H-M "P -1"
_symmetry_group_IT_number 2
_symmetry_cell_setting 'triclinic'
loop_
_space_group_symop_operation_xyz
x,y,z
-x,-y,-z
loop_
_atom_site_type_symbol
_atom_site_label
_atom_site_fract_x
_atom_site_fract_y
_atom_site_fract_z
Si Si1 0.395432 0.795382 0.696854
Si Si2 0.789769 0.015212 0.193615
Si Si3 0.572713 0.809793 0.542037
Si Si4 0.395392 0.307075 0.852941
Si Si5 0.619482 0.312648 0.768645
Si Si6 0.884091 0.851668 0.621946
Si Si7 0.942514 0.517009 0.799387
Si Si8 0.857715 0.488251 0.309906
O O1 0.484966 0.741070 0.659910
O O2 0.225402 0.696416 0.644798
O O3 0.404022 0.991444 0.562629
O O4 0.486298 0.746050 0.921001
O O5 0.705602 0.854336 0.170759
O O6 0.808308 0.975912 0.389642
O O7 0.971459 0.068338 0.246558
O O8 0.692273 0.165011 0.993031
O O9 0.479086 0.759646 0.377034
O O10 0.746794 0.762013 0.677331
O O11 0.275089 0.411886 0.779985
O O12 0.501698 0.384311 0.749244
O O13 0.766830 0.429413 0.734822
O O14 0.939891 0.712595 0.651942
O O15 0.061552 0.453279 0.814673
O O16 0.000000 0.500000 0.000000
O O17 0.000000 0.500000 0.500000
#
# Coordination Sequence:
#
# PCOD9061148 Si02
#       8
#     2   2   2   2   2   2   2   2
#     4  11  26  46  69 104 146 182 228 296 353 419
#     4  11  23  44  73 107 136 184 236 293 344 422
#     4  11  25  44  73 105 139 180 237 295 349 411
#     4  12  25  45  75 102 139 189 233 284 357 418
#     4  12  24  47  76 106 138 183 242 293 341 421
#     4  11  25  42  74 104 141 183 237 287 352 414
#     4  12  27  46  72 104 142 184 236 292 343 415
#     4  12  29  48  68 103 147 189 227 285 362 421
#
# _framework density 22.965116999999999
#
# number of rings (size 3 to 8) (size 9 to 14) (size 15 to 20)
#    0.000    0.500    3.750    3.750    8.750    0.500 
#    0.000    1.250    0.000    0.000    0.000    0.000 
#    0.000    0.000    0.000    0.000    0.000    0.000 
#
# Total GULP energy -89562.724354 kJ/mol
# GULP energy per Si atom -5597.670272 kJ/mol
# Density = 2.291285 g / cm^3
# Si number density = 22.965117 Si / 1000 Ang^3
#
#
#
# Elastic Constant Matrix: (Units=GPa)
#
#
# Indices 1 2 3 4 5 6 
#
# 1 179.4895 64.2563 21.9248 19.3668 -19.7063 17.8837
# 2 64.2563 139.4881 39.9538 23.9392 3.3369 27.4339
# 3 21.9248 39.9538 84.5802 30.3318 -8.0449 8.0535
# 4 19.3668 23.9392 30.3318 41.4762 1.7011 5.9454
# 5 -19.7063 3.3369 -8.0449 1.7011 25.3045 8.3668
# 6 17.8837 27.4339 8.0535 5.9454 8.3668 39.2719
#
#
#
# Elastic Compliance Matrix: (Units=1/GPa)
#
#
# Indices 1 2 3 4 5 6 
#
# 1 0.008110 -0.003284 0.001619 -0.002981 0.008485 -0.003088
# 2 -0.003284 0.010933 -0.003811 -0.001209 -0.003676 -0.004394
# 3 0.001619 -0.003811 0.018683 -0.012309 0.009192 -0.002001
# 4 -0.002981 -0.001209 -0.012309 0.035385 -0.008871 0.001259
# 5 0.008485 -0.003676 0.009192 -0.008871 0.054582 -0.013466
# 6 -0.003088 -0.004394 -0.002001 0.001259 -0.013466 0.033028
#
#
# Mechanical properties :
#
#
# Convention : Reuss Voigt Hill
#
# Bulk Modulus (GPa) = 37.34897 72.86974 55.10936
# Shear Modulus (GPa) = 27.68579 39.70538 33.69559
#
# Velocity S-wave (km/s) = 3.47588 4.16257 3.83463
# Velocity P-wave (km/s) = 5.69277 7.40960 6.60718
#
# Compressibility (1/GPa) = 0.02677450
#
# Stress axis : x y z
#
# Youngs Moduli (GPa) = 123.30433 91.46546 53.52500
#
# Poissons Ratio (x) = 0.30035 -0.08665
# Poissons Ratio (y) = 0.40491 0.20398
# Poissons Ratio (z) = -0.19962 0.34856
#
# Static dielectric constant tensor:
#      x y z
#    x 1.930460 -0.003870 0.015030 
#    y -0.003870 1.858730 -0.051290 
#    z 0.015030 -0.051290 1.841340 
# 
# From -- ./inp_files/423080.got.cif
#   From: 2010.05.17/outbox.cif.g08.bks.cpg/sg2_212_cif.got.tgz:423080.got - 2010.06.03 11:33:40.
