data_PCOD9061141
_publ_section_title
;
Structure prediction by ZEFSAII (Michael W. Deem and Ramdas Pophale) SiO2 
 PCOD9061141
Probable space group: P -1
;
_chemical_formula_sum "Si O2"
_cell_formula_units_Z 16
_cell_length_a 8.236970
_cell_length_b 9.217840
_cell_length_c 11.647688
_cell_angle_alpha 75.488400
_cell_angle_beta 123.911585
_cell_angle_gamma 106.125270
_cell_volume 699.976766
_symmetry_space_group_name_H-M "P -1"
_symmetry_group_IT_number 2
_symmetry_cell_setting 'triclinic'
loop_
_space_group_symop_operation_xyz
x,y,z
-x,-y,-z
loop_
_atom_site_type_symbol
_atom_site_label
_atom_site_fract_x
_atom_site_fract_y
_atom_site_fract_z
Si Si1 0.421839 0.895165 0.384488
Si Si2 0.682003 0.838458 0.079006
Si Si3 0.650726 0.046789 0.229452
Si Si4 0.203771 0.612685 0.057018
Si Si5 0.139381 0.640861 0.762193
Si Si6 0.290169 0.536372 0.452600
Si Si7 0.930224 0.139108 0.883560
Si Si8 0.404748 0.459628 0.757968
O O1 0.339948 0.719705 0.422561
O O2 0.219665 0.942076 0.253174
O O3 0.500000 0.000000 0.500000
O O4 0.573432 0.933702 0.327694
O O5 0.586113 0.704954 0.152291
O O6 0.867622 0.776076 0.109587
O O7 0.738430 0.971994 0.168150
O O8 0.541876 0.892724 0.915266
O O9 0.811678 0.189937 0.306353
O O10 0.201697 0.666576 0.913988
O O11 0.182726 0.751831 0.106636
O O12 0.360739 0.504472 0.178912
O O13 0.000000 0.500000 0.000000
O O14 0.305934 0.553771 0.792396
O O15 0.916887 0.545979 0.671619
O O16 0.500000 0.500000 0.500000
O O17 0.281223 0.476034 0.591831
O O18 0.000000 0.000000 0.000000
#
# Coordination Sequence:
#
# PCOD9061141 Si02
#       8
#     2   2   2   2   2   2   2   2
#     4  12  27  49  72 107 149 198 246 302 371 446
#     4  11  23  44  73 105 146 191 246 308 370 427
#     4  11  24  45  74 107 146 189 249 305 365 437
#     4  12  25  42  69 108 147 187 245 303 364 438
#     4  12  26  46  74 112 145 198 250 303 376 438
#     4  12  27  50  73 106 154 199 243 305 371 449
#     4  12  25  44  72 104 145 193 243 304 369 435
#     4  12  25  45  73 104 149 198 246 306 367 442
#
# _framework density 22.857901999999999
#
# number of rings (size 3 to 8) (size 9 to 14) (size 15 to 20)
#    0.000    0.250    2.500    7.500    1.750    4.000 
#    0.000    1.875    0.000    0.000    0.000    0.000 
#    0.000    0.000    0.000    0.000    0.000    0.000 
#
# Total GULP energy -89258.675319 kJ/mol
# GULP energy per Si atom -5578.667207 kJ/mol
# Density = 2.280588 g / cm^3
# Si number density = 22.857902 Si / 1000 Ang^3
#
#
#
# Elastic Constant Matrix: (Units=GPa)
#
#
# Indices 1 2 3 4 5 6 
#
# 1 99.8374 22.4438 40.1084 17.2623 9.1389 -16.5484
# 2 22.4438 107.4734 47.5164 19.5668 13.6612 12.6845
# 3 40.1084 47.5164 146.8589 14.6199 5.4799 1.0450
# 4 17.2623 19.5668 14.6199 32.7960 4.7811 -2.6324
# 5 9.1389 13.6612 5.4799 4.7811 41.7367 -3.2219
# 6 -16.5484 12.6845 1.0450 -2.6324 -3.2219 40.7301
#
#
#
# Elastic Compliance Matrix: (Units=1/GPa)
#
#
# Indices 1 2 3 4 5 6 
#
# 1 0.013162 -0.001223 -0.002759 -0.004358 -0.001202 0.005422
# 2 -0.001223 0.013002 -0.003152 -0.005633 -0.003322 -0.005092
# 3 -0.002759 -0.003152 0.008627 -0.000621 0.000547 -0.000358
# 4 -0.004358 -0.005633 -0.000621 0.036775 -0.001157 0.002285
# 5 -0.001202 -0.003322 0.000547 -0.001157 0.025562 0.002480
# 6 0.005422 -0.005092 -0.000358 0.002285 0.002480 0.028694
#
#
# Mechanical properties :
#
#
# Convention : Reuss Voigt Hill
#
# Bulk Modulus (GPa) = 48.72425 63.81187 56.26806
# Shear Modulus (GPa) = 34.02965 39.32595 36.67780
#
# Velocity S-wave (km/s) = 3.86262 4.15233 4.01009
# Velocity P-wave (km/s) = 6.42304 7.13909 6.79051
#
# Compressibility (1/GPa) = 0.02052366
#
# Stress axis : x y z
#
# Youngs Moduli (GPa) = 75.97746 76.90883 115.92089
#
# Poissons Ratio (x) = 0.09403 0.31982
# Poissons Ratio (y) = 0.09289 0.36539
# Poissons Ratio (z) = 0.20962 0.24242
#
# Static dielectric constant tensor:
#      x y z
#    x 2.066570 0.185710 -0.092050 
#    y 0.185710 1.902010 0.010440 
#    z -0.092050 0.010440 1.809930 
# 
# From -- ./inp_files/382132.got.cif
#   From: 2010.05.17/outbox.cif.g08.bks.cpg/sg2_192_cif.got.tgz:382132.got - 2010.06.03 11:33:40.
