data_PCOD9061398
_publ_section_title
;
Structure prediction by ZEFSAII (Michael W. Deem and Ramdas Pophale) SiO2 
 PCOD9061398
Probable space group: P -1
;
_chemical_formula_sum "Si O2"
_cell_formula_units_Z 14
_cell_length_a 25.311193
_cell_length_b 6.453100
_cell_length_c 7.349876
_cell_angle_alpha 120.084611
_cell_angle_beta 136.455285
_cell_angle_gamma 43.086781
_cell_volume 563.953160
_symmetry_space_group_name_H-M "P -1"
_symmetry_group_IT_number 2
_symmetry_cell_setting 'triclinic'
loop_
_space_group_symop_operation_xyz
x,y,z
-x,-y,-z
loop_
_atom_site_type_symbol
_atom_site_label
_atom_site_fract_x
_atom_site_fract_y
_atom_site_fract_z
Si Si1 0.587470 0.881886 0.528740
Si Si2 0.661966 0.284362 0.327711
Si Si3 0.997093 0.766852 0.498297
Si Si4 0.140291 0.357272 0.957398
Si Si5 0.177435 0.723454 0.481655
Si Si6 0.653412 0.249236 0.725275
Si Si7 0.319681 0.289777 0.963376
O O1 0.591845 0.653067 0.298608
O O2 0.500000 0.000000 0.500000
O O3 0.589416 0.142744 0.567964
O O4 0.684720 0.684135 0.815147
O O5 0.756877 0.206089 0.428839
O O6 0.663970 0.242229 0.531506
O O7 0.638979 0.059650 0.105337
O O8 0.947340 0.652489 0.207830
O O9 0.101337 0.512758 0.732164
O O10 0.921048 0.966314 0.558915
O O11 0.000000 0.000000 0.500000
O O12 0.155501 0.550427 0.212186
O O13 0.238393 0.015325 0.049130
O O14 0.231945 0.494002 0.691037
O O15 0.624289 0.564273 0.871463
#
# Coordination Sequence:
#
# PCOD9061398 Si02
#       7
#     2   2   2   2   2   2   2
#     4  11  26  47  72 104 140 177 228 289 348 412
#     4  11  24  43  73 101 135 182 232 282 339 420
#     4  11  28  42  66 102 141 181 229 292 336 398
#     4  11  24  45  65  99 139 178 238 279 339 405
#     4  12  24  43  70 101 135 184 234 277 346 405
#     4  11  23  45  70 100 137 185 229 283 346 410
#     4  11  24  40  73 102 135 182 227 282 345 410
#
# _framework density 24.824757000000002
#
# number of rings (size 3 to 8) (size 9 to 14) (size 15 to 20)
#    0.000    0.857    4.286    1.286    4.000    4.571 
#    0.000    3.571    0.000    0.000    0.000    0.000 
#    0.000    0.000    0.000    0.000    0.000    0.000 
#
# Total GULP energy -78157.452711 kJ/mol
# GULP energy per Si atom -5582.675194 kJ/mol
# Density = 2.476825 g / cm^3
# Si number density = 24.824757 Si / 1000 Ang^3
#
#
#
# Elastic Constant Matrix: (Units=GPa)
#
#
# Indices 1 2 3 4 5 6 
#
# 1 122.8639 34.6148 28.5236 20.5803 11.8413 17.1404
# 2 34.6148 148.4487 54.1907 57.7954 17.0154 22.0374
# 3 28.5236 54.1907 118.4064 23.8692 6.3426 9.0654
# 4 20.5803 57.7954 23.8692 61.3604 0.8171 1.4278
# 5 11.8413 17.0154 6.3426 0.8171 33.0228 3.1549
# 6 17.1404 22.0374 9.0654 1.4278 3.1549 52.5682
#
#
#
# Elastic Compliance Matrix: (Units=1/GPa)
#
#
# Indices 1 2 3 4 5 6 
#
# 1 0.009536 0.000006 -0.001434 -0.002548 -0.002833 -0.002626
# 2 0.000006 0.013746 -0.003325 -0.011474 -0.005729 -0.004536
# 3 -0.001434 -0.003325 0.010382 -0.000430 0.000238 0.000069
# 4 -0.002548 -0.011474 -0.000430 0.027942 0.005777 0.004609
# 5 -0.002833 -0.005729 0.000238 0.005777 0.033957 0.001090
# 6 -0.002626 -0.004536 0.000069 0.004609 0.001090 0.021578
#
#
# Mechanical properties :
#
#
# Convention : Reuss Voigt Hill
#
# Bulk Modulus (GPa) = 41.39429 69.37523 55.38476
# Shear Modulus (GPa) = 37.11959 47.54962 42.33460
#
# Velocity S-wave (km/s) = 3.87106 4.38129 4.13405
# Velocity P-wave (km/s) = 6.05731 7.32126 6.71907
#
# Compressibility (1/GPa) = 0.02415792
#
# Stress axis : x y z
#
# Youngs Moduli (GPa) = 104.86232 72.74862 96.32513
#
# Poissons Ratio (x) = -0.00045 0.13810
# Poissons Ratio (y) = -0.00065 0.32032
# Poissons Ratio (z) = 0.15034 0.24192
#
# Static dielectric constant tensor:
#      x y z
#    x 1.964420 0.018030 0.020210 
#    y 0.018030 2.026890 -0.001320 
#    z 0.020210 -0.001320 2.016860 
# 
# From -- ./inp_files/355933.got.cif
#   From: 2010.05.17/outbox.cif.g08.bks.cpg/sg2_178_cif.got.tgz:355933.got - 2010.06.03 11:33:40.
