data_PCOD9061979
_publ_section_title
;
Structure prediction by ZEFSAII (Michael W. Deem and Ramdas Pophale) SiO2 
 PCOD9061979
Probable space group: P -1
;
_chemical_formula_sum "Si O2"
_cell_formula_units_Z 14
_cell_length_a 23.518292
_cell_length_b 9.303896
_cell_length_c 5.147835
_cell_angle_alpha 104.520469
_cell_angle_beta 86.663139
_cell_angle_gamma 38.518739
_cell_volume 615.677067
_symmetry_space_group_name_H-M "P -1"
_symmetry_group_IT_number 2
_symmetry_cell_setting 'triclinic'
loop_
_space_group_symop_operation_xyz
x,y,z
-x,-y,-z
loop_
_atom_site_type_symbol
_atom_site_label
_atom_site_fract_x
_atom_site_fract_y
_atom_site_fract_z
Si Si1 0.757548 0.757706 0.827199
Si Si2 0.234129 0.720684 0.169954
Si Si3 0.887069 0.078352 0.197668
Si Si4 0.340635 0.779148 0.151684
Si Si5 0.466938 0.705769 0.414916
Si Si6 0.115419 0.577605 0.845004
Si Si7 0.594643 0.880393 0.051373
O O1 0.834482 0.606726 0.499907
O O2 0.706987 0.027901 0.986533
O O3 0.816754 0.585841 0.992377
O O4 0.671150 0.817695 0.829565
O O5 0.157888 0.825675 0.457483
O O6 0.271288 0.801133 0.290715
O O7 0.183489 0.850329 0.961621
O O8 0.329505 0.405010 0.979982
O O9 0.887845 0.243788 0.161016
O O10 0.001246 0.775152 0.023616
O O11 0.369389 0.849898 0.367476
O O12 0.443902 0.477817 0.901990
O O13 0.500000 0.500000 0.500000
O O14 0.448476 0.902410 0.643032
O O15 0.500000 0.000000 0.000000
#
# Coordination Sequence:
#
# PCOD9061979 Si02
#       7
#     2   2   2   2   2   2   2
#     4  12  24  46  72 106 143 196 240 293 371 439
#     4  12  27  46  72 113 147 190 242 307 370 424
#     4  11  24  46  75 108 144 183 245 313 368 428
#     4  11  28  44  70 103 152 200 240 299 362 447
#     4  11  24  47  69  99 148 207 248 288 362 430
#     4  11  23  46  76 106 140 187 246 306 367 438
#     4  12  26  44  72 109 147 188 246 303 350 434
#
# _framework density 22.739193
#
# number of rings (size 3 to 8) (size 9 to 14) (size 15 to 20)
#    0.000    0.571    4.286    2.571    6.000    2.857 
#    0.000    4.286    0.000    0.000    0.000    0.000 
#    0.000    0.000    0.000    0.000    0.000    0.000 
#
# Total GULP energy -78312.543032 kJ/mol
# GULP energy per Si atom -5593.753074 kJ/mol
# Density = 2.268744 g / cm^3
# Si number density = 22.739193 Si / 1000 Ang^3
#
#
#
# Elastic Constant Matrix: (Units=GPa)
#
#
# Indices 1 2 3 4 5 6 
#
# 1 96.6191 39.0845 19.1915 16.3383 17.0864 4.6577
# 2 39.0845 99.0565 33.1343 11.2851 0.3820 -4.5005
# 3 19.1915 33.1343 117.0738 15.3323 11.3785 -11.3204
# 4 16.3383 11.2851 15.3323 34.9418 0.5280 -6.3710
# 5 17.0864 0.3820 11.3785 0.5280 31.4598 -0.4902
# 6 4.6577 -4.5005 -11.3204 -6.3710 -0.4902 29.4611
#
#
#
# Elastic Compliance Matrix: (Units=1/GPa)
#
#
# Indices 1 2 3 4 5 6 
#
# 1 0.015301 -0.005594 0.000240 -0.006177 -0.008298 -0.004655
# 2 -0.005594 0.013411 -0.003083 -0.000097 0.004020 0.001794
# 3 0.000240 -0.003083 0.010417 -0.003128 -0.003765 0.002755
# 4 -0.006177 -0.000097 -0.003128 0.034166 0.004026 0.007215
# 5 -0.008298 0.004020 -0.003765 0.004026 0.037570 0.001975
# 6 -0.004655 0.001794 0.002755 0.007215 0.001975 0.037605
#
#
# Mechanical properties :
#
#
# Convention : Reuss Voigt Hill
#
# Bulk Modulus (GPa) = 44.93230 55.06333 49.99781
# Shear Modulus (GPa) = 28.94183 33.92849 31.43516
#
# Velocity S-wave (km/s) = 3.57146 3.86692 3.72213
# Velocity P-wave (km/s) = 6.06712 6.64870 6.36455
#
# Compressibility (1/GPa) = 0.02225571
#
# Stress axis : x y z
#
# Youngs Moduli (GPa) = 65.35385 74.56798 95.99867
#
# Poissons Ratio (x) = 0.41710 -0.02305
# Poissons Ratio (y) = 0.36556 0.29597
# Poissons Ratio (z) = -0.01569 0.22990
#
# Static dielectric constant tensor:
#      x y z
#    x 1.833160 -0.011990 0.002210 
#    y -0.011990 1.895060 -0.005140 
#    z 0.002210 -0.005140 1.893680 
# 
# From -- ./inp_files/117242.got.cif
#   From: 2010.05.17/outbox.cif.g08.bks.cpg/sg2_59_cif.got.tgz:117242.got - 2010.06.03 11:33:40.
