data_PCOD9061869
_publ_section_title
;
Structure prediction by ZEFSAII (Michael W. Deem and Ramdas Pophale) SiO2 
 PCOD9061869
Probable space group: P -1
;
_chemical_formula_sum "Si O2"
_cell_formula_units_Z 14
_cell_length_a 12.316770
_cell_length_b 23.386786
_cell_length_c 8.679543
_cell_angle_alpha 38.659685
_cell_angle_beta 148.553772
_cell_angle_gamma 153.607520
_cell_volume 578.293975
_symmetry_space_group_name_H-M "P -1"
_symmetry_group_IT_number 2
_symmetry_cell_setting 'triclinic'
loop_
_space_group_symop_operation_xyz
x,y,z
-x,-y,-z
loop_
_atom_site_type_symbol
_atom_site_label
_atom_site_fract_x
_atom_site_fract_y
_atom_site_fract_z
Si Si1 0.084130 0.726749 0.490760
Si Si2 0.166070 0.189316 0.185685
Si Si3 0.903503 0.153738 0.245515
Si Si4 0.161691 0.575207 0.784202
Si Si5 0.735476 0.933073 0.702402
Si Si6 0.224954 0.680638 0.302048
Si Si7 0.313827 0.349371 0.573353
O O1 0.991463 0.591445 0.655281
O O2 0.423001 0.833952 0.622029
O O3 0.994174 0.734053 0.533426
O O4 0.902823 0.736073 0.137254
O O5 0.197496 0.120022 0.240935
O O6 0.479995 0.282449 0.451288
O O7 0.940267 0.113112 0.212894
O O8 0.214735 0.280677 0.432942
O O9 0.754695 0.037986 0.425541
O O10 0.747748 0.202527 0.924234
O O11 0.155559 0.629057 0.501901
O O12 0.017904 0.434542 0.863811
O O13 0.479899 0.657179 0.069702
O O14 0.000000 0.000000 0.000000
O O15 0.500000 0.500000 0.500000
#
# Coordination Sequence:
#
# PCOD9061869 Si02
#       7
#     2   2   2   2   2   2   2
#     4  12  25  48  79 104 154 201 250 312 374 450
#     4  12  25  47  74 114 145 199 252 309 378 445
#     4  12  27  47  75 113 153 195 255 315 371 443
#     4  11  23  46  72 109 153 199 249 303 378 449
#     4  12  28  52  77 110 152 202 255 310 380 452
#     4  11  24  43  74 112 149 195 249 306 380 444
#     4  12  27  48  75 116 153 197 255 307 380 451
#
# _framework density 24.209142
#
# number of rings (size 3 to 8) (size 9 to 14) (size 15 to 20)
#    0.000    0.286    5.714    2.143    2.000    9.143 
#    0.000    0.000    0.000    0.000    0.000    0.000 
#    0.000    0.000    0.000    0.000    0.000    0.000 
#
# Total GULP energy -78284.186453 kJ/mol
# GULP energy per Si atom -5591.727604 kJ/mol
# Density = 2.415404 g / cm^3
# Si number density = 24.209142 Si / 1000 Ang^3
#
#
#
# Elastic Constant Matrix: (Units=GPa)
#
#
# Indices 1 2 3 4 5 6 
#
# 1 141.5488 36.2218 45.6736 2.4490 16.1010 -12.2867
# 2 36.2218 82.4071 39.5199 -1.8911 11.2536 -10.4186
# 3 45.6736 39.5199 147.3708 2.0614 15.1215 -3.0117
# 4 2.4490 -1.8911 2.0614 47.6326 -4.6463 -6.2614
# 5 16.1010 11.2536 15.1215 -4.6463 37.0512 -0.1310
# 6 -12.2867 -10.4186 -3.0117 -6.2614 -0.1310 30.7262
#
#
#
# Elastic Compliance Matrix: (Units=1/GPa)
#
#
# Indices 1 2 3 4 5 6 
#
# 1 0.008731 -0.002363 -0.001772 -0.000380 -0.002392 0.002429
# 2 -0.002363 0.015551 -0.003137 0.001215 -0.002249 0.004259
# 3 -0.001772 -0.003137 0.008346 -0.000713 -0.001777 -0.001107
# 4 -0.000380 0.001215 -0.000713 0.021987 0.002861 0.004683
# 5 -0.002392 -0.002249 -0.001777 0.002861 0.029792 -0.001183
# 6 0.002429 0.004259 -0.001107 0.004683 -0.001183 0.035801
#
#
# Mechanical properties :
#
#
# Convention : Reuss Voigt Hill
#
# Bulk Modulus (GPa) = 55.29759 68.23969 61.76864
# Shear Modulus (GPa) = 35.51639 39.74276 37.62957
#
# Velocity S-wave (km/s) = 3.83438 4.05611 3.94681
# Velocity P-wave (km/s) = 6.51878 7.08413 6.80733
#
# Compressibility (1/GPa) = 0.01808397
#
# Stress axis : x y z
#
# Youngs Moduli (GPa) = 114.54065 64.30284 119.82241
#
# Poissons Ratio (x) = 0.15193 0.21230
# Poissons Ratio (y) = 0.27063 0.37592
# Poissons Ratio (z) = 0.20294 0.20174
#
# Static dielectric constant tensor:
#      x y z
#    x 1.983870 0.009640 0.021200 
#    y 0.009640 1.998810 -0.005440 
#    z 0.021200 -0.005440 1.912160 
# 
# From -- ./inp_files/77528.got.cif
#   From: 2010.05.17/outbox.cif.g08.bks.cpg/sg2_39_cif.got.tgz:77528.got - 2010.06.03 11:33:40.
