data_PCOD9061599
_publ_section_title
;
Structure prediction by ZEFSAII (Michael W. Deem and Ramdas Pophale) SiO2 
 PCOD9061599
Probable space group: P -1
;
_chemical_formula_sum "Si O2"
_cell_formula_units_Z 16
_cell_length_a 8.045939
_cell_length_b 6.738024
_cell_length_c 24.008476
_cell_angle_alpha 86.800092
_cell_angle_beta 33.494127
_cell_angle_gamma 87.407225
_cell_volume 717.161924
_symmetry_space_group_name_H-M "P -1"
_symmetry_group_IT_number 2
_symmetry_cell_setting 'triclinic'
loop_
_space_group_symop_operation_xyz
x,y,z
-x,-y,-z
loop_
_atom_site_type_symbol
_atom_site_label
_atom_site_fract_x
_atom_site_fract_y
_atom_site_fract_z
Si Si1 0.376735 0.212876 0.165957
Si Si2 0.147824 0.550357 0.658976
Si Si3 0.766243 0.032223 0.967923
Si Si4 0.280914 0.316706 0.795682
Si Si5 0.774109 0.103598 0.455796
Si Si6 0.177205 0.832212 0.286743
Si Si7 0.687399 0.392548 0.573400
Si Si8 0.910863 0.360206 0.079375
O O1 0.573490 0.280052 0.163003
O O2 0.110384 0.369087 0.228478
O O3 0.226676 0.000650 0.224040
O O4 0.625333 0.181394 0.050116
O O5 0.142846 0.702489 0.606874
O O6 0.478096 0.537758 0.592426
O O7 0.048560 0.334801 0.669117
O O8 0.049896 0.135439 0.857650
O O9 0.874188 0.829374 0.970313
O O10 0.500000 0.000000 0.000000
O O11 0.507188 0.263386 0.783713
O O12 0.485538 0.352117 0.684569
O O13 0.101304 0.510235 0.863247
O O14 0.724966 0.191008 0.529514
O O15 0.500000 0.000000 0.500000
O O16 0.040900 0.944979 0.376722
O O17 0.000000 0.500000 0.500000
O O18 0.000000 0.500000 0.000000
#
# Coordination Sequence:
#
# PCOD9061599 Si02
#       8
#     2   2   2   2   2   2   2   2
#     4  11  24  44  76 103 136 193 245 297 361 451
#     4  11  25  46  76 105 143 189 251 302 366 446
#     4  12  29  45  70 112 155 189 239 307 386 444
#     4  12  27  46  72 107 148 188 242 311 373 437
#     4  11  25  47  75 103 137 197 255 298 363 448
#     4  11  23  45  74 104 140 186 252 299 356 446
#     4  12  29  47  72 109 153 195 239 313 384 432
#     4  12  24  47  77 105 143 199 252 296 365 456
#
# _framework density 22.310161999999998
#
# number of rings (size 3 to 8) (size 9 to 14) (size 15 to 20)
#    0.000    0.500    5.000    2.250    7.000    1.000 
#    0.000    0.000    0.000    0.000    0.000    0.000 
#    0.000    0.000    0.000    0.000    0.000    0.000 
#
# Total GULP energy -89521.112255 kJ/mol
# GULP energy per Si atom -5595.069516 kJ/mol
# Density = 2.225938 g / cm^3
# Si number density = 22.310162 Si / 1000 Ang^3
#
#
#
# Elastic Constant Matrix: (Units=GPa)
#
#
# Indices 1 2 3 4 5 6 
#
# 1 78.2009 35.6235 35.9326 -2.2604 -20.5179 18.2984
# 2 35.6235 118.0224 59.5254 0.1821 0.4717 17.9752
# 3 35.9326 59.5254 136.0038 4.2598 6.6153 9.8296
# 4 -2.2604 0.1821 4.2598 51.6231 -1.2961 -10.5038
# 5 -20.5179 0.4717 6.6153 -1.2961 44.5855 1.4752
# 6 18.2984 17.9752 9.8296 -10.5038 1.4752 24.4362
#
#
#
# Elastic Compliance Matrix: (Units=1/GPa)
#
#
# Indices 1 2 3 4 5 6 
#
# 1 0.022104 -0.002379 -0.004271 -0.001303 0.011267 -0.014324
# 2 -0.002379 0.012238 -0.004247 -0.001013 -0.000428 -0.005922
# 3 -0.004271 -0.004247 0.010386 -0.000699 -0.003550 0.002058
# 4 -0.001303 -0.001013 -0.000699 0.021676 -0.000230 0.011333
# 5 0.011267 -0.000428 -0.003550 -0.000230 0.028420 -0.008509
# 6 -0.014324 -0.005922 0.002058 0.011333 -0.008509 0.060563
#
#
# Mechanical properties :
#
#
# Convention : Reuss Voigt Hill
#
# Bulk Modulus (GPa) = 43.60357 66.04333 54.82345
# Shear Modulus (GPa) = 27.05260 37.53867 32.29564
#
# Velocity S-wave (km/s) = 3.48597 4.10638 3.80883
# Velocity P-wave (km/s) = 5.98242 7.22148 6.63095
#
# Compressibility (1/GPa) = 0.02293390
#
# Stress axis : x y z
#
# Youngs Moduli (GPa) = 45.24076 81.70943 96.28545
#
# Poissons Ratio (x) = 0.19441 0.41119
# Poissons Ratio (y) = 0.10764 0.40896
# Poissons Ratio (z) = 0.19320 0.34705
#
# Static dielectric constant tensor:
#      x y z
#    x 1.840190 0.036060 0.025470 
#    y 0.036060 1.847140 0.021920 
#    z 0.025470 0.021920 1.871780 
# 
# From -- ./inp_files/616341.got.cif
#   From: 2010.05.17/outbox.cif.g08.bks.cpg/sg2_309_cif.got.tgz:616341.got - 2010.06.03 11:33:40.
