data_PCOD9061681
_publ_section_title
;
Structure prediction by ZEFSAII (Michael W. Deem and Ramdas Pophale) SiO2 
 PCOD9061681
Probable space group: P -1
;
_chemical_formula_sum "Si O2"
_cell_formula_units_Z 16
_cell_length_a 7.983364
_cell_length_b 11.170931
_cell_length_c 11.961464
_cell_angle_alpha 39.203909
_cell_angle_beta 90.220481
_cell_angle_gamma 101.039217
_cell_volume 643.582799
_symmetry_space_group_name_H-M "P -1"
_symmetry_group_IT_number 2
_symmetry_cell_setting 'triclinic'
loop_
_space_group_symop_operation_xyz
x,y,z
-x,-y,-z
loop_
_atom_site_type_symbol
_atom_site_label
_atom_site_fract_x
_atom_site_fract_y
_atom_site_fract_z
Si Si1 0.846638 0.889194 0.665543
Si Si2 0.008356 0.781775 0.141324
Si Si3 0.517227 0.241190 0.612146
Si Si4 0.358813 0.816527 0.573433
Si Si5 0.204455 0.419298 0.513251
Si Si6 0.236552 0.462526 0.226960
Si Si7 0.899645 0.576951 0.070825
Si Si8 0.598478 0.138360 0.000165
O O1 0.725539 0.713034 0.715021
O O2 0.898447 0.761678 0.857251
O O3 0.766771 0.065125 0.570035
O O4 0.000000 0.000000 0.500000
O O5 0.954292 0.670514 0.338408
O O6 0.880322 0.657679 0.136653
O O7 0.199671 0.812566 0.069331
O O8 0.000000 0.000000 0.000000
O O9 0.562839 0.283405 0.453384
O O10 0.346611 0.297592 0.611920
O O11 0.678641 0.364005 0.600601
O O12 0.463665 0.005308 0.792530
O O13 0.246994 0.638287 0.782275
O O14 0.500000 0.000000 0.500000
O O15 0.156473 0.401416 0.395204
O O16 0.087804 0.528738 0.108175
O O17 0.408418 0.645441 0.122158
O O18 0.500000 0.000000 0.000000
#
# Coordination Sequence:
#
# PCOD9061681 Si02
#       8
#     2   2   2   2   2   2   2   2
#     4  12  28  51  80 108 147 201 259 315 375 447
#     4  11  24  43  75 109 149 195 249 305 378 453
#     4  11  24  46  70 110 158 191 253 315 378 452
#     4  12  28  50  77 108 152 204 252 316 379 448
#     4  11  23  45  77 109 150 200 248 314 385 446
#     4  11  25  45  78 106 150 195 251 311 376 451
#     4  11  27  49  73 116 149 195 260 314 370 461
#     4  11  24  43  67 108 150 192 237 313 376 449
#
# _framework density 24.860825999999999
#
# number of rings (size 3 to 8) (size 9 to 14) (size 15 to 20)
#    0.000    0.750    5.000    1.125    3.500    5.500 
#    4.500    0.000    0.000    0.000    0.000    0.000 
#    0.000    0.000    0.000    0.000    0.000    0.000 
#
# Total GULP energy -89423.809215 kJ/mol
# GULP energy per Si atom -5588.988076 kJ/mol
# Density = 2.480424 g / cm^3
# Si number density = 24.860826 Si / 1000 Ang^3
#
#
#
# Elastic Constant Matrix: (Units=GPa)
#
#
# Indices 1 2 3 4 5 6 
#
# 1 62.7156 0.2250 34.8716 1.2683 -0.4183 9.9032
# 2 0.2250 73.4703 14.6045 -17.9961 -5.7610 5.1229
# 3 34.8716 14.6045 174.7966 -3.6204 4.1096 6.4696
# 4 1.2683 -17.9961 -3.6204 57.9313 5.1056 -0.7055
# 5 -0.4183 -5.7610 4.1096 5.1056 41.5552 -3.2125
# 6 9.9032 5.1229 6.4696 -0.7055 -3.2125 36.3362
#
#
#
# Elastic Compliance Matrix: (Units=1/GPa)
#
#
# Indices 1 2 3 4 5 6 
#
# 1 0.018705 0.000908 -0.003657 -0.000445 0.000379 -0.004550
# 2 0.000908 0.015222 -0.001325 0.004466 0.001552 -0.001934
# 3 -0.003657 -0.001325 0.006588 0.000158 -0.000897 -0.000066
# 4 -0.000445 0.004466 0.000158 0.018818 -0.001738 -0.000325
# 5 0.000379 0.001552 -0.000897 -0.001738 0.024740 0.001991
# 6 -0.004550 -0.001934 -0.000066 -0.000325 0.001991 0.029215
#
#
# Mechanical properties :
#
#
# Convention : Reuss Voigt Hill
#
# Bulk Modulus (GPa) = 30.89707 45.59832 38.24770
# Shear Modulus (GPa) = 37.81410 44.58330 41.19870
#
# Velocity S-wave (km/s) = 3.90427 4.23935 4.07526
# Velocity P-wave (km/s) = 5.72533 6.50723 6.12876
#
# Compressibility (1/GPa) = 0.03236553
#
# Stress axis : x y z
#
# Youngs Moduli (GPa) = 53.46095 65.69446 151.78970
#
# Poissons Ratio (x) = -0.05963 0.55513
# Poissons Ratio (y) = -0.04853 0.20117
# Poissons Ratio (z) = 0.19552 0.08707
#
# Static dielectric constant tensor:
#      x y z
#    x 2.073380 0.014490 0.094540 
#    y 0.014490 2.019580 -0.002330 
#    z 0.094540 -0.002330 2.053140 
# 
# From -- ./inp_files/499874.got.cif
#   From: 2010.05.17/outbox.cif.g08.bks.cpg/sg2_250_cif.got.tgz:499874.got - 2010.06.03 11:33:40.
