data_PCOD9061927
_publ_section_title
;
Structure prediction by ZEFSAII (Michael W. Deem and Ramdas Pophale) SiO2 
 PCOD9061927
Probable space group: P -1
;
_chemical_formula_sum "Si O2"
_cell_formula_units_Z 12
_cell_length_a 9.601670
_cell_length_b 13.556730
_cell_length_c 9.278786
_cell_angle_alpha 149.624793
_cell_angle_beta 57.755858
_cell_angle_gamma 119.558917
_cell_volume 515.005363
_symmetry_space_group_name_H-M "P -1"
_symmetry_group_IT_number 2
_symmetry_cell_setting 'triclinic'
loop_
_space_group_symop_operation_xyz
x,y,z
-x,-y,-z
loop_
_atom_site_type_symbol
_atom_site_label
_atom_site_fract_x
_atom_site_fract_y
_atom_site_fract_z
Si Si1 0.523807 0.231535 0.784641
Si Si2 0.570962 0.782877 0.505900
Si Si3 0.832527 0.495147 0.995068
Si Si4 0.647118 0.637898 0.665456
Si Si5 0.044522 0.606481 0.756667
Si Si6 0.721698 0.047594 0.968678
O O1 0.469187 0.280555 0.714284
O O2 0.717002 0.296734 0.788188
O O3 0.500000 0.000000 0.500000
O O4 0.414251 0.314803 0.078096
O O5 0.662570 0.991452 0.767589
O O6 0.700530 0.636640 0.306096
O O7 0.398886 0.800193 0.704411
O O8 0.893334 0.578966 0.913744
O O9 0.000000 0.500000 0.000000
O O10 0.500000 0.500000 0.500000
O O11 0.805564 0.511341 0.413443
O O12 0.694052 0.851659 0.834359
O O13 0.000000 0.500000 0.500000
O O14 0.102468 0.833810 0.986196
#
# Coordination Sequence:
#
# PCOD9061927 Si02
#       6
#     2   2   2   2   2   2
#     4  12  25  46  76 107 139 190 254 294 351 440
#     4  11  23  46  74 102 142 189 249 294 350 440
#     4  12  27  46  70 108 148 186 236 305 374 423
#     4  12  25  49  77 104 144 194 245 298 357 442
#     4  12  27  46  69 104 153 187 235 303 374 428
#     4  11  24  45  75 107 139 198 248 291 366 434
#
# _framework density 23.300730999999999
#
# number of rings (size 3 to 8) (size 9 to 14) (size 15 to 20)
#    0.000    0.333    1.667    8.500    2.333    1.333 
#    6.000    0.000    0.000    0.000    0.000    0.000 
#    0.000    0.000    0.000    0.000    0.000    0.000 
#
# Total GULP energy -67077.242285 kJ/mol
# GULP energy per Si atom -5589.770190 kJ/mol
# Density = 2.324770 g / cm^3
# Si number density = 23.300731 Si / 1000 Ang^3
#
#
#
# Elastic Constant Matrix: (Units=GPa)
#
#
# Indices 1 2 3 4 5 6 
#
# 1 114.8465 37.5210 29.0576 11.0346 7.2281 1.2330
# 2 37.5210 157.5642 61.7354 9.5415 14.1117 23.1621
# 3 29.0576 61.7354 139.0163 -4.9290 19.6059 2.7147
# 4 11.0346 9.5415 -4.9290 39.5677 -4.2661 8.9153
# 5 7.2281 14.1117 19.6059 -4.2661 53.3546 1.3936
# 6 1.2330 23.1621 2.7147 8.9153 1.3936 36.8545
#
#
#
# Elastic Compliance Matrix: (Units=1/GPa)
#
#
# Indices 1 2 3 4 5 6 
#
# 1 0.009951 -0.001873 -0.001292 -0.002932 -0.000656 0.001674
# 2 -0.001873 0.009020 -0.003436 -0.001026 -0.000819 -0.005074
# 3 -0.001292 -0.003436 0.009348 0.001854 -0.002233 0.001150
# 4 -0.002932 -0.001026 0.001854 0.028253 0.002412 -0.006319
# 5 -0.000656 -0.000819 -0.002233 0.002412 0.020078 -0.000642
# 6 0.001674 -0.005074 0.001150 -0.006319 -0.000642 0.031735
#
#
# Mechanical properties :
#
#
# Convention : Reuss Voigt Hill
#
# Bulk Modulus (GPa) = 66.15432 74.22833 70.19132
# Shear Modulus (GPa) = 39.48604 44.82957 42.15780
#
# Velocity S-wave (km/s) = 4.12105 4.39105 4.25819
# Velocity P-wave (km/s) = 7.14823 7.59172 7.37331
#
# Compressibility (1/GPa) = 0.01511617
#
# Stress axis : x y z
#
# Youngs Moduli (GPa) = 100.48981 110.86089 106.97892
#
# Poissons Ratio (x) = 0.20765 0.13826
# Poissons Ratio (y) = 0.18822 0.36759
# Poissons Ratio (z) = 0.12987 0.38093
#
# Static dielectric constant tensor:
#      x y z
#    x 1.925440 -0.000950 -0.047290 
#    y -0.000950 1.797900 0.136830 
#    z -0.047290 0.136830 1.780820 
# 
# From -- ./inp_files/209592.got.cif
#   From: 2010.05.17/outbox.cif.g08.bks.cpg/sg2_105_cif.got.tgz:209592.got - 2010.06.03 11:33:40.
