data_PCOD9061792
_publ_section_title
;
Structure prediction by ZEFSAII (Michael W. Deem and Ramdas Pophale) SiO2 
 PCOD9061792
Probable space group: P -1
;
_chemical_formula_sum "Si O2"
_cell_formula_units_Z 15
_cell_length_a 6.774133
_cell_length_b 6.249874
_cell_length_c 16.210284
_cell_angle_alpha 78.415412
_cell_angle_beta 98.032460
_cell_angle_gamma 104.999166
_cell_volume 646.616604
_symmetry_space_group_name_H-M "P -1"
_symmetry_group_IT_number 2
_symmetry_cell_setting 'triclinic'
loop_
_space_group_symop_operation_xyz
x,y,z
-x,-y,-z
loop_
_atom_site_type_symbol
_atom_site_label
_atom_site_fract_x
_atom_site_fract_y
_atom_site_fract_z
Si Si1 0.917943 0.776417 0.623387
Si Si2 0.000000 0.500000 0.500000
Si Si3 0.153172 0.744602 0.985367
Si Si4 0.641495 0.095450 0.577984
Si Si5 0.593283 0.210901 0.160512
Si Si6 0.692963 0.864307 0.319972
Si Si7 0.099649 0.422104 0.744787
Si Si8 0.148167 0.980591 0.132664
O O1 0.909837 0.681772 0.538514
O O2 0.947377 0.574580 0.698932
O O3 0.737119 0.890702 0.628789
O O4 0.130554 0.961096 0.634902
O O5 0.177723 0.705010 0.457749
O O6 0.342066 0.757956 0.933724
O O7 0.214533 0.837194 0.072918
O O8 0.018594 0.899193 0.923400
O O9 0.000000 0.500000 0.000000
O O10 0.510172 0.177673 0.634681
O O11 0.500000 0.000000 0.500000
O O12 0.728908 0.430985 0.196652
O O13 0.653537 0.995474 0.224104
O O14 0.349128 0.161831 0.159317
O O15 0.779525 0.646512 0.321396
O O16 0.965798 0.194008 0.792735
#
# Coordination Sequence:
#
# PCOD9061792 Si02
#       8
#     2   1   2   2   2   2   2   2
#     4  11  27  48  75 109 147 185 245 309 357 441
#     4  12  26  48  80 102 142 188 236 298 374 430
#     4  11  23  46  70 107 152 189 245 306 357 432
#     4  12  28  51  74 109 147 191 242 300 368 445
#     4  11  25  44  72 109 142 196 248 294 369 435
#     4  11  26  50  72 107 153 189 247 303 364 442
#     4  11  25  50  72 108 150 192 247 306 363 433
#     4  11  25  45  74 102 149 198 241 303 361 434
#
# _framework density 23.197675
#
# number of rings (size 3 to 8) (size 9 to 14) (size 15 to 20)
#    0.000    0.800    4.000    1.600    5.600    4.267 
#    0.000    0.000    0.000    0.000    0.000    0.000 
#    0.000    0.000    0.000    0.000    0.000    0.000 
#
# Total GULP energy -83782.523880 kJ/mol
# GULP energy per Si atom -5585.501592 kJ/mol
# Density = 2.314488 g / cm^3
# Si number density = 23.197675 Si / 1000 Ang^3
#
#
#
# Elastic Constant Matrix: (Units=GPa)
#
#
# Indices 1 2 3 4 5 6 
#
# 1 108.2905 31.1708 40.2479 -6.9049 -21.1560 -4.1528
# 2 31.1708 70.3862 27.3601 -5.7450 -19.7425 -10.5336
# 3 40.2479 27.3601 72.0043 -3.6189 -26.0202 1.1149
# 4 -6.9049 -5.7450 -3.6189 38.7936 1.3057 -3.4995
# 5 -21.1560 -19.7425 -26.0202 1.3057 32.7689 -4.3388
# 6 -4.1528 -10.5336 1.1149 -3.4995 -4.3388 30.3950
#
#
#
# Elastic Compliance Matrix: (Units=1/GPa)
#
#
# Indices 1 2 3 4 5 6 
#
# 1 0.012495 -0.002454 -0.005003 0.001445 0.002771 0.001602
# 2 -0.002454 0.020649 -0.003047 0.002795 0.009465 0.008605
# 3 -0.005003 -0.003047 0.022435 0.000260 0.012642 -0.000728
# 4 0.001445 0.002795 0.000260 0.026806 0.002361 0.004580
# 5 0.002771 0.009465 0.012642 0.002361 0.049344 0.010510
# 6 0.001602 0.008605 -0.000728 0.004580 0.010510 0.038156
#
#
# Mechanical properties :
#
#
# Convention : Reuss Voigt Hill
#
# Bulk Modulus (GPa) = 28.92536 49.80429 39.36482
# Shear Modulus (GPa) = 24.70150 30.51833 27.60992
#
# Velocity S-wave (km/s) = 3.26671 3.63102 3.45367
# Velocity P-wave (km/s) = 5.16959 6.25262 5.73672
#
# Compressibility (1/GPa) = 0.03457173
#
# Stress axis : x y z
#
# Youngs Moduli (GPa) = 80.03199 48.42791 44.57301
#
# Poissons Ratio (x) = 0.11884 0.22299
# Poissons Ratio (y) = 0.19640 0.13582
# Poissons Ratio (z) = 0.40038 0.14756
#
# Static dielectric constant tensor:
#      x y z
#    x 1.854330 -0.014350 0.058130 
#    y -0.014350 1.853100 0.060490 
#    z 0.058130 0.060490 1.984660 
# 
# From -- ./inp_files/8210.got.cif
#   From: 2010.05.17/outbox.cif.g08.bks.cpg/sg2_5_cif.got.tgz:8210.got - 2010.06.03 11:33:40.
