data_PCOD9061934
_publ_section_title
;
Structure prediction by ZEFSAII (Michael W. Deem and Ramdas Pophale) SiO2 
 PCOD9061934
Probable space group: P -1
;
_chemical_formula_sum "Si O2"
_cell_formula_units_Z 14
_cell_length_a 14.728264
_cell_length_b 8.729588
_cell_length_c 9.926082
_cell_angle_alpha 106.052914
_cell_angle_beta 38.277371
_cell_angle_gamma 127.583021
_cell_volume 570.855877
_symmetry_space_group_name_H-M "P -1"
_symmetry_group_IT_number 2
_symmetry_cell_setting 'triclinic'
loop_
_space_group_symop_operation_xyz
x,y,z
-x,-y,-z
loop_
_atom_site_type_symbol
_atom_site_label
_atom_site_fract_x
_atom_site_fract_y
_atom_site_fract_z
Si Si1 0.207556 0.465426 0.165543
Si Si2 0.898634 0.685443 0.445982
Si Si3 0.009380 0.191351 0.069397
Si Si4 0.310781 0.901344 0.057958
Si Si5 0.207202 0.564703 0.743451
Si Si6 0.367139 0.217233 0.284036
Si Si7 0.416353 0.056363 0.448161
O O1 0.074362 0.282088 0.167084
O O2 0.426213 0.552212 0.933622
O O3 0.120614 0.383795 0.394617
O O4 0.241229 0.673501 0.129376
O O5 0.789577 0.485075 0.426531
O O6 0.807036 0.792017 0.554587
O O7 0.126115 0.843016 0.181996
O O8 0.173707 0.383081 0.828862
O O9 0.794747 0.116115 0.282448
O O10 0.000000 0.000000 0.000000
O O11 0.353902 0.048013 0.167675
O O12 0.493524 0.011901 0.773060
O O13 0.408830 0.781972 0.613785
O O14 0.000000 0.500000 0.000000
O O15 0.377016 0.173422 0.417351
#
# Coordination Sequence:
#
# PCOD9061934 Si02
#       7
#     2   2   2   2   2   2   2
#     4  11  24  48  70 106 146 193 244 296 362 439
#     4  12  25  43  73 109 150 185 240 312 359 420
#     4  12  27  47  78 108 145 196 244 296 370 433
#     4  11  23  46  74 104 145 192 246 292 364 437
#     4  12  26  50  72 109 148 192 244 301 361 436
#     4  11  24  43  76 108 143 190 244 304 362 421
#     4  11  24  48  75 102 147 197 241 291 368 436
#
# _framework density 24.524577000000001
#
# number of rings (size 3 to 8) (size 9 to 14) (size 15 to 20)
#    0.000    0.571    4.286    4.714    2.000    6.286 
#    2.571    0.000    0.000    0.000    0.000    0.000 
#    0.000    0.000    0.000    0.000    0.000    0.000 
#
# Total GULP energy -78449.866405 kJ/mol
# GULP energy per Si atom -5603.561886 kJ/mol
# Density = 2.446876 g / cm^3
# Si number density = 24.524577 Si / 1000 Ang^3
#
#
#
# Elastic Constant Matrix: (Units=GPa)
#
#
# Indices 1 2 3 4 5 6 
#
# 1 138.8476 68.9256 55.3760 15.0903 -17.2242 35.3227
# 2 68.9256 130.4314 55.6287 15.3805 6.3875 28.2741
# 3 55.3760 55.6287 119.8705 -6.7837 -17.6230 5.2068
# 4 15.0903 15.3805 -6.7837 42.0233 0.9744 0.6590
# 5 -17.2242 6.3875 -17.6230 0.9744 52.8128 11.0272
# 6 35.3227 28.2741 5.2068 0.6590 11.0272 46.8911
#
#
#
# Elastic Compliance Matrix: (Units=1/GPa)
#
#
# Indices 1 2 3 4 5 6 
#
# 1 0.014046 -0.003529 -0.003848 -0.004360 0.005749 -0.009316
# 2 -0.003529 0.013218 -0.005102 -0.004251 -0.003571 -0.003845
# 3 -0.003848 -0.005102 0.013034 0.005228 0.002824 0.003790
# 4 -0.004360 -0.004251 0.005228 0.027700 -0.000729 0.005049
# 5 0.005749 -0.003571 0.002824 -0.000729 0.023888 -0.008099
# 6 -0.009316 -0.003845 0.003790 0.005049 -0.008099 0.032075
#
#
# Mechanical properties :
#
#
# Convention : Reuss Voigt Hill
#
# Bulk Modulus (GPa) = 65.19192 83.22332 74.20762
# Shear Modulus (GPa) = 32.46093 42.29339 37.37716
#
# Velocity S-wave (km/s) = 3.64209 4.15725 3.90817
# Velocity P-wave (km/s) = 6.65781 7.55328 7.11964
#
# Compressibility (1/GPa) = 0.01533932
#
# Stress axis : x y z
#
# Youngs Moduli (GPa) = 71.19579 75.65690 76.72310
#
# Poissons Ratio (x) = 0.26702 0.29520
# Poissons Ratio (y) = 0.25127 0.39144
# Poissons Ratio (z) = 0.27394 0.38600
#
# Static dielectric constant tensor:
#      x y z
#    x 1.975470 -0.060230 -0.004320 
#    y -0.060230 1.995390 -0.034540 
#    z -0.004320 -0.034540 1.952980 
# 
# From -- ./inp_files/298674.got.cif
#   From: 2010.05.17/outbox.cif.g08.bks.cpg/sg2_150_cif.got.tgz:298674.got - 2010.06.03 11:33:40.
