data_PCOD9061604
_publ_section_title
;
Structure prediction by ZEFSAII (Michael W. Deem and Ramdas Pophale) SiO2 
 PCOD9061604
Probable space group: P -1
;
_chemical_formula_sum "Si O2"
_cell_formula_units_Z 16
_cell_length_a 9.059809
_cell_length_b 12.311765
_cell_length_c 9.884929
_cell_angle_alpha 72.897131
_cell_angle_beta 72.373569
_cell_angle_gamma 48.289898
_cell_volume 777.786331
_symmetry_space_group_name_H-M "P -1"
_symmetry_group_IT_number 2
_symmetry_cell_setting 'triclinic'
loop_
_space_group_symop_operation_xyz
x,y,z
-x,-y,-z
loop_
_atom_site_type_symbol
_atom_site_label
_atom_site_fract_x
_atom_site_fract_y
_atom_site_fract_z
Si Si1 0.477933 0.102360 0.350758
Si Si2 0.541799 0.912452 0.156217
Si Si3 0.665096 0.412413 0.604806
Si Si4 0.595878 0.449424 0.140242
Si Si5 0.225880 0.875422 0.343655
Si Si6 0.822309 0.569556 0.131419
Si Si7 0.213104 0.847237 0.679413
Si Si8 0.978509 0.606330 0.583343
O O1 0.616960 0.145563 0.323290
O O2 0.245716 0.250260 0.368725
O O3 0.500000 0.000000 0.500000
O O4 0.563587 0.998912 0.232648
O O5 0.358081 0.923862 0.262408
O O6 0.708344 0.740407 0.135207
O O7 0.500000 0.000000 0.000000
O O8 0.500000 0.500000 0.500000
O O9 0.576547 0.515105 0.722105
O O10 0.681791 0.275721 0.697874
O O11 0.880320 0.356298 0.520015
O O12 0.683632 0.531693 0.127024
O O13 0.766470 0.277698 0.194008
O O14 0.500000 0.500000 0.000000
O O15 0.230595 0.833614 0.515245
O O16 0.006798 0.999088 0.303325
O O17 0.916345 0.486745 0.276911
O O18 0.000000 0.500000 0.000000
O O19 0.000000 0.500000 0.500000
#
# Coordination Sequence:
#
# PCOD9061604 Si02
#       8
#     2   2   2   2   2   2   2   2
#     4  12  25  45  71 109 149 183 238 297 360 432
#     4  12  27  46  72 103 147 188 235 295 367 436
#     4  12  22  45  74 104 143 187 246 301 353 432
#     4  12  28  47  73 104 146 190 244 304 365 428
#     4  11  23  45  74 105 136 191 241 293 364 424
#     4  12  28  50  71 103 145 196 240 297 368 437
#     4  11  25  44  74 105 142 187 240 299 357 430
#     4  12  26  43  76 112 142 192 245 298 360 429
#
# _framework density 20.571202
#
# number of rings (size 3 to 8) (size 9 to 14) (size 15 to 20)
#    0.000    0.250    5.000    3.000   10.500    0.000 
#    0.000    1.250    0.000    0.000    0.000    0.000 
#    0.000    0.000    0.000    0.000    0.000    0.000 
#
# Total GULP energy -89341.630096 kJ/mol
# GULP energy per Si atom -5583.851881 kJ/mol
# Density = 2.052438 g / cm^3
# Si number density = 20.571202 Si / 1000 Ang^3
#
#
#
# Elastic Constant Matrix: (Units=GPa)
#
#
# Indices 1 2 3 4 5 6 
#
# 1 113.4230 61.2753 28.9233 9.6085 7.2579 -4.1985
# 2 61.2753 164.5084 49.3568 -7.6706 17.6526 -6.6853
# 3 28.9233 49.3568 134.4378 -7.5062 25.6803 -4.2949
# 4 9.6085 -7.6706 -7.5062 36.1626 -1.8261 -1.7381
# 5 7.2579 17.6526 25.6803 -1.8261 35.6770 2.5472
# 6 -4.1985 -6.6853 -4.2949 -1.7381 2.5472 35.5147
#
#
#
# Elastic Compliance Matrix: (Units=1/GPa)
#
#
# Indices 1 2 3 4 5 6 
#
# 1 0.011775 -0.004233 -0.001286 -0.004264 0.000392 0.000203
# 2 -0.004233 0.008543 -0.001636 0.002546 -0.002143 0.001188
# 3 -0.001286 -0.001636 0.009561 0.001743 -0.005807 0.001198
# 4 -0.004264 0.002546 0.001743 0.029755 -0.000243 0.001660
# 5 0.000392 -0.002143 -0.005807 -0.000243 0.033425 -0.003468
# 6 0.000203 0.001188 0.001198 0.001660 -0.003468 0.028880
#
#
# Mechanical properties :
#
#
# Convention : Reuss Voigt Hill
#
# Bulk Modulus (GPa) = 64.23061 76.83110 70.53085
# Shear Modulus (GPa) = 35.35136 39.65845 37.50491
#
# Velocity S-wave (km/s) = 4.14996 4.39551 4.27450
# Velocity P-wave (km/s) = 7.36575 7.94925 7.66306
#
# Compressibility (1/GPa) = 0.01556890
#
# Stress axis : x y z
#
# Youngs Moduli (GPa) = 84.92816 117.05288 104.59574
#
# Poissons Ratio (x) = 0.49544 0.13448
# Poissons Ratio (y) = 0.35947 0.17117
# Poissons Ratio (z) = 0.10919 0.19156
#
# Static dielectric constant tensor:
#      x y z
#    x 1.678850 -0.163350 -0.045950 
#    y -0.163350 1.408890 -0.029840 
#    z -0.045950 -0.029840 1.608540 
# 
# From -- ./inp_files/186629.got.cif
#   From: 2010.05.17/outbox.cif.g08.bks.cpg/sg2_94_cif.got.tgz:186629.got - 2010.06.03 11:33:40.
