data_PCOD9061536
_publ_section_title
;
Structure prediction by ZEFSAII (Michael W. Deem and Ramdas Pophale) SiO2 
 PCOD9061536
Probable space group: P -1
;
_chemical_formula_sum "Si O2"
_cell_formula_units_Z 14
_cell_length_a 12.303083
_cell_length_b 6.291646
_cell_length_c 11.403998
_cell_angle_alpha 104.060791
_cell_angle_beta 77.151853
_cell_angle_gamma 133.878588
_cell_volume 615.386051
_symmetry_space_group_name_H-M "P -1"
_symmetry_group_IT_number 2
_symmetry_cell_setting 'triclinic'
loop_
_space_group_symop_operation_xyz
x,y,z
-x,-y,-z
loop_
_atom_site_type_symbol
_atom_site_label
_atom_site_fract_x
_atom_site_fract_y
_atom_site_fract_z
Si Si1 0.307646 0.491530 0.262229
Si Si2 0.431931 0.001178 0.134008
Si Si3 0.173045 0.918213 0.077337
Si Si4 0.860492 0.376488 0.184354
Si Si5 0.675299 0.783871 0.561406
Si Si6 0.622151 0.426270 0.323870
Si Si7 0.929960 0.454405 0.635300
O O1 0.423148 0.805489 0.210317
O O2 0.362506 0.450358 0.363128
O O3 0.166188 0.453001 0.327654
O O4 0.251324 0.243694 0.145210
O O5 0.264028 0.855267 0.121488
O O6 0.541517 0.336268 0.203550
O O7 0.500000 0.000000 0.000000
O O8 0.995880 0.682732 0.122391
O O9 0.195319 0.875020 0.931441
O O10 0.735949 0.376146 0.267349
O O11 0.945203 0.378017 0.272177
O O12 0.710285 0.727936 0.418140
O O13 0.533817 0.764955 0.586247
O O14 0.814603 0.097136 0.626009
O O15 0.000000 0.500000 0.500000
#
# Coordination Sequence:
#
# PCOD9061536 Si02
#       7
#     2   2   2   2   2   2   2
#     4  12  23  46  75  92 142 184 224 281 342 402
#     4  12  24  49  69  99 141 180 227 285 340 405
#     4  11  24  45  70  99 139 180 227 281 340 408
#     4  11  23  46  69 101 140 174 230 286 333 410
#     4  11  25  48  69 101 137 182 232 278 341 406
#     4  11  23  45  72  98 141 177 225 291 333 405
#     4  12  26  46  70 102 140 182 226 283 340 407
#
# _framework density 22.749946000000001
#
# number of rings (size 3 to 8) (size 9 to 14) (size 15 to 20)
#    0.000    0.571    7.143    0.857    2.000    2.857 
#    7.714    0.000    0.000    0.000    0.000    0.000 
#    0.000    0.000    0.000    0.000    0.000    0.000 
#
# Total GULP energy -78092.737243 kJ/mol
# GULP energy per Si atom -5578.052660 kJ/mol
# Density = 2.269817 g / cm^3
# Si number density = 22.749946 Si / 1000 Ang^3
#
#
#
# Elastic Constant Matrix: (Units=GPa)
#
#
# Indices 1 2 3 4 5 6 
#
# 1 121.1940 33.5069 69.2281 -0.3046 -14.9994 12.6185
# 2 33.5069 48.6339 44.0530 8.5862 0.9220 -4.5645
# 3 69.2281 44.0530 223.7662 38.3624 -13.2910 2.3428
# 4 -0.3046 8.5862 38.3624 44.0583 8.4786 1.6542
# 5 -14.9994 0.9220 -13.2910 8.4786 53.4839 3.7062
# 6 12.6185 -4.5645 2.3428 1.6542 3.7062 22.1446
#
#
#
# Elastic Compliance Matrix: (Units=1/GPa)
#
#
# Indices 1 2 3 4 5 6 
#
# 1 0.013802 -0.008546 -0.002986 0.004102 0.003331 -0.010174
# 2 -0.008546 0.031306 -0.003412 -0.002853 -0.004205 0.012600
# 3 -0.002986 -0.003412 0.007208 -0.006019 0.001942 0.000360
# 4 0.004102 -0.002853 -0.006019 0.029571 -0.004727 -0.003707
# 5 0.003331 -0.004205 0.001942 -0.004727 0.021365 -0.006193
# 6 -0.010174 0.012600 0.000360 -0.003707 -0.006193 0.054827
#
#
# Mechanical properties :
#
#
# Convention : Reuss Voigt Hill
#
# Bulk Modulus (GPa) = 44.58836 76.35226 60.47031
# Shear Modulus (GPa) = 25.58280 40.39110 32.98695
#
# Velocity S-wave (km/s) = 3.35703 4.21817 3.81199
# Velocity P-wave (km/s) = 5.88796 7.57352 6.78330
#
# Compressibility (1/GPa) = 0.02242738
#
# Stress axis : x y z
#
# Youngs Moduli (GPa) = 72.45518 31.94253 138.73365
#
# Poissons Ratio (x) = 0.27298 0.41432
# Poissons Ratio (y) = 0.61920 0.47335
# Poissons Ratio (z) = 0.21638 0.10899
#
# Static dielectric constant tensor:
#      x y z
#    x 1.859230 0.017330 -0.008800 
#    y 0.017330 1.942270 0.009290 
#    z -0.008800 0.009290 1.862220 
# 
# From -- ./inp_files/71576.got.cif
#   From: 2010.05.17/outbox.cif.g08.bks.cpg/sg2_36_cif.got.tgz:71576.got - 2010.06.03 11:33:40.
