data_PCOD9061775
_publ_section_title
;
Structure prediction by ZEFSAII (Michael W. Deem and Ramdas Pophale) SiO2 
 PCOD9061775
Probable space group: P -1
;
_chemical_formula_sum "Si O2"
_cell_formula_units_Z 16
_cell_length_a 20.003990
_cell_length_b 16.814896
_cell_length_c 11.506819
_cell_angle_alpha 150.259524
_cell_angle_beta 42.388608
_cell_angle_gamma 157.199471
_cell_volume 704.509222
_symmetry_space_group_name_H-M "P -1"
_symmetry_group_IT_number 2
_symmetry_cell_setting 'triclinic'
loop_
_space_group_symop_operation_xyz
x,y,z
-x,-y,-z
loop_
_atom_site_type_symbol
_atom_site_label
_atom_site_fract_x
_atom_site_fract_y
_atom_site_fract_z
Si Si1 0.798385 0.784301 0.019457
Si Si2 0.313837 0.332797 0.245956
Si Si3 0.453724 0.192574 0.823859
Si Si4 0.968658 0.991936 0.393620
Si Si5 0.897223 0.194386 0.590388
Si Si6 0.418598 0.008277 0.209933
Si Si7 0.330501 0.654484 0.085804
Si Si8 0.113159 0.638270 0.413613
O O1 0.805173 0.935699 0.296537
O O2 0.716815 0.714759 0.912401
O O3 0.654202 0.470005 0.862190
O O4 0.000000 0.000000 0.000000
O O5 0.440315 0.656879 0.521194
O O6 0.402426 0.278102 0.076853
O O7 0.127170 0.111345 0.273033
O O8 0.488113 0.103153 0.761594
O O9 0.309104 0.975219 0.630777
O O10 0.986265 0.197299 0.577357
O O11 0.763048 0.644405 0.197672
O O12 0.000000 0.000000 0.500000
O O13 0.972489 0.404101 0.648984
O O14 0.767949 0.143558 0.759696
O O15 0.378207 0.831155 0.140896
O O16 0.500000 0.000000 0.000000
O O17 0.160675 0.518440 0.185630
O O18 0.000000 0.500000 0.500000
#
# Coordination Sequence:
#
# PCOD9061775 Si02
#       8
#     2   2   2   2   2   2   2   2
#     4  12  21  39  73 102 137 169 238 288 358 421
#     4  12  23  41  72 101 130 184 236 284 360 428
#     4  12  23  40  68 105 140 181 225 288 356 444
#     4  12  26  46  70  99 136 191 253 292 336 423
#     4  11  23  46  70 101 138 186 233 289 355 429
#     4  11  25  46  67  94 140 190 237 291 352 413
#     4  11  24  43  61 100 141 176 234 295 348 414
#     4  11  25  41  66 106 150 180 218 288 372 433
#
# _framework density 22.710844999999999
#
# number of rings (size 3 to 8) (size 9 to 14) (size 15 to 20)
#    0.000    0.500    5.000    3.750    1.750    2.000 
#    0.000    8.125    0.000    0.000    0.000    0.000 
#    0.000    0.000    0.000    0.000    0.000    0.000 
#
# Total GULP energy -89115.943999 kJ/mol
# GULP energy per Si atom -5569.746500 kJ/mol
# Density = 2.265915 g / cm^3
# Si number density = 22.710845 Si / 1000 Ang^3
#
#
#
# Elastic Constant Matrix: (Units=GPa)
#
#
# Indices 1 2 3 4 5 6 
#
# 1 154.3586 37.2664 16.4064 -26.4444 -8.5412 4.3400
# 2 37.2664 108.9331 28.2776 -22.8111 -12.0771 -5.0162
# 3 16.4064 28.2776 49.5034 -16.8849 -9.3576 6.0827
# 4 -26.4444 -22.8111 -16.8849 44.4482 -0.8462 6.2609
# 5 -8.5412 -12.0771 -9.3576 -0.8462 30.4466 -6.2792
# 6 4.3400 -5.0162 6.0827 6.2609 -6.2792 11.5043
#
#
#
# Elastic Compliance Matrix: (Units=1/GPa)
#
#
# Indices 1 2 3 4 5 6 
#
# 1 0.007999 -0.002321 0.001408 0.005148 0.000379 -0.007369
# 2 -0.002321 0.013128 -0.006948 0.001061 0.005015 0.012433
# 3 0.001408 -0.006948 0.031849 0.013111 0.002381 -0.026236
# 4 0.005148 0.001061 0.013111 0.034865 0.001370 -0.026638
# 5 0.000379 0.005015 0.002381 0.001370 0.040248 0.022007
# 6 -0.007369 0.012433 -0.026236 -0.026638 0.022007 0.135505
#
#
# Mechanical properties :
#
#
# Convention : Reuss Voigt Hill
#
# Bulk Modulus (GPa) = 26.84272 52.96624 39.90448
# Shear Modulus (GPa) = 17.13887 32.66947 24.90417
#
# Velocity S-wave (km/s) = 2.75008 3.79687 3.31505
# Velocity P-wave (km/s) = 4.68283 6.52643 5.67993
#
# Compressibility (1/GPa) = 0.03725405
#
# Stress axis : x y z
#
# Youngs Moduli (GPa) = 125.01080 76.17103 31.39854
#
# Poissons Ratio (x) = 0.17682 -0.04421
# Poissons Ratio (y) = 0.29019 0.21815
# Poissons Ratio (z) = -0.17600 0.52921
#
# Static dielectric constant tensor:
#      x y z
#    x 1.972520 0.017230 -0.020100 
#    y 0.017230 1.366600 0.251030 
#    z -0.020100 0.251030 1.798020 
# 
# From -- ./inp_files/472498.got.cif
#   From: 2010.05.17/outbox.cif.g08.bks.cpg/sg2_237_cif.got.tgz:472498.got - 2010.06.03 11:33:40.
