data_PCOD9061194
_publ_section_title
;
Structure prediction by ZEFSAII (Michael W. Deem and Ramdas Pophale) SiO2 
 PCOD9061194
Probable space group: P -1
;
_chemical_formula_sum "Si O2"
_cell_formula_units_Z 14
_cell_length_a 8.290009
_cell_length_b 21.082769
_cell_length_c 15.813570
_cell_angle_alpha 23.230111
_cell_angle_beta 32.791618
_cell_angle_gamma 43.243235
_cell_volume 577.712246
_symmetry_space_group_name_H-M "P -1"
_symmetry_group_IT_number 2
_symmetry_cell_setting 'triclinic'
loop_
_space_group_symop_operation_xyz
x,y,z
-x,-y,-z
loop_
_atom_site_type_symbol
_atom_site_label
_atom_site_fract_x
_atom_site_fract_y
_atom_site_fract_z
Si Si1 0.187217 0.163062 0.422856
Si Si2 0.489164 0.132054 0.773394
Si Si3 0.326979 0.463656 0.882688
Si Si4 0.554594 0.069576 0.122011
Si Si5 0.096934 0.327367 0.651592
Si Si6 0.685440 0.149988 0.345007
Si Si7 0.294434 0.375805 0.808897
O O1 0.362651 0.175539 0.419121
O O2 0.850746 0.202471 0.521117
O O3 0.199915 0.983761 0.601354
O O4 0.369022 0.297658 0.113046
O O5 0.245797 0.243277 0.766071
O O6 0.364071 0.040437 0.854619
O O7 0.500000 0.000000 0.000000
O O8 0.594978 0.611644 0.613755
O O9 0.348292 0.444539 0.796036
O O10 0.000000 0.500000 0.000000
O O11 0.363970 0.942988 0.428787
O O12 0.382725 0.197580 0.995255
O O13 0.831139 0.192855 0.894136
O O14 0.000000 0.500000 0.500000
O O15 0.930365 0.321322 0.023126
O O16 0.500000 0.500000 0.500000
#
# Coordination Sequence:
#
# PCOD9061194 Si02
#       7
#     2   2   2   2   2   2   2
#     4  11  23  44  74 106 143 199 249 311 380 466
#     4  12  27  46  73 108 154 198 265 319 382 462
#     4  12  26  48  74 107 156 204 251 321 395 459
#     4  12  25  47  77 109 151 208 256 320 388 469
#     4  12  26  46  76 112 155 198 262 319 398 454
#     4  11  24  46  77 108 147 196 256 308 393 465
#     4  12  27  44  75 112 157 204 262 320 389 464
#
# _framework density 24.233519000000001
#
# number of rings (size 3 to 8) (size 9 to 14) (size 15 to 20)
#    0.000    0.286    5.714    2.571    4.000    3.429 
#    0.000    0.714    0.000    0.000    0.000    0.000 
#    0.000    0.000    0.000    0.000    0.000    0.000 
#
# Total GULP energy -78242.526317 kJ/mol
# GULP energy per Si atom -5588.751880 kJ/mol
# Density = 2.417836 g / cm^3
# Si number density = 24.233519 Si / 1000 Ang^3
#
#
#
# Elastic Constant Matrix: (Units=GPa)
#
#
# Indices 1 2 3 4 5 6 
#
# 1 103.2055 35.9628 62.3556 -6.1614 12.5670 -19.1485
# 2 35.9628 92.1605 20.2962 -9.2737 3.5144 -24.0966
# 3 62.3556 20.2962 177.7329 3.4901 2.9158 7.5404
# 4 -6.1614 -9.2737 3.4901 32.6028 -1.5420 1.9281
# 5 12.5670 3.5144 2.9158 -1.5420 49.5006 10.8733
# 6 -19.1485 -24.0966 7.5404 1.9281 10.8733 42.2390
#
#
#
# Elastic Compliance Matrix: (Units=1/GPa)
#
#
# Indices 1 2 3 4 5 6 
#
# 1 0.016386 -0.002519 -0.005769 0.002251 -0.005396 0.008307
# 2 -0.002519 0.014483 -0.001127 0.003221 -0.001906 0.007665
# 3 -0.005769 -0.001127 0.007999 -0.001861 0.002148 -0.005154
# 4 0.002251 0.003221 -0.001861 0.032106 -0.000073 0.001743
# 5 -0.005396 -0.001906 0.002148 -0.000073 0.023783 -0.010036
# 6 0.008307 0.007665 -0.005154 0.001743 -0.010036 0.035237
#
#
# Mechanical properties :
#
#
# Convention : Reuss Voigt Hill
#
# Bulk Modulus (GPa) = 49.90886 67.81423 58.86155
# Shear Modulus (GPa) = 32.15356 41.83411 36.99383
#
# Velocity S-wave (km/s) = 3.64651 4.15937 3.91136
# Velocity P-wave (km/s) = 6.19427 7.14924 6.68882
#
# Compressibility (1/GPa) = 0.02003652
#
# Stress axis : x y z
#
# Youngs Moduli (GPa) = 61.02907 69.04776 125.01289
#
# Poissons Ratio (x) = 0.17394 0.72122
# Poissons Ratio (y) = 0.15374 0.14092
# Poissons Ratio (z) = 0.35209 0.07783
#
# Static dielectric constant tensor:
#      x y z
#    x 2.005430 -0.113460 -0.030470 
#    y -0.113460 2.152960 0.089770 
#    z -0.030470 0.089770 2.159110 
# 
# From -- ./inp_files/563271.got.cif
#   From: 2010.05.17/outbox.cif.g08.bks.cpg/sg2_282_cif.got.tgz:563271.got - 2010.06.03 11:33:40.
