data_PCOD9061948
_publ_section_title
;
Structure prediction by ZEFSAII (Michael W. Deem and Ramdas Pophale) SiO2 
 PCOD9061948
Probable space group: P -1
;
_chemical_formula_sum "Si O2"
_cell_formula_units_Z 13
_cell_length_a 5.647905
_cell_length_b 13.143519
_cell_length_c 8.772060
_cell_angle_alpha 96.006574
_cell_angle_beta 107.572797
_cell_angle_gamma 126.100614
_cell_volume 466.629586
_symmetry_space_group_name_H-M "P -1"
_symmetry_group_IT_number 2
_symmetry_cell_setting 'triclinic'
loop_
_space_group_symop_operation_xyz
x,y,z
-x,-y,-z
loop_
_atom_site_type_symbol
_atom_site_label
_atom_site_fract_x
_atom_site_fract_y
_atom_site_fract_z
Si Si1 0.623156 0.918244 0.366693
Si Si2 0.238521 0.542472 0.195112
Si Si3 0.314393 0.322305 0.205022
Si Si4 0.342961 0.225972 0.881812
Si Si5 0.776560 0.321239 0.514315
Si Si6 0.000000 0.000000 0.000000
Si Si7 0.267489 0.848119 0.748264
O O1 0.470304 0.815553 0.175573
O O2 0.421221 0.817887 0.451012
O O3 0.644480 0.037495 0.328789
O O4 0.000000 0.000000 0.500000
O O5 0.263239 0.429286 0.212659
O O6 0.604641 0.679685 0.234144
O O7 0.094192 0.570303 0.310766
O O8 0.000000 0.500000 0.000000
O O9 0.555139 0.341951 0.380629
O O10 0.966643 0.173651 0.163726
O O11 0.415885 0.314734 0.055948
O O12 0.029319 0.078552 0.858552
O O13 0.930350 0.292707 0.406535
O O14 0.596117 0.888793 0.888061
#
# Coordination Sequence:
#
# PCOD9061948 Si02
#       7
#     2   2   2   2   2   1   2
#     4  11  23  46  74 111 151 198 244 305 380 447
#     4  11  27  49  77 108 148 202 251 311 375 442
#     4  12  25  50  76 108 151 202 246 317 366 447
#     4  11  25  46  74 110 153 189 257 300 377 452
#     4  11  25  50  73 111 149 195 257 304 378 443
#     4  12  24  46  72 114 146 190 246 308 372 446
#     4  12  26  46  79 110 154 193 249 310 379 443
#
# _framework density 27.859355000000001
#
# number of rings (size 3 to 8) (size 9 to 14) (size 15 to 20)
#    0.000    0.615    3.077    4.154    0.000    6.769 
#    2.769    0.000    0.000    0.000    0.000    0.000 
#    0.000    0.000    0.000    0.000    0.000    0.000 
#
# Total GULP energy -72435.440903 kJ/mol
# GULP energy per Si atom -5571.956993 kJ/mol
# Density = 2.779595 g / cm^3
# Si number density = 27.859355 Si / 1000 Ang^3
#
#
#
# Elastic Constant Matrix: (Units=GPa)
#
#
# Indices 1 2 3 4 5 6 
#
# 1 88.0959 35.0502 79.3682 -9.4679 -11.9680 -11.8832
# 2 35.0502 172.3877 28.3785 -39.6757 -14.8771 -15.7849
# 3 79.3682 28.3785 159.9912 1.3278 -22.4510 -17.3394
# 4 -9.4679 -39.6757 1.3278 56.5869 -6.0800 -7.2094
# 5 -11.9680 -14.8771 -22.4510 -6.0800 57.3367 -1.7736
# 6 -11.8832 -15.7849 -17.3394 -7.2094 -1.7736 65.5563
#
#
#
# Elastic Compliance Matrix: (Units=1/GPa)
#
#
# Indices 1 2 3 4 5 6 
#
# 1 0.022027 -0.002022 -0.010434 0.002679 0.000304 0.001049
# 2 -0.002022 0.007930 0.000127 0.005763 0.002367 0.002274
# 3 -0.010434 0.000127 0.011878 -0.001530 0.002380 0.001177
# 4 0.002679 0.005763 -0.001530 0.023156 0.004039 0.004124
# 5 0.000304 0.002367 0.002380 0.004039 0.019548 0.002228
# 6 0.001049 0.002274 0.001177 0.004124 0.002228 0.016817
#
#
# Mechanical properties :
#
#
# Convention : Reuss Voigt Hill
#
# Bulk Modulus (GPa) = 58.21743 78.45207 68.33475
# Shear Modulus (GPa) = 37.95354 54.40784 46.18069
#
# Velocity S-wave (km/s) = 3.69497 4.42401 4.07583
# Velocity P-wave (km/s) = 6.25668 7.37001 6.83605
#
# Compressibility (1/GPa) = 0.01717699
#
# Stress axis : x y z
#
# Youngs Moduli (GPa) = 45.39851 126.10552 84.18651
#
# Poissons Ratio (x) = 0.25499 0.87844
# Poissons Ratio (y) = 0.09180 -0.01072
# Poissons Ratio (z) = 0.47371 -0.01606
#
# Static dielectric constant tensor:
#      x y z
#    x 2.070570 0.387760 0.204600 
#    y 0.387760 0.583140 -0.771280 
#    z 0.204600 -0.771280 1.797520 
# 
# From -- ./inp_files/133271.got.cif
#   From: 2010.05.17/outbox.cif.g08.bks.cpg/sg2_67_cif.got.tgz:133271.got - 2010.06.03 11:33:40.
