data_PCOD9061312
_publ_section_title
;
Structure prediction by ZEFSAII (Michael W. Deem and Ramdas Pophale) SiO2 
 PCOD9061312
Probable space group: P -1
;
_chemical_formula_sum "Si O2"
_cell_formula_units_Z 14
_cell_length_a 13.414194
_cell_length_b 21.310492
_cell_length_c 8.405158
_cell_angle_alpha 43.177917
_cell_angle_beta 64.775016
_cell_angle_gamma 30.780385
_cell_volume 690.073112
_symmetry_space_group_name_H-M "P -1"
_symmetry_group_IT_number 2
_symmetry_cell_setting 'triclinic'
loop_
_space_group_symop_operation_xyz
x,y,z
-x,-y,-z
loop_
_atom_site_type_symbol
_atom_site_label
_atom_site_fract_x
_atom_site_fract_y
_atom_site_fract_z
Si Si1 0.646849 0.151513 0.310538
Si Si2 0.933909 0.786267 0.925644
Si Si3 0.209052 0.406310 0.959149
Si Si4 0.569222 0.910258 0.793766
Si Si5 0.011961 0.887576 0.259439
Si Si6 0.622470 0.474179 0.094219
Si Si7 0.065805 0.229164 0.680287
O O1 0.792118 0.987652 0.645307
O O2 0.409685 0.271754 0.203516
O O3 0.568545 0.311297 0.111868
O O4 0.810681 0.027243 0.273071
O O5 0.757982 0.839275 0.875878
O O6 0.162642 0.629750 0.947042
O O7 0.996011 0.719378 0.188037
O O8 0.109921 0.577320 0.659044
O O9 0.314260 0.273878 0.982794
O O10 0.000000 0.500000 0.000000
O O11 0.500000 0.000000 0.500000
O O12 0.331164 0.071518 0.758830
O O13 0.255962 0.675584 0.571879
O O14 0.956902 0.856149 0.215612
O O15 0.000000 0.000000 0.000000
O O16 0.500000 0.500000 0.000000
#
# Coordination Sequence:
#
# PCOD9061312 Si02
#       7
#     2   2   2   2   2   2   2
#     4  11  23  45  67  94 130 178 218 264 330 393
#     4  11  26  42  67  99 137 170 218 274 327 389
#     4  12  22  38  71  94 130 174 214 264 321 393
#     4  12  21  42  68  95 133 175 216 261 329 394
#     4  11  26  44  69  97 131 173 222 272 327 390
#     4  11  26  45  68  96 130 175 226 268 328 392
#     4  12  25  42  65 105 133 168 221 273 329 388
#
# _framework density 20.287704000000002
#
# number of rings (size 3 to 8) (size 9 to 14) (size 15 to 20)
#    0.000    0.571    5.714    2.143    4.000    4.571 
#    0.000    0.000    0.000    0.000    0.000    0.000 
#    0.000    0.000    0.000    0.000    0.000    0.000 
#
# Total GULP energy -78315.443887 kJ/mol
# GULP energy per Si atom -5593.960278 kJ/mol
# Density = 2.024153 g / cm^3
# Si number density = 20.287704 Si / 1000 Ang^3
#
#
#
# Elastic Constant Matrix: (Units=GPa)
#
#
# Indices 1 2 3 4 5 6 
#
# 1 101.1636 -18.3495 4.9227 -1.0210 -5.4971 8.5448
# 2 -18.3495 18.4602 -1.6487 0.0700 -1.8179 6.8340
# 3 4.9227 -1.6487 49.1235 1.2326 -11.0923 3.5028
# 4 -1.0210 0.0700 1.2326 38.3053 7.0354 -5.2976
# 5 -5.4971 -1.8179 -11.0923 7.0354 38.0937 -4.9235
# 6 8.5448 6.8340 3.5028 -5.2976 -4.9235 32.3278
#
#
#
# Elastic Compliance Matrix: (Units=1/GPa)
#
#
# Indices 1 2 3 4 5 6 
#
# 1 0.013490 0.016169 0.000171 -0.001003 0.002068 -0.006852
# 2 0.016169 0.078951 0.003798 -0.003714 0.005153 -0.021199
# 3 0.000171 0.003798 0.022241 -0.002323 0.006774 -0.002607
# 4 -0.001003 -0.003714 -0.002323 0.027866 -0.005494 0.005031
# 5 0.002068 0.005153 0.006774 -0.005494 0.029950 0.001291
# 6 -0.006852 -0.021199 -0.002607 0.005031 0.001291 0.038529
#
#
# Mechanical properties :
#
#
# Convention : Reuss Voigt Hill
#
# Bulk Modulus (GPa) = 6.45334 15.39958 10.92646
# Shear Modulus (GPa) = 22.48165 34.00022 28.24094
#
# Velocity S-wave (km/s) = 3.33249 4.09822 3.73503
# Velocity P-wave (km/s) = 4.24206 5.47731 4.89878
#
# Compressibility (1/GPa) = 0.15495853
#
# Stress axis : x y z
#
# Youngs Moduli (GPa) = 74.12686 12.66609 44.96207
#
# Poissons Ratio (x) = -0.20480 -0.00771
# Poissons Ratio (y) = -1.19854 -0.17076
# Poissons Ratio (z) = -0.01271 -0.04810
#
# Static dielectric constant tensor:
#      x y z
#    x 1.719670 -0.012860 -0.026390 
#    y -0.012860 1.717230 -0.013780 
#    z -0.026390 -0.013780 1.733780 
# 
# From -- ./inp_files/27473.got.cif
#   From: 2010.05.17/outbox.cif.g08.bks.cpg/sg2_14_cif.got.tgz:27473.got - 2010.06.03 11:33:40.
