data_PCOD9061616
_publ_section_title
;
Structure prediction by ZEFSAII (Michael W. Deem and Ramdas Pophale) SiO2 
 PCOD9061616
Probable space group: P -1
;
_chemical_formula_sum "Si O2"
_cell_formula_units_Z 16
_cell_length_a 13.029025
_cell_length_b 5.023217
_cell_length_c 17.356295
_cell_angle_alpha 112.631991
_cell_angle_beta 143.520136
_cell_angle_gamma 62.568394
_cell_volume 599.196251
_symmetry_space_group_name_H-M "P -1"
_symmetry_group_IT_number 2
_symmetry_cell_setting 'triclinic'
loop_
_space_group_symop_operation_xyz
x,y,z
-x,-y,-z
loop_
_atom_site_type_symbol
_atom_site_label
_atom_site_fract_x
_atom_site_fract_y
_atom_site_fract_z
Si Si1 0.603875 0.946126 0.718632
Si Si2 0.654630 0.049977 0.204039
Si Si3 0.305180 0.892355 0.040449
Si Si4 0.098172 0.655796 0.637992
Si Si5 0.869777 0.665564 0.637268
Si Si6 0.651359 0.309342 0.633030
Si Si7 0.158436 0.322587 0.872765
Si Si8 0.236978 0.859625 0.550022
O O1 0.682032 0.056192 0.854982
O O2 0.705526 0.594030 0.731107
O O3 0.606937 0.136355 0.664049
O O4 0.400662 0.946661 0.618760
O O5 0.736017 0.893892 0.156236
O O6 0.476722 0.963025 0.109268
O O7 0.691637 0.377577 0.247532
O O8 0.756239 0.026666 0.345857
O O9 0.154884 0.132573 0.926976
O O10 0.268120 0.570808 0.974853
O O11 0.000000 0.500000 0.500000
O O12 0.051261 0.595601 0.688685
O O13 0.960890 0.986851 0.583134
O O14 0.749720 0.486099 0.499004
O O15 0.954406 0.498377 0.746844
O O16 0.774650 0.014458 0.631668
O O17 0.500000 0.500000 0.500000
#
# Coordination Sequence:
#
# PCOD9061616 Si02
#       8
#     2   2   2   2   2   2   2   2
#     4  11  28  50  80 111 156 199 257 328 394 465
#     4  11  23  45  74 113 157 207 263 319 383 460
#     4  11  27  50  77 110 155 211 275 315 378 449
#     4  12  23  40  69 110 161 206 249 305 397 475
#     4  12  28  46  75 112 159 204 259 321 402 468
#     4  12  29  51  80 119 154 193 253 327 406 479
#     4  12  25  48  76 110 157 213 264 324 370 458
#     4  11  25  44  70 113 159 204 250 318 402 473
#
# _framework density 26.702437
#
# number of rings (size 3 to 8) (size 9 to 14) (size 15 to 20)
#    0.000    0.500    2.500    4.500    7.000    3.000 
#    0.000    3.750    0.000    0.000    0.000    0.000 
#    0.000    0.000    0.000    0.000    0.000    0.000 
#
# Total GULP energy -89323.162985 kJ/mol
# GULP energy per Si atom -5582.697687 kJ/mol
# Density = 2.664166 g / cm^3
# Si number density = 26.702437 Si / 1000 Ang^3
#
#
#
# Elastic Constant Matrix: (Units=GPa)
#
#
# Indices 1 2 3 4 5 6 
#
# 1 145.1990 27.6645 22.1609 10.5392 -30.6452 15.5296
# 2 27.6645 141.2767 45.2190 20.4999 -7.5687 23.2333
# 3 22.1609 45.2190 129.6439 32.9699 -24.6609 -0.1170
# 4 10.5392 20.4999 32.9699 59.8274 9.5412 -7.8899
# 5 -30.6452 -7.5687 -24.6609 9.5412 33.2669 0.5882
# 6 15.5296 23.2333 -0.1170 -7.8899 0.5882 37.9711
#
#
#
# Elastic Compliance Matrix: (Units=1/GPa)
#
#
# Indices 1 2 3 4 5 6 
#
# 1 0.010295 -0.000337 0.002226 -0.005671 0.012779 -0.005374
# 2 -0.000337 0.009373 -0.002279 -0.002887 0.001070 -0.006221
# 3 0.002226 -0.002279 0.013151 -0.009301 0.013977 -0.001624
# 4 -0.005671 -0.002887 -0.009301 0.028563 -0.021151 0.010320
# 5 0.012779 0.001070 0.013977 -0.021151 0.058700 -0.011142
# 6 -0.005374 -0.006221 -0.001624 0.010320 -0.011142 0.034652
#
#
# Mechanical properties :
#
#
# Convention : Reuss Voigt Hill
#
# Bulk Modulus (GPa) = 31.21317 67.35650 49.28483
# Shear Modulus (GPa) = 30.08528 47.61809 38.85169
#
# Velocity S-wave (km/s) = 3.36026 4.22748 3.81857
# Velocity P-wave (km/s) = 5.17395 7.00774 6.15947
#
# Compressibility (1/GPa) = 0.03203776
#
# Stress axis : x y z
#
# Youngs Moduli (GPa) = 97.13435 106.68650 76.04144
#
# Poissons Ratio (x) = 0.03597 -0.16927
# Poissons Ratio (y) = 0.03275 0.17333
# Poissons Ratio (z) = -0.21622 0.24319
#
# Static dielectric constant tensor:
#      x y z
#    x 2.311110 0.216290 0.020910 
#    y 0.216290 2.434450 -0.027460 
#    z 0.020910 -0.027460 2.142670 
# 
# From -- ./inp_files/598963.got.cif
#   From: 2010.05.17/outbox.cif.g08.bks.cpg/sg2_300_cif.got.tgz:598963.got - 2010.06.03 11:33:40.
