data_PCOD9061119
_publ_section_title
;
Structure prediction by ZEFSAII (Michael W. Deem and Ramdas Pophale) SiO2 
 PCOD9061119
Probable space group: P -1
;
_chemical_formula_sum "Si O2"
_cell_formula_units_Z 16
_cell_length_a 13.381253
_cell_length_b 9.122192
_cell_length_c 11.956899
_cell_angle_alpha 127.137313
_cell_angle_beta 134.285726
_cell_angle_gamma 45.472546
_cell_volume 726.025747
_symmetry_space_group_name_H-M "P -1"
_symmetry_group_IT_number 2
_symmetry_cell_setting 'triclinic'
loop_
_space_group_symop_operation_xyz
x,y,z
-x,-y,-z
loop_
_atom_site_type_symbol
_atom_site_label
_atom_site_fract_x
_atom_site_fract_y
_atom_site_fract_z
Si Si1 0.102477 0.540280 0.688798
Si Si2 0.590605 0.506275 0.184236
Si Si3 0.567662 0.148304 0.585151
Si Si4 0.854298 0.452682 0.845974
Si Si5 0.931589 0.017835 0.830572
Si Si6 0.775662 0.138098 0.310438
Si Si7 0.013561 0.683461 0.339202
Si Si8 0.498299 0.703017 0.645467
O O1 0.282674 0.428025 0.733974
O O2 0.000000 0.500000 0.500000
O O3 0.046832 0.787334 0.764749
O O4 0.062004 0.449950 0.727253
O O5 0.506250 0.648823 0.294533
O O6 0.673706 0.268881 0.186823
O O7 0.500000 0.500000 0.000000
O O8 0.530348 0.171333 0.434062
O O9 0.500000 0.000000 0.500000
O O10 0.756372 0.042121 0.703085
O O11 0.851404 0.441930 0.704155
O O12 0.668789 0.623336 0.805447
O O13 0.905251 0.227851 0.841323
O O14 0.000000 0.500000 0.000000
O O15 0.000000 0.000000 0.000000
O O16 0.901480 0.225030 0.469755
O O17 0.653359 0.187305 0.340456
O O18 0.876331 0.888003 0.264033
O O19 0.500000 0.500000 0.500000
#
# Coordination Sequence:
#
# PCOD9061119 Si02
#       8
#     2   2   2   2   2   2   2   2
#     4  12  26  43  70 103 138 182 237 282 346 423
#     4  12  25  46  68 101 146 182 227 291 359 416
#     4  12  27  44  74 105 138 186 238 290 353 421
#     4  12  26  46  72 104 143 185 233 292 359 418
#     4  12  26  46  71 104 144 185 231 291 353 419
#     4  11  23  44  73 101 136 185 234 289 352 411
#     4  11  24  43  71 102 136 181 236 289 341 419
#     4  12  23  46  74 100 135 181 242 293 342 422
#
# _framework density 22.037787000000002
#
# number of rings (size 3 to 8) (size 9 to 14) (size 15 to 20)
#    0.000    0.250    5.000    3.000    8.750    1.000 
#    0.000    1.250    0.000    0.000    0.000    0.000 
#    0.000    0.000    0.000    0.000    0.000    0.000 
#
# Total GULP energy -89348.851434 kJ/mol
# GULP energy per Si atom -5584.303215 kJ/mol
# Density = 2.198763 g / cm^3
# Si number density = 22.037787 Si / 1000 Ang^3
#
#
#
# Elastic Constant Matrix: (Units=GPa)
#
#
# Indices 1 2 3 4 5 6 
#
# 1 125.7769 17.4066 6.0410 -9.2541 -5.8938 14.0214
# 2 17.4066 53.8155 7.9647 -16.5544 -14.2051 6.7502
# 3 6.0410 7.9647 93.2818 -15.3017 -2.3676 12.0514
# 4 -9.2541 -16.5544 -15.3017 33.1007 4.9005 -8.4258
# 5 -5.8938 -14.2051 -2.3676 4.9005 32.7831 -2.9398
# 6 14.0214 6.7502 12.0514 -8.4258 -2.9398 48.7050
#
#
#
# Elastic Compliance Matrix: (Units=1/GPa)
#
#
# Indices 1 2 3 4 5 6 
#
# 1 0.008548 -0.002212 0.000024 0.000739 0.000289 -0.002015
# 2 -0.002212 0.024875 0.000011 0.010404 0.008783 -0.000484
# 3 0.000024 0.000011 0.011796 0.004947 -0.000064 -0.002075
# 4 0.000739 0.010404 0.004947 0.038954 -0.000481 0.003831
# 5 0.000289 0.008783 -0.000064 -0.000481 0.034493 0.000714
# 6 -0.002015 -0.000484 -0.002075 0.003831 0.000714 0.022398
#
#
# Mechanical properties :
#
#
# Convention : Reuss Voigt Hill
#
# Bulk Modulus (GPa) = 24.47033 37.29987 30.88510
# Shear Modulus (GPa) = 31.43884 39.01520 35.22702
#
# Velocity S-wave (km/s) = 3.78112 4.21215 4.00244
# Velocity P-wave (km/s) = 5.49458 6.37326 5.95016
#
# Compressibility (1/GPa) = 0.04086582
#
# Stress axis : x y z
#
# Youngs Moduli (GPa) = 116.98503 40.20045 84.77762
#
# Poissons Ratio (x) = 0.08893 -0.00205
# Poissons Ratio (y) = 0.25879 -0.00097
# Poissons Ratio (z) = -0.00283 -0.00046
#
# Static dielectric constant tensor:
#      x y z
#    x 2.014370 0.088950 -0.097440 
#    y 0.088950 1.891350 -0.044150 
#    z -0.097440 -0.044150 1.829290 
# 
# From -- ./inp_files/419811.got.cif
#   From: 2010.05.17/outbox.cif.g08.bks.cpg/sg2_210_cif.got.tgz:419811.got - 2010.06.03 11:33:40.
