data_PCOD9061125
_publ_section_title
;
Structure prediction by ZEFSAII (Michael W. Deem and Ramdas Pophale) SiO2 
 PCOD9061125
Probable space group: P -1
;
_chemical_formula_sum "Si O2"
_cell_formula_units_Z 16
_cell_length_a 17.521529
_cell_length_b 15.388678
_cell_length_c 8.522461
_cell_angle_alpha 44.189736
_cell_angle_beta 44.228163
_cell_angle_gamma 28.199621
_cell_volume 731.481225
_symmetry_space_group_name_H-M "P -1"
_symmetry_group_IT_number 2
_symmetry_cell_setting 'triclinic'
loop_
_space_group_symop_operation_xyz
x,y,z
-x,-y,-z
loop_
_atom_site_type_symbol
_atom_site_label
_atom_site_fract_x
_atom_site_fract_y
_atom_site_fract_z
Si Si1 0.899219 0.144939 0.105674
Si Si2 0.596995 0.534831 0.876842
Si Si3 0.086527 0.043888 0.397807
Si Si4 0.619530 0.092326 0.075531
Si Si5 0.793156 0.486409 0.358987
Si Si6 0.067993 0.250956 0.789354
Si Si7 0.612709 0.815795 0.966700
Si Si8 0.025741 0.432324 0.303056
O O1 0.850537 0.072643 0.382435
O O2 0.740167 0.357102 0.007072
O O3 0.013267 0.154591 0.003507
O O4 0.000000 0.000000 0.000000
O O5 0.477276 0.725537 0.909372
O O6 0.683314 0.525445 0.611989
O O7 0.500000 0.500000 0.000000
O O8 0.935818 0.268646 0.370089
O O9 0.000000 0.000000 0.500000
O O10 0.241332 0.968571 0.170320
O O11 0.484826 0.136923 0.109022
O O12 0.733658 0.913124 0.258692
O O13 0.898162 0.507343 0.258188
O O14 0.673085 0.641376 0.199405
O O15 0.993694 0.407691 0.824849
O O16 0.000341 0.365331 0.577887
O O17 0.781255 0.749147 0.783141
O O18 0.500000 0.000000 0.000000
#
# Coordination Sequence:
#
# PCOD9061125 Si02
#       8
#     2   2   2   2   2   2   2   2
#     4  12  23  46  72 102 139 186 238 281 353 430
#     4  12  27  45  70 109 143 182 229 302 357 417
#     4  12  25  45  75 100 138 188 234 285 348 434
#     4  12  27  44  70 108 143 180 230 301 359 412
#     4  12  26  49  74 102 143 190 241 284 357 432
#     4  11  23  44  73 102 134 183 245 286 344 427
#     4  12  28  45  69 107 147 183 233 300 358 409
#     4  11  24  46  74  97 133 191 242 290 341 423
#
# _framework density 21.873425000000001
#
# number of rings (size 3 to 8) (size 9 to 14) (size 15 to 20)
#    0.000    0.250    3.750    4.875    7.000    1.000 
#    0.000    0.000    0.000    0.000    0.000    0.000 
#    0.000    0.000    0.000    0.000    0.000    0.000 
#
# Total GULP energy -89495.837743 kJ/mol
# GULP energy per Si atom -5593.489859 kJ/mol
# Density = 2.182364 g / cm^3
# Si number density = 21.873425 Si / 1000 Ang^3
#
#
#
# Elastic Constant Matrix: (Units=GPa)
#
#
# Indices 1 2 3 4 5 6 
#
# 1 112.8778 19.9110 -1.9909 1.1791 -10.2805 -5.5491
# 2 19.9110 147.0280 10.7081 7.4393 0.9365 19.9411
# 3 -1.9909 10.7081 86.7454 6.4791 0.5187 5.1017
# 4 1.1791 7.4393 6.4791 39.5856 -13.2909 5.7531
# 5 -10.2805 0.9365 0.5187 -13.2909 33.1496 -7.4047
# 6 -5.5491 19.9411 5.1017 5.7531 -7.4047 48.8661
#
#
#
# Elastic Compliance Matrix: (Units=1/GPa)
#
#
# Indices 1 2 3 4 5 6 
#
# 1 0.009619 -0.001697 0.000201 0.000992 0.003926 0.002242
# 2 -0.001697 0.007625 -0.000659 -0.001482 -0.002080 -0.003376
# 3 0.000201 -0.000659 0.011826 -0.002070 -0.001129 -0.000870
# 4 0.000992 -0.001482 -0.002070 0.030080 0.012275 -0.000748
# 5 0.003926 -0.002080 -0.001129 0.012275 0.037649 0.005672
# 6 0.002242 -0.003376 -0.000870 -0.000748 0.005672 0.023135
#
#
# Mechanical properties :
#
#
# Convention : Reuss Voigt Hill
#
# Bulk Modulus (GPa) = 40.38356 44.87863 42.63109
# Shear Modulus (GPa) = 37.73665 45.52181 41.62923
#
# Velocity S-wave (km/s) = 4.15809 4.56691 4.36729
# Velocity P-wave (km/s) = 6.44635 6.95491 6.70546
#
# Compressibility (1/GPa) = 0.02476255
#
# Stress axis : x y z
#
# Youngs Moduli (GPa) = 103.95652 131.14241 84.55614
#
# Poissons Ratio (x) = 0.22249 -0.01698
# Poissons Ratio (y) = 0.17637 0.05568
# Poissons Ratio (z) = -0.02087 0.08636
#
# Static dielectric constant tensor:
#      x y z
#    x 2.088490 0.216040 0.016960 
#    y 0.216040 2.003000 0.043470 
#    z 0.016960 0.043470 1.913580 
# 
# From -- ./inp_files/284670.got.cif
#   From: 2010.05.17/outbox.cif.g08.bks.cpg/sg2_143_cif.got.tgz:284670.got - 2010.06.03 11:33:40.
