data_PCOD9061049
_publ_section_title
;
Structure prediction by ZEFSAII (Michael W. Deem and Ramdas Pophale) SiO2 
 PCOD9061049
Probable space group: P -1
;
_chemical_formula_sum "Si O2"
_cell_formula_units_Z 13
_cell_length_a 9.461270
_cell_length_b 14.415282
_cell_length_c 9.994681
_cell_angle_alpha 126.895894
_cell_angle_beta 128.036418
_cell_angle_gamma 35.649526
_cell_volume 610.815472
_symmetry_space_group_name_H-M "P -1"
_symmetry_group_IT_number 2
_symmetry_cell_setting 'triclinic'
loop_
_space_group_symop_operation_xyz
x,y,z
-x,-y,-z
loop_
_atom_site_type_symbol
_atom_site_label
_atom_site_fract_x
_atom_site_fract_y
_atom_site_fract_z
Si Si1 0.564592 0.481939 0.866744
Si Si2 0.088608 0.128428 0.909773
Si Si3 0.000000 0.000000 0.000000
Si Si4 0.704204 0.614555 0.449232
Si Si5 0.539456 0.836531 0.792309
Si Si6 0.279277 0.339637 0.974979
Si Si7 0.503829 0.125267 0.677864
O O1 0.366545 0.488683 0.684942
O O2 0.569603 0.613096 0.940290
O O3 0.843963 0.303815 0.861900
O O4 0.500000 0.500000 0.000000
O O5 0.016299 0.070221 0.930723
O O6 0.248342 0.004177 0.771883
O O7 0.273914 0.139671 0.093921
O O8 0.232077 0.970962 0.177965
O O9 0.614934 0.708546 0.617615
O O10 0.557798 0.750842 0.364799
O O11 0.000000 0.500000 0.500000
O O12 0.586845 0.771509 0.913770
O O13 0.296865 0.244158 0.777502
O O14 0.000000 0.500000 0.000000
O O15 0.500000 0.000000 0.500000
#
# Coordination Sequence:
#
# PCOD9061049 Si02
#       7
#     2   2   1   2   2   2   2
#     4  12  24  45  73 100 144 196 239 300 377 440
#     4  11  23  44  72 101 146 189 240 297 377 437
#     4  12  22  48  76 108 144 198 252 302 364 452
#     4  12  26  47  71 108 148 192 252 311 372 454
#     4  11  25  44  71 107 146 192 241 313 376 437
#     4  12  24  47  73 105 147 194 242 305 382 437
#     4  12  27  47  76 109 145 199 252 303 370 455
#
# _framework density 21.283024000000001
#
# number of rings (size 3 to 8) (size 9 to 14) (size 15 to 20)
#    0.000    0.308    6.154    2.769    2.154    2.462 
#    2.769    0.000    0.000    0.000    0.000    0.000 
#    0.000    0.000    0.000    0.000    0.000    0.000 
#
# Total GULP energy -72474.337983 kJ/mol
# GULP energy per Si atom -5574.949076 kJ/mol
# Density = 2.123458 g / cm^3
# Si number density = 21.283024 Si / 1000 Ang^3
#
#
#
# Elastic Constant Matrix: (Units=GPa)
#
#
# Indices 1 2 3 4 5 6 
#
# 1 118.5530 16.3282 46.4532 17.9212 8.2301 12.7504
# 2 16.3282 67.1220 34.0434 7.0940 10.4036 -11.3650
# 3 46.4532 34.0434 129.1886 29.4013 5.6492 -13.9112
# 4 17.9212 7.0940 29.4013 39.2805 -4.6833 -6.5993
# 5 8.2301 10.4036 5.6492 -4.6833 35.0577 -5.6626
# 6 12.7504 -11.3650 -13.9112 -6.5993 -5.6626 32.9969
#
#
#
# Elastic Compliance Matrix: (Units=1/GPa)
#
#
# Indices 1 2 3 4 5 6 
#
# 1 0.011797 -0.001382 -0.003628 -0.004199 -0.003632 -0.008027
# 2 -0.001382 0.018499 -0.003818 0.000504 -0.003714 0.004760
# 3 -0.003628 -0.003818 0.011803 -0.005846 -0.000071 0.003881
# 4 -0.004199 0.000504 -0.005846 0.033789 0.007483 0.007373
# 5 -0.003632 -0.003714 -0.000071 0.007483 0.032652 0.007194
# 6 -0.008027 0.004760 0.003881 0.007373 0.007194 0.039393
#
#
# Mechanical properties :
#
#
# Convention : Reuss Voigt Hill
#
# Bulk Modulus (GPa) = 40.91020 56.50147 48.70583
# Shear Modulus (GPa) = 28.77932 36.00294 32.39113
#
# Velocity S-wave (km/s) = 3.68124 4.11740 3.90542
# Velocity P-wave (km/s) = 6.11003 7.01493 6.57806
#
# Compressibility (1/GPa) = 0.02444378
#
# Stress axis : x y z
#
# Youngs Moduli (GPa) = 84.76685 54.05698 84.72740
#
# Poissons Ratio (x) = 0.07472 0.30736
# Poissons Ratio (y) = 0.11717 0.32345
# Poissons Ratio (z) = 0.30750 0.20636
#
# Static dielectric constant tensor:
#      x y z
#    x 1.788290 -0.074930 0.013250 
#    y -0.074930 1.946900 0.033270 
#    z 0.013250 0.033270 1.760570 
# 
# From -- ./inp_files/152799.got.cif
#   From: 2010.05.17/outbox.cif.g08.bks.cpg/sg2_77_cif.got.tgz:152799.got - 2010.06.03 11:33:40.
