data_PCOD9061346
_publ_section_title
;
Structure prediction by ZEFSAII (Michael W. Deem and Ramdas Pophale) SiO2 
 PCOD9061346
Probable space group: P -1
;
_chemical_formula_sum "Si O2"
_cell_formula_units_Z 14
_cell_length_a 14.088235
_cell_length_b 11.675548
_cell_length_c 19.814888
_cell_angle_alpha 30.652802
_cell_angle_beta 156.337720
_cell_angle_gamma 149.613634
_cell_volume 620.904158
_symmetry_space_group_name_H-M "P -1"
_symmetry_group_IT_number 2
_symmetry_cell_setting 'triclinic'
loop_
_space_group_symop_operation_xyz
x,y,z
-x,-y,-z
loop_
_atom_site_type_symbol
_atom_site_label
_atom_site_fract_x
_atom_site_fract_y
_atom_site_fract_z
Si Si1 0.361306 0.787086 0.217916
Si Si2 0.818096 0.209479 0.255770
Si Si3 0.088123 0.002505 0.185253
Si Si4 0.542032 0.522370 0.869355
Si Si5 0.767323 0.761276 0.589222
Si Si6 0.978526 0.817338 0.356684
Si Si7 0.827347 0.472606 0.266060
O O1 0.503520 0.789775 0.381233
O O2 0.284173 0.511687 0.283598
O O3 0.572197 0.966835 0.214866
O O4 0.136982 0.891018 0.022249
O O5 0.829583 0.299798 0.294170
O O6 0.071370 0.196273 0.396520
O O7 0.759997 0.412682 0.072123
O O8 0.342237 0.209406 0.220386
O O9 0.102462 0.925826 0.310867
O O10 0.999290 0.745551 0.220113
O O11 0.315679 0.332774 0.775160
O O12 0.435088 0.525446 0.874014
O O13 0.938494 0.954037 0.655617
O O14 0.071714 0.627100 0.552179
#
# Coordination Sequence:
#
# PCOD9061346 Si02
#       7
#     2   2   2   2   2   2   2
#     4  11  23  45  68  97 134 171 225 277 316 396
#     4  12  23  45  69  98 134 176 219 274 332 385
#     4  11  24  46  68 100 135 172 221 273 331 391
#     4  11  24  44  68 100 132 176 220 269 337 388
#     4  11  26  44  69 100 133 174 224 268 333 392
#     4  11  25  45  67  97 137 176 218 272 328 396
#     4  11  25  43  70  98 133 174 224 276 322 390
#
# _framework density 22.547764000000001
#
# number of rings (size 3 to 8) (size 9 to 14) (size 15 to 20)
#    0.000    0.857    5.714    2.571    0.000    6.286 
#    2.571    0.000    0.000    0.000    0.000    0.000 
#    0.000    0.000    0.000    0.000    0.000    0.000 
#
# Total GULP energy -78263.408406 kJ/mol
# GULP energy per Si atom -5590.243458 kJ/mol
# Density = 2.249644 g / cm^3
# Si number density = 22.547764 Si / 1000 Ang^3
#
#
#
# Elastic Constant Matrix: (Units=GPa)
#
#
# Indices 1 2 3 4 5 6 
#
# 1 50.9219 55.2307 18.4566 6.1287 -0.4935 -0.4172
# 2 55.2307 198.5276 17.5700 -19.6146 -9.7720 13.5121
# 3 18.4566 17.5700 76.6708 -7.3004 -8.3386 -12.1590
# 4 6.1287 -19.6146 -7.3004 33.6187 6.0881 -3.4611
# 5 -0.4935 -9.7720 -8.3386 6.0881 16.8514 -10.2294
# 6 -0.4172 13.5121 -12.1590 -3.4611 -10.2294 40.4212
#
#
#
# Elastic Compliance Matrix: (Units=1/GPa)
#
#
# Indices 1 2 3 4 5 6 
#
# 1 0.035948 -0.010826 -0.008147 -0.013864 -0.004766 -0.000854
# 2 -0.010826 0.008828 0.001187 0.006866 0.001918 -0.001633
# 3 -0.008147 0.001187 0.017926 0.004625 0.012844 0.008558
# 4 -0.013864 0.006866 0.004625 0.038755 -0.007985 0.000251
# 5 -0.004766 0.001918 0.012844 -0.007985 0.083965 0.023739
# 6 -0.000854 -0.001633 0.008558 0.000251 0.023739 0.033880
#
#
# Mechanical properties :
#
#
# Convention : Reuss Voigt Hill
#
# Bulk Modulus (GPa) = 36.85901 56.51498 46.68700
# Shear Modulus (GPa) = 18.94529 33.83580 26.39055
#
# Velocity S-wave (km/s) = 2.90182 3.87800 3.42486
# Velocity P-wave (km/s) = 5.25452 6.72092 6.03244
#
# Compressibility (1/GPa) = 0.02713041
#
# Stress axis : x y z
#
# Youngs Moduli (GPa) = 27.81784 113.27842 55.78345
#
# Poissons Ratio (x) = 1.22636 0.45444
# Poissons Ratio (y) = 0.30116 -0.06619
# Poissons Ratio (z) = 0.22662 -0.13441
#
# Static dielectric constant tensor:
#      x y z
#    x 1.805040 0.002630 -0.007620 
#    y 0.002630 1.841950 -0.002660 
#    z -0.007620 -0.002660 1.907500 
# 
# From -- ./inp_files/403448.got.cif
#   From: 2010.05.17/outbox.cif.g08.bks.cpg/sg2_202_cif.got.tgz:403448.got - 2010.06.03 11:33:40.
