data_PCOD9061412
_publ_section_title
;
Structure prediction by ZEFSAII (Michael W. Deem and Ramdas Pophale) SiO2 
 PCOD9061412
Probable space group: P -1
;
_chemical_formula_sum "Si O2"
_cell_formula_units_Z 14
_cell_length_a 19.228885
_cell_length_b 14.549336
_cell_length_c 11.017050
_cell_angle_alpha 40.855997
_cell_angle_beta 30.741677
_cell_angle_gamma 21.407013
_cell_volume 558.960097
_symmetry_space_group_name_H-M "P -1"
_symmetry_group_IT_number 2
_symmetry_cell_setting 'triclinic'
loop_
_space_group_symop_operation_xyz
x,y,z
-x,-y,-z
loop_
_atom_site_type_symbol
_atom_site_label
_atom_site_fract_x
_atom_site_fract_y
_atom_site_fract_z
Si Si1 0.159666 0.012770 0.648116
Si Si2 0.656993 0.844922 0.751110
Si Si3 0.066035 0.333241 0.174903
Si Si4 0.073472 0.866641 0.372286
Si Si5 0.858485 0.363934 0.983555
Si Si6 0.586189 0.424290 0.642786
Si Si7 0.778642 0.767652 0.360574
O O1 0.248485 0.090759 0.400401
O O2 0.989976 0.092972 0.716057
O O3 0.984660 0.182568 0.858468
O O4 0.419134 0.708724 0.596959
O O5 0.785857 0.590203 0.853180
O O6 0.730419 0.791259 0.553057
O O7 0.365514 0.082073 0.978297
O O8 0.986940 0.238232 0.379104
O O9 0.919407 0.525449 0.316541
O O10 0.000000 0.500000 0.000000
O O11 0.342605 0.668569 0.229163
O O12 0.861800 0.162649 0.434860
O O13 0.088517 0.194855 0.898889
O O14 0.588388 0.526357 0.227255
O O15 0.500000 0.000000 0.500000
#
# Coordination Sequence:
#
# PCOD9061412 Si02
#       7
#     2   2   2   2   2   2   2
#     4  11  24  46  72  98 142 190 227 292 357 413
#     4  11  23  45  70 103 140 173 239 290 350 418
#     4  12  23  42  74 106 136 187 232 291 357 414
#     4  11  25  45  69 100 144 183 236 292 341 422
#     4  11  24  46  67 102 140 175 237 292 348 420
#     4  11  25  46  67 101 144 183 238 286 345 426
#     4  11  24  42  66 107 137 173 227 293 346 414
#
# _framework density 25.046510000000001
#
# number of rings (size 3 to 8) (size 9 to 14) (size 15 to 20)
#    0.000    0.857    2.857    5.143    4.000    1.714 
#    7.714    0.000    0.000    0.000    0.000    0.000 
#    0.000    0.000    0.000    0.000    0.000    0.000 
#
# Total GULP energy -78153.725514 kJ/mol
# GULP energy per Si atom -5582.408965 kJ/mol
# Density = 2.498950 g / cm^3
# Si number density = 25.046510 Si / 1000 Ang^3
#
#
#
# Elastic Constant Matrix: (Units=GPa)
#
#
# Indices 1 2 3 4 5 6 
#
# 1 124.1436 55.1047 18.1549 16.7041 -18.5281 -2.0639
# 2 55.1047 162.7510 34.6483 23.6139 10.8799 -0.1394
# 3 18.1549 34.6483 84.0990 19.3988 -12.0661 -1.9932
# 4 16.7041 23.6139 19.3988 36.6411 0.5051 2.5301
# 5 -18.5281 10.8799 -12.0661 0.5051 35.1595 5.4992
# 6 -2.0639 -0.1394 -1.9932 2.5301 5.4992 48.2975
#
#
#
# Elastic Compliance Matrix: (Units=1/GPa)
#
#
# Indices 1 2 3 4 5 6 
#
# 1 0.011285 -0.004104 0.001079 -0.003164 0.007663 -0.000192
# 2 -0.004104 0.008923 -0.003147 -0.002166 -0.006055 0.000523
# 3 0.001079 -0.003147 0.015521 -0.006794 0.006929 0.000245
# 4 -0.003164 -0.002166 -0.006794 0.033900 -0.003534 -0.001795
# 5 0.007663 -0.006055 0.006929 -0.003534 0.037325 -0.003469
# 6 -0.000192 0.000523 0.000245 -0.001795 -0.003469 0.021197
#
#
# Mechanical properties :
#
#
# Convention : Reuss Voigt Hill
#
# Bulk Modulus (GPa) = 42.76032 65.20105 53.98069
# Shear Modulus (GPa) = 33.71751 41.55867 37.63809
#
# Velocity S-wave (km/s) = 3.67303 4.07782 3.88071
# Velocity P-wave (km/s) = 5.92433 6.94694 6.45591
#
# Compressibility (1/GPa) = 0.02338617
#
# Stress axis : x y z
#
# Youngs Moduli (GPa) = 88.61108 112.06382 64.42778
#
# Poissons Ratio (x) = 0.45993 -0.06954
# Poissons Ratio (y) = 0.36368 0.20276
# Poissons Ratio (z) = -0.09564 0.35267
#
# Static dielectric constant tensor:
#      x y z
#    x 2.197810 -0.138540 -0.061560 
#    y -0.138540 2.014090 0.000900 
#    z -0.061560 0.000900 2.180760 
# 
# From -- ./inp_files/471898.got.cif
#   From: 2010.05.17/outbox.cif.g08.bks.cpg/sg2_236_cif.got.tgz:471898.got - 2010.06.03 11:33:40.
