data_PCOD9061018
_publ_section_title
;
Structure prediction by ZEFSAII (Michael W. Deem and Ramdas Pophale) SiO2 
 PCOD9061018
Probable space group: P -1
;
_chemical_formula_sum "Si O2"
_cell_formula_units_Z 14
_cell_length_a 16.162139
_cell_length_b 11.404701
_cell_length_c 7.290081
_cell_angle_alpha 89.453892
_cell_angle_beta 72.360392
_cell_angle_gamma 29.209111
_cell_volume 522.621747
_symmetry_space_group_name_H-M "P -1"
_symmetry_group_IT_number 2
_symmetry_cell_setting 'triclinic'
loop_
_space_group_symop_operation_xyz
x,y,z
-x,-y,-z
loop_
_atom_site_type_symbol
_atom_site_label
_atom_site_fract_x
_atom_site_fract_y
_atom_site_fract_z
Si Si1 0.773965 0.336395 0.624899
Si Si2 0.185536 0.203724 0.758630
Si Si3 0.927385 0.714981 0.728591
Si Si4 0.517309 0.141599 0.769132
Si Si5 0.340201 0.807489 0.905638
Si Si6 0.753999 0.313875 0.212698
Si Si7 0.833714 0.510322 0.773952
O O1 0.571822 0.518615 0.843888
O O2 0.730322 0.381742 0.437036
O O3 0.788677 0.441542 0.714135
O O4 0.000000 0.000000 0.500000
O O5 0.021907 0.518337 0.833256
O O6 0.042700 0.275891 0.759211
O O7 0.373046 0.015582 0.497695
O O8 0.314327 0.969063 0.826750
O O9 0.100726 0.499640 0.453101
O O10 0.706674 0.940843 0.785719
O O11 0.865707 0.923414 0.828124
O O12 0.366767 0.438847 0.826540
O O13 0.364323 0.230259 0.956877
O O14 0.328956 0.713599 0.777483
O O15 0.000000 0.000000 0.000000
#
# Coordination Sequence:
#
# PCOD9061018 Si02
#       7
#     2   2   2   2   2   2   2
#     4  12  25  43  71 107 142 186 235 290 363 430
#     4  11  25  47  74 102 144 190 242 292 355 420
#     4  11  26  45  73 105 141 193 241 292 351 422
#     4  11  23  44  71 108 139 186 238 284 368 415
#     4  12  25  48  72 105 148 185 235 303 356 425
#     4  12  26  44  74 106 143 186 234 297 366 430
#     4  11  24  45  71 103 145 182 240 292 348 427
#
# _framework density 26.788018000000001
#
# number of rings (size 3 to 8) (size 9 to 14) (size 15 to 20)
#    0.000    0.571    2.857    6.000    4.000    2.857 
#    0.000    0.714    0.000    0.000    0.000    0.000 
#    0.000    0.000    0.000    0.000    0.000    0.000 
#
# Total GULP energy -78250.372179 kJ/mol
# GULP energy per Si atom -5589.312298 kJ/mol
# Density = 2.672705 g / cm^3
# Si number density = 26.788018 Si / 1000 Ang^3
#
#
#
# Elastic Constant Matrix: (Units=GPa)
#
#
# Indices 1 2 3 4 5 6 
#
# 1 111.5180 16.1700 -22.3996 19.4844 -6.1178 -4.9865
# 2 16.1700 131.4231 -63.7472 21.9495 -28.5948 18.0676
# 3 -22.3996 -63.7472 -420.5044 58.4159 -148.3731 18.4555
# 4 19.4844 21.9495 58.4159 54.4549 9.0478 11.8935
# 5 -6.1178 -28.5948 -148.3731 9.0478 16.8367 3.1606
# 6 -4.9865 18.0676 18.4555 11.8935 3.1606 26.0350
#
#
#
# Elastic Compliance Matrix: (Units=1/GPa)
#
#
# Indices 1 2 3 4 5 6 
#
# 1 0.009942 -0.001618 -0.000294 -0.003545 -0.000752 0.004946
# 2 -0.001618 0.007850 -0.001493 -0.000031 0.000499 -0.004746
# 3 -0.000294 -0.001493 -0.000149 0.001464 -0.004930 0.001015
# 4 -0.003545 -0.000031 0.001464 0.020039 0.002896 -0.011202
# 5 -0.000752 0.000499 -0.004930 0.002896 0.014994 -0.000139
# 6 0.004946 -0.004746 0.001015 -0.011202 -0.000139 0.047066
#
#
# Mechanical properties :
#
#
# Convention : Reuss Voigt Hill
#
# Bulk Modulus (GPa) = 92.29866 -35.27963 28.50952
# Shear Modulus (GPa) = 45.38746 12.29290 28.84018
#
# Velocity S-wave (km/s) = 4.12068 2.14451 3.28473
# Velocity P-wave (km/s) = 7.56108 2.65831 5.00516
#
# Compressibility (1/GPa) = 0.01083439
#
# Stress axis : x y z
#
# Youngs Moduli (GPa) = 100.58510 127.38425 -6722.78611
#
# Poissons Ratio (x) = 0.20605 -1.97877
# Poissons Ratio (y) = 0.16270 -10.03419
# Poissons Ratio (z) = 0.02961 0.19013
#
# Static dielectric constant tensor:
#      x y z
#    x 5.316620 -3.364350 2.072120 
#    y -3.364350 5.591990 -2.168510 
#    z 2.072120 -2.168510 3.657380 
# 
# From -- ./inp_files/330940.got.cif
#   From: 2010.05.17/outbox.cif.g08.bks.cpg/sg2_166_cif.got.tgz:330940.got - 2010.06.03 11:33:40.
