data_PCOD9061487
_publ_section_title
;
Structure prediction by ZEFSAII (Michael W. Deem and Ramdas Pophale) SiO2 
 PCOD9061487
Probable space group: P -1
;
_chemical_formula_sum "Si O2"
_cell_formula_units_Z 16
_cell_length_a 18.112183
_cell_length_b 8.712356
_cell_length_c 11.913053
_cell_angle_alpha 101.476426
_cell_angle_beta 39.667852
_cell_angle_gamma 131.953035
_cell_volume 666.600210
_symmetry_space_group_name_H-M "P -1"
_symmetry_group_IT_number 2
_symmetry_cell_setting 'triclinic'
loop_
_space_group_symop_operation_xyz
x,y,z
-x,-y,-z
loop_
_atom_site_type_symbol
_atom_site_label
_atom_site_fract_x
_atom_site_fract_y
_atom_site_fract_z
Si Si1 0.217617 0.262169 0.717730
Si Si2 0.067849 0.808067 0.277480
Si Si3 0.067425 0.584717 0.804742
Si Si4 0.820979 0.525776 0.916336
Si Si5 0.531505 0.777144 0.566496
Si Si6 0.850618 0.871465 0.476768
Si Si7 0.755845 0.333034 0.735765
Si Si8 0.600817 0.839731 0.894250
O O1 0.363178 0.565082 0.634625
O O2 0.331042 0.224023 0.600983
O O3 0.204484 0.259412 0.599275
O O4 0.000000 0.000000 0.000000
O O5 0.001988 0.646499 0.217208
O O6 0.970745 0.870733 0.400470
O O7 0.964922 0.597689 0.468672
O O8 0.300425 0.071566 0.084651
O O9 0.940692 0.577008 0.885005
O O10 0.307877 0.900541 0.568770
O O11 0.000000 0.500000 0.000000
O O12 0.749735 0.326870 0.876220
O O13 0.620014 0.389190 0.174383
O O14 0.979075 0.810538 0.708164
O O15 0.667877 0.757048 0.738255
O O16 0.685593 0.079629 0.752292
O O17 0.621883 0.334357 0.855866
#
# Coordination Sequence:
#
# PCOD9061487 Si02
#       8
#     2   2   2   2   2   2   2   2
#     4  11  23  45  71 107 141 191 247 299 362 442
#     4  12  27  45  70 110 151 192 239 309 372 431
#     4  12  29  49  73 108 151 195 248 310 365 436
#     4  12  24  47  77 105 144 195 246 302 371 441
#     4  11  25  44  77 104 139 196 252 299 365 433
#     4  12  25  45  73 103 154 192 236 310 375 433
#     4  11  25  44  77 107 141 196 250 296 366 450
#     4  11  24  47  70 106 145 190 246 301 369 436
#
# _framework density 24.002393999999999
#
# number of rings (size 3 to 8) (size 9 to 14) (size 15 to 20)
#    0.000    0.500    5.000    2.250    7.000    1.000 
#    4.500    0.000    0.000    0.000    0.000    0.000 
#    0.000    0.000    0.000    0.000    0.000    0.000 
#
# Total GULP energy -89378.240408 kJ/mol
# GULP energy per Si atom -5586.140026 kJ/mol
# Density = 2.394776 g / cm^3
# Si number density = 24.002394 Si / 1000 Ang^3
#
#
#
# Elastic Constant Matrix: (Units=GPa)
#
#
# Indices 1 2 3 4 5 6 
#
# 1 86.4517 56.8503 21.4363 2.6526 -18.4143 14.4223
# 2 56.8503 103.2050 41.0257 23.6280 -13.4967 20.5369
# 3 21.4363 41.0257 111.3309 14.0729 -31.2753 9.5664
# 4 2.6526 23.6280 14.0729 40.0552 -2.6971 -0.6190
# 5 -18.4143 -13.4967 -31.2753 -2.6971 42.7821 5.9702
# 6 14.4223 20.5369 9.5664 -0.6190 5.9702 48.5229
#
#
#
# Elastic Compliance Matrix: (Units=1/GPa)
#
#
# Indices 1 2 3 4 5 6 
#
# 1 0.020788 -0.012107 0.001993 0.005518 0.007249 -0.002269
# 2 -0.012107 0.021053 -0.004219 -0.010317 -0.001689 -0.004404
# 3 0.001993 -0.004219 0.013253 -0.001702 0.009472 -0.002607
# 4 0.005518 -0.010317 -0.001702 0.031295 -0.000645 0.003540
# 5 0.007249 -0.001689 0.009472 -0.000645 0.033890 -0.007485
# 6 -0.002269 -0.004404 -0.002607 0.003540 -0.007485 0.024627
#
#
# Mechanical properties :
#
#
# Convention : Reuss Voigt Hill
#
# Bulk Modulus (GPa) = 37.83896 59.95692 48.89794
# Shear Modulus (GPa) = 27.41512 38.38373 32.89942
#
# Velocity S-wave (km/s) = 3.38329 4.00329 3.70628
# Velocity P-wave (km/s) = 5.57324 6.81192 6.22348
#
# Compressibility (1/GPa) = 0.02642778
#
# Stress axis : x y z
#
# Youngs Moduli (GPa) = 48.10523 47.49940 75.45333
#
# Poissons Ratio (x) = 0.57506 -0.15036
# Poissons Ratio (y) = 0.58240 0.31834
# Poissons Ratio (z) = -0.09586 0.20040
#
# Static dielectric constant tensor:
#      x y z
#    x 1.947580 0.102600 -0.069610 
#    y 0.102600 2.224820 -0.050540 
#    z -0.069610 -0.050540 1.899080 
# 
# From -- ./inp_files/462201.got.cif
#   From: 2010.05.17/outbox.cif.g08.bks.cpg/sg2_232_cif.got.tgz:462201.got - 2010.06.03 11:33:40.
