data_PCOD9061553
_publ_section_title
;
Structure prediction by ZEFSAII (Michael W. Deem and Ramdas Pophale) SiO2 
 PCOD9061553
Probable space group: P -1
;
_chemical_formula_sum "Si O2"
_cell_formula_units_Z 16
_cell_length_a 17.776438
_cell_length_b 17.786857
_cell_length_c 6.400380
_cell_angle_alpha 130.791879
_cell_angle_beta 49.313192
_cell_angle_gamma 151.443988
_cell_volume 715.134397
_symmetry_space_group_name_H-M "P -1"
_symmetry_group_IT_number 2
_symmetry_cell_setting 'triclinic'
loop_
_space_group_symop_operation_xyz
x,y,z
-x,-y,-z
loop_
_atom_site_type_symbol
_atom_site_label
_atom_site_fract_x
_atom_site_fract_y
_atom_site_fract_z
Si Si1 0.820090 0.130436 0.820526
Si Si2 0.361373 0.914805 0.271357
Si Si3 0.597421 0.796975 0.792615
Si Si4 0.428845 0.740511 0.350612
Si Si5 0.092633 0.020366 0.177782
Si Si6 0.090412 0.214922 0.285471
Si Si7 0.176135 0.679679 0.554326
Si Si8 0.554658 0.435394 0.705580
O O1 0.792706 0.173050 0.740721
O O2 0.958662 0.160998 0.576820
O O3 0.660322 0.939773 0.805610
O O4 0.841858 0.225533 0.139214
O O5 0.296554 0.787762 0.332883
O O6 0.434512 0.067519 0.533830
O O7 0.500000 0.000000 0.000000
O O8 0.742965 0.890626 0.859722
O O9 0.550225 0.668760 0.499411
O O10 0.439714 0.699802 0.030442
O O11 0.264358 0.672783 0.540667
O O12 0.466763 0.680637 0.328307
O O13 0.130931 0.136687 0.152637
O O14 0.000000 0.000000 0.500000
O O15 0.984995 0.857775 0.943037
O O16 0.252475 0.404419 0.362613
O O17 0.000000 0.500000 0.500000
O O18 0.500000 0.500000 0.000000
#
# Coordination Sequence:
#
# PCOD9061553 Si02
#       8
#     2   2   2   2   2   2   2   2
#     4  12  25  45  75 106 146 193 249 302 376 453
#     4  12  24  47  77 105 144 198 255 301 367 455
#     4  12  25  45  77 106 142 199 251 302 369 454
#     4  12  26  47  75 102 147 200 246 302 374 450
#     4  11  23  45  73 102 147 195 251 303 378 448
#     4  11  27  43  72 109 146 195 247 311 375 444
#     4  12  30  47  73 114 153 193 250 316 377 446
#     4  12  29  48  72 112 151 189 250 317 373 433
#
# _framework density 22.373418000000001
#
# number of rings (size 3 to 8) (size 9 to 14) (size 15 to 20)
#    0.000    0.250    5.000    3.375    5.250    3.500 
#    0.000    0.000    0.000    0.000    0.000    0.000 
#    0.000    0.000    0.000    0.000    0.000    0.000 
#
# Total GULP energy -89393.447116 kJ/mol
# GULP energy per Si atom -5587.090445 kJ/mol
# Density = 2.232250 g / cm^3
# Si number density = 22.373418 Si / 1000 Ang^3
#
#
#
# Elastic Constant Matrix: (Units=GPa)
#
#
# Indices 1 2 3 4 5 6 
#
# 1 114.2858 18.7727 16.7543 9.0697 -1.4142 2.5998
# 2 18.7727 95.8234 31.2823 18.2404 9.5981 10.1935
# 3 16.7543 31.2823 117.1196 18.7939 -0.1226 8.5291
# 4 9.0697 18.2404 18.7939 34.8903 5.9809 2.3368
# 5 -1.4142 9.5981 -0.1226 5.9809 32.0302 2.3628
# 6 2.5998 10.1935 8.5291 2.3368 2.3628 24.6079
#
#
#
# Elastic Compliance Matrix: (Units=1/GPa)
#
#
# Indices 1 2 3 4 5 6 
#
# 1 0.009215 -0.001395 -0.000700 -0.001471 0.001106 -0.000120
# 2 -0.001395 0.012987 -0.002285 -0.004457 -0.002854 -0.003743
# 3 -0.000700 -0.002285 0.010085 -0.004187 0.001639 -0.002235
# 4 -0.001471 -0.004457 -0.004187 0.034481 -0.005234 0.000681
# 5 0.001106 -0.002854 0.001639 -0.005234 0.033270 -0.002200
# 6 -0.000120 -0.003743 -0.002235 0.000681 -0.002200 0.043122
#
#
# Mechanical properties :
#
#
# Convention : Reuss Voigt Hill
#
# Bulk Modulus (GPa) = 42.50127 51.20526 46.85327
# Shear Modulus (GPa) = 31.29664 35.66697 33.48180
#
# Velocity S-wave (km/s) = 3.74415 3.99703 3.87266
# Velocity P-wave (km/s) = 6.14240 6.65117 6.40184
#
# Compressibility (1/GPa) = 0.02352871
#
# Stress axis : x y z
#
# Youngs Moduli (GPa) = 108.52074 76.99806 99.15716
#
# Poissons Ratio (x) = 0.10740 0.06939
# Poissons Ratio (y) = 0.15137 0.22653
# Poissons Ratio (z) = 0.07594 0.17591
#
# Static dielectric constant tensor:
#      x y z
#    x 1.905750 -0.037660 0.008940 
#    y -0.037660 1.825180 -0.021810 
#    z 0.008940 -0.021810 1.878410 
# 
# From -- ./inp_files/47860.got.cif
#   From: 2010.05.17/outbox.cif.g08.bks.cpg/sg2_24_cif.got.tgz:47860.got - 2010.06.03 11:33:40.
