data_PCOD9061922
_publ_section_title
;
Structure prediction by ZEFSAII (Michael W. Deem and Ramdas Pophale) SiO2 
 PCOD9061922
Probable space group: P -1
;
_chemical_formula_sum "Si O2"
_cell_formula_units_Z 16
_cell_length_a 8.782268
_cell_length_b 11.871412
_cell_length_c 9.830079
_cell_angle_alpha 51.899447
_cell_angle_beta 119.361559
_cell_angle_gamma 102.097970
_cell_volume 696.407884
_symmetry_space_group_name_H-M "P -1"
_symmetry_group_IT_number 2
_symmetry_cell_setting 'triclinic'
loop_
_space_group_symop_operation_xyz
x,y,z
-x,-y,-z
loop_
_atom_site_type_symbol
_atom_site_label
_atom_site_fract_x
_atom_site_fract_y
_atom_site_fract_z
Si Si1 0.542634 0.198745 0.959509
Si Si2 0.976906 0.599948 0.283208
Si Si3 0.646430 0.368320 0.627922
Si Si4 0.638536 0.125738 0.627315
Si Si5 0.816517 0.916118 0.084175
Si Si6 0.619681 0.618053 0.005178
Si Si7 0.296665 0.131493 0.348773
Si Si8 0.068007 0.925399 0.724823
O O1 0.451949 0.326498 0.920428
O O2 0.728678 0.141925 0.153382
O O3 0.599939 0.247681 0.801457
O O4 0.381481 0.107027 0.941992
O O5 0.913135 0.766095 0.177279
O O6 0.000000 0.500000 0.500000
O O7 0.161083 0.590831 0.294053
O O8 0.822409 0.552313 0.160243
O O9 0.500000 0.500000 0.500000
O O10 0.654947 0.292743 0.539195
O O11 0.425161 0.125160 0.540768
O O12 0.681559 0.031948 0.579686
O O13 0.773201 0.034063 0.858831
O O14 0.917606 0.970756 0.215817
O O15 0.627057 0.756650 0.805554
O O16 0.500000 0.500000 0.000000
O O17 0.086399 0.173637 0.239304
O O18 0.000000 0.000000 0.500000
#
# Coordination Sequence:
#
# PCOD9061922 Si02
#       8
#     2   2   2   2   2   2   2   2
#     4  11  24  44  68 102 138 179 234 287 356 415
#     4  11  25  47  70 101 136 190 247 275 347 435
#     4  12  26  44  73 105 141 181 237 294 356 413
#     4  11  24  44  77  96 141 183 237 283 354 427
#     4  11  23  46  73  98 139 188 231 286 350 425
#     4  11  26  48  71  96 144 191 236 292 350 428
#     4  11  25  45  70 105 137 187 242 284 361 423
#     4  12  26  40  67 109 144 172 232 301 354 414
#
# _framework density 22.975041000000001
#
# number of rings (size 3 to 8) (size 9 to 14) (size 15 to 20)
#    0.000    0.750    3.750    4.125    7.000    2.000 
#    2.250    1.250    0.000    0.000    0.000    0.000 
#    0.000    0.000    0.000    0.000    0.000    0.000 
#
# Total GULP energy -89353.061696 kJ/mol
# GULP energy per Si atom -5584.566356 kJ/mol
# Density = 2.292275 g / cm^3
# Si number density = 22.975041 Si / 1000 Ang^3
#
#
#
# Elastic Constant Matrix: (Units=GPa)
#
#
# Indices 1 2 3 4 5 6 
#
# 1 150.5555 34.0410 22.2973 -1.4834 34.3862 22.7610
# 2 34.0410 96.7009 33.9587 12.2743 17.8893 16.2075
# 3 22.2973 33.9587 104.2016 9.6591 29.8915 7.5121
# 4 -1.4834 12.2743 9.6591 38.6753 3.7530 12.5307
# 5 34.3862 17.8893 29.8915 3.7530 51.2263 6.9206
# 6 22.7610 16.2075 7.5121 12.5307 6.9206 37.0083
#
#
#
# Elastic Compliance Matrix: (Units=1/GPa)
#
#
# Indices 1 2 3 4 5 6 
#
# 1 0.008931 -0.001857 0.000214 0.002912 -0.005041 -0.004766
# 2 -0.001857 0.013074 -0.003173 -0.002380 -0.000892 -0.002966
# 3 0.000214 -0.003173 0.012504 -0.001645 -0.006272 0.000450
# 4 0.002912 -0.002380 -0.001645 0.030669 -0.000976 -0.010616
# 5 -0.005041 -0.000892 -0.006272 -0.000976 0.026940 0.000057
# 6 -0.004766 -0.002966 0.000450 -0.010616 0.000057 0.034744
#
#
# Mechanical properties :
#
#
# Convention : Reuss Voigt Hill
#
# Bulk Modulus (GPa) = 40.19867 59.11690 49.65778
# Shear Modulus (GPa) = 34.53377 42.79270 38.66323
#
# Velocity S-wave (km/s) = 3.88119 4.32044 4.10669
# Velocity P-wave (km/s) = 6.13347 7.11864 6.64434
#
# Compressibility (1/GPa) = 0.02487645
#
# Stress axis : x y z
#
# Youngs Moduli (GPa) = 111.97226 76.49046 79.97223
#
# Poissons Ratio (x) = 0.14206 -0.01710
# Poissons Ratio (y) = 0.20796 0.25373
# Poissons Ratio (z) = -0.02395 0.24268
#
# Static dielectric constant tensor:
#      x y z
#    x 2.244950 0.047880 0.318870 
#    y 0.047880 1.887970 0.020230 
#    z 0.318870 0.020230 2.226540 
# 
# From -- ./inp_files/185326.got.cif
#   From: 2010.05.17/outbox.cif.g08.bks.cpg/sg2_93_cif.got.tgz:185326.got - 2010.06.03 11:33:40.
