data_PCOD9061005
_publ_section_title
;
Structure prediction by ZEFSAII (Michael W. Deem and Ramdas Pophale) SiO2 
 PCOD9061005
Probable space group: P -1
;
_chemical_formula_sum "Si O2"
_cell_formula_units_Z 14
_cell_length_a 11.668337
_cell_length_b 8.793733
_cell_length_c 14.191512
_cell_angle_alpha 128.696677
_cell_angle_beta 32.849034
_cell_angle_gamma 114.867565
_cell_volume 597.309549
_symmetry_space_group_name_H-M "P -1"
_symmetry_group_IT_number 2
_symmetry_cell_setting 'triclinic'
loop_
_space_group_symop_operation_xyz
x,y,z
-x,-y,-z
loop_
_atom_site_type_symbol
_atom_site_label
_atom_site_fract_x
_atom_site_fract_y
_atom_site_fract_z
Si Si1 0.900205 0.420466 0.446436
Si Si2 0.284981 0.138281 0.338792
Si Si3 0.095938 0.470123 0.028838
Si Si4 0.990212 0.096197 0.688209
Si Si5 0.219679 0.022378 0.034960
Si Si6 0.295014 0.689656 0.694938
Si Si7 0.565094 0.204269 0.562515
O O1 0.779209 0.622542 0.549517
O O2 0.730724 0.289962 0.547844
O O3 0.000000 0.500000 0.500000
O O4 0.105222 0.257982 0.194471
O O5 0.217677 0.089780 0.474005
O O6 0.137600 0.036875 0.333929
O O7 0.539691 0.034280 0.106549
O O8 0.333725 0.336750 0.802184
O O9 0.115484 0.667237 0.147072
O O10 0.000000 0.500000 0.000000
O O11 0.924450 0.377807 0.165136
O O12 0.951827 0.052538 0.807754
O O13 0.266879 0.883435 0.856347
O O14 0.500000 0.500000 0.500000
O O15 0.330189 0.747955 0.588320
O O16 0.500000 0.000000 0.500000
#
# Coordination Sequence:
#
# PCOD9061005 Si02
#       7
#     2   2   2   2   2   2   2
#     4  12  27  49  76 109 152 199 251 308 375 446
#     4  11  26  46  73 105 146 190 244 311 357 451
#     4  12  23  41  77 104 141 195 238 298 378 441
#     4  11  23  44  71 106 142 186 247 296 367 441
#     4  12  25  45  79 101 146 199 242 303 379 437
#     4  12  24  46  76 111 148 197 249 305 378 449
#     4  12  29  47  72 112 153 188 252 319 363 448
#
# _framework density 23.438434000000001
#
# number of rings (size 3 to 8) (size 9 to 14) (size 15 to 20)
#    0.000    0.286    4.286    4.714    2.000    3.429 
#    0.000    4.286    0.000    0.000    0.000    0.000 
#    0.000    0.000    0.000    0.000    0.000    0.000 
#
# Total GULP energy -78142.694738 kJ/mol
# GULP energy per Si atom -5581.621053 kJ/mol
# Density = 2.338509 g / cm^3
# Si number density = 23.438434 Si / 1000 Ang^3
#
#
#
# Elastic Constant Matrix: (Units=GPa)
#
#
# Indices 1 2 3 4 5 6 
#
# 1 47.2385 26.7182 30.8058 8.0701 -7.4997 17.4723
# 2 26.7182 136.4588 67.6594 -1.0114 -12.9649 31.4992
# 3 30.8058 67.6594 188.3653 10.4635 -16.9678 10.2431
# 4 8.0701 -1.0114 10.4635 49.8855 -0.3725 17.9699
# 5 -7.4997 -12.9649 -16.9678 -0.3725 47.4929 -3.0217
# 6 17.4723 31.4992 10.2431 17.9699 -3.0217 43.1774
#
#
#
# Elastic Compliance Matrix: (Units=1/GPa)
#
#
# Indices 1 2 3 4 5 6 
#
# 1 0.027986 -0.001565 -0.003290 -0.000614 0.002240 -0.008991
# 2 -0.001565 0.011543 -0.003560 0.004370 0.001114 -0.008684
# 3 -0.003290 -0.003560 0.007186 -0.002201 0.001264 0.003228
# 4 -0.000614 0.004370 -0.002201 0.025376 -0.000318 -0.013002
# 5 0.002240 0.001114 0.001264 -0.000318 0.022141 -0.000337
# 6 -0.008991 -0.008684 0.003228 -0.013002 -0.000337 0.037755
#
#
# Mechanical properties :
#
#
# Convention : Reuss Voigt Hill
#
# Bulk Modulus (GPa) = 33.46223 69.15882 51.31053
# Shear Modulus (GPa) = 31.49030 44.56977 38.03003
#
# Velocity S-wave (km/s) = 3.66940 4.36543 4.03246
# Velocity P-wave (km/s) = 5.67982 7.41484 6.60455
#
# Compressibility (1/GPa) = 0.02988444
#
# Stress axis : x y z
#
# Youngs Moduli (GPa) = 35.73270 86.63567 139.15293
#
# Poissons Ratio (x) = 0.13554 0.45783
# Poissons Ratio (y) = 0.05590 0.49544
# Poissons Ratio (z) = 0.11756 0.30846
#
# Static dielectric constant tensor:
#      x y z
#    x 1.341300 -0.527840 -0.215490 
#    y -0.527840 1.823050 -0.241180 
#    z -0.215490 -0.241180 1.848410 
# 
# From -- ./inp_files/516184.got.cif
#   From: 2010.05.17/outbox.cif.g08.bks.cpg/sg2_259_cif.got.tgz:516184.got - 2010.06.03 11:33:40.
