data_PCOD9061219
_publ_section_title
;
Structure prediction by ZEFSAII (Michael W. Deem and Ramdas Pophale) SiO2 
 PCOD9061219
Probable space group: P -1
;
_chemical_formula_sum "Si O2"
_cell_formula_units_Z 16
_cell_length_a 14.564729
_cell_length_b 18.842520
_cell_length_c 8.958521
_cell_angle_alpha 137.782272
_cell_angle_beta 139.454817
_cell_angle_gamma 27.508521
_cell_volume 719.765575
_symmetry_space_group_name_H-M "P -1"
_symmetry_group_IT_number 2
_symmetry_cell_setting 'triclinic'
loop_
_space_group_symop_operation_xyz
x,y,z
-x,-y,-z
loop_
_atom_site_type_symbol
_atom_site_label
_atom_site_fract_x
_atom_site_fract_y
_atom_site_fract_z
Si Si1 0.486054 0.164299 0.119843
Si Si2 0.400909 0.123765 0.257993
Si Si3 0.072189 0.312450 0.394149
Si Si4 0.129991 0.442663 0.919259
Si Si5 0.818519 0.945833 0.670213
Si Si6 0.218626 0.819141 0.508954
Si Si7 0.733854 0.445490 0.943927
Si Si8 0.266456 0.780529 0.860755
O O1 0.357941 0.196536 0.156321
O O2 0.608931 0.199444 0.377612
O O3 0.351627 0.268564 0.972026
O O4 0.628937 0.985486 0.971269
O O5 0.249661 0.247863 0.393719
O O6 0.642647 0.011247 0.432023
O O7 0.037086 0.422051 0.642547
O O8 0.160543 0.160091 0.350296
O O9 0.863657 0.403809 0.186023
O O10 0.177731 0.531068 0.047071
O O11 0.000000 0.500000 0.000000
O O12 0.053770 0.835680 0.727036
O O13 0.748990 0.094360 0.891683
O O14 0.224598 0.699559 0.264579
O O15 0.266819 0.787019 0.693369
O O16 0.000000 0.000000 0.500000
O O17 0.485902 0.605292 0.905372
#
# Coordination Sequence:
#
# PCOD9061219 Si02
#       8
#     2   2   2   2   2   2   2   2
#     4  11  24  43  72 110 139 193 242 303 367 428
#     4  11  23  44  75 110 145 187 252 311 364 433
#     4  12  26  46  74 107 146 198 244 304 372 438
#     4  12  27  45  72 108 148 189 243 303 373 437
#     4  11  24  43  74 105 148 198 242 303 363 445
#     4  12  25  46  75 103 148 194 250 300 368 443
#     4  12  27  47  74 106 153 195 240 310 367 444
#     4  11  25  44  69 108 149 193 248 296 368 443
#
# _framework density 22.22946
#
# number of rings (size 3 to 8) (size 9 to 14) (size 15 to 20)
#    0.000    0.500    2.500    5.625    1.750    4.500 
#    0.000    0.000    0.000    0.000    0.000    0.000 
#    0.000    0.000    0.000    0.000    0.000    0.000 
#
# Total GULP energy -89605.069647 kJ/mol
# GULP energy per Si atom -5600.316853 kJ/mol
# Density = 2.217886 g / cm^3
# Si number density = 22.229460 Si / 1000 Ang^3
#
#
#
# Elastic Constant Matrix: (Units=GPa)
#
#
# Indices 1 2 3 4 5 6 
#
# 1 68.4348 29.2656 57.1909 11.2518 -0.6315 -2.9824
# 2 29.2656 136.1141 67.2929 -6.0410 9.4619 4.0324
# 3 57.1909 67.2929 145.7259 6.9587 9.6566 2.0334
# 4 11.2518 -6.0410 6.9587 44.1257 3.4934 -1.5593
# 5 -0.6315 9.4619 9.6566 3.4934 34.1450 4.6262
# 6 -2.9824 4.0324 2.0334 -1.5593 4.6262 39.8658
#
#
#
# Elastic Compliance Matrix: (Units=1/GPa)
#
#
# Indices 1 2 3 4 5 6 
#
# 1 0.023218 -0.001285 -0.008536 -0.004965 0.003476 0.001705
# 2 -0.001285 0.009872 -0.004045 0.002438 -0.001786 -0.000586
# 3 -0.008536 -0.004045 0.012254 -0.000139 -0.002410 -0.000580
# 4 -0.004965 0.002438 -0.000139 0.024575 -0.003342 0.000738
# 5 0.003476 -0.001786 -0.002410 -0.003342 0.031303 -0.003200
# 6 0.001705 -0.000586 -0.000580 0.000738 -0.003200 0.025701
#
#
# Mechanical properties :
#
#
# Convention : Reuss Voigt Hill
#
# Bulk Modulus (GPa) = 56.77150 73.08596 64.92873
# Shear Modulus (GPa) = 31.14790 36.72899 33.93845
#
# Velocity S-wave (km/s) = 3.74732 4.06922 3.91158
# Velocity P-wave (km/s) = 6.65714 7.41805 7.04787
#
# Compressibility (1/GPa) = 0.01761447
#
# Stress axis : x y z
#
# Youngs Moduli (GPa) = 43.07017 101.29463 81.60421
#
# Poissons Ratio (x) = 0.13012 0.69656
# Poissons Ratio (y) = 0.05533 0.33005
# Poissons Ratio (z) = 0.36764 0.40969
#
# Static dielectric constant tensor:
#      x y z
#    x 1.919160 0.106310 0.019530 
#    y 0.106310 2.095120 -0.039060 
#    z 0.019530 -0.039060 1.778500 
# 
# From -- ./inp_files/318166.got.cif
#   From: 2010.05.17/outbox.cif.g08.bks.cpg/sg2_160_cif.got.tgz:318166.got - 2010.06.03 11:33:40.
