data_PCOD9061745
_publ_section_title
;
Structure prediction by ZEFSAII (Michael W. Deem and Ramdas Pophale) SiO2 
 PCOD9061745
Probable space group: P -1
;
_chemical_formula_sum "Si O2"
_cell_formula_units_Z 10
_cell_length_a 10.674843
_cell_length_b 10.368677
_cell_length_c 7.420700
_cell_angle_alpha 118.188714
_cell_angle_beta 65.328553
_cell_angle_gamma 65.814995
_cell_volume 429.327373
_symmetry_space_group_name_H-M "P -1"
_symmetry_group_IT_number 2
_symmetry_cell_setting 'triclinic'
loop_
_space_group_symop_operation_xyz
x,y,z
-x,-y,-z
loop_
_atom_site_type_symbol
_atom_site_label
_atom_site_fract_x
_atom_site_fract_y
_atom_site_fract_z
Si Si1 0.110165 0.524550 0.820366
Si Si2 0.463628 0.870999 0.849034
Si Si3 0.449844 0.501897 0.322851
Si Si4 0.982791 0.260510 0.336034
Si Si5 0.119613 0.750016 0.235509
O O1 0.359803 0.292307 0.517318
O O2 0.053740 0.580319 0.680183
O O3 0.059564 0.723781 0.065848
O O4 0.000000 0.500000 0.000000
O O5 0.506229 0.707570 0.858636
O O6 0.500000 0.000000 0.000000
O O7 0.229999 0.029432 0.021123
O O8 0.500000 0.500000 0.500000
O O9 0.199218 0.714838 0.580363
O O10 0.627084 0.434725 0.050463
O O11 0.944312 0.308359 0.604233
O O12 0.000000 0.000000 0.500000
#
# Coordination Sequence:
#
# PCOD9061745 Si02
#       5
#     2   2   2   2   2
#     4  11  27  48  68 103 143 177 237 287 333 420
#     4  11  24  44  73 101 138 181 234 280 341 418
#     4  11  23  46  68 105 141 177 232 286 335 419
#     4  11  25  46  74  98 141 188 224 286 358 390
#     4  12  24  44  72 105 139 182 230 284 342 414
#
# _framework density 23.292249999999999
#
# number of rings (size 3 to 8) (size 9 to 14) (size 15 to 20)
#    0.000    0.800    6.000    1.800    0.000   11.200 
#    3.600    0.000    0.000    0.000    0.000    0.000 
#    0.000    0.000    0.000    0.000    0.000    0.000 
#
# Total GULP energy -55810.476659 kJ/mol
# GULP energy per Si atom -5581.047666 kJ/mol
# Density = 2.323924 g / cm^3
# Si number density = 23.292250 Si / 1000 Ang^3
#
#
#
# Elastic Constant Matrix: (Units=GPa)
#
#
# Indices 1 2 3 4 5 6 
#
# 1 82.8617 26.2038 58.3540 17.6552 2.2291 0.2097
# 2 26.2038 104.2294 56.7423 -24.4110 -15.0374 8.6840
# 3 58.3540 56.7423 179.4230 -14.6577 -41.1323 2.7877
# 4 17.6552 -24.4110 -14.6577 45.1674 7.5111 -7.1824
# 5 2.2291 -15.0374 -41.1323 7.5111 66.0972 6.7376
# 6 0.2097 8.6840 2.7877 -7.1824 6.7376 42.7020
#
#
#
# Elastic Compliance Matrix: (Units=1/GPa)
#
#
# Indices 1 2 3 4 5 6 
#
# 1 0.022179 -0.005128 -0.007888 -0.013098 -0.005344 0.000089
# 2 -0.005128 0.014199 -0.001754 0.008618 0.001489 -0.001533
# 3 -0.007888 -0.001754 0.010415 0.004463 0.005889 -0.000463
# 4 -0.013098 0.008618 0.004463 0.033766 0.000981 0.003545
# 5 -0.005344 0.001489 0.005889 0.000981 0.019566 -0.003583
# 6 0.000089 -0.001533 -0.000463 0.003545 -0.003583 0.024921
#
#
# Mechanical properties :
#
#
# Convention : Reuss Voigt Hill
#
# Bulk Modulus (GPa) = 57.95606 72.12381 65.03993
# Shear Modulus (GPa) = 31.18418 45.80758 38.49588
#
# Velocity S-wave (km/s) = 3.66296 4.43950 4.06979
# Velocity P-wave (km/s) = 6.54415 7.57039 7.07590
#
# Compressibility (1/GPa) = 0.01725445
#
# Stress axis : x y z
#
# Youngs Moduli (GPa) = 45.08687 70.42839 96.01323
#
# Poissons Ratio (x) = 0.36113 0.75739
# Poissons Ratio (y) = 0.23119 0.16836
# Poissons Ratio (z) = 0.35566 0.12350
#
# Static dielectric constant tensor:
#      x y z
#    x 1.968520 -0.010350 -0.015720 
#    y -0.010350 1.891490 0.032260 
#    z -0.015720 0.032260 1.884030 
# 
# From -- ./inp_files/228070.got.cif
#   From: 2010.05.17/outbox.cif.g08.bks.cpg/sg2_115_cif.got.tgz:228070.got - 2010.06.03 11:33:40.
