data_PCOD9061645
_publ_section_title
;
Structure prediction by ZEFSAII (Michael W. Deem and Ramdas Pophale) SiO2 
 PCOD9061645
Probable space group: P -1
;
_chemical_formula_sum "Si O2"
_cell_formula_units_Z 15
_cell_length_a 14.318119
_cell_length_b 8.872026
_cell_length_c 6.549906
_cell_angle_alpha 114.384258
_cell_angle_beta 86.838345
_cell_angle_gamma 57.231584
_cell_volume 593.562541
_symmetry_space_group_name_H-M "P -1"
_symmetry_group_IT_number 2
_symmetry_cell_setting 'triclinic'
loop_
_space_group_symop_operation_xyz
x,y,z
-x,-y,-z
loop_
_atom_site_type_symbol
_atom_site_label
_atom_site_fract_x
_atom_site_fract_y
_atom_site_fract_z
Si Si1 0.553775 0.296670 0.667993
Si Si2 0.137944 0.836825 0.942469
Si Si3 0.653521 0.487216 0.499481
Si Si4 0.918840 0.642042 0.398604
Si Si5 0.355671 0.204469 0.028530
Si Si6 0.299048 0.950321 0.128143
Si Si7 0.889830 0.413882 0.912465
Si Si8 0.500000 0.000000 0.500000
O O1 0.621893 0.363969 0.570948
O O2 0.422142 0.442299 0.661402
O O3 0.584510 0.070813 0.494379
O O4 0.602385 0.260060 0.872817
O O5 0.145894 0.729197 0.093366
O O6 0.210313 0.927051 0.004219
O O7 0.208817 0.660485 0.660774
O O8 0.000000 0.000000 0.000000
O O9 0.621366 0.691791 0.731627
O O10 0.792066 0.846388 0.604154
O O11 0.000000 0.500000 0.500000
O O12 0.991169 0.703291 0.300392
O O13 0.908434 0.500858 0.164438
O O14 0.361460 0.014262 0.011121
O O15 0.219895 0.384724 0.079056
O O16 0.559583 0.851038 0.203635
#
# Coordination Sequence:
#
# PCOD9061645 Si02
#       8
#     2   2   2   2   2   2   2   1
#     4  11  26  49  77 110 156 200 259 314 379 463
#     4  12  28  45  73 115 157 200 256 316 377 460
#     4  11  27  50  76 110 158 207 252 311 395 454
#     4  11  23  45  75 108 147 203 252 309 381 451
#     4  12  26  48  79 110 150 201 254 323 388 457
#     4  12  26  45  76 113 154 199 259 318 381 458
#     4  11  25  44  74 106 154 198 249 310 380 456
#     4  12  26  46  76 112 142 190 262 316 376 448
#
# _framework density 25.271135000000001
#
# number of rings (size 3 to 8) (size 9 to 14) (size 15 to 20)
#    0.000    0.533    1.333    5.600    5.600    5.867 
#    0.000    0.000    0.000    0.000    0.000    0.000 
#    0.000    0.000    0.000    0.000    0.000    0.000 
#
# Total GULP energy -83826.076056 kJ/mol
# GULP energy per Si atom -5588.405070 kJ/mol
# Density = 2.521362 g / cm^3
# Si number density = 25.271135 Si / 1000 Ang^3
#
#
#
# Elastic Constant Matrix: (Units=GPa)
#
#
# Indices 1 2 3 4 5 6 
#
# 1 143.0745 61.7129 58.4933 -6.8218 -6.4255 8.7905
# 2 61.7129 122.4483 30.6886 -27.7739 -4.5721 -6.4398
# 3 58.4933 30.6886 138.1312 -3.2816 -16.8102 -4.8818
# 4 -6.8218 -27.7739 -3.2816 26.0934 -4.0559 -2.3595
# 5 -6.4255 -4.5721 -16.8102 -4.0559 60.8677 -0.2173
# 6 8.7905 -6.4398 -4.8818 -2.3595 -0.2173 64.1005
#
#
#
# Elastic Compliance Matrix: (Units=1/GPa)
#
#
# Indices 1 2 3 4 5 6 
#
# 1 0.010798 -0.005570 -0.003578 -0.003861 -0.000533 -0.002457
# 2 -0.005570 0.014503 -0.000254 0.014415 0.001402 0.002737
# 3 -0.003578 -0.000254 0.009124 0.000383 0.002153 0.001182
# 4 -0.003861 0.014415 0.000383 0.053748 0.004377 0.004000
# 5 -0.000533 0.001402 0.002153 0.004377 0.017366 0.000598
# 6 -0.002457 0.002737 0.001182 0.004000 0.000598 0.016452
#
#
# Mechanical properties :
#
#
# Convention : Reuss Voigt Hill
#
# Bulk Modulus (GPa) = 64.01659 78.38261 71.19960
# Shear Modulus (GPa) = 34.24607 47.06296 40.65452
#
# Velocity S-wave (km/s) = 3.68522 4.32014 4.01525
# Velocity P-wave (km/s) = 6.59505 7.48123 7.05208
#
# Compressibility (1/GPa) = 0.01562095
#
# Stress axis : x y z
#
# Youngs Moduli (GPa) = 92.61191 68.94946 109.60085
#
# Poissons Ratio (x) = 0.38405 0.39219
# Poissons Ratio (y) = 0.51584 0.02782
# Poissons Ratio (z) = 0.33140 0.01750
#
# Static dielectric constant tensor:
#      x y z
#    x 1.936790 0.003190 0.079960 
#    y 0.003190 2.066280 -0.045160 
#    z 0.079960 -0.045160 2.231860 
# 
# From -- ./inp_files/90961.got.cif
#   From: 2010.05.17/outbox.cif.g08.bks.cpg/sg2_46_cif.got.tgz:90961.got - 2010.06.03 11:33:40.
