data_PCOD9061343
_publ_section_title
;
Structure prediction by ZEFSAII (Michael W. Deem and Ramdas Pophale) SiO2 
 PCOD9061343
Probable space group: P -1
;
_chemical_formula_sum "Si O2"
_cell_formula_units_Z 14
_cell_length_a 10.848450
_cell_length_b 9.954407
_cell_length_c 6.554768
_cell_angle_alpha 71.355791
_cell_angle_beta 89.759196
_cell_angle_gamma 120.580155
_cell_volume 565.213281
_symmetry_space_group_name_H-M "P -1"
_symmetry_group_IT_number 2
_symmetry_cell_setting 'triclinic'
loop_
_space_group_symop_operation_xyz
x,y,z
-x,-y,-z
loop_
_atom_site_type_symbol
_atom_site_label
_atom_site_fract_x
_atom_site_fract_y
_atom_site_fract_z
Si Si1 0.069100 0.138670 0.801153
Si Si2 0.033107 0.161115 0.288849
Si Si3 0.746204 0.459699 0.828524
Si Si4 0.101726 0.674848 0.299184
Si Si5 0.276870 0.910860 0.540511
Si Si6 0.649928 0.538771 0.386527
Si Si7 0.539174 0.233130 0.232413
O O1 0.071054 0.131026 0.536088
O O2 0.242716 0.267403 0.769828
O O3 0.983990 0.234278 0.782492
O O4 0.033659 0.071343 0.114601
O O5 0.157677 0.358834 0.155082
O O6 0.872027 0.131906 0.328882
O O7 0.837905 0.371197 0.872928
O O8 0.732618 0.502608 0.577800
O O9 0.582802 0.320010 0.969944
O O10 0.230809 0.799033 0.390909
O O11 0.000000 0.500000 0.500000
O O12 0.377453 0.865181 0.689304
O O13 0.374809 0.103754 0.369417
O O14 0.500000 0.500000 0.500000
O O15 0.612526 0.401201 0.283676
#
# Coordination Sequence:
#
# PCOD9061343 Si02
#       7
#     2   2   2   2   2   2   2
#     4  12  26  42  68 106 138 176 234 288 345 403
#     4  12  22  43  70  97 132 179 226 286 342 395
#     4  12  26  45  74 101 133 186 236 282 345 408
#     4  12  21  46  75  97 138 184 230 288 339 408
#     4  11  23  45  68  95 142 173 230 285 343 406
#     4  12  25  47  68  96 145 179 225 283 351 409
#     4  11  27  44  67 104 135 181 230 281 343 421
#
# _framework density 24.769409
#
# number of rings (size 3 to 8) (size 9 to 14) (size 15 to 20)
#    0.000    0.286    7.143    1.714    2.000    2.857 
#    0.000    0.000    0.000    0.000    0.000    0.000 
#    0.000    0.000    0.000    0.000    0.000    0.000 
#
# Total GULP energy -78206.629033 kJ/mol
# GULP energy per Si atom -5586.187788 kJ/mol
# Density = 2.471303 g / cm^3
# Si number density = 24.769409 Si / 1000 Ang^3
#
#
#
# Elastic Constant Matrix: (Units=GPa)
#
#
# Indices 1 2 3 4 5 6 
#
# 1 66.7468 -5.0014 26.7151 -9.7735 -6.0743 8.9079
# 2 -5.0014 120.3028 100.1012 -0.3310 -6.0974 34.8330
# 3 26.7151 100.1012 76.8946 -51.7074 -21.2135 -23.4490
# 4 -9.7735 -0.3310 -51.7074 48.0123 1.0727 -27.4649
# 5 -6.0743 -6.0974 -21.2135 1.0727 31.5859 -13.7400
# 6 8.9079 34.8330 -23.4490 -27.4649 -13.7400 26.6739
#
#
#
# Elastic Compliance Matrix: (Units=1/GPa)
#
#
# Indices 1 2 3 4 5 6 
#
# 1 0.015574 -0.000239 0.000353 0.005078 0.004249 0.002839
# 2 -0.000239 0.004229 0.002833 0.006884 0.005462 0.006949
# 3 0.000353 0.002833 0.000435 -0.006066 -0.003993 -0.011738
# 4 0.005078 0.006884 -0.006066 0.011845 -0.004940 -0.006367
# 5 0.004249 0.005462 -0.003993 -0.004940 0.030360 -0.001510
# 6 0.002839 0.006949 -0.011738 -0.006367 -0.001510 0.009815
#
#
# Mechanical properties :
#
#
# Convention : Reuss Voigt Hill
#
# Bulk Modulus (GPa) = 38.26852 56.39711 47.33282
# Shear Modulus (GPa) = 66.60097 30.72969 48.66533
#
# Velocity S-wave (km/s) = 5.19103 3.52608 4.43734
# Velocity P-wave (km/s) = 7.17025 6.27662 6.73826
#
# Compressibility (1/GPa) = 0.02613114
#
# Stress axis : x y z
#
# Youngs Moduli (GPa) = 64.20941 236.45156 2301.22396
#
# Poissons Ratio (x) = 0.05655 -0.81280
# Poissons Ratio (y) = 0.01536 -6.51850
# Poissons Ratio (z) = -0.02268 -0.66978
#
# Static dielectric constant tensor:
#      x y z
#    x 1.948100 -0.084490 -0.132020 
#    y -0.084490 2.129130 0.045190 
#    z -0.132020 0.045190 1.908940 
# 
# From -- ./inp_files/69940.got.cif
#   From: 2010.05.17/outbox.cif.g08.bks.cpg/sg2_35_cif.got.tgz:69940.got - 2010.06.03 11:33:40.
