data_PCOD9061538
_publ_section_title
;
Structure prediction by ZEFSAII (Michael W. Deem and Ramdas Pophale) SiO2 
 PCOD9061538
Probable space group: P -1
;
_chemical_formula_sum "Si O2"
_cell_formula_units_Z 14
_cell_length_a 9.597092
_cell_length_b 21.291556
_cell_length_c 6.853788
_cell_angle_alpha 38.015078
_cell_angle_beta 50.891182
_cell_angle_gamma 44.335833
_cell_volume 595.368219
_symmetry_space_group_name_H-M "P -1"
_symmetry_group_IT_number 2
_symmetry_cell_setting 'triclinic'
loop_
_space_group_symop_operation_xyz
x,y,z
-x,-y,-z
loop_
_atom_site_type_symbol
_atom_site_label
_atom_site_fract_x
_atom_site_fract_y
_atom_site_fract_z
Si Si1 0.710779 0.666894 0.140285
Si Si2 0.002666 0.109629 0.829288
Si Si3 0.905738 0.333349 0.145927
Si Si4 0.776732 0.096812 0.408682
Si Si5 0.434021 0.681730 0.698778
Si Si6 0.312835 0.485799 0.786535
Si Si7 0.576251 0.914130 0.459754
O O1 0.535514 0.677716 0.412445
O O2 0.769594 0.562462 0.195578
O O3 0.641554 0.784568 0.792440
O O4 0.903971 0.652790 0.128285
O O5 0.969462 0.202290 0.465604
O O6 0.219728 0.082061 0.799493
O O7 0.824852 0.155018 0.034258
O O8 0.000000 0.000000 0.000000
O O9 0.721770 0.370779 0.068435
O O10 0.837630 0.400567 0.246185
O O11 0.683234 0.189828 0.432126
O O12 0.611930 0.055591 0.591633
O O13 0.000000 0.000000 0.500000
O O14 0.598454 0.609547 0.889474
O O15 0.500000 0.500000 0.500000
O O16 0.500000 0.000000 0.500000
#
# Coordination Sequence:
#
# PCOD9061538 Si02
#       7
#     2   2   2   2   2   2   2
#     4  11  26  48  71 103 145 185 236 296 351 422
#     4  11  23  45  72  99 140 187 233 291 356 420
#     4  11  25  45  75 104 137 192 238 284 357 422
#     4  12  26  42  66 106 141 182 238 293 350 426
#     4  12  26  47  70 105 146 181 236 296 355 415
#     4  12  24  48  75 104 143 187 235 293 353 417
#     4  11  24  44  72  97 137 191 234 288 358 418
#
# _framework density 23.514859999999999
#
# number of rings (size 3 to 8) (size 9 to 14) (size 15 to 20)
#    0.000    0.571    4.286    3.429    4.000    2.286 
#    2.571    0.000    0.000    0.000    0.000    0.000 
#    0.000    0.000    0.000    0.000    0.000    0.000 
#
# Total GULP energy -78420.518669 kJ/mol
# GULP energy per Si atom -5601.465619 kJ/mol
# Density = 2.346134 g / cm^3
# Si number density = 23.514860 Si / 1000 Ang^3
#
#
#
# Elastic Constant Matrix: (Units=GPa)
#
#
# Indices 1 2 3 4 5 6 
#
# 1 164.3747 27.9841 30.9440 5.5936 -34.6749 12.0996
# 2 27.9841 116.2275 4.4883 -9.8320 -11.2930 21.7515
# 3 30.9440 4.4883 46.9394 -10.6902 -6.6146 0.2674
# 4 5.5936 -9.8320 -10.6902 29.7974 -0.0474 -2.6137
# 5 -34.6749 -11.2930 -6.6146 -0.0474 35.2078 1.1147
# 6 12.0996 21.7515 0.2674 -2.6137 1.1147 37.4110
#
#
#
# Elastic Compliance Matrix: (Units=1/GPa)
#
#
# Indices 1 2 3 4 5 6 
#
# 1 0.009442 -0.001112 -0.006024 -0.004544 0.007897 -0.002917
# 2 -0.001112 0.010421 0.000932 0.003500 0.002603 -0.005539
# 3 -0.006024 0.000932 0.027743 0.011569 -0.000470 0.002030
# 4 -0.004544 0.003500 0.011569 0.039907 -0.001194 0.002176
# 5 0.007897 0.002603 -0.000470 -0.001194 0.037092 -0.005253
# 6 -0.002917 -0.005539 0.002030 0.002176 -0.005253 0.031188
#
#
# Mechanical properties :
#
#
# Convention : Reuss Voigt Hill
#
# Bulk Modulus (GPa) = 28.40993 50.48606 39.44799
# Shear Modulus (GPa) = 27.78814 38.09160 32.93987
#
# Velocity S-wave (km/s) = 3.44135 4.02916 3.74680
# Velocity P-wave (km/s) = 5.28190 6.56978 5.96072
#
# Compressibility (1/GPa) = 0.03519896
#
# Stress axis : x y z
#
# Youngs Moduli (GPa) = 105.90786 95.95899 36.04536
#
# Poissons Ratio (x) = 0.10670 0.21712
# Poissons Ratio (y) = 0.11776 -0.03359
# Poissons Ratio (z) = 0.63795 -0.08943
#
# Static dielectric constant tensor:
#      x y z
#    x 1.931250 -0.030000 0.025020 
#    y -0.030000 1.847050 -0.020710 
#    z 0.025020 -0.020710 1.875170 
# 
# From -- ./inp_files/46115.got.cif
#   From: 2010.05.17/outbox.cif.g08.bks.cpg/sg2_24_cif.got.tgz:46115.got - 2010.06.03 11:33:40.
