data_PCOD9061144
_publ_section_title
;
Structure prediction by ZEFSAII (Michael W. Deem and Ramdas Pophale) SiO2 
 PCOD9061144
Probable space group: P -1
;
_chemical_formula_sum "Si O2"
_cell_formula_units_Z 16
_cell_length_a 7.760430
_cell_length_b 11.519650
_cell_length_c 24.876489
_cell_angle_alpha 145.484983
_cell_angle_beta 30.837286
_cell_angle_gamma 133.708880
_cell_volume 644.891098
_symmetry_space_group_name_H-M "P -1"
_symmetry_group_IT_number 2
_symmetry_cell_setting 'triclinic'
loop_
_space_group_symop_operation_xyz
x,y,z
-x,-y,-z
loop_
_atom_site_type_symbol
_atom_site_label
_atom_site_fract_x
_atom_site_fract_y
_atom_site_fract_z
Si Si1 0.239216 0.787905 0.422760
Si Si2 0.697623 0.525258 0.890317
Si Si3 0.848015 0.841878 0.358024
Si Si4 0.058501 0.102871 0.235455
Si Si5 0.929367 0.232956 0.202305
Si Si6 0.459251 0.938208 0.159697
Si Si7 0.285834 0.319832 0.844650
Si Si8 0.221245 0.491430 0.492694
O O1 0.489236 0.819721 0.417971
O O2 0.451004 0.687332 0.278414
O O3 0.962926 0.640174 0.462425
O O4 0.125480 0.033454 0.544812
O O5 0.488497 0.341613 0.853457
O O6 0.033382 0.398767 0.767822
O O7 0.790971 0.668148 0.870233
O O8 0.525333 0.694900 0.039637
O O9 0.110946 0.956335 0.293157
O O10 0.097928 0.177926 0.192989
O O11 0.795620 0.272469 0.395434
O O12 0.376964 0.066440 0.175803
O O13 0.899257 0.885892 0.192077
O O14 0.598620 0.391240 0.351401
O O15 0.771399 0.034307 0.141974
O O16 0.000000 0.500000 0.000000
O O17 0.000000 0.500000 0.500000
#
# Coordination Sequence:
#
# PCOD9061144 Si02
#       8
#     2   2   2   2   2   2   2   2
#     4  11  24  43  73 106 139 194 243 295 375 432
#     4  12  27  46  73 109 146 195 250 302 370 442
#     4  11  23  44  73 106 143 187 250 303 362 438
#     4  12  26  47  76 102 152 192 242 309 367 442
#     4  12  27  47  73 112 147 195 251 298 374 442
#     4  12  24  51  73 108 150 195 243 311 371 433
#     4  12  26  49  72 106 147 189 244 307 368 436
#     4  12  24  47  74 106 153 193 243 309 369 436
#
# _framework density 24.810390000000002
#
# number of rings (size 3 to 8) (size 9 to 14) (size 15 to 20)
#    0.000    0.250    5.000    3.375    3.500    2.000 
#    2.250    0.000    0.000    0.000    0.000    0.000 
#    0.000    0.000    0.000    0.000    0.000    0.000 
#
# Total GULP energy -89431.295695 kJ/mol
# GULP energy per Si atom -5589.455981 kJ/mol
# Density = 2.475392 g / cm^3
# Si number density = 24.810390 Si / 1000 Ang^3
#
#
#
# Elastic Constant Matrix: (Units=GPa)
#
#
# Indices 1 2 3 4 5 6 
#
# 1 71.8192 -3.3938 15.3094 -1.7450 15.2471 -7.2978
# 2 -3.3938 60.1289 28.5805 3.5077 19.8793 -6.9831
# 3 15.3094 28.5805 170.6787 25.2420 24.6234 1.1030
# 4 -1.7450 3.5077 25.2420 51.4827 -0.1022 12.5469
# 5 15.2471 19.8793 24.6234 -0.1022 36.3499 8.0578
# 6 -7.2978 -6.9831 1.1030 12.5469 8.0578 32.4803
#
#
#
# Elastic Compliance Matrix: (Units=1/GPa)
#
#
# Indices 1 2 3 4 5 6 
#
# 1 0.018063 0.006839 -0.000682 -0.001857 -0.012963 0.009485
# 2 0.006839 0.025834 -0.001726 -0.003972 -0.018797 0.013347
# 3 -0.000682 -0.001726 0.007389 -0.003975 -0.004185 0.001798
# 4 -0.001857 -0.003972 -0.003975 0.024719 0.008552 -0.012806
# 5 -0.012963 -0.018797 -0.004185 0.008552 0.051142 -0.022803
# 6 0.009485 0.013347 0.001798 -0.012806 -0.022803 0.046331
#
#
# Mechanical properties :
#
#
# Convention : Reuss Voigt Hill
#
# Bulk Modulus (GPa) = 16.62568 42.62434 29.62501
# Shear Modulus (GPa) = 27.07594 41.53795 34.30695
#
# Velocity S-wave (km/s) = 3.30709 4.09616 3.72259
# Velocity P-wave (km/s) = 4.61499 6.29195 5.51755
#
# Compressibility (1/GPa) = 0.06014790
#
# Stress axis : x y z
#
# Youngs Moduli (GPa) = 55.36153 38.70862 135.33164
#
# Poissons Ratio (x) = -0.26474 0.09231
# Poissons Ratio (y) = -0.37863 0.23363
# Poissons Ratio (z) = 0.03776 0.06683
#
# Static dielectric constant tensor:
#      x y z
#    x 2.340210 -0.111490 -0.349650 
#    y -0.111490 1.960700 0.099280 
#    z -0.349650 0.099280 2.457400 
# 
# From -- ./inp_files/617055.got.cif
#   From: 2010.05.17/outbox.cif.g08.bks.cpg/sg2_309_cif.got.tgz:617055.got - 2010.06.03 11:33:40.
