data_PCOD9061518
_publ_section_title
;
Structure prediction by ZEFSAII (Michael W. Deem and Ramdas Pophale) SiO2 
 PCOD9061518
Probable space group: P -1
;
_chemical_formula_sum "Si O2"
_cell_formula_units_Z 14
_cell_length_a 5.593286
_cell_length_b 7.426813
_cell_length_c 16.506954
_cell_angle_alpha 102.820098
_cell_angle_beta 121.545141
_cell_angle_gamma 82.833884
_cell_volume 569.777498
_symmetry_space_group_name_H-M "P -1"
_symmetry_group_IT_number 2
_symmetry_cell_setting 'triclinic'
loop_
_space_group_symop_operation_xyz
x,y,z
-x,-y,-z
loop_
_atom_site_type_symbol
_atom_site_label
_atom_site_fract_x
_atom_site_fract_y
_atom_site_fract_z
Si Si1 0.828739 0.455155 0.048361
Si Si2 0.565856 0.863005 0.875218
Si Si3 0.801794 0.902584 0.557320
Si Si4 0.647844 0.479162 0.769646
Si Si5 0.276593 0.434078 0.387978
Si Si6 0.098237 0.957640 0.907589
Si Si7 0.165440 0.245019 0.630368
O O1 0.847895 0.240965 0.058260
O O2 0.024936 0.557460 0.158733
O O3 0.500000 0.500000 0.000000
O O4 0.000000 0.500000 0.000000
O O5 0.550771 0.647636 0.827547
O O6 0.261532 0.944767 0.850929
O O7 0.761875 0.967199 0.854998
O O8 0.742789 0.894816 0.993404
O O9 0.803926 0.769384 0.620451
O O10 0.846063 0.782409 0.471666
O O11 0.500000 0.000000 0.500000
O O12 0.032590 0.058736 0.620727
O O13 0.605797 0.558163 0.680214
O O14 0.469182 0.295577 0.722065
O O15 0.500000 0.500000 0.500000
O O16 0.023763 0.579198 0.362983
#
# Coordination Sequence:
#
# PCOD9061518 Si02
#       7
#     2   2   2   2   2   2   2
#     4  11  24  43  70 100 144 194 246 314 385 443
#     4   9  19  36  66  93 129 173 236 298 356 431
#     4  11  23  45  72 106 150 201 249 309 385 457
#     4  11  25  41  73 105 141 196 259 304 376 462
#     4  12  24  44  73 109 150 200 249 312 382 458
#     4   9  18  38  64  92 126 177 228 299 369 423
#     4  11  24  42  74 104 153 198 253 309 381 455
#
# _framework density 24.570993000000001
#
# number of rings (size 3 to 8) (size 9 to 14) (size 15 to 20)
#    0.000    1.429    2.857    2.143    6.000    0.000 
#    0.000    4.286    0.000    0.000    0.000    0.000 
#    0.000    0.000    0.000    0.000    0.000    0.000 
#
# Total GULP energy -78337.433438 kJ/mol
# GULP energy per Si atom -5595.530960 kJ/mol
# Density = 2.451507 g / cm^3
# Si number density = 24.570993 Si / 1000 Ang^3
#
#
#
# Elastic Constant Matrix: (Units=GPa)
#
#
# Indices 1 2 3 4 5 6 
#
# 1 157.0078 45.3422 59.3002 20.4538 -6.8822 28.4432
# 2 45.3422 113.9123 57.5280 25.2200 6.3433 27.8475
# 3 59.3002 57.5280 118.0127 20.0193 19.7863 18.8330
# 4 20.4538 25.2200 20.0193 32.6213 15.1458 6.9937
# 5 -6.8822 6.3433 19.7863 15.1458 38.7098 14.2092
# 6 28.4432 27.8475 18.8330 6.9937 14.2092 43.8449
#
#
#
# Elastic Compliance Matrix: (Units=1/GPa)
#
#
# Indices 1 2 3 4 5 6 
#
# 1 0.010820 0.001392 -0.005294 -0.007718 0.010256 -0.007722
# 2 0.001392 0.015702 -0.006465 -0.011116 0.008683 -0.009139
# 3 -0.005294 -0.006465 0.014829 0.003064 -0.010114 0.003959
# 4 -0.007718 -0.011116 0.003064 0.051637 -0.025247 0.010697
# 5 0.010256 0.008683 -0.010114 -0.025247 0.048437 -0.019495
# 6 -0.007722 -0.009139 0.003959 0.010697 -0.019495 0.036533
#
#
# Mechanical properties :
#
#
# Convention : Reuss Voigt Hill
#
# Bulk Modulus (GPa) = 48.50195 79.25261 63.87728
# Shear Modulus (GPa) = 24.32330 38.15270 31.23800
#
# Velocity S-wave (km/s) = 3.14971 3.94477 3.56945
# Velocity P-wave (km/s) = 5.74543 7.28511 6.56060
#
# Compressibility (1/GPa) = 0.02061773
#
# Stress axis : x y z
#
# Youngs Moduli (GPa) = 92.41760 63.68798 67.43419
#
# Poissons Ratio (x) = -0.08864 0.35696
# Poissons Ratio (y) = -0.12863 0.43597
# Poissons Ratio (z) = 0.48922 0.41175
#
# Static dielectric constant tensor:
#      x y z
#    x 2.059650 0.018170 0.022190 
#    y 0.018170 1.950310 0.006180 
#    z 0.022190 0.006180 2.002690 
# 
# From -- ./inp_files/479929.got.cif
#   From: 2010.05.17/outbox.cif.g08.bks.cpg/sg2_240_cif.got.tgz:479929.got - 2010.06.03 11:33:40.
