data_PCOD9061246
_publ_section_title
;
Structure prediction by ZEFSAII (Michael W. Deem and Ramdas Pophale) SiO2 
 PCOD9061246
Probable space group: P -1
;
_chemical_formula_sum "Si O2"
_cell_formula_units_Z 16
_cell_length_a 15.299050
_cell_length_b 9.253122
_cell_length_c 11.551121
_cell_angle_alpha 54.352720
_cell_angle_beta 72.295308
_cell_angle_gamma 117.139772
_cell_volume 727.790449
_symmetry_space_group_name_H-M "P -1"
_symmetry_group_IT_number 2
_symmetry_cell_setting 'triclinic'
loop_
_space_group_symop_operation_xyz
x,y,z
-x,-y,-z
loop_
_atom_site_type_symbol
_atom_site_label
_atom_site_fract_x
_atom_site_fract_y
_atom_site_fract_z
Si Si1 0.898819 0.134130 0.450484
Si Si2 0.341435 0.755650 0.755118
Si Si3 0.783652 0.589706 0.814715
Si Si4 0.934628 0.523488 0.416973
Si Si5 0.175155 0.857741 0.763809
Si Si6 0.864790 0.825228 0.039898
Si Si7 0.646248 0.602904 0.416979
Si Si8 0.663259 0.331188 0.727987
O O1 0.913581 0.353238 0.398208
O O2 0.801221 0.008159 0.430849
O O3 0.068669 0.311272 0.268841
O O4 0.822398 0.860123 0.690665
O O5 0.295604 0.888226 0.719190
O O6 0.189442 0.411503 0.918202
O O7 0.500000 0.000000 0.500000
O O8 0.352255 0.689298 0.910952
O O9 0.755293 0.530177 0.716038
O O10 0.772565 0.363997 0.598262
O O11 0.000000 0.500000 0.500000
O O12 0.064735 0.884968 0.179535
O O13 0.203771 0.040990 0.768578
O O14 0.000000 0.500000 0.000000
O O15 0.701700 0.598045 0.280770
O O16 0.000000 0.000000 0.000000
O O17 0.500000 0.500000 0.500000
O O18 0.622763 0.425291 0.611936
O O19 0.500000 0.000000 0.000000
#
# Coordination Sequence:
#
# PCOD9061246 Si02
#       8
#     2   2   2   2   2   2   2   2
#     4  11  23  44  76 108 138 187 246 309 352 430
#     4  12  28  47  71 106 150 195 237 303 374 432
#     4  11  25  47  74 104 149 187 244 302 370 432
#     4  12  25  45  74 111 145 188 248 302 367 433
#     4  12  24  43  74 106 136 189 253 291 353 433
#     4  12  26  46  75 106 145 192 251 307 355 434
#     4  12  28  49  72 107 152 195 245 302 375 438
#     4  12  29  48  74 108 153 197 237 306 380 444
#
# _framework density 21.984352000000001
#
# number of rings (size 3 to 8) (size 9 to 14) (size 15 to 20)
#    0.000    0.250    5.000    3.750    7.000    0.000 
#    2.250    1.250    0.000    0.000    0.000    0.000 
#    0.000    0.000    0.000    0.000    0.000    0.000 
#
# Total GULP energy -89444.024641 kJ/mol
# GULP energy per Si atom -5590.251540 kJ/mol
# Density = 2.193431 g / cm^3
# Si number density = 21.984352 Si / 1000 Ang^3
#
#
#
# Elastic Constant Matrix: (Units=GPa)
#
#
# Indices 1 2 3 4 5 6 
#
# 1 119.2274 17.8221 54.4407 9.0485 25.6990 -3.5365
# 2 17.8221 108.7439 12.4480 -6.4565 8.9191 -13.6271
# 3 54.4407 12.4480 135.0023 10.4688 17.0785 -13.8473
# 4 9.0485 -6.4565 10.4688 37.3359 0.0676 1.5200
# 5 25.6990 8.9191 17.0785 0.0676 36.1969 0.0403
# 6 -3.5365 -13.6271 -13.8473 1.5200 0.0403 28.2232
#
#
#
# Elastic Compliance Matrix: (Units=1/GPa)
#
#
# Indices 1 2 3 4 5 6 
#
# 1 0.011766 -0.001204 -0.003776 -0.001955 -0.006271 -0.000845
# 2 -0.001204 0.010226 0.000104 0.001841 -0.001723 0.004741
# 3 -0.003776 0.000104 0.009783 -0.001989 -0.001962 0.004487
# 4 -0.001955 0.001841 -0.001989 0.028206 0.001823 -0.001854
# 5 -0.006271 -0.001723 -0.001962 0.001823 0.033429 -0.002726
# 6 -0.000845 0.004741 0.004487 -0.001854 -0.002726 0.039920
#
#
# Mechanical properties :
#
#
# Convention : Reuss Voigt Hill
#
# Bulk Modulus (GPa) = 45.40391 59.15501 52.27946
# Shear Modulus (GPa) = 33.23963 38.90205 36.07084
#
# Velocity S-wave (km/s) = 3.89262 4.21115 4.05501
# Velocity P-wave (km/s) = 6.39539 7.11415 6.76433
#
# Compressibility (1/GPa) = 0.02202454
#
# Stress axis : x y z
#
# Youngs Moduli (GPa) = 84.98836 97.78961 102.21901
#
# Poissons Ratio (x) = 0.11772 0.38593
# Poissons Ratio (y) = 0.10231 -0.01063
# Poissons Ratio (z) = 0.32088 -0.01017
#
# Static dielectric constant tensor:
#      x y z
#    x 1.766920 0.011480 -0.010500 
#    y 0.011480 2.140870 0.078620 
#    z -0.010500 0.078620 1.840660 
# 
# From -- ./inp_files/298875.got.cif
#   From: 2010.05.17/outbox.cif.g08.bks.cpg/sg2_150_cif.got.tgz:298875.got - 2010.06.03 11:33:40.
