data_PCOD9061279
_publ_section_title
;
Structure prediction by ZEFSAII (Michael W. Deem and Ramdas Pophale) SiO2 
 PCOD9061279
Probable space group: P -1
;
_chemical_formula_sum "Si O2"
_cell_formula_units_Z 16
_cell_length_a 7.956427
_cell_length_b 8.150843
_cell_length_c 18.091273
_cell_angle_alpha 123.867090
_cell_angle_beta 95.280719
_cell_angle_gamma 53.563739
_cell_volume 731.898072
_symmetry_space_group_name_H-M "P -1"
_symmetry_group_IT_number 2
_symmetry_cell_setting 'triclinic'
loop_
_space_group_symop_operation_xyz
x,y,z
-x,-y,-z
loop_
_atom_site_type_symbol
_atom_site_label
_atom_site_fract_x
_atom_site_fract_y
_atom_site_fract_z
Si Si1 0.034906 0.162138 0.891355
Si Si2 0.026318 0.576576 0.600780
Si Si3 0.494449 0.436249 0.567599
Si Si4 0.805545 0.567769 0.101890
Si Si5 0.796555 0.871973 0.389952
Si Si6 0.449732 0.867957 0.285424
Si Si7 0.116043 0.595745 0.204328
Si Si8 0.531214 0.387620 0.241326
O O1 0.185376 0.246841 0.905210
O O2 0.896306 0.263796 0.835127
O O3 0.211735 0.852210 0.826152
O O4 0.879839 0.324984 0.995673
O O5 0.253151 0.528720 0.597436
O O6 0.068424 0.382395 0.617006
O O7 0.000000 0.500000 0.500000
O O8 0.799648 0.871732 0.675980
O O9 0.500000 0.500000 0.500000
O O10 0.517114 0.589799 0.667639
O O11 0.690900 0.123126 0.499564
O O12 0.581367 0.728417 0.179491
O O13 0.995701 0.484421 0.148256
O O14 0.588870 0.924574 0.352681
O O15 0.964235 0.809713 0.316016
O O16 0.463310 0.659197 0.281861
O O17 0.364318 0.376611 0.187416
#
# Coordination Sequence:
#
# PCOD9061279 Si02
#       8
#     2   2   2   2   2   2   2   2
#     4   9  20  43  67  91 129 158 208 261 307 368
#     4  12  25  41  66  86 124 171 212 253 301 371
#     4  12  27  42  62  94 130 165 207 266 307 363
#     4   8  20  45  68  88 128 162 206 258 307 377
#     4  11  23  45  62  90 126 171 213 242 307 380
#     4  11  24  42  64  94 126 164 209 257 307 368
#     4   9  22  38  67  94 121 162 208 252 310 375
#     4  12  25  38  64  94 131 161 206 263 315 363
#
# _framework density 21.860965
#
# number of rings (size 3 to 8) (size 9 to 14) (size 15 to 20)
#    0.750    0.750    2.500    1.875    7.000    1.500 
#    0.000    0.625    0.000    0.000    0.000    0.000 
#    0.000    0.000    0.000    0.000    0.000    0.000 
#
# Total GULP energy -89399.710361 kJ/mol
# GULP energy per Si atom -5587.481898 kJ/mol
# Density = 2.181121 g / cm^3
# Si number density = 21.860965 Si / 1000 Ang^3
#
#
#
# Elastic Constant Matrix: (Units=GPa)
#
#
# Indices 1 2 3 4 5 6 
#
# 1 17.3540 6.8408 18.8901 -11.3423 -2.7762 -6.9331
# 2 6.8408 110.6383 56.5555 10.6670 -2.5582 -18.1349
# 3 18.8901 56.5555 161.4419 3.0532 -18.5987 -17.3014
# 4 -11.3423 10.6670 3.0532 16.9708 4.7399 5.8023
# 5 -2.7762 -2.5582 -18.5987 4.7399 19.9832 -3.1133
# 6 -6.9331 -18.1349 -17.3014 5.8023 -3.1133 23.7557
#
#
#
# Elastic Compliance Matrix: (Units=1/GPa)
#
#
# Indices 1 2 3 4 5 6 
#
# 1 0.172848 -0.017344 -0.023785 0.149006 -0.039057 -0.021630
# 2 -0.017344 0.015692 -0.000376 -0.028777 0.008377 0.014770
# 3 -0.023785 -0.000376 0.012571 -0.025977 0.016127 0.010386
# 4 0.149006 -0.028777 -0.025977 0.221242 -0.069061 -0.060489
# 5 -0.039057 0.008377 0.016127 -0.069061 0.082441 0.034414
# 6 -0.021630 0.014770 0.010386 -0.060489 0.034414 0.073906
#
#
# Mechanical properties :
#
#
# Convention : Reuss Voigt Hill
#
# Bulk Modulus (GPa) = 8.46717 50.44523 29.45620
# Shear Modulus (GPa) = 7.13190 25.95181 16.54186
#
# Velocity S-wave (km/s) = 1.80817 3.44921 2.75377
# Velocity P-wave (km/s) = 2.87070 6.24406 4.85949
#
# Compressibility (1/GPa) = 0.11810318
#
# Stress axis : x y z
#
# Youngs Moduli (GPa) = 5.78542 63.72679 79.54829
#
# Poissons Ratio (x) = 1.10526 1.89203
# Poissons Ratio (y) = 0.10034 0.02988
# Poissons Ratio (z) = 0.13760 0.02394
#
# Static dielectric constant tensor:
#      x y z
#    x 1.830650 0.016830 0.040330 
#    y 0.016830 1.801140 -0.009170 
#    z 0.040330 -0.009170 1.806270 
# 
# From -- ./inp_files/556405.got.cif
#   From: 2010.05.17/outbox.cif.g08.bks.cpg/sg2_279_cif.got.tgz:556405.got - 2010.06.03 11:33:40.
