data_PCOD9061751
_publ_section_title
;
Structure prediction by ZEFSAII (Michael W. Deem and Ramdas Pophale) SiO2 
 PCOD9061751
Probable space group: P -1
;
_chemical_formula_sum "Si O2"
_cell_formula_units_Z 14
_cell_length_a 15.176116
_cell_length_b 31.218143
_cell_length_c 13.145758
_cell_angle_alpha 18.529263
_cell_angle_beta 153.931274
_cell_angle_gamma 161.413767
_cell_volume 630.831072
_symmetry_space_group_name_H-M "P -1"
_symmetry_group_IT_number 2
_symmetry_cell_setting 'triclinic'
loop_
_space_group_symop_operation_xyz
x,y,z
-x,-y,-z
loop_
_atom_site_type_symbol
_atom_site_label
_atom_site_fract_x
_atom_site_fract_y
_atom_site_fract_z
Si Si1 0.304913 0.684983 0.872006
Si Si2 0.423169 0.550233 0.119284
Si Si3 0.366486 0.003326 0.131049
Si Si4 0.777171 0.554731 0.197798
Si Si5 0.981814 0.861126 0.864940
Si Si6 0.717384 0.834937 0.137268
Si Si7 0.921503 0.369960 0.867546
O O1 0.274093 0.812377 0.496760
O O2 0.449837 0.638299 0.056590
O O3 0.475781 0.780168 0.938179
O O4 0.000000 0.500000 0.000000
O O5 0.353685 0.357695 0.487959
O O6 0.694329 0.707270 0.977569
O O7 0.147583 0.487604 0.924115
O O8 0.233668 0.974327 0.949797
O O9 0.274700 0.075236 0.953543
O O10 0.699788 0.151480 0.146429
O O11 0.732584 0.411032 0.552227
O O12 0.910009 0.574671 0.184912
O O13 0.500000 0.500000 0.000000
O O14 0.985014 0.743066 0.052551
O O15 0.000000 0.000000 0.500000
O O16 0.000000 0.000000 0.000000
#
# Coordination Sequence:
#
# PCOD9061751 Si02
#       7
#     2   2   2   2   2   2   2
#     4  12  25  46  70 102 141 181 237 302 362 420
#     4  12  25  45  72 105 141 188 238 287 362 430
#     4  12  26  44  70 107 141 185 240 292 359 429
#     4  11  23  46  68  98 143 191 236 284 347 408
#     4  12  27  42  70 102 150 187 235 289 347 425
#     4  12  25  46  75 102 139 186 237 301 365 422
#     4  11  25  42  73  99 138 189 235 287 346 423
#
# _framework density 22.192945999999999
#
# number of rings (size 3 to 8) (size 9 to 14) (size 15 to 20)
#    0.000    0.286    1.429    7.714    6.000    0.571 
#    0.000    0.000    0.000    0.000    0.000    0.000 
#    0.000    0.000    0.000    0.000    0.000    0.000 
#
# Total GULP energy -78310.139587 kJ/mol
# GULP energy per Si atom -5593.581399 kJ/mol
# Density = 2.214243 g / cm^3
# Si number density = 22.192946 Si / 1000 Ang^3
#
#
#
# Elastic Constant Matrix: (Units=GPa)
#
#
# Indices 1 2 3 4 5 6 
#
# 1 10.8271 -20.9610 13.0278 10.1553 8.2864 -22.8011
# 2 -20.9610 88.8839 -13.3211 8.7878 -7.6072 -10.5558
# 3 13.0278 -13.3211 113.6162 -10.8382 0.5482 2.9702
# 4 10.1553 8.7878 -10.8382 42.1685 2.6311 -10.1262
# 5 8.2864 -7.6072 0.5482 2.6311 28.4348 -9.7169
# 6 -22.8011 -10.5558 2.9702 -10.1262 -9.7169 53.7300
#
#
#
# Elastic Compliance Matrix: (Units=1/GPa)
#
#
# Indices 1 2 3 4 5 6 
#
# 1 -0.107495 -0.031100 0.012170 0.023911 0.004469 -0.047085
# 2 -0.031100 0.003323 0.004693 0.005049 0.005696 -0.010822
# 3 0.012170 0.004693 0.007762 -0.000571 -0.000524 0.005455
# 4 0.023911 0.005049 -0.000571 0.020411 -0.002519 0.014562
# 5 0.004469 0.005696 -0.000524 -0.002519 0.038916 0.009607
# 6 -0.047085 -0.010822 0.005455 0.014562 0.009607 0.000684
#
#
# Mechanical properties :
#
#
# Convention : Reuss Voigt Hill
#
# Bulk Modulus (GPa) = -8.00740 18.97984 5.48622
# Shear Modulus (GPa) = -100.90121 40.50545 -30.19788
#
# Velocity S-wave (km/s) = -6.75012 4.27681 -3.69276
# Velocity P-wave (km/s) = 8.02297 5.74099 3.96290
#
# Compressibility (1/GPa) = -0.12488442
#
# Stress axis : x y z
#
# Youngs Moduli (GPa) = -9.30274 300.93744 128.83709
#
# Poissons Ratio (x) = 9.35901 -1.56793
# Poissons Ratio (y) = -0.28931 -0.60459
# Poissons Ratio (z) = 0.11321 -1.41221
#
# Static dielectric constant tensor:
#      x y z
#    x 1.814990 0.024080 0.028280 
#    y 0.024080 1.758590 -0.045880 
#    z 0.028280 -0.045880 1.970500 
# 
# From -- ./inp_files/135779.got.cif
#   From: 2010.05.17/outbox.cif.g08.bks.cpg/sg2_68_cif.got.tgz:135779.got - 2010.06.03 11:33:40.
