data_PCOD9061299
_publ_section_title
;
Structure prediction by ZEFSAII (Michael W. Deem and Ramdas Pophale) SiO2 
 PCOD9061299
Probable space group: P -1
;
_chemical_formula_sum "Si O2"
_cell_formula_units_Z 16
_cell_length_a 8.702069
_cell_length_b 19.716003
_cell_length_c 14.276320
_cell_angle_alpha 22.828819
_cell_angle_beta 125.581077
_cell_angle_gamma 126.944819
_cell_volume 756.424805
_symmetry_space_group_name_H-M "P -1"
_symmetry_group_IT_number 2
_symmetry_cell_setting 'triclinic'
loop_
_space_group_symop_operation_xyz
x,y,z
-x,-y,-z
loop_
_atom_site_type_symbol
_atom_site_label
_atom_site_fract_x
_atom_site_fract_y
_atom_site_fract_z
Si Si1 0.258580 0.976492 0.050829
Si Si2 0.648908 0.216564 0.939409
Si Si3 0.112779 0.884624 0.323116
Si Si4 0.451539 0.579669 0.177874
Si Si5 0.979957 0.531171 0.841959
Si Si6 0.639065 0.870735 0.746364
Si Si7 0.791832 0.397375 0.589266
Si Si8 0.016771 0.159479 0.229703
O O1 0.218251 0.900339 0.239675
O O2 0.234342 0.805260 0.194695
O O3 0.470087 0.099884 0.969902
O O4 0.098165 0.083682 0.822179
O O5 0.821898 0.118257 0.150748
O O6 0.560855 0.281830 0.919072
O O7 0.753060 0.388604 0.697621
O O8 0.098482 0.703589 0.609461
O O9 0.228881 0.041280 0.231328
O O10 0.243239 0.453457 0.265951
O O11 0.626542 0.483576 0.377300
O O12 0.496309 0.691452 0.956976
O O13 0.000000 0.500000 0.000000
O O14 0.012735 0.349464 0.035150
O O15 0.790356 0.834537 0.768870
O O16 0.500000 0.000000 0.500000
O O17 0.000000 0.500000 0.500000
O O18 0.000000 0.000000 0.500000
#
# Coordination Sequence:
#
# PCOD9061299 Si02
#       8
#     2   2   2   2   2   2   2   2
#     4  11  25  42  69 101 138 184 219 287 342 411
#     4  11  23  45  66  96 134 181 226 274 351 407
#     4  11  24  44  68 100 140 176 232 278 348 405
#     4  11  24  42  66  97 132 178 224 280 343 402
#     4  11  25  46  69 101 136 181 229 291 340 405
#     4  12  24  47  70  97 136 183 229 281 340 410
#     4  12  26  39  67 101 136 174 227 281 339 411
#     4  11  25  43  73 100 133 180 231 282 345 409
#
# _framework density 21.152135999999999
#
# number of rings (size 3 to 8) (size 9 to 14) (size 15 to 20)
#    0.000    0.750    1.250    6.750    7.000    2.000 
#    0.000    1.250    0.000    0.000    0.000    0.000 
#    0.000    0.000    0.000    0.000    0.000    0.000 
#
# Total GULP energy -89450.174481 kJ/mol
# GULP energy per Si atom -5590.635905 kJ/mol
# Density = 2.110399 g / cm^3
# Si number density = 21.152136 Si / 1000 Ang^3
#
#
#
# Elastic Constant Matrix: (Units=GPa)
#
#
# Indices 1 2 3 4 5 6 
#
# 1 131.9977 28.6559 29.0002 -6.7167 -12.8183 -2.7335
# 2 28.6559 60.5599 -7.1276 12.3289 0.6595 12.0749
# 3 29.0002 -7.1276 93.3014 16.9256 -14.4557 0.8764
# 4 -6.7167 12.3289 16.9256 29.3349 2.8979 -4.2708
# 5 -12.8183 0.6595 -14.4557 2.8979 43.2388 5.0296
# 6 -2.7335 12.0749 0.8764 -4.2708 5.0296 33.7848
#
#
#
# Elastic Compliance Matrix: (Units=1/GPa)
#
#
# Indices 1 2 3 4 5 6 
#
# 1 0.011951 -0.010072 -0.006679 0.011735 -0.000048 0.006231
# 2 -0.010072 0.030362 0.010417 -0.023662 0.003415 -0.015436
# 3 -0.006679 0.010417 0.017838 -0.017933 0.005943 -0.007878
# 4 0.011735 -0.023662 -0.017933 0.060633 -0.008405 0.018788
# 5 -0.000048 0.003415 0.005943 -0.008405 0.026352 -0.006364
# 6 0.006231 -0.015436 -0.007878 0.018788 -0.006364 0.039147
#
#
# Mechanical properties :
#
#
# Convention : Reuss Voigt Hill
#
# Bulk Modulus (GPa) = 21.06035 42.99068 32.02552
# Shear Modulus (GPa) = 23.27968 36.96040 30.12004
#
# Velocity S-wave (km/s) = 3.32110 4.18468 3.77765
# Velocity P-wave (km/s) = 4.96835 6.61191 5.84816
#
# Compressibility (1/GPa) = 0.04748258
#
# Stress axis : x y z
#
# Youngs Moduli (GPa) = 83.67207 32.93564 56.06109
#
# Poissons Ratio (x) = 0.33173 0.37443
# Poissons Ratio (y) = 0.84275 -0.58397
# Poissons Ratio (z) = 0.55884 -0.34308
#
# Static dielectric constant tensor:
#      x y z
#    x 1.753240 -0.010210 0.044410 
#    y -0.010210 1.792970 0.060440 
#    z 0.044410 0.060440 1.940520 
# 
# From -- ./inp_files/189808.got.cif
#   From: 2010.05.17/outbox.cif.g08.bks.cpg/sg2_95_cif.got.tgz:189808.got - 2010.06.03 11:33:40.
