data_PCOD9061570
_publ_section_title
;
Structure prediction by ZEFSAII (Michael W. Deem and Ramdas Pophale) SiO2 
 PCOD9061570
Probable space group: P -1
;
_chemical_formula_sum "Si O2"
_cell_formula_units_Z 14
_cell_length_a 19.201548
_cell_length_b 11.332512
_cell_length_c 12.321203
_cell_angle_alpha 155.355917
_cell_angle_beta 152.400281
_cell_angle_gamma 31.519917
_cell_volume 502.403205
_symmetry_space_group_name_H-M "P -1"
_symmetry_group_IT_number 2
_symmetry_cell_setting 'triclinic'
loop_
_space_group_symop_operation_xyz
x,y,z
-x,-y,-z
loop_
_atom_site_type_symbol
_atom_site_label
_atom_site_fract_x
_atom_site_fract_y
_atom_site_fract_z
Si Si1 0.355455 0.886460 0.248207
Si Si2 0.264126 0.737986 0.784678
Si Si3 0.217336 0.257458 0.667577
Si Si4 0.227513 0.757238 0.411761
Si Si5 0.870829 0.810219 0.171964
Si Si6 0.079599 0.378345 0.337721
Si Si7 0.509596 0.478425 0.282808
O O1 0.398132 0.778481 0.338400
O O2 0.500000 0.000000 0.500000
O O3 0.179922 0.085682 0.175407
O O4 0.345611 0.667722 0.954186
O O5 0.113269 0.621817 0.505250
O O6 0.367494 0.584842 0.700129
O O7 0.225111 0.074173 0.974737
O O8 0.161539 0.343631 0.540525
O O9 0.099521 0.506608 0.783544
O O10 0.197673 0.943109 0.416761
O O11 0.393703 0.266817 0.940499
O O12 0.115495 0.535948 0.090327
O O13 0.394985 0.547939 0.497163
O O14 0.220195 0.018113 0.707362
O O15 0.000000 0.000000 0.500000
#
# Coordination Sequence:
#
# PCOD9061570 Si02
#       7
#     2   2   2   2   2   2   2
#     4  12  22  40  75 109 146 194 257 323 386 454
#     4  11  23  45  73 107 149 188 264 322 382 447
#     4  11  25  49  69 111 162 206 255 317 393 472
#     4  11  26  49  75 112 156 206 261 316 390 475
#     4  11  25  47  78 112 151 202 261 327 390 457
#     4  11  25  45  72 109 152 202 259 320 391 457
#     4  11  23  45  77 112 154 204 261 320 388 462
#
# _framework density 27.866064000000001
#
# number of rings (size 3 to 8) (size 9 to 14) (size 15 to 20)
#    0.000    0.857    2.857    3.857    2.000    2.857 
#    5.143    4.286    0.000    0.000    0.000    0.000 
#    0.000    0.000    0.000    0.000    0.000    0.000 
#
# Total GULP energy -78203.438752 kJ/mol
# GULP energy per Si atom -5585.959911 kJ/mol
# Density = 2.780264 g / cm^3
# Si number density = 27.866064 Si / 1000 Ang^3
#
#
#
# Elastic Constant Matrix: (Units=GPa)
#
#
# Indices 1 2 3 4 5 6 
#
# 1 156.1026 57.9730 37.1001 7.9711 12.9198 -2.8692
# 2 57.9730 133.7918 49.6722 18.8871 10.9091 36.5940
# 3 37.1001 49.6722 122.0631 0.8157 9.4994 7.9585
# 4 7.9711 18.8871 0.8157 45.3831 8.7757 7.6378
# 5 12.9198 10.9091 9.4994 8.7757 33.8880 13.3135
# 6 -2.8692 36.5940 7.9585 7.6378 13.3135 48.5697
#
#
#
# Elastic Compliance Matrix: (Units=1/GPa)
#
#
# Indices 1 2 3 4 5 6 
#
# 1 0.008686 -0.004579 -0.000823 0.000251 -0.003660 0.005062
# 2 -0.004579 0.014052 -0.003881 -0.003866 0.003461 -0.010563
# 3 -0.000823 -0.003881 0.010089 0.001765 -0.002346 0.001588
# 4 0.000251 -0.003866 0.001765 0.024641 -0.005874 0.000373
# 5 -0.003660 0.003461 -0.002346 -0.005874 0.036494 -0.011519
# 6 0.005062 -0.010563 0.001588 0.000373 -0.011519 0.031685
#
#
# Mechanical properties :
#
#
# Convention : Reuss Voigt Hill
#
# Bulk Modulus (GPa) = 70.13049 77.93868 74.03459
# Shear Modulus (GPa) = 33.56428 43.38231 38.47329
#
# Velocity S-wave (km/s) = 3.47434 3.94993 3.71974
# Velocity P-wave (km/s) = 6.42778 6.98801 6.71374
#
# Compressibility (1/GPa) = 0.01425913
#
# Stress axis : x y z
#
# Youngs Moduli (GPa) = 115.13382 71.16369 99.11402
#
# Poissons Ratio (x) = 0.32589 0.08160
# Poissons Ratio (y) = 0.52724 0.38469
# Poissons Ratio (z) = 0.09478 0.27621
#
# Static dielectric constant tensor:
#      x y z
#    x 2.142460 -0.023170 0.012150 
#    y -0.023170 2.314230 -0.060710 
#    z 0.012150 -0.060710 2.300710 
# 
# From -- ./inp_files/522513.got.cif
#   From: 2010.05.17/outbox.cif.g08.bks.cpg/sg2_262_cif.got.tgz:522513.got - 2010.06.03 11:33:40.
