data_PCOD9061732
_publ_section_title
;
Structure prediction by ZEFSAII (Michael W. Deem and Ramdas Pophale) SiO2 
 PCOD9061732
Probable space group: P -1
;
_chemical_formula_sum "Si O2"
_cell_formula_units_Z 15
_cell_length_a 28.123259
_cell_length_b 9.438497
_cell_length_c 11.638071
_cell_angle_alpha 38.017148
_cell_angle_beta 25.135636
_cell_angle_gamma 26.104220
_cell_volume 572.125089
_symmetry_space_group_name_H-M "P -1"
_symmetry_group_IT_number 2
_symmetry_cell_setting 'triclinic'
loop_
_space_group_symop_operation_xyz
x,y,z
-x,-y,-z
loop_
_atom_site_type_symbol
_atom_site_label
_atom_site_fract_x
_atom_site_fract_y
_atom_site_fract_z
Si Si1 0.445207 0.339194 0.772380
Si Si2 0.110760 0.682092 0.540452
Si Si3 0.085456 0.279416 0.704689
Si Si4 0.426708 0.501506 0.954271
Si Si5 0.513033 0.113942 0.207065
Si Si6 0.102079 0.868811 0.090733
Si Si7 0.000000 0.500000 0.500000
Si Si8 0.292756 0.196024 0.805923
O O1 0.500000 0.500000 0.500000
O O2 0.509486 0.049167 0.735149
O O3 0.491548 0.280212 0.841813
O O4 0.256032 0.604831 0.000805
O O5 0.263227 0.614631 0.272031
O O6 0.145257 0.395707 0.582640
O O7 0.000000 0.000000 0.500000
O O8 0.013852 0.797316 0.796126
O O9 0.107862 0.298163 0.510467
O O10 0.893075 0.556825 0.958082
O O11 0.147489 0.945503 0.828374
O O12 0.527947 0.316153 0.965338
O O13 0.382135 0.827844 0.813896
O O14 0.373114 0.277526 0.501760
O O15 0.668641 0.842219 0.117656
O O16 0.015935 0.757202 0.322547
#
# Coordination Sequence:
#
# PCOD9061732 Si02
#       8
#     2   2   2   2   2   2   1   2
#     4  12  25  45  65  99 145 179 226 282 333 417
#     4  12  22  43  74 102 134 174 226 298 339 392
#     4  12  25  44  73 104 137 179 223 292 351 403
#     4  12  23  45  71  99 135 178 230 283 340 402
#     4  11  26  42  67  97 132 190 223 272 342 405
#     4  12  26  46  72 104 139 182 230 285 355 403
#     4  12  24  46  66 102 142 174 226 286 340 412
#     4  11  23  46  67  97 140 170 234 282 330 413
#
# _framework density 26.218043000000002
#
# number of rings (size 3 to 8) (size 9 to 14) (size 15 to 20)
#    0.000    0.267    5.333    3.200    1.867    0.000 
#    4.800    2.667    0.000    0.000    0.000    0.000 
#    0.000    0.000    0.000    0.000    0.000    0.000 
#
# Total GULP energy -83860.255154 kJ/mol
# GULP energy per Si atom -5590.683677 kJ/mol
# Density = 2.615837 g / cm^3
# Si number density = 26.218043 Si / 1000 Ang^3
#
#
#
# Elastic Constant Matrix: (Units=GPa)
#
#
# Indices 1 2 3 4 5 6 
#
# 1 156.5725 27.2054 28.0495 -21.9415 17.6880 10.7904
# 2 27.2054 66.0422 15.7213 -11.0689 -1.6342 -4.9584
# 3 28.0495 15.7213 67.1678 -8.1295 -0.2071 -8.0405
# 4 -21.9415 -11.0689 -8.1295 46.2633 0.8178 6.1499
# 5 17.6880 -1.6342 -0.2071 0.8178 49.4469 -21.5005
# 6 10.7904 -4.9584 -8.0405 6.1499 -21.5005 38.1191
#
#
#
# Elastic Compliance Matrix: (Units=1/GPa)
#
#
# Indices 1 2 3 4 5 6 
#
# 1 0.009749 -0.003202 -0.003878 0.004508 -0.007601 -0.009009
# 2 -0.003202 0.017661 -0.002034 0.001675 0.003686 0.004583
# 3 -0.003878 -0.002034 0.017830 -0.000227 0.004521 0.007181
# 4 0.004508 0.001675 -0.000227 0.025324 -0.005611 -0.008357
# 5 -0.007601 0.003686 0.004521 -0.005611 0.033294 0.023269
# 6 -0.009009 0.004583 0.007181 -0.008357 0.023269 0.045367
#
#
# Mechanical properties :
#
#
# Convention : Reuss Voigt Hill
#
# Bulk Modulus (GPa) = 37.02023 47.97053 42.49538
# Shear Modulus (GPa) = 28.33535 41.35296 34.84415
#
# Velocity S-wave (km/s) = 3.29105 3.97580 3.64952
# Velocity P-wave (km/s) = 5.34716 6.27793 5.83115
#
# Compressibility (1/GPa) = 0.02701226
#
# Stress axis : x y z
#
# Youngs Moduli (GPa) = 102.57152 56.62184 56.08627
#
# Poissons Ratio (x) = 0.18129 0.21751
# Poissons Ratio (y) = 0.32841 0.11407
# Poissons Ratio (z) = 0.39779 0.11516
#
# Static dielectric constant tensor:
#      x y z
#    x 2.355110 -0.091050 0.243480 
#    y -0.091050 2.146980 -0.002790 
#    z 0.243480 -0.002790 2.188860 
# 
# From -- ./inp_files/332737.got.cif
#   From: 2010.05.17/outbox.cif.g08.bks.cpg/sg2_167_cif.got.tgz:332737.got - 2010.06.03 11:33:40.
