data_PCOD9061996
_publ_section_title
;
Structure prediction by ZEFSAII (Michael W. Deem and Ramdas Pophale) SiO2 
 PCOD9061996
Probable space group: P -1
;
_chemical_formula_sum "Si O2"
_cell_formula_units_Z 14
_cell_length_a 9.442973
_cell_length_b 12.761581
_cell_length_c 13.582274
_cell_angle_alpha 137.568180
_cell_angle_beta 31.969458
_cell_angle_gamma 122.922713
_cell_volume 568.857906
_symmetry_space_group_name_H-M "P -1"
_symmetry_group_IT_number 2
_symmetry_cell_setting 'triclinic'
loop_
_space_group_symop_operation_xyz
x,y,z
-x,-y,-z
loop_
_atom_site_type_symbol
_atom_site_label
_atom_site_fract_x
_atom_site_fract_y
_atom_site_fract_z
Si Si1 0.925365 0.341003 0.389723
Si Si2 0.086161 0.829116 0.120431
Si Si3 0.714588 0.344185 0.300919
Si Si4 0.500447 0.170158 0.982633
Si Si5 0.774272 0.821534 0.506192
Si Si6 0.325892 0.874307 0.483261
Si Si7 0.676665 0.342022 0.836373
O O1 0.863722 0.367173 0.329619
O O2 0.690787 0.270847 0.534641
O O3 0.000000 0.500000 0.500000
O O4 0.189897 0.197041 0.152993
O O5 0.405236 0.812721 0.950051
O O6 0.912640 0.803641 0.302511
O O7 0.079354 0.716689 0.953286
O O8 0.968450 0.008429 0.280653
O O9 0.500000 0.500000 0.500000
O O10 0.518698 0.223531 0.354858
O O11 0.573198 0.323109 0.993049
O O12 0.699190 0.006249 0.713445
O O13 0.992437 0.710237 0.376474
O O14 0.406707 0.795073 0.275342
O O15 0.500000 0.000000 0.500000
O O16 0.500000 0.500000 0.000000
#
# Coordination Sequence:
#
# PCOD9061996 Si02
#       7
#     2   2   2   2   2   2   2
#     4  12  29  49  74 114 160 202 263 330 396 474
#     4  11  24  47  77 110 151 205 260 326 388 466
#     4  12  30  46  74 111 155 206 263 326 398 466
#     4  11  23  46  77 108 151 202 260 313 391 474
#     4  11  24  49  77 110 153 203 267 317 387 483
#     4  12  26  45  78 110 153 204 265 320 391 464
#     4  11  24  43  76 112 153 205 253 322 398 461
#
# _framework density 24.610714000000002
#
# number of rings (size 3 to 8) (size 9 to 14) (size 15 to 20)
#    0.000    0.571    2.857    4.286    8.000    4.000 
#    0.000    0.000    0.000    0.000    0.000    0.000 
#    0.000    0.000    0.000    0.000    0.000    0.000 
#
# Total GULP energy -78215.614881 kJ/mol
# GULP energy per Si atom -5586.829634 kJ/mol
# Density = 2.455470 g / cm^3
# Si number density = 24.610714 Si / 1000 Ang^3
#
#
#
# Elastic Constant Matrix: (Units=GPa)
#
#
# Indices 1 2 3 4 5 6 
#
# 1 193.1773 46.9359 58.5367 14.2466 9.5895 -12.3231
# 2 46.9359 102.8523 34.9411 13.3340 5.2110 -10.0526
# 3 58.5367 34.9411 110.0564 15.1702 5.2156 -11.8562
# 4 14.2466 13.3340 15.1702 38.1694 -5.4643 -8.2966
# 5 9.5895 5.2110 5.2156 -5.4643 49.4714 7.0125
# 6 -12.3231 -10.0526 -11.8562 -8.2966 7.0125 41.5953
#
#
#
# Elastic Compliance Matrix: (Units=1/GPa)
#
#
# Indices 1 2 3 4 5 6 
#
# 1 0.006597 -0.001882 -0.002685 -0.000714 -0.000984 0.000758
# 2 -0.001882 0.011841 -0.002225 -0.002409 -0.001109 0.001376
# 3 -0.002685 -0.002225 0.011822 -0.002703 -0.001027 0.001670
# 4 -0.000714 -0.002409 -0.002703 0.029693 0.003421 0.003782
# 5 -0.000984 -0.001109 -0.001027 0.003421 0.021546 -0.003802
# 6 0.000758 0.001376 0.001670 0.003782 -0.003802 0.026470
#
#
# Mechanical properties :
#
#
# Convention : Reuss Voigt Hill
#
# Bulk Modulus (GPa) = 59.96807 76.32370 68.14589
# Shear Modulus (GPa) = 39.33554 43.55868 41.44711
#
# Velocity S-wave (km/s) = 4.00222 4.21159 4.10824
# Velocity P-wave (km/s) = 6.76584 7.39795 7.08895
#
# Compressibility (1/GPa) = 0.01667554
#
# Stress axis : x y z
#
# Youngs Moduli (GPa) = 151.57857 84.45567 84.58880
#
# Poissons Ratio (x) = 0.15895 0.22710
# Poissons Ratio (y) = 0.28528 0.18823
# Poissons Ratio (z) = 0.40695 0.18794
#
# Static dielectric constant tensor:
#      x y z
#    x 2.018330 0.052260 -0.058770 
#    y 0.052260 2.049910 -0.082360 
#    z -0.058770 -0.082360 2.027120 
# 
# From -- ./inp_files/218228.got.cif
#   From: 2010.05.17/outbox.cif.g08.bks.cpg/sg2_110_cif.got.tgz:218228.got - 2010.06.03 11:33:40.
