data_PCOD9061865
_publ_section_title
;
Structure prediction by ZEFSAII (Michael W. Deem and Ramdas Pophale) SiO2 
 PCOD9061865
Probable space group: P -1
;
_chemical_formula_sum "Si O2"
_cell_formula_units_Z 13
_cell_length_a 6.956045
_cell_length_b 16.905282
_cell_length_c 8.818867
_cell_angle_alpha 61.580622
_cell_angle_beta 93.709576
_cell_angle_gamma 50.111559
_cell_volume 585.320145
_symmetry_space_group_name_H-M "P -1"
_symmetry_group_IT_number 2
_symmetry_cell_setting 'triclinic'
loop_
_space_group_symop_operation_xyz
x,y,z
-x,-y,-z
loop_
_atom_site_type_symbol
_atom_site_label
_atom_site_fract_x
_atom_site_fract_y
_atom_site_fract_z
Si Si1 0.637300 0.741151 0.218690
Si Si2 0.693867 0.422824 0.930711
Si Si3 0.752100 0.693244 0.765963
Si Si4 0.576163 0.027255 0.631700
Si Si5 0.732385 0.200882 0.118931
Si Si6 0.227361 0.448210 0.360314
Si Si7 0.500000 0.000000 0.000000
O O1 0.597325 0.685329 0.405784
O O2 0.624200 0.850906 0.152848
O O3 0.951630 0.593820 0.299325
O O4 0.381348 0.813956 0.016338
O O5 0.692064 0.321282 0.971207
O O6 0.021758 0.339214 0.076784
O O7 0.500000 0.500000 0.000000
O O8 0.577951 0.537620 0.700981
O O9 0.640552 0.810180 0.540387
O O10 0.473493 0.752150 0.791680
O O11 0.884715 0.568526 0.776991
O O12 0.500000 0.000000 0.500000
O O13 0.917597 0.938311 0.712619
O O14 0.547818 0.984176 0.827560
#
# Coordination Sequence:
#
# PCOD9061865 Si02
#       7
#     2   2   2   2   2   2   1
#     4  11  25  46  75 106 151 197 249 317 380 451
#     4  12  23  41  74 108 144 192 249 310 377 451
#     4  12  23  47  73 107 152 193 256 317 372 458
#     4  12  26  49  76 110 150 204 256 313 386 450
#     4  12  25  46  76 109 148 202 256 311 378 459
#     4  11  23  46  72 107 150 197 244 312 384 445
#     4  12  26  52  76 110 154 196 256 324 374 452
#
# _framework density 22.210068
#
# number of rings (size 3 to 8) (size 9 to 14) (size 15 to 20)
#    0.000    0.308    6.154    3.692    0.000    1.231 
#    5.538    0.000    0.000    0.000    0.000    0.000 
#    0.000    0.000    0.000    0.000    0.000    0.000 
#
# Total GULP energy -72421.813434 kJ/mol
# GULP energy per Si atom -5570.908726 kJ/mol
# Density = 2.215952 g / cm^3
# Si number density = 22.210068 Si / 1000 Ang^3
#
#
#
# Elastic Constant Matrix: (Units=GPa)
#
#
# Indices 1 2 3 4 5 6 
#
# 1 72.8295 20.6034 42.1746 -2.0712 -27.9332 1.4625
# 2 20.6034 91.6850 29.5189 3.9473 -5.7447 24.1745
# 3 42.1746 29.5189 111.6510 0.5498 -43.3432 -6.3010
# 4 -2.0712 3.9473 0.5498 36.9958 -1.3659 -12.1183
# 5 -27.9332 -5.7447 -43.3432 -1.3659 52.2461 0.3337
# 6 1.4625 24.1745 -6.3010 -12.1183 0.3337 26.9490
#
#
#
# Elastic Compliance Matrix: (Units=1/GPa)
#
#
# Indices 1 2 3 4 5 6 
#
# 1 0.019564 -0.003528 -0.003552 0.002553 0.007177 0.002331
# 2 -0.003528 0.021091 -0.008121 -0.010901 -0.006427 -0.025449
# 3 -0.003552 -0.008121 0.017911 0.005419 0.012119 0.013952
# 4 0.002553 -0.010901 0.005419 0.037537 0.005466 0.027718
# 5 0.007177 -0.006427 0.012119 0.005466 0.032402 0.010266
# 6 0.002331 -0.025449 0.013952 0.027718 0.010266 0.075409
#
#
# Mechanical properties :
#
#
# Convention : Reuss Voigt Hill
#
# Bulk Modulus (GPa) = 35.50641 51.19549 43.35095
# Shear Modulus (GPa) = 20.51670 35.49611 28.00640
#
# Velocity S-wave (km/s) = 3.04263 4.00209 3.55488
# Velocity P-wave (km/s) = 5.32586 6.66755 6.03411
#
# Compressibility (1/GPa) = 0.02816393
#
# Stress axis : x y z
#
# Youngs Moduli (GPa) = 51.11374 47.41343 55.83227
#
# Poissons Ratio (x) = 0.16726 0.19834
# Poissons Ratio (y) = 0.18031 0.45341
# Poissons Ratio (z) = 0.18157 0.38504
#
# Static dielectric constant tensor:
#      x y z
#    x 1.832000 -0.011360 -0.031090 
#    y -0.011360 1.862390 0.063980 
#    z -0.031090 0.063980 1.959960 
# 
# From -- ./inp_files/107280.got.cif
#   From: 2010.05.17/outbox.cif.g08.bks.cpg/sg2_54_cif.got.tgz:107280.got - 2010.06.03 11:33:40.
