data_PCOD9061620
_publ_section_title
;
Structure prediction by ZEFSAII (Michael W. Deem and Ramdas Pophale) SiO2 
 PCOD9061620
Probable space group: P -1
;
_chemical_formula_sum "Si O2"
_cell_formula_units_Z 16
_cell_length_a 7.698067
_cell_length_b 11.021581
_cell_length_c 11.721199
_cell_angle_alpha 48.563019
_cell_angle_beta 74.075078
_cell_angle_gamma 58.191222
_cell_volume 629.235562
_symmetry_space_group_name_H-M "P -1"
_symmetry_group_IT_number 2
_symmetry_cell_setting 'triclinic'
loop_
_space_group_symop_operation_xyz
x,y,z
-x,-y,-z
loop_
_atom_site_type_symbol
_atom_site_label
_atom_site_fract_x
_atom_site_fract_y
_atom_site_fract_z
Si Si1 0.533747 0.673667 0.849823
Si Si2 0.471486 0.606665 0.306107
Si Si3 0.980968 0.585854 0.777995
Si Si4 0.393980 0.906427 0.943112
Si Si5 0.855131 0.456735 0.468977
Si Si6 0.042188 0.088330 0.288859
Si Si7 0.186335 0.154047 0.006154
Si Si8 0.670175 0.192710 0.427754
O O1 0.769246 0.620784 0.850956
O O2 0.403184 0.840509 0.854983
O O3 0.497584 0.736259 0.685682
O O4 0.500000 0.500000 0.000000
O O5 0.637470 0.619930 0.353415
O O6 0.256295 0.642523 0.380194
O O7 0.601262 0.392548 0.374843
O O8 0.422292 0.738811 0.125147
O O9 0.043235 0.705756 0.772997
O O10 0.002543 0.633852 0.612339
O O11 0.112401 0.367968 0.892367
O O12 0.590512 0.934475 0.919004
O O13 0.200316 0.083334 0.919740
O O14 0.000000 0.500000 0.500000
O O15 0.051461 0.100022 0.145628
O O16 0.865825 0.056920 0.395613
O O17 0.262676 0.947902 0.390604
#
# Coordination Sequence:
#
# PCOD9061620 Si02
#       8
#     2   2   2   2   2   2   2   2
#     4  12  25  45  76 106 146 190 240 302 361 440
#     4  11  23  45  74  97 152 197 236 304 372 434
#     4  12  24  47  70 103 139 190 246 298 359 435
#     4  11  24  44  69 108 140 194 242 291 377 432
#     4  11  25  42  69 106 143 191 242 298 367 444
#     4  11  24  43  72 100 138 190 243 297 356 443
#     4  11  24  43  72 102 139 188 246 300 362 442
#     4  11  24  44  69 106 140 190 242 290 367 432
#
# _framework density 25.427679000000001
#
# number of rings (size 3 to 8) (size 9 to 14) (size 15 to 20)
#    0.000    0.750    5.000    1.875    3.500    0.500 
#    2.250    2.500    0.000    0.000    0.000    0.000 
#    0.000    0.000    0.000    0.000    0.000    0.000 
#
# Total GULP energy -89232.413673 kJ/mol
# GULP energy per Si atom -5577.025855 kJ/mol
# Density = 2.536980 g / cm^3
# Si number density = 25.427679 Si / 1000 Ang^3
#
#
#
# Elastic Constant Matrix: (Units=GPa)
#
#
# Indices 1 2 3 4 5 6 
#
# 1 65.1581 18.7376 18.0716 23.7651 -1.7668 2.6885
# 2 18.7376 152.9893 34.1332 3.3138 0.8964 12.1705
# 3 18.0716 34.1332 72.8526 1.9486 -13.1436 -13.1822
# 4 23.7651 3.3138 1.9486 45.6207 -10.3152 -4.3110
# 5 -1.7668 0.8964 -13.1436 -10.3152 31.2467 17.1705
# 6 2.6885 12.1705 -13.1822 -4.3110 17.1705 24.4384
#
#
#
# Elastic Compliance Matrix: (Units=1/GPa)
#
#
# Indices 1 2 3 4 5 6 
#
# 1 0.021896 -0.000471 -0.006393 -0.012139 -0.001920 -0.006416
# 2 -0.000471 0.008346 -0.004907 -0.000467 0.002071 -0.008289
# 3 -0.006393 -0.004907 0.020334 0.004663 0.002709 0.013035
# 4 -0.012139 -0.000467 0.004663 0.030581 0.010060 0.002410
# 5 -0.001920 0.002071 0.002709 0.010060 0.056960 -0.037604
# 6 -0.006416 -0.008289 0.013035 0.002410 -0.037604 0.079630
#
#
# Mechanical properties :
#
#
# Convention : Reuss Voigt Hill
#
# Bulk Modulus (GPa) = 36.99147 48.09831 42.54489
# Shear Modulus (GPa) = 19.97586 34.93165 27.45376
#
# Velocity S-wave (km/s) = 2.80589 3.71045 3.28941
# Velocity P-wave (km/s) = 5.00766 6.10847 5.58525
#
# Compressibility (1/GPa) = 0.02703326
#
# Stress axis : x y z
#
# Youngs Moduli (GPa) = 45.67009 119.81312 49.17829
#
# Poissons Ratio (x) = 0.05640 0.31442
# Poissons Ratio (y) = 0.02150 0.24134
# Poissons Ratio (z) = 0.29199 0.58798
#
# Static dielectric constant tensor:
#      x y z
#    x 2.108290 -0.002360 -0.002430 
#    y -0.002360 2.012000 0.089580 
#    z -0.002430 0.089580 2.093450 
# 
# From -- ./inp_files/392053.got.cif
#   From: 2010.05.17/outbox.cif.g08.bks.cpg/sg2_197_cif.got.tgz:392053.got - 2010.06.03 11:33:40.
