data_PCOD9061178
_publ_section_title
;
Structure prediction by ZEFSAII (Michael W. Deem and Ramdas Pophale) SiO2 
 PCOD9061178
Probable space group: P -1
;
_chemical_formula_sum "Si O2"
_cell_formula_units_Z 16
_cell_length_a 18.393168
_cell_length_b 12.431593
_cell_length_c 9.194894
_cell_angle_alpha 129.583134
_cell_angle_beta 46.971521
_cell_angle_gamma 149.736652
_cell_volume 768.023008
_symmetry_space_group_name_H-M "P -1"
_symmetry_group_IT_number 2
_symmetry_cell_setting 'triclinic'
loop_
_space_group_symop_operation_xyz
x,y,z
-x,-y,-z
loop_
_atom_site_type_symbol
_atom_site_label
_atom_site_fract_x
_atom_site_fract_y
_atom_site_fract_z
Si Si1 0.144338 0.721594 0.573072
Si Si2 0.319777 0.532602 0.586350
Si Si3 0.671461 0.936457 0.882796
Si Si4 0.868493 0.966346 0.201918
Si Si5 0.533343 0.524800 0.147428
Si Si6 0.122599 0.078095 0.515125
Si Si7 0.585633 0.986615 0.763435
Si Si8 0.159380 0.643897 0.818179
O O1 0.298341 0.845944 0.378513
O O2 0.146564 0.669935 0.690012
O O3 0.000000 0.500000 0.500000
O O4 0.125184 0.868776 0.724638
O O5 0.417896 0.523963 0.356032
O O6 0.215217 0.317824 0.637142
O O7 0.215932 0.543658 0.667250
O O8 0.449184 0.752403 0.683177
O O9 0.518006 0.686410 0.915365
O O10 0.794678 0.946045 0.721542
O O11 0.677227 0.991782 0.756763
O O12 0.716106 0.115411 0.074922
O O13 0.700900 0.734421 0.170506
O O14 0.900897 0.011035 0.370304
O O15 0.000000 0.000000 0.000000
O O16 0.500000 0.500000 0.000000
O O17 0.000000 0.000000 0.500000
O O18 0.500000 0.000000 0.000000
O O19 0.000000 0.500000 0.000000
#
# Coordination Sequence:
#
# PCOD9061178 Si02
#       8
#     2   2   2   2   2   2   2   2
#     4  12  29  48  72 105 151 193 246 305 375 445
#     4  11  25  44  77 103 144 188 250 299 370 442
#     4  11  23  44  74 101 141 189 242 303 364 442
#     4  12  28  47  72 108 149 188 249 309 372 445
#     4  11  25  47  75 107 147 192 252 307 374 438
#     4  11  25  44  74 103 145 190 244 299 375 439
#     4  12  24  47  74 108 142 193 245 305 372 437
#     4  12  27  46  74 109 152 193 244 306 377 449
#
# _framework density 20.832709999999999
#
# number of rings (size 3 to 8) (size 9 to 14) (size 15 to 20)
#    0.000    0.500    3.750    3.000    8.750    4.500 
#    0.000    0.000    0.000    0.000    0.000    0.000 
#    0.000    0.000    0.000    0.000    0.000    0.000 
#
# Total GULP energy -89166.880702 kJ/mol
# GULP energy per Si atom -5572.930044 kJ/mol
# Density = 2.078529 g / cm^3
# Si number density = 20.832710 Si / 1000 Ang^3
#
#
#
# Elastic Constant Matrix: (Units=GPa)
#
#
# Indices 1 2 3 4 5 6 
#
# 1 107.5992 4.0008 34.8336 -15.7248 -3.4092 -2.3457
# 2 4.0008 57.9257 24.9485 1.5260 -7.1364 -5.1153
# 3 34.8336 24.9485 95.1651 -16.0866 -10.2349 -12.7484
# 4 -15.7248 1.5260 -16.0866 23.0850 -1.4203 -6.4306
# 5 -3.4092 -7.1364 -10.2349 -1.4203 55.8998 1.0520
# 6 -2.3457 -5.1153 -12.7484 -6.4306 1.0520 33.5657
#
#
#
# Elastic Compliance Matrix: (Units=1/GPa)
#
#
# Indices 1 2 3 4 5 6 
#
# 1 0.011132 0.000539 -0.003144 0.005577 0.000300 0.000725
# 2 0.000539 0.020220 -0.006313 -0.005384 0.001328 -0.000352
# 3 -0.003144 -0.006313 0.016561 0.011996 0.002201 0.007337
# 4 0.005577 -0.005384 0.011996 0.060365 0.003089 0.015593
# 5 0.000300 0.001328 0.002201 0.003089 0.018538 0.001070
# 6 0.000725 -0.000352 0.007337 0.015593 0.001070 0.035530
#
#
# Mechanical properties :
#
#
# Convention : Reuss Voigt Hill
#
# Bulk Modulus (GPa) = 33.24685 43.13954 38.19319
# Shear Modulus (GPa) = 26.28720 35.63723 30.96221
#
# Velocity S-wave (km/s) = 3.55607 4.14047 3.85935
# Velocity P-wave (km/s) = 5.73188 6.60383 6.18324
#
# Compressibility (1/GPa) = 0.03007804
#
# Stress axis : x y z
#
# Youngs Moduli (GPa) = 89.83289 49.45717 60.38230
#
# Poissons Ratio (x) = -0.02667 0.18984
# Poissons Ratio (y) = -0.04845 0.38117
# Poissons Ratio (z) = 0.28243 0.31220
#
# Static dielectric constant tensor:
#      x y z
#    x 1.811220 0.015410 -0.183370 
#    y 0.015410 1.806040 -0.125830 
#    z -0.183370 -0.125830 0.829860 
# 
# From -- ./inp_files/333712.got.cif
#   From: 2010.05.17/outbox.cif.g08.bks.cpg/sg2_167_cif.got.tgz:333712.got - 2010.06.03 11:33:40.
