data_PCOD9061115
_publ_section_title
;
Structure prediction by ZEFSAII (Michael W. Deem and Ramdas Pophale) SiO2 
 PCOD9061115
Probable space group: P -1
;
_chemical_formula_sum "Si O2"
_cell_formula_units_Z 16
_cell_length_a 19.336313
_cell_length_b 12.655743
_cell_length_c 9.334428
_cell_angle_alpha 46.688173
_cell_angle_beta 57.353119
_cell_angle_gamma 26.421787
_cell_volume 719.562885
_symmetry_space_group_name_H-M "P -1"
_symmetry_group_IT_number 2
_symmetry_cell_setting 'triclinic'
loop_
_space_group_symop_operation_xyz
x,y,z
-x,-y,-z
loop_
_atom_site_type_symbol
_atom_site_label
_atom_site_fract_x
_atom_site_fract_y
_atom_site_fract_z
Si Si1 0.572982 0.181136 0.098009
Si Si2 0.019485 0.728814 0.722012
Si Si3 0.983176 0.194277 0.869283
Si Si4 0.248971 0.654598 0.541097
Si Si5 0.875444 0.559837 0.857155
Si Si6 0.310338 0.676296 0.140883
Si Si7 0.900525 0.548565 0.393867
Si Si8 0.450415 0.907814 0.113126
O O1 0.419237 0.415199 0.155891
O O2 0.724994 0.883889 0.289662
O O3 0.601959 0.309332 0.920482
O O4 0.555310 0.126879 0.015692
O O5 0.145350 0.666526 0.671047
O O6 0.088605 0.526296 0.709930
O O7 0.000003 0.666536 0.945423
O O8 0.855995 0.052198 0.558612
O O9 0.854969 0.441712 0.901127
O O10 0.939225 0.354077 0.631659
O O11 0.000000 0.000000 0.000000
O O12 0.155526 0.965445 0.958586
O O13 0.264784 0.654726 0.352770
O O14 0.416217 0.388642 0.679747
O O15 0.957188 0.548893 0.668076
O O16 0.719161 0.852515 0.839833
O O17 0.500000 0.000000 0.000000
#
# Coordination Sequence:
#
# PCOD9061115 Si02
#       8
#     2   2   2   2   2   2   2   2
#     4  11  26  47  69 102 148 186 237 297 353 426
#     4  11  23  44  73 100 139 183 235 294 350 419
#     4  12  28  46  72 106 143 190 238 289 352 427
#     4  11  24  44  69 102 145 184 234 289 359 422
#     4  12  25  46  73 100 141 182 238 297 349 418
#     4  11  26  46  70 101 148 190 235 289 361 427
#     4  12  25  45  74 105 137 189 238 289 354 422
#     4  12  27  45  69 106 138 183 238 300 354 418
#
# _framework density 22.235721999999999
#
# number of rings (size 3 to 8) (size 9 to 14) (size 15 to 20)
#    0.000    0.500    5.000    1.500    8.750    1.500 
#    0.000    1.875    0.000    0.000    0.000    0.000 
#    0.000    0.000    0.000    0.000    0.000    0.000 
#
# Total GULP energy -89495.865286 kJ/mol
# GULP energy per Si atom -5593.491580 kJ/mol
# Density = 2.218511 g / cm^3
# Si number density = 22.235722 Si / 1000 Ang^3
#
#
#
# Elastic Constant Matrix: (Units=GPa)
#
#
# Indices 1 2 3 4 5 6 
#
# 1 69.6584 17.9396 24.9485 -6.0887 4.5882 21.2072
# 2 17.9396 140.1785 39.8634 -20.1104 5.7304 13.5735
# 3 24.9485 39.8634 137.9936 -7.5205 0.9247 2.6412
# 4 -6.0887 -20.1104 -7.5205 39.8256 -0.1302 8.3220
# 5 4.5882 5.7304 0.9247 -0.1302 24.6062 -1.9906
# 6 21.2072 13.5735 2.6412 8.3220 -1.9906 32.2556
#
#
#
# Elastic Compliance Matrix: (Units=1/GPa)
#
#
# Indices 1 2 3 4 5 6 
#
# 1 0.021094 0.000943 -0.003398 0.006377 -0.005282 -0.015958
# 2 0.000943 0.009164 -0.002386 0.005540 -0.002666 -0.005875
# 3 -0.003398 -0.002386 0.008451 -0.000709 0.001094 0.002796
# 4 0.006377 0.005540 -0.000709 0.031850 -0.003489 -0.014898
# 5 -0.005282 -0.002666 0.001094 -0.003489 0.042838 0.008049
# 6 -0.015958 -0.005875 0.002796 -0.014898 0.008049 0.048078
#
#
# Mechanical properties :
#
#
# Convention : Reuss Voigt Hill
#
# Bulk Modulus (GPa) = 34.45009 57.03705 45.74357
# Shear Modulus (GPa) = 27.65018 37.00940 32.32979
#
# Velocity S-wave (km/s) = 3.53016 4.08415 3.81722
# Velocity P-wave (km/s) = 5.66946 6.92439 6.32811
#
# Compressibility (1/GPa) = 0.02902750
#
# Stress axis : x y z
#
# Youngs Moduli (GPa) = 47.40789 109.12096 118.33465
#
# Poissons Ratio (x) = -0.10287 0.40205
# Poissons Ratio (y) = -0.04469 0.28229
# Poissons Ratio (z) = 0.16107 0.26031
#
# Static dielectric constant tensor:
#      x y z
#    x 1.893140 -0.007800 -0.030320 
#    y -0.007800 1.808700 0.001310 
#    z -0.030320 0.001310 1.785410 
# 
# From -- ./inp_files/332869.got.cif
#   From: 2010.05.17/outbox.cif.g08.bks.cpg/sg2_167_cif.got.tgz:332869.got - 2010.06.03 11:33:40.
