data_PCOD9061037
_publ_section_title
;
Structure prediction by ZEFSAII (Michael W. Deem and Ramdas Pophale) SiO2 
 PCOD9061037
Probable space group: P -1
;
_chemical_formula_sum "Si O2"
_cell_formula_units_Z 16
_cell_length_a 15.111306
_cell_length_b 8.939954
_cell_length_c 12.414703
_cell_angle_alpha 50.016300
_cell_angle_beta 112.048022
_cell_angle_gamma 70.918233
_cell_volume 714.722864
_symmetry_space_group_name_H-M "P -1"
_symmetry_group_IT_number 2
_symmetry_cell_setting 'triclinic'
loop_
_space_group_symop_operation_xyz
x,y,z
-x,-y,-z
loop_
_atom_site_type_symbol
_atom_site_label
_atom_site_fract_x
_atom_site_fract_y
_atom_site_fract_z
Si Si1 0.616715 0.644590 0.167905
Si Si2 0.079443 0.258804 0.048794
Si Si3 0.432937 0.693612 0.209351
Si Si4 0.800078 0.036657 0.180340
Si Si5 0.170337 0.311586 0.457115
Si Si6 0.533016 0.741319 0.834662
Si Si7 0.099099 0.782437 0.357211
Si Si8 0.424040 0.888523 0.341973
O O1 0.564928 0.532686 0.257162
O O2 0.792800 0.399815 0.402132
O O3 0.589725 0.664836 0.020305
O O4 0.500000 0.000000 0.000000
O O5 0.094633 0.006098 0.202964
O O6 0.250538 0.078426 0.192017
O O7 0.000000 0.500000 0.000000
O O8 0.965660 0.466844 0.797155
O O9 0.457302 0.796154 0.273831
O O10 0.454649 0.441645 0.381911
O O11 0.264830 0.987240 0.937265
O O12 0.859275 0.802147 0.411920
O O13 0.646510 0.402758 0.984885
O O14 0.928595 0.976817 0.222695
O O15 0.171355 0.516898 0.424718
O O16 0.346393 0.994426 0.634586
O O17 0.559884 0.911492 0.718075
#
# Coordination Sequence:
#
# PCOD9061037 Si02
#       8
#     2   2   2   2   2   2   2   2
#     4  12  22  45  74 104 137 183 238 283 350 415
#     4  12  29  47  69 105 145 184 231 295 353 410
#     4  11  23  44  71  99 138 182 237 284 342 416
#     4  12  28  45  71 108 143 181 232 301 350 405
#     4  12  27  47  73 103 141 187 239 284 351 421
#     4  12  27  44  74 107 141 184 232 295 350 416
#     4  12  26  48  74 101 142 192 231 287 347 425
#     4  11  25  44  70 100 138 186 233 282 344 425
#
# _framework density 22.386299000000001
#
# number of rings (size 3 to 8) (size 9 to 14) (size 15 to 20)
#    0.000    0.250    5.000    2.625    8.750    1.000 
#    0.000    0.000    0.000    0.000    0.000    0.000 
#    0.000    0.000    0.000    0.000    0.000    0.000 
#
# Total GULP energy -89656.500897 kJ/mol
# GULP energy per Si atom -5603.531306 kJ/mol
# Density = 2.233535 g / cm^3
# Si number density = 22.386299 Si / 1000 Ang^3
#
#
#
# Elastic Constant Matrix: (Units=GPa)
#
#
# Indices 1 2 3 4 5 6 
#
# 1 92.2925 -1.7491 20.5478 8.0338 -7.3103 -6.4537
# 2 -1.7491 63.4010 11.3108 -8.3469 -12.3035 -0.8174
# 3 20.5478 11.3108 98.3773 15.1096 -2.8706 -9.5455
# 4 8.0338 -8.3469 15.1096 31.1073 7.0574 2.3019
# 5 -7.3103 -12.3035 -2.8706 7.0574 49.2346 -11.0430
# 6 -6.4537 -0.8174 -9.5455 2.3019 -11.0430 22.7603
#
#
#
# Elastic Compliance Matrix: (Units=1/GPa)
#
#
# Indices 1 2 3 4 5 6 
#
# 1 0.012099 0.000921 -0.001560 -0.003269 0.003488 0.004832
# 2 0.000921 0.017713 -0.002745 0.004860 0.003972 0.001182
# 3 -0.001560 -0.002745 0.012685 -0.007538 0.002407 0.006710
# 4 -0.003269 0.004860 -0.007538 0.040717 -0.008246 -0.012032
# 5 0.003488 0.003972 0.002407 -0.008246 0.026719 0.015939
# 6 0.004832 0.001182 0.006710 -0.012032 0.015939 0.057113
#
#
# Mechanical properties :
#
#
# Convention : Reuss Voigt Hill
#
# Bulk Modulus (GPa) = 27.98825 34.92108 31.45466
# Shear Modulus (GPa) = 26.92164 35.55120 31.23642
#
# Velocity S-wave (km/s) = 3.47161 3.98939 3.73947
# Velocity P-wave (km/s) = 5.34780 6.07071 5.72068
#
# Compressibility (1/GPa) = 0.03572929
#
# Stress axis : x y z
#
# Youngs Moduli (GPa) = 82.65408 56.45423 78.83069
#
# Poissons Ratio (x) = -0.05199 0.12300
# Poissons Ratio (y) = -0.07612 0.21638
# Poissons Ratio (z) = 0.12896 0.15496
#
# Static dielectric constant tensor:
#      x y z
#    x 1.881500 -0.025350 -0.020100 
#    y -0.025350 1.872320 -0.007440 
#    z -0.020100 -0.007440 1.814220 
# 
# From -- ./inp_files/206812.got.cif
#   From: 2010.05.17/outbox.cif.g08.bks.cpg/sg2_104_cif.got.tgz:206812.got - 2010.06.03 11:33:40.
