data_PCOD9061946
_publ_section_title
;
Structure prediction by ZEFSAII (Michael W. Deem and Ramdas Pophale) SiO2 
 PCOD9061946
Probable space group: P -1
;
_chemical_formula_sum "Si O2"
_cell_formula_units_Z 16
_cell_length_a 5.858569
_cell_length_b 17.556146
_cell_length_c 20.810795
_cell_angle_alpha 159.183994
_cell_angle_beta 107.217649
_cell_angle_gamma 73.433548
_cell_volume 726.343191
_symmetry_space_group_name_H-M "P -1"
_symmetry_group_IT_number 2
_symmetry_cell_setting 'triclinic'
loop_
_space_group_symop_operation_xyz
x,y,z
-x,-y,-z
loop_
_atom_site_type_symbol
_atom_site_label
_atom_site_fract_x
_atom_site_fract_y
_atom_site_fract_z
Si Si1 0.617244 0.191829 0.988803
Si Si2 0.896723 0.480595 0.162076
Si Si3 0.369890 0.588219 0.620985
Si Si4 0.042186 0.188140 0.310164
Si Si5 0.992560 0.293114 0.881350
Si Si6 0.765305 0.073440 0.318786
Si Si7 0.651737 0.541260 0.724176
Si Si8 0.785132 0.973187 0.516622
O O1 0.832852 0.021394 0.874994
O O2 0.400953 0.039884 0.835777
O O3 0.666161 0.350374 0.059449
O O4 0.560173 0.353199 0.168388
O O5 0.840478 0.732195 0.355094
O O6 0.106358 0.428405 0.190518
O O7 0.959935 0.393258 0.028179
O O8 0.500000 0.500000 0.500000
O O9 0.208145 0.396928 0.485042
O O10 0.585245 0.645077 0.731749
O O11 0.186804 0.764117 0.716161
O O12 0.982720 0.142960 0.344952
O O13 0.810815 0.145000 0.711299
O O14 0.191413 0.106279 0.764993
O O15 0.000000 0.500000 0.000000
O O16 0.655781 0.287154 0.510014
O O17 0.500000 0.000000 0.500000
O O18 0.000000 0.000000 0.500000
#
# Coordination Sequence:
#
# PCOD9061946 Si02
#       8
#     2   2   2   2   2   2   2   2
#     4  12  26  45  75 110 152 201 264 318 389 482
#     4  12  28  47  75 113 151 205 265 316 406 473
#     4  11  24  44  79 112 154 196 263 320 389 460
#     4  11  23  46  74 110 153 202 251 319 396 465
#     4  12  26  50  81 112 157 203 264 331 391 475
#     4  12  25  49  74 109 155 203 253 318 395 464
#     4  12  26  45  77 109 151 204 254 320 390 473
#     4  12  30  51  77 116 157 202 266 334 406 479
#
# _framework density 22.028155999999999
#
# number of rings (size 3 to 8) (size 9 to 14) (size 15 to 20)
#    0.000    0.250    7.500    0.000    5.250    3.000 
#    0.000    4.375    0.000    0.000    0.000    0.000 
#    0.000    0.000    0.000    0.000    0.000    0.000 
#
# Total GULP energy -89157.523195 kJ/mol
# GULP energy per Si atom -5572.345200 kJ/mol
# Density = 2.197802 g / cm^3
# Si number density = 22.028156 Si / 1000 Ang^3
#
#
#
# Elastic Constant Matrix: (Units=GPa)
#
#
# Indices 1 2 3 4 5 6 
#
# 1 74.2587 39.2038 32.9236 2.7539 -4.9315 -9.8564
# 2 39.2038 102.4656 32.0163 -13.7901 2.8667 -20.7114
# 3 32.9236 32.0163 126.4841 2.1124 -15.9619 -13.8209
# 4 2.7539 -13.7901 2.1124 46.2600 -0.6598 0.0425
# 5 -4.9315 2.8667 -15.9619 -0.6598 37.2659 7.2408
# 6 -9.8564 -20.7114 -13.8209 0.0425 7.2408 34.6021
#
#
#
# Elastic Compliance Matrix: (Units=1/GPa)
#
#
# Indices 1 2 3 4 5 6 
#
# 1 0.018442 -0.006644 -0.002879 -0.002922 0.001711 -0.000228
# 2 -0.006644 0.015156 -0.001923 0.004935 -0.004197 0.007283
# 3 -0.002879 -0.001923 0.009749 -0.000795 0.003705 0.001148
# 4 -0.002922 0.004935 -0.000795 0.023281 -0.001084 0.002002
# 5 0.001711 -0.004197 0.003705 -0.001084 0.030288 -0.006881
# 6 -0.000228 0.007283 0.001148 0.002002 -0.006881 0.035091
#
#
# Mechanical properties :
#
#
# Convention : Reuss Voigt Hill
#
# Bulk Modulus (GPa) = 48.88762 56.83285 52.86024
# Shear Modulus (GPa) = 30.91834 36.89659 33.90747
#
# Velocity S-wave (km/s) = 3.75051 4.09708 3.92762
# Velocity P-wave (km/s) = 6.40285 6.94533 6.67960
#
# Compressibility (1/GPa) = 0.02045507
#
# Stress axis : x y z
#
# Youngs Moduli (GPa) = 54.22405 65.98114 102.57812
#
# Poissons Ratio (x) = 0.43835 0.29531
# Poissons Ratio (y) = 0.36024 0.19728
# Poissons Ratio (z) = 0.15611 0.12689
#
# Static dielectric constant tensor:
#      x y z
#    x 1.854030 -0.039720 -0.005860 
#    y -0.039720 1.836690 0.021400 
#    z -0.005860 0.021400 1.750830 
# 
# From -- ./inp_files/584097.got.cif
#   From: 2010.05.17/outbox.cif.g08.bks.cpg/sg2_293_cif.got.tgz:584097.got - 2010.06.03 11:33:40.
