data_PCOD9061741
_publ_section_title
;
Structure prediction by ZEFSAII (Michael W. Deem and Ramdas Pophale) SiO2 
 PCOD9061741
Probable space group: P -1
;
_chemical_formula_sum "Si O2"
_cell_formula_units_Z 12
_cell_length_a 5.199702
_cell_length_b 18.676423
_cell_length_c 14.582759
_cell_angle_alpha 157.863879
_cell_angle_beta 87.989580
_cell_angle_gamma 81.045603
_cell_volume 461.962281
_symmetry_space_group_name_H-M "P -1"
_symmetry_group_IT_number 2
_symmetry_cell_setting 'triclinic'
loop_
_space_group_symop_operation_xyz
x,y,z
-x,-y,-z
loop_
_atom_site_type_symbol
_atom_site_label
_atom_site_fract_x
_atom_site_fract_y
_atom_site_fract_z
Si Si1 0.022484 0.539407 0.651736
Si Si2 0.570578 0.512979 0.264272
Si Si3 0.435904 0.960361 0.731252
Si Si4 0.181162 0.089303 0.163192
Si Si5 0.950631 0.675642 0.132381
Si Si6 0.606064 0.080636 0.696009
O O1 0.000000 0.500000 0.500000
O O2 0.331039 0.471109 0.615600
O O3 0.968132 0.354664 0.480451
O O4 0.840253 0.798163 0.970932
O O5 0.378577 0.765191 0.532179
O O6 0.550027 0.293742 0.005832
O O7 0.833227 0.428313 0.080612
O O8 0.692893 0.959137 0.791450
O O9 0.515646 0.946386 0.607367
O O10 0.500000 0.000000 0.000000
O O11 0.000000 0.000000 0.000000
O O12 0.619687 0.791660 0.232304
O O13 0.933020 0.889219 0.434731
O O14 0.000000 0.500000 0.000000
#
# Coordination Sequence:
#
# PCOD9061741 Si02
#       6
#     2   2   2   2   2   2
#     4  11  24  45  71 102 143 187 243 295 366 434
#     4  11  25  44  70 104 137 183 239 292 368 435
#     4  11  24  46  68 104 143 185 244 299 356 446
#     4  11  26  46  73 107 144 194 251 307 368 441
#     4  11  23  46  68 102 139 174 238 297 360 443
#     4  11  25  43  72  99 137 186 229 297 368 435
#
# _framework density 25.976144999999999
#
# number of rings (size 3 to 8) (size 9 to 14) (size 15 to 20)
#    0.000    1.000    5.000    0.500    2.333    5.333 
#    0.000    0.000    0.000    0.000    0.000    0.000 
#    0.000    0.000    0.000    0.000    0.000    0.000 
#
# Total GULP energy -66899.961200 kJ/mol
# GULP energy per Si atom -5574.996767 kJ/mol
# Density = 2.591702 g / cm^3
# Si number density = 25.976145 Si / 1000 Ang^3
#
#
#
# Elastic Constant Matrix: (Units=GPa)
#
#
# Indices 1 2 3 4 5 6 
#
# 1 50.8387 9.3162 5.0065 19.3537 9.9181 -9.9477
# 2 9.3162 172.3838 4.8647 27.0020 5.2133 6.0829
# 3 5.0065 4.8647 161.8472 37.2930 3.2778 -3.2828
# 4 19.3537 27.0020 37.2930 64.6489 6.1978 4.4253
# 5 9.9181 5.2133 3.2778 6.1978 41.5137 -1.3670
# 6 -9.9477 6.0829 -3.2828 4.4253 -1.3670 32.0558
#
#
#
# Elastic Compliance Matrix: (Units=1/GPa)
#
#
# Indices 1 2 3 4 5 6 
#
# 1 0.025509 -0.000262 0.001468 -0.008556 -0.004600 0.009101
# 2 -0.000262 0.006267 0.000430 -0.002690 -0.000385 -0.000871
# 3 0.001468 0.000430 0.007297 -0.004934 -0.000185 0.001794
# 4 -0.008556 -0.002690 -0.004934 0.022469 -0.000774 -0.005785
# 5 -0.004600 -0.000385 -0.000185 -0.000774 0.025360 -0.000185
# 6 0.009101 -0.000871 0.001794 -0.005785 -0.000185 0.035160
#
#
# Mechanical properties :
#
#
# Convention : Reuss Voigt Hill
#
# Bulk Modulus (GPa) = 23.61556 47.04941 35.33249
# Shear Modulus (GPa) = 37.62085 52.03583 44.82834
#
# Velocity S-wave (km/s) = 3.80976 4.48059 4.15872
# Velocity P-wave (km/s) = 5.33511 6.70219 6.05734
#
# Compressibility (1/GPa) = 0.04234496
#
# Stress axis : x y z
#
# Youngs Moduli (GPa) = 39.20201 159.56943 137.03746
#
# Poissons Ratio (x) = 0.04178 -0.20117
# Poissons Ratio (y) = 0.01026 -0.05890
# Poissons Ratio (z) = -0.05755 -0.06858
#
# Static dielectric constant tensor:
#      x y z
#    x 1.921060 -0.001440 -0.337790 
#    y -0.001440 2.155440 -0.293270 
#    z -0.337790 -0.293270 1.967490 
# 
# From -- ./inp_files/12160.got.cif
#   From: 2010.05.17/outbox.cif.g08.bks.cpg/sg2_7_cif.got.tgz:12160.got - 2010.06.03 11:33:40.
