data_PCOD9061605
_publ_section_title
;
Structure prediction by ZEFSAII (Michael W. Deem and Ramdas Pophale) SiO2 
 PCOD9061605
Probable space group: P -1
;
_chemical_formula_sum "Si O2"
_cell_formula_units_Z 16
_cell_length_a 11.502146
_cell_length_b 6.853298
_cell_length_c 10.988803
_cell_angle_alpha 76.009292
_cell_angle_beta 76.234167
_cell_angle_gamma 60.294382
_cell_volume 722.856474
_symmetry_space_group_name_H-M "P -1"
_symmetry_group_IT_number 2
_symmetry_cell_setting 'triclinic'
loop_
_space_group_symop_operation_xyz
x,y,z
-x,-y,-z
loop_
_atom_site_type_symbol
_atom_site_label
_atom_site_fract_x
_atom_site_fract_y
_atom_site_fract_z
Si Si1 0.724831 0.158170 0.789718
Si Si2 0.101337 0.599108 0.361309
Si Si3 0.435983 0.742100 0.413224
Si Si4 0.625513 0.284572 0.058197
Si Si5 0.194340 0.511658 0.900971
Si Si6 0.355491 0.105010 0.735335
Si Si7 0.811761 0.857231 0.457446
Si Si8 0.922533 0.654411 0.820445
O O1 0.803502 0.302296 0.726343
O O2 0.593118 0.271315 0.720679
O O3 0.816168 0.900898 0.764703
O O4 0.700742 0.145421 0.940232
O O5 0.183467 0.374536 0.455869
O O6 0.045343 0.515718 0.273751
O O7 0.969926 0.791577 0.432146
O O8 0.500000 0.500000 0.500000
O O9 0.537292 0.850872 0.374849
O O10 0.293137 0.916225 0.482018
O O11 0.724168 0.356868 0.095724
O O12 0.580475 0.134522 0.175317
O O13 0.500000 0.500000 0.000000
O O14 0.287333 0.302799 0.822411
O O15 0.055674 0.657718 0.839679
O O16 0.146677 0.423472 0.044411
O O17 0.243154 0.109873 0.670867
#
# Coordination Sequence:
#
# PCOD9061605 Si02
#       8
#     2   2   2   2   2   2   2   2
#     4  12  26  45  75 106 144 182 242 297 368 426
#     4  11  24  48  75 104 144 185 240 305 358 422
#     4  12  29  48  74 105 145 197 246 293 351 428
#     4  12  29  44  73 106 146 191 233 293 362 439
#     4  11  25  45  73 106 145 181 239 288 371 424
#     4  12  27  47  72 103 148 187 239 294 354 428
#     4  11  26  48  73 102 142 195 240 296 358 415
#     4  11  23  45  74 105 143 187 229 309 357 430
#
# _framework density 22.134409000000002
#
# number of rings (size 3 to 8) (size 9 to 14) (size 15 to 20)
#    0.000    0.500    5.000    1.875    8.750    2.000 
#    0.000    0.000    0.000    0.000    0.000    0.000 
#    0.000    0.000    0.000    0.000    0.000    0.000 
#
# Total GULP energy -89548.349227 kJ/mol
# GULP energy per Si atom -5596.771827 kJ/mol
# Density = 2.208403 g / cm^3
# Si number density = 22.134409 Si / 1000 Ang^3
#
#
#
# Elastic Constant Matrix: (Units=GPa)
#
#
# Indices 1 2 3 4 5 6 
#
# 1 70.8904 26.3643 7.9406 -15.4599 -0.2847 -2.7147
# 2 26.3643 91.2277 37.7677 -13.3014 -2.9668 -19.6103
# 3 7.9406 37.7677 76.0522 -15.1548 6.5478 -7.7738
# 4 -15.4599 -13.3014 -15.1548 51.8039 -1.3465 1.9728
# 5 -0.2847 -2.9668 6.5478 -1.3465 25.7176 0.9661
# 6 -2.7147 -19.6103 -7.7738 1.9728 0.9661 29.7964
#
#
#
# Elastic Compliance Matrix: (Units=1/GPa)
#
#
# Indices 1 2 3 4 5 6 
#
# 1 0.016729 -0.005283 0.001566 0.004149 -0.000538 -0.001801
# 2 -0.005283 0.017758 -0.007544 0.000524 0.003597 0.009086
# 3 0.001566 -0.007544 0.017881 0.003635 -0.005207 -0.000229
# 4 0.004149 0.000524 0.003635 0.021739 0.000311 0.000221
# 5 -0.000538 0.003597 -0.005207 0.000311 0.040649 -0.000379
# 6 -0.001801 0.009086 -0.000229 0.000221 -0.000379 0.039315
#
#
# Mechanical properties :
#
#
# Convention : Reuss Voigt Hill
#
# Bulk Modulus (GPa) = 33.50479 42.47950 37.99214
# Shear Modulus (GPa) = 26.80384 32.53677 29.67030
#
# Velocity S-wave (km/s) = 3.48366 3.83817 3.66520
# Velocity P-wave (km/s) = 5.59920 6.23501 5.92564
#
# Compressibility (1/GPa) = 0.02984648
#
# Stress axis : x y z
#
# Youngs Moduli (GPa) = 59.77592 56.31342 55.92639
#
# Poissons Ratio (x) = 0.29748 -0.08756
# Poissons Ratio (y) = 0.31577 0.42188
# Poissons Ratio (z) = -0.09358 0.42480
#
# Static dielectric constant tensor:
#      x y z
#    x 1.791850 -0.016480 -0.000210 
#    y -0.016480 1.825750 0.063800 
#    z -0.000210 0.063800 1.846060 
# 
# From -- ./inp_files/70140.got.cif
#   From: 2010.05.17/outbox.cif.g08.bks.cpg/sg2_36_cif.got.tgz:70140.got - 2010.06.03 11:33:40.
