data_PCOD9061329
_publ_section_title
;
Structure prediction by ZEFSAII (Michael W. Deem and Ramdas Pophale) SiO2 
 PCOD9061329
Probable space group: P -1
;
_chemical_formula_sum "Si O2"
_cell_formula_units_Z 14
_cell_length_a 9.643776
_cell_length_b 19.761991
_cell_length_c 12.181171
_cell_angle_alpha 24.669482
_cell_angle_beta 58.126246
_cell_angle_gamma 43.969898
_cell_volume 605.837582
_symmetry_space_group_name_H-M "P -1"
_symmetry_group_IT_number 2
_symmetry_cell_setting 'triclinic'
loop_
_space_group_symop_operation_xyz
x,y,z
-x,-y,-z
loop_
_atom_site_type_symbol
_atom_site_label
_atom_site_fract_x
_atom_site_fract_y
_atom_site_fract_z
Si Si1 0.554691 0.112581 0.225563
Si Si2 0.712494 0.422662 0.458116
Si Si3 0.398553 0.186133 0.525831
Si Si4 0.257570 0.613340 0.895391
Si Si5 0.006103 0.436750 0.466834
Si Si6 0.111565 0.134876 0.147650
Si Si7 0.042322 0.929284 0.312638
O O1 0.500000 0.000000 0.500000
O O2 0.600553 0.983414 0.285692
O O3 0.372590 0.373632 0.887672
O O4 0.785698 0.047458 0.253065
O O5 0.500000 0.500000 0.500000
O O6 0.839415 0.203274 0.654239
O O7 0.879841 0.375488 0.551266
O O8 0.262338 0.261507 0.583171
O O9 0.646491 0.079794 0.599052
O O10 0.269121 0.410315 0.180951
O O11 0.173503 0.743852 0.625835
O O12 0.089983 0.779626 0.816263
O O13 0.500000 0.500000 0.000000
O O14 0.000000 0.500000 0.500000
O O15 0.886376 0.674994 0.114949
O O16 0.067585 0.096699 0.099844
#
# Coordination Sequence:
#
# PCOD9061329 Si02
#       7
#     2   2   2   2   2   2   2
#     4  12  27  46  77 107 151 191 239 304 377 432
#     4  12  30  50  73 110 151 192 250 307 363 434
#     4  11  23  45  68 103 144 188 242 301 363 439
#     4  11  24  40  71 107 147 184 242 300 362 437
#     4  11  27  48  73 100 142 196 250 301 361 440
#     4  11  25  44  70 106 143 188 242 296 372 439
#     4  12  27  44  73 110 147 192 243 304 366 433
#
# _framework density 23.108504
#
# number of rings (size 3 to 8) (size 9 to 14) (size 15 to 20)
#    0.000    0.571    4.286    2.143   10.000    3.429 
#    0.000    0.000    0.000    0.000    0.000    0.000 
#    0.000    0.000    0.000    0.000    0.000    0.000 
#
# Total GULP energy -78190.640345 kJ/mol
# GULP energy per Si atom -5585.045739 kJ/mol
# Density = 2.305591 g / cm^3
# Si number density = 23.108504 Si / 1000 Ang^3
#
#
#
# Elastic Constant Matrix: (Units=GPa)
#
#
# Indices 1 2 3 4 5 6 
#
# 1 121.4856 35.2645 14.7445 -16.9289 10.7934 14.7350
# 2 35.2645 137.1394 8.9627 -19.3899 8.7466 13.2691
# 3 14.7445 8.9627 50.0823 -18.4384 11.7038 1.8604
# 4 -16.9289 -19.3899 -18.4384 32.8663 8.3526 -4.1841
# 5 10.7934 8.7466 11.7038 8.3526 44.7619 -12.3796
# 6 14.7350 13.2691 1.8604 -4.1841 -12.3796 41.6907
#
#
#
# Elastic Compliance Matrix: (Units=1/GPa)
#
#
# Indices 1 2 3 4 5 6 
#
# 1 0.010159 -0.001214 0.000370 0.005336 -0.004409 -0.003994
# 2 -0.001214 0.008948 0.002255 0.006574 -0.004125 -0.003084
# 3 0.000370 0.002255 0.030874 0.021827 -0.013820 -0.004139
# 4 0.005336 0.006574 0.021827 0.053635 -0.019793 -0.005447
# 5 -0.004409 -0.004125 -0.013820 -0.019793 0.034789 0.011832
# 6 -0.003994 -0.003084 -0.004139 -0.005447 0.011832 0.029531
#
#
# Mechanical properties :
#
#
# Convention : Reuss Voigt Hill
#
# Bulk Modulus (GPa) = 18.93890 47.40561 33.17226
# Shear Modulus (GPa) = 27.36514 40.51284 33.93899
#
# Velocity S-wave (km/s) = 3.44496 4.19161 3.83649
# Velocity P-wave (km/s) = 4.90276 6.63212 5.83190
#
# Compressibility (1/GPa) = 0.05280137
#
# Stress axis : x y z
#
# Youngs Moduli (GPa) = 98.43704 111.75979 32.38990
#
# Poissons Ratio (x) = 0.13571 -0.01197
# Poissons Ratio (y) = 0.11954 -0.07304
# Poissons Ratio (z) = -0.03639 -0.25203
#
# Static dielectric constant tensor:
#      x y z
#    x 1.844530 -0.024590 -0.048200 
#    y -0.024590 1.872790 0.060780 
#    z -0.048200 0.060780 1.977150 
# 
# From -- ./inp_files/69949.got.cif
#   From: 2010.05.17/outbox.cif.g08.bks.cpg/sg2_35_cif.got.tgz:69949.got - 2010.06.03 11:33:40.
