data_PCOD9061420
_publ_section_title
;
Structure prediction by ZEFSAII (Michael W. Deem and Ramdas Pophale) SiO2 
 PCOD9061420
Probable space group: P -1
;
_chemical_formula_sum "Si O2"
_cell_formula_units_Z 16
_cell_length_a 11.144580
_cell_length_b 11.591002
_cell_length_c 11.221141
_cell_angle_alpha 58.648147
_cell_angle_beta 51.106382
_cell_angle_gamma 97.501578
_cell_volume 699.267119
_symmetry_space_group_name_H-M "P -1"
_symmetry_group_IT_number 2
_symmetry_cell_setting 'triclinic'
loop_
_space_group_symop_operation_xyz
x,y,z
-x,-y,-z
loop_
_atom_site_type_symbol
_atom_site_label
_atom_site_fract_x
_atom_site_fract_y
_atom_site_fract_z
Si Si1 0.868540 0.343037 0.343035
Si Si2 0.976932 0.985027 0.375730
Si Si3 0.530860 0.952737 0.876148
Si Si4 0.074872 0.777445 0.852001
Si Si5 0.550454 0.690578 0.122147
Si Si6 0.322157 0.508637 0.594593
Si Si7 0.547953 0.617731 0.791966
Si Si8 0.711283 0.264345 0.075136
O O1 0.984181 0.358577 0.145288
O O2 0.694217 0.351924 0.410743
O O3 0.054116 0.528790 0.201428
O O4 0.751292 0.150219 0.586641
O O5 0.881686 0.063204 0.335583
O O6 0.209505 0.119554 0.099141
O O7 0.000000 0.000000 0.500000
O O8 0.804500 0.775066 0.550295
O O9 0.510909 0.778872 0.998851
O O10 0.365176 0.871322 0.916039
O O11 0.500000 0.000000 0.000000
O O12 0.262661 0.819589 0.784038
O O13 0.890752 0.685653 0.114581
O O14 0.367510 0.586117 0.390154
O O15 0.552066 0.535483 0.165948
O O16 0.500000 0.500000 0.500000
O O17 0.500000 0.500000 0.000000
O O18 0.442090 0.700869 0.821155
#
# Coordination Sequence:
#
# PCOD9061420 Si02
#       8
#     2   2   2   2   2   2   2   2
#     4  11  25  46  77 106 145 196 245 306 374 437
#     4  12  24  45  75 106 145 185 246 302 368 445
#     4  12  26  47  72 107 149 200 247 305 372 435
#     4  11  25  47  77 113 144 198 250 305 379 444
#     4  12  25  45  70 104 148 190 246 304 369 436
#     4  11  23  45  70 104 150 192 239 298 369 448
#     4  12  25  42  71 108 143 189 245 313 367 428
#     4  11  25  46  71 110 151 188 254 309 364 442
#
# _framework density 22.881097
#
# number of rings (size 3 to 8) (size 9 to 14) (size 15 to 20)
#    0.000    0.500    5.000    3.750    3.500    2.500 
#    4.500    0.625    0.000    0.000    0.000    0.000 
#    0.000    0.000    0.000    0.000    0.000    0.000 
#
# Total GULP energy -89122.823127 kJ/mol
# GULP energy per Si atom -5570.176445 kJ/mol
# Density = 2.282902 g / cm^3
# Si number density = 22.881097 Si / 1000 Ang^3
#
#
#
# Elastic Constant Matrix: (Units=GPa)
#
#
# Indices 1 2 3 4 5 6 
#
# 1 102.5341 20.6358 36.5372 2.3841 11.9105 -3.7802
# 2 20.6358 77.5570 43.6990 2.9063 -11.3977 4.6487
# 3 36.5372 43.6990 160.3934 -4.0619 3.4083 9.6514
# 4 2.3841 2.9063 -4.0619 35.0795 -3.8237 -6.8857
# 5 11.9105 -11.3977 3.4083 -3.8237 42.9472 -4.5676
# 6 -3.7802 4.6487 9.6514 -6.8857 -4.5676 36.0658
#
#
#
# Elastic Compliance Matrix: (Units=1/GPa)
#
#
# Indices 1 2 3 4 5 6 
#
# 1 0.011452 -0.002531 -0.001950 -0.000912 -0.003623 0.001416
# 2 -0.002531 0.016738 -0.004073 -0.001293 0.005255 -0.000914
# 3 -0.001950 -0.004073 0.007947 0.000898 -0.001282 -0.001797
# 4 -0.000912 -0.001293 0.000898 0.030308 0.003177 0.006020
# 5 -0.003623 0.005255 -0.001282 0.003177 0.026413 0.003238
# 6 0.001416 -0.000914 -0.001797 0.006020 0.003238 0.030033
#
#
# Mechanical properties :
#
#
# Convention : Reuss Voigt Hill
#
# Bulk Modulus (GPa) = 52.55706 60.24761 56.40233
# Shear Modulus (GPa) = 34.16684 38.79268 36.47976
#
# Velocity S-wave (km/s) = 3.86843 4.12199 3.99722
# Velocity P-wave (km/s) = 6.55534 7.00302 6.78288
#
# Compressibility (1/GPa) = 0.01902694
#
# Stress axis : x y z
#
# Youngs Moduli (GPa) = 87.32459 59.74574 125.83841
#
# Poissons Ratio (x) = 0.15123 0.24542
# Poissons Ratio (y) = 0.22104 0.51253
# Poissons Ratio (z) = 0.17030 0.24334
#
# Static dielectric constant tensor:
#      x y z
#    x 1.959380 0.003970 -0.023830 
#    y 0.003970 1.795900 -0.000390 
#    z -0.023830 -0.000390 1.882680 
# 
# From -- ./inp_files/427747.got.cif
#   From: 2010.05.17/outbox.cif.g08.bks.cpg/sg2_214_cif.got.tgz:427747.got - 2010.06.03 11:33:40.
