data_PCOD9061697
_publ_section_title
;
Structure prediction by ZEFSAII (Michael W. Deem and Ramdas Pophale) SiO2 
 PCOD9061697
Probable space group: P -1
;
_chemical_formula_sum "Si O2"
_cell_formula_units_Z 16
_cell_length_a 26.271955
_cell_length_b 8.711514
_cell_length_c 9.989209
_cell_angle_alpha 58.803480
_cell_angle_beta 38.772400
_cell_angle_gamma 33.882144
_cell_volume 741.415954
_symmetry_space_group_name_H-M "P -1"
_symmetry_group_IT_number 2
_symmetry_cell_setting 'triclinic'
loop_
_space_group_symop_operation_xyz
x,y,z
-x,-y,-z
loop_
_atom_site_type_symbol
_atom_site_label
_atom_site_fract_x
_atom_site_fract_y
_atom_site_fract_z
Si Si1 0.950723 0.278153 0.532803
Si Si2 0.857772 0.151762 0.216939
Si Si3 0.895937 0.678942 0.252695
Si Si4 0.432467 0.336143 0.032645
Si Si5 0.366087 0.073038 0.408753
Si Si6 0.304057 0.118786 0.112094
Si Si7 0.804754 0.066370 0.627790
Si Si8 0.647527 0.814887 0.300215
O O1 0.956013 0.427686 0.345910
O O2 0.797377 0.548513 0.778759
O O3 0.000000 0.000000 0.500000
O O4 0.052575 0.159117 0.493923
O O5 0.798893 0.223755 0.452677
O O6 0.753985 0.467612 0.218266
O O7 0.877790 0.917199 0.225576
O O8 0.000000 0.000000 0.000000
O O9 0.752267 0.848325 0.431610
O O10 0.000000 0.500000 0.000000
O O11 0.492889 0.241888 0.801916
O O12 0.558848 0.130889 0.970059
O O13 0.318723 0.681658 0.134015
O O14 0.363254 0.269225 0.247083
O O15 0.349936 0.121189 0.579948
O O16 0.221198 0.081131 0.316468
O O17 0.329002 0.094566 0.913648
O O18 0.500000 0.000000 0.500000
#
# Coordination Sequence:
#
# PCOD9061697 Si02
#       8
#     2   2   2   2   2   2   2   2
#     4  12  28  45  72 107 144 187 249 301 360 429
#     4  12  26  47  75 102 146 197 242 296 370 426
#     4  12  28  47  72 106 148 193 244 299 367 441
#     4  11  23  45  79 102 143 194 239 295 371 438
#     4  11  23  46  73 101 145 189 235 292 369 431
#     4  12  25  47  73 105 147 187 245 301 360 439
#     4  12  25  45  74 106 138 193 246 302 359 435
#     4  12  26  45  73 108 143 186 242 302 360 429
#
# _framework density 21.58033
#
# number of rings (size 3 to 8) (size 9 to 14) (size 15 to 20)
#    0.000    0.250    5.000    3.000    8.750    1.000 
#    0.000    1.250    0.000    0.000    0.000    0.000 
#    0.000    0.000    0.000    0.000    0.000    0.000 
#
# Total GULP energy -89414.039835 kJ/mol
# GULP energy per Si atom -5588.377490 kJ/mol
# Density = 2.153121 g / cm^3
# Si number density = 21.580330 Si / 1000 Ang^3
#
#
#
# Elastic Constant Matrix: (Units=GPa)
#
#
# Indices 1 2 3 4 5 6 
#
# 1 74.7828 9.1076 18.3628 -11.5405 -18.2680 10.6261
# 2 9.1076 50.1086 16.6112 8.5702 -13.5925 5.5036
# 3 18.3628 16.6112 113.7984 -4.5316 -0.1235 11.7401
# 4 -11.5405 8.5702 -4.5316 44.7054 0.7931 7.4331
# 5 -18.2680 -13.5925 -0.1235 0.7931 59.2867 -2.8352
# 6 10.6261 5.5036 11.7401 7.4331 -2.8352 35.7695
#
#
#
# Elastic Compliance Matrix: (Units=1/GPa)
#
#
# Indices 1 2 3 4 5 6 
#
# 1 0.016548 -0.001576 -0.001734 0.005120 0.004435 -0.004817
# 2 -0.001576 0.023668 -0.003345 -0.005274 0.004976 -0.000585
# 3 -0.001734 -0.003345 0.009897 0.001667 -0.001431 -0.002678
# 4 0.005120 -0.005274 0.001667 0.025987 -0.000295 -0.006680
# 5 0.004435 0.004976 -0.001431 -0.000295 0.019375 -0.000016
# 6 -0.004817 -0.000585 -0.002678 -0.006680 -0.000016 0.031744
#
#
# Mechanical properties :
#
#
# Convention : Reuss Voigt Hill
#
# Bulk Modulus (GPa) = 27.17273 36.31699 31.74486
# Shear Modulus (GPa) = 32.72331 40.92621 36.82476
#
# Velocity S-wave (km/s) = 3.89826 4.35956 4.13535
# Velocity P-wave (km/s) = 5.73416 6.49664 6.12727
#
# Compressibility (1/GPa) = 0.03680161
#
# Stress axis : x y z
#
# Youngs Moduli (GPa) = 60.43062 42.25083 101.04335
#
# Poissons Ratio (x) = 0.06660 0.17526
# Poissons Ratio (y) = 0.09526 0.33797
# Poissons Ratio (z) = 0.10482 0.14132
#
# Static dielectric constant tensor:
#      x y z
#    x 1.851650 0.016330 0.074440 
#    y 0.016330 1.889310 0.009190 
#    z 0.074440 0.009190 1.810040 
# 
# From -- ./inp_files/477495.got.cif
#   From: 2010.05.17/outbox.cif.g08.bks.cpg/sg2_239_cif.got.tgz:477495.got - 2010.06.03 11:33:40.
