data_PCOD9061499
_publ_section_title
;
Structure prediction by ZEFSAII (Michael W. Deem and Ramdas Pophale) SiO2 
 PCOD9061499
Probable space group: P -1
;
_chemical_formula_sum "Si O2"
_cell_formula_units_Z 16
_cell_length_a 9.556224
_cell_length_b 12.025677
_cell_length_c 17.888610
_cell_angle_alpha 147.307974
_cell_angle_beta 57.767954
_cell_angle_gamma 137.527270
_cell_volume 727.912643
_symmetry_space_group_name_H-M "P -1"
_symmetry_group_IT_number 2
_symmetry_cell_setting 'triclinic'
loop_
_space_group_symop_operation_xyz
x,y,z
-x,-y,-z
loop_
_atom_site_type_symbol
_atom_site_label
_atom_site_fract_x
_atom_site_fract_y
_atom_site_fract_z
Si Si1 0.845502 0.752446 0.849456
Si Si2 0.649542 0.745118 0.648363
Si Si3 0.352754 0.084594 0.101972
Si Si4 0.597051 0.083102 0.752003
Si Si5 0.119983 0.998939 0.654539
Si Si6 0.858144 0.220313 0.338972
Si Si7 0.906789 0.611296 0.041177
Si Si8 0.692198 0.171307 0.601788
O O1 0.669107 0.774503 0.881151
O O2 0.768968 0.470389 0.743364
O O3 0.984414 0.793415 0.761753
O O4 0.000000 0.000000 0.000000
O O5 0.500000 0.500000 0.500000
O O6 0.555305 0.724556 0.744066
O O7 0.688800 0.983310 0.724975
O O8 0.867209 0.793338 0.625338
O O9 0.500000 0.000000 0.000000
O O10 0.108690 0.836524 0.058238
O O11 0.707945 0.379891 0.916861
O O12 0.652308 0.089615 0.653350
O O13 0.339525 0.869594 0.707020
O O14 0.240506 0.987598 0.682915
O O15 0.157544 0.892908 0.510600
O O16 0.164992 0.273364 0.812621
O O17 0.000000 0.500000 0.500000
O O18 0.000000 0.500000 0.000000
O O19 0.500000 0.000000 0.500000
#
# Coordination Sequence:
#
# PCOD9061499 Si02
#       8
#     2   2   2   2   2   2   2   2
#     4  12  27  46  73 106 142 185 241 292 354 435
#     4  11  25  44  71 103 137 190 240 283 364 426
#     4  11  26  48  72 102 142 187 234 299 349 419
#     4  12  26  45  73 104 145 189 239 295 358 432
#     4  11  23  45  71  97 143 186 230 297 352 414
#     4  12  23  46  75  99 143 189 234 292 357 429
#     4  11  23  48  68 104 144 183 237 290 358 422
#     4  12  27  45  69 110 143 181 239 300 360 418
#
# _framework density 21.98066
#
# number of rings (size 3 to 8) (size 9 to 14) (size 15 to 20)
#    0.000    0.500    7.500    1.500    3.500    4.000 
#    0.000    0.000    0.000    0.000    0.000    0.000 
#    0.000    0.000    0.000    0.000    0.000    0.000 
#
# Total GULP energy -89278.263114 kJ/mol
# GULP energy per Si atom -5579.891445 kJ/mol
# Density = 2.193063 g / cm^3
# Si number density = 21.980660 Si / 1000 Ang^3
#
#
#
# Elastic Constant Matrix: (Units=GPa)
#
#
# Indices 1 2 3 4 5 6 
#
# 1 104.4017 15.5012 53.1709 -11.9640 -4.2638 -4.0803
# 2 15.5012 23.7038 9.0312 3.0149 -9.4855 3.0677
# 3 53.1709 9.0312 175.0318 3.5238 9.4947 15.9964
# 4 -11.9640 3.0149 3.5238 35.5819 4.7619 -2.4574
# 5 -4.2638 -9.4855 9.4947 4.7619 51.1968 2.9659
# 6 -4.0803 3.0677 15.9964 -2.4574 2.9659 36.4381
#
#
#
# Elastic Compliance Matrix: (Units=1/GPa)
#
#
# Indices 1 2 3 4 5 6 
#
# 1 0.014021 -0.009179 -0.004311 0.006324 -0.000594 0.004710
# 2 -0.009179 0.054499 0.000257 -0.009648 0.010602 -0.007243
# 3 -0.004311 0.000257 0.007475 -0.002308 -0.001261 -0.003839
# 4 0.006324 -0.009648 -0.002308 0.032176 -0.004117 0.005039
# 5 -0.000594 0.010602 -0.001261 -0.004117 0.022208 -0.002491
# 6 0.004710 -0.007243 -0.003839 0.005039 -0.002491 0.030809
#
#
# Mechanical properties :
#
#
# Convention : Reuss Voigt Hill
#
# Bulk Modulus (GPa) = 20.18962 50.94932 35.56947
# Shear Modulus (GPa) = 24.49007 39.67229 32.08118
#
# Velocity S-wave (km/s) = 3.34153 4.25299 3.82451
# Velocity P-wave (km/s) = 4.90845 6.88089 5.97660
#
# Compressibility (1/GPa) = 0.04953041
#
# Stress axis : x y z
#
# Youngs Moduli (GPa) = 71.31917 18.34900 133.77190
#
# Poissons Ratio (x) = 0.16842 0.57674
# Poissons Ratio (y) = 0.65461 -0.03441
# Poissons Ratio (z) = 0.30749 -0.00472
#
# Static dielectric constant tensor:
#      x y z
#    x 1.848160 0.017720 -0.006620 
#    y 0.017720 1.893170 0.069380 
#    z -0.006620 0.069380 1.889780 
# 
# From -- ./inp_files/456924.got.cif
#   From: 2010.05.17/outbox.cif.g08.bks.cpg/sg2_229_cif.got.tgz:456924.got - 2010.06.03 11:33:40.
