data_PCOD9061965
_publ_section_title
;
Structure prediction by ZEFSAII (Michael W. Deem and Ramdas Pophale) SiO2 
 PCOD9061965
Probable space group: P -1
;
_chemical_formula_sum "Si O2"
_cell_formula_units_Z 12
_cell_length_a 9.418385
_cell_length_b 8.121509
_cell_length_c 11.530477
_cell_angle_alpha 138.073311
_cell_angle_beta 67.520704
_cell_angle_gamma 105.878860
_cell_volume 544.460608
_symmetry_space_group_name_H-M "P -1"
_symmetry_group_IT_number 2
_symmetry_cell_setting 'triclinic'
loop_
_space_group_symop_operation_xyz
x,y,z
-x,-y,-z
loop_
_atom_site_type_symbol
_atom_site_label
_atom_site_fract_x
_atom_site_fract_y
_atom_site_fract_z
Si Si1 0.824612 0.947542 0.992901
Si Si2 0.422963 0.764987 0.657125
Si Si3 0.266665 0.014481 0.624665
Si Si4 0.056712 0.223785 0.368158
Si Si5 0.724428 0.017750 0.668548
Si Si6 0.322530 0.447115 0.995540
O O1 0.829920 0.870799 0.817810
O O2 0.756240 0.724883 0.973336
O O3 0.716642 0.179133 0.182766
O O4 0.000000 0.000000 0.000000
O O5 0.500000 0.500000 0.500000
O O6 0.560151 0.950336 0.736865
O O7 0.361856 0.827820 0.580161
O O8 0.293675 0.977971 0.461875
O O9 0.308787 0.285510 0.798834
O O10 0.090527 0.949212 0.670998
O O11 0.149899 0.184946 0.437313
O O12 0.000000 0.500000 0.500000
O O13 0.764014 0.289927 0.842016
O O14 0.500000 0.500000 0.000000
#
# Coordination Sequence:
#
# PCOD9061965 Si02
#       6
#     2   2   2   2   2   2
#     4  11  23  48  77 104 150 195 246 310 375 442
#     4  11  24  45  76 108 146 199 249 307 377 437
#     4  11  24  48  74 105 154 195 245 315 370 449
#     4  12  26  48  74 109 151 196 251 310 381 452
#     4  12  26  45  74 110 145 201 253 303 383 444
#     4  11  23  46  75 109 146 194 251 304 374 448
#
# _framework density 22.040164000000001
#
# number of rings (size 3 to 8) (size 9 to 14) (size 15 to 20)
#    0.000    0.667    6.667    3.000    0.000    2.667 
#    0.000    0.000    0.000    0.000    0.000    0.000 
#    0.000    0.000    0.000    0.000    0.000    0.000 
#
# Total GULP energy -67133.356986 kJ/mol
# GULP energy per Si atom -5594.446415 kJ/mol
# Density = 2.199000 g / cm^3
# Si number density = 22.040164 Si / 1000 Ang^3
#
#
#
# Elastic Constant Matrix: (Units=GPa)
#
#
# Indices 1 2 3 4 5 6 
#
# 1 127.5421 41.0921 37.3890 5.3515 -11.6741 2.9547
# 2 41.0921 57.3580 55.4434 5.9039 -11.5377 5.4885
# 3 37.3890 55.4434 154.3380 11.8134 -13.8204 -12.5733
# 4 5.3515 5.9039 11.8134 28.0174 -0.9917 -0.2061
# 5 -11.6741 -11.5377 -13.8204 -0.9917 36.6750 0.1963
# 6 2.9547 5.4885 -12.5733 -0.2061 0.1963 51.4126
#
#
#
# Elastic Compliance Matrix: (Units=1/GPa)
#
#
# Indices 1 2 3 4 5 6 
#
# 1 0.010246 -0.007442 0.000345 -0.000496 0.001035 0.000284
# 2 -0.007442 0.034631 -0.010614 -0.001284 0.004523 -0.005887
# 3 0.000345 -0.010614 0.010756 -0.002311 0.000741 0.003732
# 4 -0.000496 -0.001284 -0.002311 0.037015 -0.000430 -0.000250
# 5 0.001035 0.004523 0.000741 -0.000430 0.029289 -0.000475
# 6 0.000284 -0.005887 0.003732 -0.000250 -0.000475 0.020976
#
#
# Mechanical properties :
#
#
# Convention : Reuss Voigt Hill
#
# Bulk Modulus (GPa) = 49.47794 67.45411 58.46603
# Shear Modulus (GPa) = 27.01657 36.90857 31.96257
#
# Velocity S-wave (km/s) = 3.50492 4.09663 3.81228
# Velocity P-wave (km/s) = 6.23515 7.28341 6.77957
#
# Compressibility (1/GPa) = 0.02021103
#
# Stress axis : x y z
#
# Youngs Moduli (GPa) = 97.59885 28.87597 92.97197
#
# Poissons Ratio (x) = 0.21489 -0.03207
# Poissons Ratio (y) = 0.72631 0.98682
# Poissons Ratio (z) = -0.03367 0.30649
#
# Static dielectric constant tensor:
#      x y z
#    x 1.844310 -0.022250 0.001680 
#    y -0.022250 1.840150 0.014340 
#    z 0.001680 0.014340 1.853010 
# 
# From -- ./inp_files/380764.got.cif
#   From: 2010.05.17/outbox.cif.g08.bks.cpg/sg2_191_cif.got.tgz:380764.got - 2010.06.03 11:33:40.
