data_PCOD9061001
_publ_section_title
;
Structure prediction by ZEFSAII (Michael W. Deem and Ramdas Pophale) SiO2 
 PCOD9061001
Probable space group: P -1
;
_chemical_formula_sum "Si O2"
_cell_formula_units_Z 14
_cell_length_a 14.791983
_cell_length_b 12.583003
_cell_length_c 11.148249
_cell_angle_alpha 69.442505
_cell_angle_beta 113.788559
_cell_angle_gamma 160.931064
_cell_volume 617.169094
_symmetry_space_group_name_H-M "P -1"
_symmetry_group_IT_number 2
_symmetry_cell_setting 'triclinic'
loop_
_space_group_symop_operation_xyz
x,y,z
-x,-y,-z
loop_
_atom_site_type_symbol
_atom_site_label
_atom_site_fract_x
_atom_site_fract_y
_atom_site_fract_z
Si Si1 0.942563 0.554789 0.516521
Si Si2 0.269285 0.858559 0.812680
Si Si3 0.125349 0.448553 0.870979
Si Si4 0.488787 0.773782 0.710765
Si Si5 0.091905 0.369222 0.147309
Si Si6 0.654114 0.802176 0.592315
Si Si7 0.842357 0.777606 0.618431
O O1 0.625922 0.255183 0.432786
O O2 0.000000 0.500000 0.500000
O O3 0.047748 0.651850 0.669615
O O4 0.124368 0.858020 0.445452
O O5 0.272034 0.725829 0.874295
O O6 0.135640 0.777404 0.888196
O O7 0.587349 0.244173 0.803620
O O8 0.299141 0.577538 0.806082
O O9 0.097198 0.348017 0.017610
O O10 0.811289 0.139673 0.778493
O O11 0.483203 0.652030 0.679545
O O12 0.016981 0.179024 0.262146
O O13 0.789227 0.823618 0.662396
O O14 0.454054 0.582777 0.455547
O O15 0.000000 0.000000 0.500000
#
# Coordination Sequence:
#
# PCOD9061001 Si02
#       7
#     2   2   2   2   2   2   2
#     4  12  24  42  74 108 146 180 232 296 365 425
#     4  12  24  43  70 105 143 186 239 296 353 418
#     4  12  26  44  69 101 151 194 228 288 353 439
#     4  12  24  45  67 104 145 185 232 282 362 423
#     4  12  26  46  70 103 140 191 247 287 351 422
#     4  11  23  44  71 105 139 184 232 308 353 408
#     4  11  25  45  76 103 141 181 248 304 349 407
#
# _framework density 22.68422
#
# number of rings (size 3 to 8) (size 9 to 14) (size 15 to 20)
#    0.000    0.286    4.286    5.143    2.000    1.143 
#    0.000    1.429    0.000    0.000    0.000    0.000 
#    0.000    0.000    0.000    0.000    0.000    0.000 
#
# Total GULP energy -78373.852801 kJ/mol
# GULP energy per Si atom -5598.132343 kJ/mol
# Density = 2.263259 g / cm^3
# Si number density = 22.684220 Si / 1000 Ang^3
#
#
#
# Elastic Constant Matrix: (Units=GPa)
#
#
# Indices 1 2 3 4 5 6 
#
# 1 171.1774 37.5852 27.1912 -12.9847 -23.6373 -1.8687
# 2 37.5852 94.2426 19.8963 -0.6007 4.8715 2.5119
# 3 27.1912 19.8963 87.1112 -13.3977 -2.0727 -5.7278
# 4 -12.9847 -0.6007 -13.3977 30.6663 6.0113 -1.5042
# 5 -23.6373 4.8715 -2.0727 6.0113 35.0887 -3.1634
# 6 -1.8687 2.5119 -5.7278 -1.5042 -3.1634 36.3291
#
#
#
# Elastic Compliance Matrix: (Units=1/GPa)
#
#
# Indices 1 2 3 4 5 6 
#
# 1 0.007564 -0.003043 -0.001231 0.001622 0.005251 0.000930
# 2 -0.003043 0.012557 -0.002343 -0.001398 -0.003853 -0.001787
# 3 -0.001231 -0.002343 0.013390 0.005486 -0.000436 0.002399
# 4 0.001622 -0.001398 0.005486 0.036648 -0.004472 0.002173
# 5 0.005251 -0.003853 -0.000436 -0.004472 0.033601 0.003208
# 6 0.000930 -0.001787 0.002399 0.002173 0.003208 0.028445
#
#
# Mechanical properties :
#
#
# Convention : Reuss Voigt Hill
#
# Bulk Modulus (GPa) = 49.31198 57.98631 53.64915
# Shear Modulus (GPa) = 32.85243 38.27403 35.56323
#
# Velocity S-wave (km/s) = 3.80972 4.11208 3.96378
# Velocity P-wave (km/s) = 6.41386 6.93999 6.68210
#
# Compressibility (1/GPa) = 0.02027905
#
# Stress axis : x y z
#
# Youngs Moduli (GPa) = 132.21101 79.63831 74.68356
#
# Poissons Ratio (x) = 0.24231 0.09190
# Poissons Ratio (y) = 0.40226 0.17495
# Poissons Ratio (z) = 0.16269 0.18655
#
# Static dielectric constant tensor:
#      x y z
#    x 1.850340 0.030760 -0.008910 
#    y 0.030760 1.900980 0.014240 
#    z -0.008910 0.014240 1.858680 
# 
# From -- ./inp_files/451353.got.cif
#   From: 2010.05.17/outbox.cif.g08.bks.cpg/sg2_226_cif.got.tgz:451353.got - 2010.06.03 11:33:40.
