data_PCOD9061943
_publ_section_title
;
Structure prediction by ZEFSAII (Michael W. Deem and Ramdas Pophale) SiO2 
 PCOD9061943
Probable space group: P -1
;
_chemical_formula_sum "Si O2"
_cell_formula_units_Z 16
_cell_length_a 15.388245
_cell_length_b 9.318468
_cell_length_c 8.877348
_cell_angle_alpha 79.557754
_cell_angle_beta 130.682566
_cell_angle_gamma 68.585416
_cell_volume 723.058821
_symmetry_space_group_name_H-M "P -1"
_symmetry_group_IT_number 2
_symmetry_cell_setting 'triclinic'
loop_
_space_group_symop_operation_xyz
x,y,z
-x,-y,-z
loop_
_atom_site_type_symbol
_atom_site_label
_atom_site_fract_x
_atom_site_fract_y
_atom_site_fract_z
Si Si1 0.591182 0.657346 0.158219
Si Si2 0.403324 0.686453 0.709206
Si Si3 0.148994 0.452741 0.742669
Si Si4 0.632062 0.460624 0.755589
Si Si5 0.572974 0.782186 0.450457
Si Si6 0.064269 0.830593 0.724032
Si Si7 0.268264 0.129373 0.186397
Si Si8 0.898528 0.958974 0.821782
O O1 0.631615 0.451356 0.259105
O O2 0.721607 0.630843 0.219996
O O3 0.569630 0.748496 0.277858
O O4 0.436024 0.768605 0.867941
O O5 0.555724 0.561156 0.808862
O O6 0.270937 0.845865 0.423576
O O7 0.103758 0.648293 0.718721
O O8 0.000000 0.500000 0.500000
O O9 0.217756 0.294909 0.981241
O O10 0.500000 0.500000 0.500000
O O11 0.667087 0.576677 0.678893
O O12 0.779897 0.247946 0.003628
O O13 0.653096 0.864120 0.578670
O O14 0.403325 0.928399 0.296799
O O15 0.954655 0.887317 0.728960
O O16 0.000000 0.000000 0.500000
O O17 0.122134 0.161404 0.069526
O O18 0.000000 0.000000 0.000000
#
# Coordination Sequence:
#
# PCOD9061943 Si02
#       8
#     2   2   2   2   2   2   2   2
#     4  11  25  43  76 106 142 192 250 301 373 432
#     4  11  23  46  74 109 145 185 253 314 360 445
#     4  12  29  49  71 106 157 200 240 305 385 452
#     4  12  22  45  76 108 143 196 252 307 369 433
#     4  11  24  45  77 107 142 192 253 310 361 439
#     4  12  29  50  73 110 158 195 247 310 379 449
#     4  11  27  49  71 106 149 191 253 308 367 450
#     4  12  29  46  75 111 147 194 250 309 379 444
#
# _framework density 22.128212000000001
#
# number of rings (size 3 to 8) (size 9 to 14) (size 15 to 20)
#    0.000    0.500    5.000    1.500    8.750    2.000 
#    0.000    0.000    0.000    0.000    0.000    0.000 
#    0.000    0.000    0.000    0.000    0.000    0.000 
#
# Total GULP energy -89499.154085 kJ/mol
# GULP energy per Si atom -5593.697130 kJ/mol
# Density = 2.207785 g / cm^3
# Si number density = 22.128212 Si / 1000 Ang^3
#
#
#
# Elastic Constant Matrix: (Units=GPa)
#
#
# Indices 1 2 3 4 5 6 
#
# 1 167.3062 69.2047 51.0094 18.2230 -10.2548 -7.5895
# 2 69.2047 94.4575 55.4854 24.2310 -9.8166 -8.4627
# 3 51.0094 55.4854 127.2214 9.6461 -4.7173 1.0092
# 4 18.2230 24.2310 9.6461 49.8659 4.0975 -2.5503
# 5 -10.2548 -9.8166 -4.7173 4.0975 37.6714 4.5093
# 6 -7.5895 -8.4627 1.0092 -2.5503 4.5093 29.5693
#
#
#
# Elastic Compliance Matrix: (Units=1/GPa)
#
#
# Indices 1 2 3 4 5 6 
#
# 1 0.008693 -0.005571 -0.001008 -0.000310 0.000759 0.000529
# 2 -0.005571 0.020777 -0.006201 -0.006960 0.003447 0.003602
# 3 -0.001008 -0.006201 0.010882 0.001194 -0.000389 -0.002243
# 4 -0.000310 -0.006960 0.001194 0.023710 -0.004400 0.000604
# 5 0.000759 0.003447 -0.000389 -0.004400 0.028503 -0.003531
# 6 0.000529 0.003602 -0.002243 0.000604 -0.003531 0.035653
#
#
# Mechanical properties :
#
#
# Convention : Reuss Voigt Hill
#
# Bulk Modulus (GPa) = 67.60600 82.26491 74.93545
# Shear Modulus (GPa) = 31.50409 37.64035 34.57222
#
# Velocity S-wave (km/s) = 3.77730 4.12881 3.95696
# Velocity P-wave (km/s) = 7.04573 7.74510 7.40368
#
# Compressibility (1/GPa) = 0.01479159
#
# Stress axis : x y z
#
# Youngs Moduli (GPa) = 115.03296 48.12946 91.89549
#
# Poissons Ratio (x) = 0.26813 0.09267
# Poissons Ratio (y) = 0.64085 0.56985
# Poissons Ratio (z) = 0.11600 0.29845
#
# Static dielectric constant tensor:
#      x y z
#    x 1.859720 0.013210 -0.024930 
#    y 0.013210 1.846220 0.007870 
#    z -0.024930 0.007870 1.847450 
# 
# From -- ./inp_files/298382.got.cif
#   From: 2010.05.17/outbox.cif.g08.bks.cpg/sg2_150_cif.got.tgz:298382.got - 2010.06.03 11:33:40.
