data_PCOD9061348
_publ_section_title
;
Structure prediction by ZEFSAII (Michael W. Deem and Ramdas Pophale) SiO2 
 PCOD9061348
Probable space group: P -1
;
_chemical_formula_sum "Si O2"
_cell_formula_units_Z 16
_cell_length_a 18.705757
_cell_length_b 11.121266
_cell_length_c 9.170400
_cell_angle_alpha 74.190754
_cell_angle_beta 142.459255
_cell_angle_gamma 131.351198
_cell_volume 728.955382
_symmetry_space_group_name_H-M "P -1"
_symmetry_group_IT_number 2
_symmetry_cell_setting 'triclinic'
loop_
_space_group_symop_operation_xyz
x,y,z
-x,-y,-z
loop_
_atom_site_type_symbol
_atom_site_label
_atom_site_fract_x
_atom_site_fract_y
_atom_site_fract_z
Si Si1 0.241854 0.306289 0.442790
Si Si2 0.956515 0.512749 0.227385
Si Si3 0.798077 0.490230 0.253859
Si Si4 0.090075 0.801416 0.116497
Si Si5 0.548354 0.723230 0.721492
Si Si6 0.587425 0.784467 0.417434
Si Si7 0.818331 0.777683 0.301501
Si Si8 0.314626 0.904750 0.167534
O O1 0.358569 0.526668 0.542397
O O2 0.322706 0.271505 0.473330
O O3 0.256988 0.264690 0.643767
O O4 0.037660 0.182816 0.124232
O O5 0.914766 0.577730 0.265374
O O6 0.134324 0.576114 0.527804
O O7 0.981610 0.607063 0.088336
O O8 0.787886 0.280298 0.033429
O O9 0.845590 0.652810 0.365144
O O10 0.590195 0.328917 0.924560
O O11 0.172467 0.818057 0.094502
O O12 0.260681 0.986403 0.424435
O O13 0.540388 0.736331 0.529952
O O14 0.628836 0.913787 0.860815
O O15 0.680998 0.717666 0.978780
O O16 0.000000 0.000000 0.500000
O O17 0.500000 0.000000 0.500000
#
# Coordination Sequence:
#
# PCOD9061348 Si02
#       8
#     2   2   2   2   2   2   2   2
#     4  12  24  43  69 103 138 175 230 284 343 403
#     4  11  24  43  68  99 135 187 222 283 334 405
#     4  11  25  44  65  94 143 175 230 276 341 402
#     4  11  24  41  69 100 132 177 234 276 339 408
#     4  11  24  43  71 101 134 183 226 280 341 403
#     4  11  24  43  68 103 137 179 225 281 342 406
#     4  12  26  44  67 100 139 177 226 286 343 403
#     4  11  23  45  68  99 135 177 230 280 338 406
#
# _framework density 21.949216
#
# number of rings (size 3 to 8) (size 9 to 14) (size 15 to 20)
#    0.000    0.750    1.250    7.500    3.500    1.500 
#    0.000    0.000    0.000    0.000    0.000    0.000 
#    0.000    0.000    0.000    0.000    0.000    0.000 
#
# Total GULP energy -89518.699719 kJ/mol
# GULP energy per Si atom -5594.918732 kJ/mol
# Density = 2.189926 g / cm^3
# Si number density = 21.949216 Si / 1000 Ang^3
#
#
#
# Elastic Constant Matrix: (Units=GPa)
#
#
# Indices 1 2 3 4 5 6 
#
# 1 37.6187 14.1692 18.0269 -1.1182 7.3596 -3.5233
# 2 14.1692 65.1387 -1.0259 14.7273 -5.0443 5.3080
# 3 18.0269 -1.0259 109.0111 -4.5815 12.6830 -4.9956
# 4 -1.1182 14.7273 -4.5815 33.7699 -12.9146 3.9180
# 5 7.3596 -5.0443 12.6830 -12.9146 31.8419 -5.1888
# 6 -3.5233 5.3080 -4.9956 3.9180 -5.1888 18.8411
#
#
#
# Elastic Compliance Matrix: (Units=1/GPa)
#
#
# Indices 1 2 3 4 5 6 
#
# 1 0.033788 -0.008643 -0.004674 0.001366 -0.005847 0.005620
# 2 -0.008643 0.019474 0.000971 -0.007789 0.000717 -0.005028
# 3 -0.004674 0.000971 0.010315 -0.000385 -0.002889 0.000872
# 4 0.001366 -0.007789 -0.000385 0.038545 0.013939 -0.001829
# 5 -0.005847 0.000717 -0.002889 0.013939 0.040692 0.006246
# 6 0.005620 -0.005028 0.000872 -0.001829 0.006246 0.057874
#
#
# Mechanical properties :
#
#
# Convention : Reuss Voigt Hill
#
# Bulk Modulus (GPa) = 25.71567 30.45653 28.08610
# Shear Modulus (GPa) = 20.97832 28.93048 24.95440
#
# Velocity S-wave (km/s) = 3.09490 3.63445 3.37548
# Velocity P-wave (km/s) = 4.95102 5.61412 5.29297
#
# Compressibility (1/GPa) = 0.03888680
#
# Stress axis : x y z
#
# Youngs Moduli (GPa) = 29.59598 51.35181 96.94401
#
# Poissons Ratio (x) = 0.44383 0.45308
# Poissons Ratio (y) = 0.25580 -0.09416
# Poissons Ratio (z) = 0.13832 -0.04988
#
# Static dielectric constant tensor:
#      x y z
#    x 1.787370 -0.032990 -0.013460 
#    y -0.032990 1.789010 0.020310 
#    z -0.013460 0.020310 1.848860 
# 
# From -- ./inp_files/333303.got.cif
#   From: 2010.05.17/outbox.cif.g08.bks.cpg/sg2_167_cif.got.tgz:333303.got - 2010.06.03 11:33:40.
