data_PCOD9061678
_publ_section_title
;
Structure prediction by ZEFSAII (Michael W. Deem and Ramdas Pophale) SiO2 
 PCOD9061678
Probable space group: P -1
;
_chemical_formula_sum "Si O2"
_cell_formula_units_Z 16
_cell_length_a 8.812768
_cell_length_b 9.461909
_cell_length_c 12.412684
_cell_angle_alpha 103.098995
_cell_angle_beta 50.600629
_cell_angle_gamma 104.403053
_cell_volume 771.403093
_symmetry_space_group_name_H-M "P -1"
_symmetry_group_IT_number 2
_symmetry_cell_setting 'triclinic'
loop_
_space_group_symop_operation_xyz
x,y,z
-x,-y,-z
loop_
_atom_site_type_symbol
_atom_site_label
_atom_site_fract_x
_atom_site_fract_y
_atom_site_fract_z
Si Si1 0.460257 0.124238 0.124396
Si Si2 0.392855 0.355299 0.728472
Si Si3 0.854795 0.379868 0.478754
Si Si4 0.994337 0.928735 0.608334
Si Si5 0.126221 0.068496 0.790835
Si Si6 0.091378 0.516531 0.771937
Si Si7 0.640561 0.443485 0.016082
Si Si8 0.179563 0.825513 0.892211
O O1 0.232156 0.109746 0.256550
O O2 0.538677 0.283187 0.068152
O O3 0.595027 0.118466 0.168360
O O4 0.500000 0.000000 0.000000
O O5 0.624973 0.387975 0.607097
O O6 0.321967 0.182698 0.743515
O O7 0.253304 0.410925 0.708495
O O8 0.350063 0.442873 0.869943
O O9 0.888138 0.417078 0.344775
O O10 0.000000 0.500000 0.500000
O O11 0.906598 0.219765 0.458126
O O12 0.000000 0.000000 0.500000
O O13 0.096111 0.037673 0.673312
O O14 0.125234 0.916911 0.829415
O O15 0.950367 0.139681 0.940459
O O16 0.136696 0.654743 0.855923
O O17 0.865797 0.441439 0.875896
O O18 0.500000 0.500000 0.000000
#
# Coordination Sequence:
#
# PCOD9061678 Si02
#       8
#     2   2   2   2   2   2   2   2
#     4  12  26  44  73 105 141 186 237 295 364 420
#     4  12  26  45  73 102 141 190 239 290 360 424
#     4  12  29  50  67 102 149 192 237 291 359 434
#     4  12  29  48  70 104 151 190 236 290 363 437
#     4  11  25  45  73 107 140 185 239 304 357 420
#     4  12  24  48  76 105 138 189 242 302 351 426
#     4  12  26  43  73 108 142 182 239 297 358 424
#     4  11  23  45  77 105 142 177 245 308 352 416
#
# _framework density 20.741426000000001
#
# number of rings (size 3 to 8) (size 9 to 14) (size 15 to 20)
#    0.000    0.250    5.000    3.750    5.250    1.500 
#    0.000    0.000    0.000    0.000    0.000    0.000 
#    0.000    0.000    0.000    0.000    0.000    0.000 
#
# Total GULP energy -89568.561649 kJ/mol
# GULP energy per Si atom -5598.035103 kJ/mol
# Density = 2.069422 g / cm^3
# Si number density = 20.741426 Si / 1000 Ang^3
#
#
#
# Elastic Constant Matrix: (Units=GPa)
#
#
# Indices 1 2 3 4 5 6 
#
# 1 123.3179 30.6865 52.1326 -1.1928 -8.4458 -1.6590
# 2 30.6865 79.5906 37.3118 -5.5370 0.1667 9.7424
# 3 52.1326 37.3118 94.9818 -8.4780 -10.0854 -8.7259
# 4 -1.1928 -5.5370 -8.4780 26.9701 4.3255 1.7217
# 5 -8.4458 0.1667 -10.0854 4.3255 56.3520 -5.2670
# 6 -1.6590 9.7424 -8.7259 1.7217 -5.2670 43.9587
#
#
#
# Elastic Compliance Matrix: (Units=1/GPa)
#
#
# Indices 1 2 3 4 5 6 
#
# 1 0.010842 -0.001795 -0.005319 -0.001684 0.000799 -0.000087
# 2 -0.001795 0.016984 -0.006215 0.002135 -0.002100 -0.005401
# 3 -0.005319 -0.006215 0.016856 0.003097 0.002439 0.004694
# 4 -0.001684 0.002135 0.003097 0.038989 -0.002865 -0.001792
# 5 0.000799 -0.002100 0.002439 -0.002865 0.018841 0.003349
# 6 -0.000087 -0.005401 0.004694 -0.001792 0.003349 0.025346
#
#
# Mechanical properties :
#
#
# Convention : Reuss Voigt Hill
#
# Bulk Modulus (GPa) = 55.48340 59.79468 57.63904
# Shear Modulus (GPa) = 31.14805 37.30678 34.22741
#
# Velocity S-wave (km/s) = 3.87942 4.24566 4.06667
# Velocity P-wave (km/s) = 6.84651 7.27499 7.06400
#
# Compressibility (1/GPa) = 0.01802341
#
# Stress axis : x y z
#
# Youngs Moduli (GPa) = 92.23711 58.87878 59.32596
#
# Poissons Ratio (x) = 0.10566 0.31556
# Poissons Ratio (y) = 0.16553 0.36874
# Poissons Ratio (z) = 0.49062 0.36596
#
# Static dielectric constant tensor:
#      x y z
#    x 1.785940 -0.036420 -0.009770 
#    y -0.036420 1.740500 0.010310 
#    z -0.009770 0.010310 1.727410 
# 
# From -- ./inp_files/184220.got.cif
#   From: 2010.05.17/outbox.cif.g08.bks.cpg/sg2_93_cif.got.tgz:184220.got - 2010.06.03 11:33:40.
