data_PCOD9061300
_publ_section_title
;
Structure prediction by ZEFSAII (Michael W. Deem and Ramdas Pophale) SiO2 
 PCOD9061300
Probable space group: P -1
;
_chemical_formula_sum "Si O2"
_cell_formula_units_Z 16
_cell_length_a 14.625545
_cell_length_b 11.837835
_cell_length_c 9.681916
_cell_angle_alpha 105.111532
_cell_angle_beta 67.583970
_cell_angle_gamma 150.393535
_cell_volume 756.305816
_symmetry_space_group_name_H-M "P -1"
_symmetry_group_IT_number 2
_symmetry_cell_setting 'triclinic'
loop_
_space_group_symop_operation_xyz
x,y,z
-x,-y,-z
loop_
_atom_site_type_symbol
_atom_site_label
_atom_site_fract_x
_atom_site_fract_y
_atom_site_fract_z
Si Si1 0.681586 0.921345 0.324041
Si Si2 0.326284 0.648853 0.015476
Si Si3 0.274331 0.236090 0.544563
Si Si4 0.737207 0.145010 0.848300
Si Si5 0.071705 0.703114 0.493253
Si Si6 0.910420 0.183480 0.990856
Si Si7 0.878833 0.947489 0.719477
Si Si8 0.729452 0.531627 0.723954
O O1 0.749064 0.872242 0.345945
O O2 0.456467 0.680435 0.334741
O O3 0.737827 0.077089 0.452480
O O4 0.807295 0.070514 0.162033
O O5 0.290586 0.744884 0.121654
O O6 0.333324 0.569817 0.117400
O O7 0.141840 0.424322 0.958452
O O8 0.528110 0.866876 0.886126
O O9 0.500000 0.500000 0.500000
O O10 0.221930 0.125191 0.391693
O O11 0.111786 0.171166 0.630564
O O12 0.872551 0.234093 0.678553
O O13 0.835657 0.220125 0.962879
O O14 0.000000 0.500000 0.500000
O O15 0.906413 0.627645 0.607208
O O16 0.849822 0.011876 0.876129
O O17 0.796164 0.734721 0.740186
#
# Coordination Sequence:
#
# PCOD9061300 Si02
#       8
#     2   2   2   2   2   2   2   2
#     4  12  25  44  71  99 139 183 229 282 346 409
#     4  11  24  47  71 101 142 178 228 290 335 410
#     4  11  23  45  66  97 135 181 221 284 341 401
#     4  11  25  45  72 104 137 178 234 280 345 406
#     4  12  25  47  71 102 139 181 228 290 341 407
#     4  12  25  44  71 103 135 184 229 283 347 404
#     4  11  26  43  71 100 137 177 234 282 341 414
#     4  12  24  47  69 101 140 182 231 281 342 414
#
# _framework density 21.155462
#
# number of rings (size 3 to 8) (size 9 to 14) (size 15 to 20)
#    0.000    0.500    6.250    1.125    1.750    6.000 
#    0.000    0.000    0.000    0.000    0.000    0.000 
#    0.000    0.000    0.000    0.000    0.000    0.000 
#
# Total GULP energy -89517.239967 kJ/mol
# GULP energy per Si atom -5594.827498 kJ/mol
# Density = 2.110731 g / cm^3
# Si number density = 21.155462 Si / 1000 Ang^3
#
#
#
# Elastic Constant Matrix: (Units=GPa)
#
#
# Indices 1 2 3 4 5 6 
#
# 1 63.9913 30.3831 4.0129 -3.9405 18.6925 7.2427
# 2 30.3831 101.5688 8.6037 3.2761 10.8699 26.5148
# 3 4.0129 8.6037 64.3797 -19.0329 22.8591 -5.6289
# 4 -3.9405 3.2761 -19.0329 23.0347 -6.5709 12.2628
# 5 18.6925 10.8699 22.8591 -6.5709 37.0651 7.4864
# 6 7.2427 26.5148 -5.6289 12.2628 7.4864 36.3833
#
#
#
# Elastic Compliance Matrix: (Units=1/GPa)
#
#
# Indices 1 2 3 4 5 6 
#
# 1 0.021889 -0.006396 0.005268 0.004455 -0.012046 0.002096
# 2 -0.006396 0.014471 -0.003497 0.000651 0.003422 -0.010737
# 3 0.005268 -0.003497 0.026580 0.017348 -0.015547 0.002964
# 4 0.004455 0.000651 0.017348 0.072537 0.004584 -0.024069
# 5 -0.012046 0.003422 -0.015547 0.004584 0.045145 -0.013336
# 6 0.002096 -0.010737 0.002964 -0.024069 -0.013336 0.046208
#
#
# Mechanical properties :
#
#
# Convention : Reuss Voigt Hill
#
# Bulk Modulus (GPa) = 18.62552 35.10436 26.86494
# Shear Modulus (GPa) = 19.68688 31.75929 25.72309
#
# Velocity S-wave (km/s) = 3.05385 3.87878 3.49077
# Velocity P-wave (km/s) = 4.61063 6.05718 5.38272
#
# Compressibility (1/GPa) = 0.05368977
#
# Stress axis : x y z
#
# Youngs Moduli (GPa) = 45.68448 69.10551 37.62277
#
# Poissons Ratio (x) = 0.44198 -0.19818
# Poissons Ratio (y) = 0.29219 0.13156
# Poissons Ratio (z) = -0.24065 0.24164
#
# Static dielectric constant tensor:
#      x y z
#    x 1.774440 -0.007080 0.000620 
#    y -0.007080 1.776740 -0.005680 
#    z 0.000620 -0.005680 1.725630 
# 
# From -- ./inp_files/307994.got.cif
#   From: 2010.05.17/outbox.cif.g08.bks.cpg/sg2_154_cif.got.tgz:307994.got - 2010.06.03 11:33:40.
