data_PCOD9061270
_publ_section_title
;
Structure prediction by ZEFSAII (Michael W. Deem and Ramdas Pophale) SiO2 
 PCOD9061270
Probable space group: P -1
;
_chemical_formula_sum "Si O2"
_cell_formula_units_Z 16
_cell_length_a 8.642637
_cell_length_b 11.711809
_cell_length_c 8.584272
_cell_angle_alpha 103.900420
_cell_angle_beta 86.717964
_cell_angle_gamma 130.633977
_cell_volume 634.260908
_symmetry_space_group_name_H-M "P -1"
_symmetry_group_IT_number 2
_symmetry_cell_setting 'triclinic'
loop_
_space_group_symop_operation_xyz
x,y,z
-x,-y,-z
loop_
_atom_site_type_symbol
_atom_site_label
_atom_site_fract_x
_atom_site_fract_y
_atom_site_fract_z
Si Si1 0.870533 0.944365 0.652963
Si Si2 0.935016 0.830107 0.878905
Si Si3 0.169452 0.518824 0.665392
Si Si4 0.491622 0.338785 0.570970
Si Si5 0.524393 0.916683 0.335229
Si Si6 0.696193 0.074440 0.894075
Si Si7 0.508830 0.436187 0.139172
Si Si8 0.086803 0.731190 0.633118
O O1 0.998254 0.970934 0.808966
O O2 0.700716 0.763035 0.566420
O O3 0.731017 0.986113 0.732156
O O4 0.000000 0.000000 0.500000
O O5 0.701969 0.743592 0.913152
O O6 0.906549 0.707068 0.723055
O O7 0.100571 0.855264 0.994884
O O8 0.317504 0.580235 0.527228
O O9 0.290888 0.539576 0.818193
O O10 0.129901 0.637583 0.702432
O O11 0.974765 0.344160 0.561070
O O12 0.469251 0.211653 0.640247
O O13 0.479994 0.452482 0.701560
O O14 0.344899 0.837514 0.191000
O O15 0.500000 0.000000 0.500000
O O16 0.734527 0.081070 0.311268
O O17 0.500000 0.000000 0.000000
O O18 0.500000 0.500000 0.000000
#
# Coordination Sequence:
#
# PCOD9061270 Si02
#       8
#     2   2   2   2   2   2   2   2
#     4  12  27  46  79 116 153 201 269 321 389 478
#     4  12  26  47  73 109 157 199 258 320 402 461
#     4  11  23  47  79 103 148 199 259 316 387 463
#     4  12  24  47  77 105 147 201 257 321 379 462
#     4  12  24  45  74 113 150 195 267 316 383 469
#     4  12  28  47  73 110 161 208 248 324 400 462
#     4  12  29  49  72 107 154 205 257 321 396 470
#     4  11  23  44  78 110 144 198 255 318 385 462
#
# _framework density 25.226212
#
# number of rings (size 3 to 8) (size 9 to 14) (size 15 to 20)
#    0.000    0.250    6.250    2.250    1.750    3.000 
#    0.000    1.250    0.000    0.000    0.000    0.000 
#    0.000    0.000    0.000    0.000    0.000    0.000 
#
# Total GULP energy -89147.859216 kJ/mol
# GULP energy per Si atom -5571.741201 kJ/mol
# Density = 2.516880 g / cm^3
# Si number density = 25.226212 Si / 1000 Ang^3
#
#
#
# Elastic Constant Matrix: (Units=GPa)
#
#
# Indices 1 2 3 4 5 6 
#
# 1 141.0859 20.6081 44.1752 -1.9670 42.4661 -24.6042
# 2 20.6081 73.1492 26.9323 3.0261 18.0334 -8.9164
# 3 44.1752 26.9323 90.3469 -7.9934 43.8057 -3.1659
# 4 -1.9670 3.0261 -7.9934 36.1674 -8.4062 3.3988
# 5 42.4661 18.0334 43.8057 -8.4062 75.2669 -8.6001
# 6 -24.6042 -8.9164 -3.1659 3.3988 -8.6001 30.2433
#
#
#
# Elastic Compliance Matrix: (Units=1/GPa)
#
#
# Indices 1 2 3 4 5 6 
#
# 1 0.010383 0.000101 -0.003429 -0.001646 -0.003226 0.007385
# 2 0.000101 0.016227 -0.004412 -0.003022 -0.001212 0.004400
# 3 -0.003429 -0.004412 0.017834 0.002797 -0.007613 -0.004703
# 4 -0.001646 -0.003022 0.002797 0.029503 0.002811 -0.004453
# 5 -0.003226 -0.001212 -0.007613 0.002811 0.020334 0.001687
# 6 0.007385 0.004400 -0.004703 -0.004453 0.001687 0.040859
#
#
# Mechanical properties :
#
#
# Convention : Reuss Voigt Hill
#
# Bulk Modulus (GPa) = 34.52692 54.22368 44.37530
# Shear Modulus (GPa) = 31.19644 42.52660 36.86152
#
# Velocity S-wave (km/s) = 3.52044 4.11032 3.82676
# Velocity P-wave (km/s) = 5.49921 6.63837 6.09546
#
# Compressibility (1/GPa) = 0.02896291
#
# Stress axis : x y z
#
# Youngs Moduli (GPa) = 96.31143 61.62645 56.07183
#
# Poissons Ratio (x) = -0.00623 0.19229
# Poissons Ratio (y) = -0.00974 0.24741
# Poissons Ratio (z) = 0.33029 0.27192
#
# Static dielectric constant tensor:
#      x y z
#    x 1.951460 -0.197470 0.151050 
#    y -0.197470 1.522790 0.304510 
#    z 0.151050 0.304510 1.873650 
# 
# From -- ./inp_files/188577.got.cif
#   From: 2010.05.17/outbox.cif.g08.bks.cpg/sg2_95_cif.got.tgz:188577.got - 2010.06.03 11:33:40.
