data_PCOD9061136
_publ_section_title
;
Structure prediction by ZEFSAII (Michael W. Deem and Ramdas Pophale) SiO2 
 PCOD9061136
Probable space group: P -1
;
_chemical_formula_sum "Si O2"
_cell_formula_units_Z 13
_cell_length_a 10.024276
_cell_length_b 20.363997
_cell_length_c 16.602831
_cell_angle_alpha 160.775561
_cell_angle_beta 48.394488
_cell_angle_gamma 142.626887
_cell_volume 610.852622
_symmetry_space_group_name_H-M "P -1"
_symmetry_group_IT_number 2
_symmetry_cell_setting 'triclinic'
loop_
_space_group_symop_operation_xyz
x,y,z
-x,-y,-z
loop_
_atom_site_type_symbol
_atom_site_label
_atom_site_fract_x
_atom_site_fract_y
_atom_site_fract_z
Si Si1 0.468526 0.408100 0.190964
Si Si2 0.145173 0.386731 0.013169
Si Si3 0.000000 0.000000 0.000000
Si Si4 0.844838 0.339440 0.956116
Si Si5 0.778978 0.177987 0.198069
Si Si6 0.696975 0.942607 0.782252
Si Si7 0.410805 0.280872 0.665166
O O1 0.574998 0.632868 0.479127
O O2 0.520471 0.565827 0.269483
O O3 0.623686 0.325100 0.031231
O O4 0.182663 0.172803 0.048777
O O5 0.268235 0.336552 0.839831
O O6 0.024907 0.482327 0.126349
O O7 0.348560 0.594858 0.237716
O O8 0.931431 0.111479 0.827520
O O9 0.190931 0.980517 0.936817
O O10 0.747188 0.038933 0.648151
O O11 0.000000 0.500000 0.000000
O O12 0.517046 0.086319 0.204866
O O13 0.000000 0.500000 0.500000
O O14 0.774912 0.098638 0.015843
#
# Coordination Sequence:
#
# PCOD9061136 Si02
#       7
#     2   2   1   2   2   2   2
#     4  12  25  46  69 105 145 184 236 291 348 416
#     4  11  23  44  73 103 140 191 230 284 357 420
#     4  12  26  42  72 102 136 186 238 288 344 410
#     4  12  24  45  72 104 143 188 232 289 349 420
#     4  11  25  50  70 100 143 181 237 298 352 414
#     4  11  24  46  75  99 140 191 230 288 361 418
#     4  11  25  47  69 103 150 183 231 292 351 413
#
# _framework density 21.281731000000001
#
# number of rings (size 3 to 8) (size 9 to 14) (size 15 to 20)
#    0.000    0.615    4.615    3.231    0.000    1.231 
#    8.308    0.000    0.000    0.000    0.000    0.000 
#    0.000    0.000    0.000    0.000    0.000    0.000 
#
# Total GULP energy -72461.087074 kJ/mol
# GULP energy per Si atom -5573.929775 kJ/mol
# Density = 2.123329 g / cm^3
# Si number density = 21.281731 Si / 1000 Ang^3
#
#
#
# Elastic Constant Matrix: (Units=GPa)
#
#
# Indices 1 2 3 4 5 6 
#
# 1 114.6843 9.7617 33.4387 15.7176 5.2142 1.0710
# 2 9.7617 112.9283 7.1370 12.6449 0.8190 3.6561
# 3 33.4387 7.1370 41.0987 -1.4409 12.7030 -3.2153
# 4 15.7176 12.6449 -1.4409 24.2492 -1.5259 1.8910
# 5 5.2142 0.8190 12.7030 -1.5259 33.7137 5.4557
# 6 1.0710 3.6561 -3.2153 1.8910 5.4557 28.9544
#
#
#
# Elastic Compliance Matrix: (Units=1/GPa)
#
#
# Indices 1 2 3 4 5 6 
#
# 1 0.013455 0.000722 -0.012284 -0.009539 0.002386 -0.001780
# 2 0.000722 0.009621 -0.002756 -0.005505 0.000656 -0.001312
# 3 -0.012284 -0.002756 0.039991 0.010349 -0.013793 0.007166
# 4 -0.009539 -0.005505 0.010349 0.051011 0.000208 -0.001174
# 5 0.002386 0.000656 -0.013793 0.000208 0.035854 -0.008472
# 6 -0.001780 -0.001312 0.007166 -0.001174 -0.008472 0.037237
#
#
# Mechanical properties :
#
#
# Convention : Reuss Voigt Hill
#
# Bulk Modulus (GPa) = 29.04413 41.04290 35.04351
# Shear Modulus (GPa) = 21.99891 31.94175 26.97033
#
# Velocity S-wave (km/s) = 3.21861 3.87835 3.56378
# Velocity P-wave (km/s) = 5.24306 6.27557 5.78241
#
# Compressibility (1/GPa) = 0.03443036
#
# Stress axis : x y z
#
# Youngs Moduli (GPa) = 74.32076 103.93825 25.00543
#
# Poissons Ratio (x) = -0.07500 0.30716
# Poissons Ratio (y) = -0.05363 0.06892
# Poissons Ratio (z) = 0.91295 0.28649
#
# Static dielectric constant tensor:
#      x y z
#    x 1.779190 0.005640 0.022930 
#    y 0.005640 1.757410 0.008130 
#    z 0.022930 0.008130 1.786810 
# 
# From -- ./inp_files/562733.got.cif
#   From: 2010.05.17/outbox.cif.g08.bks.cpg/sg2_282_cif.got.tgz:562733.got - 2010.06.03 11:33:40.
