data_PCOD9061405
_publ_section_title
;
Structure prediction by ZEFSAII (Michael W. Deem and Ramdas Pophale) SiO2 
 PCOD9061405
Probable space group: P -1
;
_chemical_formula_sum "Si O2"
_cell_formula_units_Z 14
_cell_length_a 12.026166
_cell_length_b 22.669878
_cell_length_c 5.046970
_cell_angle_alpha 111.297443
_cell_angle_beta 122.156138
_cell_angle_gamma 28.299108
_cell_volume 532.859245
_symmetry_space_group_name_H-M "P -1"
_symmetry_group_IT_number 2
_symmetry_cell_setting 'triclinic'
loop_
_space_group_symop_operation_xyz
x,y,z
-x,-y,-z
loop_
_atom_site_type_symbol
_atom_site_label
_atom_site_fract_x
_atom_site_fract_y
_atom_site_fract_z
Si Si1 0.198030 0.251750 0.968530
Si Si2 0.176150 0.689415 0.118999
Si Si3 0.822039 0.057169 0.111292
Si Si4 0.271221 0.420536 0.814878
Si Si5 0.343337 0.012796 0.147029
Si Si6 0.612873 0.692589 0.709121
Si Si7 0.253753 0.545970 0.646332
O O1 0.975651 0.301922 0.903318
O O2 0.043664 0.340003 0.654654
O O3 0.448092 0.099159 0.994824
O O4 0.287373 0.281682 0.242414
O O5 0.480568 0.577580 0.397499
O O6 0.236616 0.628672 0.818537
O O7 0.949016 0.838194 0.061074
O O8 0.569864 0.204193 0.115784
O O9 0.000000 0.000000 0.500000
O O10 0.723365 0.027371 0.878734
O O11 0.000000 0.000000 0.000000
O O12 0.481222 0.303730 0.669816
O O13 0.277813 0.490095 0.839943
O O14 0.000000 0.500000 0.500000
O O15 0.255886 0.415643 0.104384
O O16 0.500000 0.000000 0.500000
#
# Coordination Sequence:
#
# PCOD9061405 Si02
#       7
#     2   2   2   2   2   2   2
#     4  11  23  45  70 101 138 190 240 309 360 451
#     4  11  25  44  68 103 140 187 241 307 370 434
#     4  11  27  50  76 113 153 195 251 322 381 448
#     4  12  24  44  70 106 140 195 241 304 366 452
#     4  11  25  48  76 108 144 201 255 302 378 458
#     4  11  26  43  75 102 147 190 249 298 377 448
#     4  11  25  42  68 101 145 179 246 302 369 430
#
# _framework density 26.273353
#
# number of rings (size 3 to 8) (size 9 to 14) (size 15 to 20)
#    0.000    0.857    2.857    3.000    6.000    3.429 
#    0.000    0.000    0.000    0.000    0.000    0.000 
#    0.000    0.000    0.000    0.000    0.000    0.000 
#
# Total GULP energy -77992.418919 kJ/mol
# GULP energy per Si atom -5570.887066 kJ/mol
# Density = 2.621355 g / cm^3
# Si number density = 26.273353 Si / 1000 Ang^3
#
#
#
# Elastic Constant Matrix: (Units=GPa)
#
#
# Indices 1 2 3 4 5 6 
#
# 1 136.2044 35.7890 3.8916 12.3790 -15.4768 -35.0422
# 2 35.7890 182.6541 28.8788 11.9875 2.1843 -7.6608
# 3 3.8916 28.8788 63.9997 15.7133 -4.9919 -1.1922
# 4 12.3790 11.9875 15.7133 34.9376 4.8439 12.4900
# 5 -15.4768 2.1843 -4.9919 4.8439 44.2415 -0.8268
# 6 -35.0422 -7.6608 -1.1922 12.4900 -0.8268 39.8321
#
#
#
# Elastic Compliance Matrix: (Units=1/GPa)
#
#
# Indices 1 2 3 4 5 6 
#
# 1 0.013833 -0.001917 0.004013 -0.012778 0.007086 0.016075
# 2 -0.001917 0.006280 -0.002897 0.000255 -0.001348 -0.000673
# 3 0.004013 -0.002897 0.020503 -0.013208 0.005453 0.007842
# 4 -0.012778 0.000255 -0.013208 0.050571 -0.012027 -0.027694
# 5 0.007086 -0.001348 0.005453 -0.012027 0.027276 0.010475
# 6 0.016075 -0.000673 0.007842 -0.027694 0.010475 0.048254
#
#
# Mechanical properties :
#
#
# Convention : Reuss Voigt Hill
#
# Bulk Modulus (GPa) = 25.63236 57.77523 41.70379
# Shear Modulus (GPa) = 27.57509 44.75551 36.16530
#
# Velocity S-wave (km/s) = 3.24318 4.13177 3.71415
# Velocity P-wave (km/s) = 4.87868 6.69327 5.85668
#
# Compressibility (1/GPa) = 0.03901318
#
# Stress axis : x y z
#
# Youngs Moduli (GPa) = 72.29065 159.24480 48.77379
#
# Poissons Ratio (x) = 0.30525 -0.19574
# Poissons Ratio (y) = 0.13857 0.14132
# Poissons Ratio (z) = -0.29011 0.46140
#
# Static dielectric constant tensor:
#      x y z
#    x 1.888470 -0.987670 0.001120 
#    y -0.987670 -1.194000 0.097730 
#    z 0.001120 0.097730 2.229590 
# 
# From -- ./inp_files/83347.got.cif
#   From: 2010.05.17/outbox.cif.g08.bks.cpg/sg2_42_cif.got.tgz:83347.got - 2010.06.03 11:33:40.
