data_PCOD9061583
_publ_section_title
;
Structure prediction by ZEFSAII (Michael W. Deem and Ramdas Pophale) SiO2 
 PCOD9061583
Probable space group: P -1
;
_chemical_formula_sum "Si O2"
_cell_formula_units_Z 16
_cell_length_a 17.905457
_cell_length_b 8.580578
_cell_length_c 12.173247
_cell_angle_alpha 105.131148
_cell_angle_beta 135.263400
_cell_angle_gamma 40.444568
_cell_volume 675.168800
_symmetry_space_group_name_H-M "P -1"
_symmetry_group_IT_number 2
_symmetry_cell_setting 'triclinic'
loop_
_space_group_symop_operation_xyz
x,y,z
-x,-y,-z
loop_
_atom_site_type_symbol
_atom_site_label
_atom_site_fract_x
_atom_site_fract_y
_atom_site_fract_z
Si Si1 0.266896 0.194015 0.698568
Si Si2 0.785924 0.367326 0.342458
Si Si3 0.048187 0.288361 0.929750
Si Si4 0.399396 0.454388 0.032932
Si Si5 0.968968 0.532020 0.280194
Si Si6 0.768985 0.352626 0.727554
Si Si7 0.869859 0.322881 0.045780
Si Si8 0.479595 0.388156 0.695005
O O1 0.208447 0.456240 0.666257
O O2 0.170119 0.250186 0.720237
O O3 0.174400 0.227577 0.501038
O O4 0.495401 0.852481 0.888524
O O5 0.669128 0.519427 0.363683
O O6 0.641629 0.465022 0.122015
O O7 0.000000 0.000000 0.500000
O O8 0.286953 0.956966 0.122728
O O9 0.003291 0.376140 0.770059
O O10 0.000000 0.500000 0.000000
O O11 0.909801 0.318751 0.828791
O O12 0.523344 0.430548 0.220247
O O13 0.183727 0.713351 0.910900
O O14 0.876095 0.499513 0.115667
O O15 0.600658 0.529652 0.496726
O O16 0.714080 0.476111 0.816186
O O17 0.910766 0.013756 0.824499
#
# Coordination Sequence:
#
# PCOD9061583 Si02
#       8
#     2   2   2   2   2   2   2   2
#     4  11  26  42  72 104 139 189 239 293 363 430
#     4  12  27  45  74 106 152 192 235 298 367 432
#     4  12  26  47  72 104 146 193 239 300 359 430
#     4  12  25  45  71 107 141 187 246 293 359 435
#     4  11  24  44  68  99 143 183 237 290 362 420
#     4  11  25  48  70 103 138 190 243 297 362 422
#     4  11  23  45  73  95 145 185 238 304 355 425
#     4  12  28  45  74 105 146 189 244 298 361 428
#
# _framework density 23.697778
#
# number of rings (size 3 to 8) (size 9 to 14) (size 15 to 20)
#    0.000    0.500    3.750    3.750    7.000    2.000 
#    0.000    0.000    0.000    0.000    0.000    0.000 
#    0.000    0.000    0.000    0.000    0.000    0.000 
#
# Total GULP energy -89455.385633 kJ/mol
# GULP energy per Si atom -5590.961602 kJ/mol
# Density = 2.364384 g / cm^3
# Si number density = 23.697778 Si / 1000 Ang^3
#
#
#
# Elastic Constant Matrix: (Units=GPa)
#
#
# Indices 1 2 3 4 5 6 
#
# 1 72.0963 7.7483 0.6478 3.2275 -10.9008 -0.1985
# 2 7.7483 81.0353 46.1491 0.5837 -7.6217 5.6177
# 3 0.6478 46.1491 139.1087 10.3226 -23.6559 -4.5927
# 4 3.2275 0.5837 10.3226 44.6553 -6.3681 -2.8256
# 5 -10.9008 -7.6217 -23.6559 -6.3681 40.0735 11.0297
# 6 -0.1985 5.6177 -4.5927 -2.8256 11.0297 26.4132
#
#
#
# Elastic Compliance Matrix: (Units=1/GPa)
#
#
# Indices 1 2 3 4 5 6 
#
# 1 0.014775 -0.001592 0.001274 -0.000755 0.004729 -0.001385
# 2 -0.001592 0.015935 -0.005358 0.000977 0.000852 -0.004584
# 3 0.001274 -0.005358 0.009905 -0.001592 0.004721 0.000730
# 4 -0.000755 0.000977 -0.001592 0.023216 0.002464 0.000964
# 5 0.004729 0.000852 0.004721 0.002464 0.033130 -0.012896
# 6 -0.001385 -0.004584 0.000730 0.000964 -0.012896 0.044439
#
#
# Mechanical properties :
#
#
# Convention : Reuss Voigt Hill
#
# Bulk Modulus (GPa) = 34.17287 44.59229 39.38258
# Shear Modulus (GPa) = 30.76792 38.07473 34.42133
#
# Velocity S-wave (km/s) = 3.60717 4.01269 3.81532
# Velocity P-wave (km/s) = 5.63919 6.35034 6.00530
#
# Compressibility (1/GPa) = 0.02926298
#
# Stress axis : x y z
#
# Youngs Moduli (GPa) = 67.68174 62.75646 100.95723
#
# Poissons Ratio (x) = 0.09990 -0.12861
# Poissons Ratio (y) = 0.10775 0.54091
# Poissons Ratio (z) = -0.08622 0.33624
#
# Static dielectric constant tensor:
#      x y z
#    x 1.939680 0.004220 0.018370 
#    y 0.004220 1.948020 0.022540 
#    z 0.018370 0.022540 1.902130 
# 
# From -- ./inp_files/462239.got.cif
#   From: 2010.05.17/outbox.cif.g08.bks.cpg/sg2_232_cif.got.tgz:462239.got - 2010.06.03 11:33:40.
