data_PCOD9061834
_publ_section_title
;
Structure prediction by ZEFSAII (Michael W. Deem and Ramdas Pophale) SiO2 
 PCOD9061834
Probable space group: P -1
;
_chemical_formula_sum "Si O2"
_cell_formula_units_Z 14
_cell_length_a 13.330980
_cell_length_b 9.247503
_cell_length_c 15.735101
_cell_angle_alpha 131.301868
_cell_angle_beta 25.296547
_cell_angle_gamma 128.388328
_cell_volume 620.911306
_symmetry_space_group_name_H-M "P -1"
_symmetry_group_IT_number 2
_symmetry_cell_setting 'triclinic'
loop_
_space_group_symop_operation_xyz
x,y,z
-x,-y,-z
loop_
_atom_site_type_symbol
_atom_site_label
_atom_site_fract_x
_atom_site_fract_y
_atom_site_fract_z
Si Si1 0.140052 0.842087 0.379082
Si Si2 0.013007 0.502167 0.756182
Si Si3 0.332139 0.052749 0.954351
Si Si4 0.062533 0.710185 0.571649
Si Si5 0.840588 0.365262 0.006087
Si Si6 0.241903 0.128223 0.868921
Si Si7 0.547120 0.342526 0.607602
O O1 0.098031 0.841944 0.512001
O O2 0.045356 0.636325 0.332401
O O3 0.419381 0.883121 0.167548
O O4 0.000000 0.000000 0.500000
O O5 0.263214 0.625111 0.600359
O O6 0.821431 0.656937 0.973779
O O7 0.987491 0.369461 0.807675
O O8 0.371047 0.049234 0.821300
O O9 0.141292 0.203838 0.183161
O O10 0.228142 0.844300 0.985074
O O11 0.290649 0.686467 0.445514
O O12 0.000000 0.500000 0.500000
O O13 0.600716 0.469842 0.212781
O O14 0.000000 0.500000 0.000000
O O15 0.356621 0.161381 0.700350
O O16 0.000000 0.000000 0.000000
#
# Coordination Sequence:
#
# PCOD9061834 Si02
#       7
#     2   2   2   2   2   2   2
#     4  12  26  43  71 107 144 179 230 289 353 422
#     4  11  24  45  70 100 136 183 231 277 357 409
#     4  12  25  43  72 103 140 184 231 290 351 407
#     4  12  25  43  71 107 141 184 229 282 354 421
#     4  11  27  49  69  98 143 185 236 289 345 410
#     4  11  24  44  69 101 135 179 236 286 334 410
#     4  11  23  46  71  98 141 179 234 283 344 415
#
# _framework density 22.547504
#
# number of rings (size 3 to 8) (size 9 to 14) (size 15 to 20)
#    0.000    0.571    4.286    3.429    4.000    3.429 
#    2.571    0.000    0.000    0.000    0.000    0.000 
#    0.000    0.000    0.000    0.000    0.000    0.000 
#
# Total GULP energy -78218.991093 kJ/mol
# GULP energy per Si atom -5587.070792 kJ/mol
# Density = 2.249618 g / cm^3
# Si number density = 22.547504 Si / 1000 Ang^3
#
#
#
# Elastic Constant Matrix: (Units=GPa)
#
#
# Indices 1 2 3 4 5 6 
#
# 1 59.1736 16.8960 16.6007 4.5626 -8.5295 -14.7344
# 2 16.8960 117.0868 34.1555 -10.5280 0.0255 -27.2689
# 3 16.6007 34.1555 95.1399 -6.2727 -8.0516 -11.2264
# 4 4.5626 -10.5280 -6.2727 48.2895 -9.7207 4.8260
# 5 -8.5295 0.0255 -8.0516 -9.7207 43.0836 -7.6878
# 6 -14.7344 -27.2689 -11.2264 4.8260 -7.6878 41.6729
#
#
#
# Elastic Compliance Matrix: (Units=1/GPa)
#
#
# Indices 1 2 3 4 5 6 
#
# 1 0.020326 -0.000840 -0.002180 -0.002215 0.004387 0.007115
# 2 -0.000840 0.011093 -0.002943 0.001654 0.000741 0.006114
# 3 -0.002180 -0.002943 0.012358 0.001562 0.002392 0.000893
# 4 -0.002215 0.001654 0.001562 0.022540 0.004757 -0.001013
# 5 0.004387 0.000741 0.002392 0.004757 0.026863 0.007085
# 6 0.007115 0.006114 0.000893 -0.001013 0.007085 0.032178
#
#
# Mechanical properties :
#
#
# Convention : Reuss Voigt Hill
#
# Bulk Modulus (GPa) = 31.39568 45.18941 38.29254
# Shear Modulus (GPa) = 33.80641 40.19243 36.99942
#
# Velocity S-wave (km/s) = 3.87633 4.22663 4.05526
# Velocity P-wave (km/s) = 5.83002 6.62605 6.24074
#
# Compressibility (1/GPa) = 0.03185152
#
# Stress axis : x y z
#
# Youngs Moduli (GPa) = 49.19854 90.14903 80.91668
#
# Poissons Ratio (x) = 0.07573 0.17641
# Poissons Ratio (y) = 0.04133 0.23810
# Poissons Ratio (z) = 0.10726 0.26526
#
# Static dielectric constant tensor:
#      x y z
#    x 1.849800 -0.015090 0.039440 
#    y -0.015090 1.851320 -0.047210 
#    z 0.039440 -0.047210 1.908890 
# 
# From -- ./inp_files/335665.got.cif
#   From: 2010.05.17/outbox.cif.g08.bks.cpg/sg2_168_cif.got.tgz:335665.got - 2010.06.03 11:33:40.
