data_PCOD9061995
_publ_section_title
;
Structure prediction by ZEFSAII (Michael W. Deem and Ramdas Pophale) SiO2 
 PCOD9061995
Probable space group: P -1
;
_chemical_formula_sum "Si O2"
_cell_formula_units_Z 14
_cell_length_a 7.479239
_cell_length_b 17.978087
_cell_length_c 9.634739
_cell_angle_alpha 34.392459
_cell_angle_beta 59.795051
_cell_angle_gamma 47.906484
_cell_volume 539.131195
_symmetry_space_group_name_H-M "P -1"
_symmetry_group_IT_number 2
_symmetry_cell_setting 'triclinic'
loop_
_space_group_symop_operation_xyz
x,y,z
-x,-y,-z
loop_
_atom_site_type_symbol
_atom_site_label
_atom_site_fract_x
_atom_site_fract_y
_atom_site_fract_z
Si Si1 0.836389 0.937688 0.795265
Si Si2 0.458838 0.561828 0.691010
Si Si3 0.892150 0.328645 0.086336
Si Si4 0.324746 0.209091 0.466897
Si Si5 0.205998 0.331860 0.623539
Si Si6 0.856179 0.016562 0.171038
Si Si7 0.629928 0.674063 0.024363
O O1 0.583140 0.078019 0.627492
O O2 0.198433 0.190953 0.912799
O O3 0.974904 0.986048 0.769893
O O4 0.000305 0.843239 0.746385
O O5 0.541649 0.676802 0.429588
O O6 0.240761 0.639401 0.764954
O O7 0.403532 0.471657 0.735628
O O8 0.690487 0.438473 0.883362
O O9 0.121055 0.350172 0.976877
O O10 0.191160 0.313471 0.491884
O O11 0.198609 0.120022 0.596393
O O12 0.360239 0.295391 0.191957
O O13 0.000000 0.500000 0.500000
O O14 0.598620 0.176089 0.049378
O O15 0.000000 0.000000 0.000000
#
# Coordination Sequence:
#
# PCOD9061995 Si02
#       7
#     2   2   2   2   2   2   2
#     4  12  26  50  77 108 155 200 250 317 382 445
#     4  11  25  48  75 112 147 201 253 308 385 445
#     4  11  23  46  77 107 151 194 251 316 371 448
#     4  12  28  48  77 110 155 199 255 312 377 452
#     4  12  25  48  78 108 150 201 250 312 379 450
#     4  12  26  46  72 110 153 195 247 304 383 451
#     4  12  26  49  75 114 151 197 256 315 370 456
#
# _framework density 25.967703
#
# number of rings (size 3 to 8) (size 9 to 14) (size 15 to 20)
#    0.000    0.286    5.714    3.000    0.000    2.857 
#    0.000    2.143    0.000    0.000    0.000    0.000 
#    0.000    0.000    0.000    0.000    0.000    0.000 
#
# Total GULP energy -78685.988009 kJ/mol
# GULP energy per Si atom -5620.427715 kJ/mol
# Density = 2.590860 g / cm^3
# Si number density = 25.967703 Si / 1000 Ang^3
#
#
#
# Elastic Constant Matrix: (Units=GPa)
#
#
# Indices 1 2 3 4 5 6 
#
# 1 221.1346 69.9928 64.0843 -17.5918 -27.9305 1.0428
# 2 69.9928 201.0625 50.7249 -4.1382 -2.2485 9.7324
# 3 64.0843 50.7249 107.5920 7.7033 -23.1456 8.8771
# 4 -17.5918 -4.1382 7.7033 42.0665 3.0916 -7.5862
# 5 -27.9305 -2.2485 -23.1456 3.0916 63.2574 -11.5361
# 6 1.0428 9.7324 8.8771 -7.5862 -11.5361 51.9974
#
#
#
# Elastic Compliance Matrix: (Units=1/GPa)
#
#
# Indices 1 2 3 4 5 6 
#
# 1 0.006333 -0.001413 -0.003088 0.003221 0.001736 0.001520
# 2 -0.001413 0.006079 -0.002277 0.000352 -0.001439 -0.000989
# 3 -0.003088 -0.002277 0.013397 -0.004525 0.003366 -0.001712
# 4 0.003221 0.000352 -0.004525 0.026828 -0.000731 0.004394
# 5 0.001736 -0.001439 0.003366 -0.000731 0.018456 0.003648
# 6 0.001520 -0.000989 -0.001712 0.004394 0.003648 0.021129
#
#
# Mechanical properties :
#
#
# Convention : Reuss Voigt Hill
#
# Bulk Modulus (GPa) = 81.62635 99.93257 90.77946
# Shear Modulus (GPa) = 45.51089 54.46340 49.98714
#
# Velocity S-wave (km/s) = 4.19094 4.58465 4.39221
# Velocity P-wave (km/s) = 7.41085 8.16041 7.79465
#
# Compressibility (1/GPa) = 0.01225095
#
# Stress axis : x y z
#
# Youngs Moduli (GPa) = 157.90934 164.49842 74.64411
#
# Poissons Ratio (x) = 0.23248 0.23052
# Poissons Ratio (y) = 0.22316 0.16999
# Poissons Ratio (z) = 0.48767 0.37462
#
# Static dielectric constant tensor:
#      x y z
#    x 1.988010 -0.008040 -0.008630 
#    y -0.008040 2.011570 0.018490 
#    z -0.008630 0.018490 2.100270 
# 
# From -- ./inp_files/400330.got.cif
#   From: 2010.05.17/outbox.cif.g08.bks.cpg/sg2_201_cif.got.tgz:400330.got - 2010.06.03 11:33:40.
