data_PCOD9061638
_publ_section_title
;
Structure prediction by ZEFSAII (Michael W. Deem and Ramdas Pophale) SiO2 
 PCOD9061638
Probable space group: P -1
;
_chemical_formula_sum "Si O2"
_cell_formula_units_Z 12
_cell_length_a 7.513998
_cell_length_b 9.237939
_cell_length_c 13.935587
_cell_angle_alpha 150.096070
_cell_angle_beta 107.766802
_cell_angle_gamma 67.982251
_cell_volume 446.672055
_symmetry_space_group_name_H-M "P -1"
_symmetry_group_IT_number 2
_symmetry_cell_setting 'triclinic'
loop_
_space_group_symop_operation_xyz
x,y,z
-x,-y,-z
loop_
_atom_site_type_symbol
_atom_site_label
_atom_site_fract_x
_atom_site_fract_y
_atom_site_fract_z
Si Si1 0.632005 0.168735 0.216491
Si Si2 0.939435 0.350549 0.809454
Si Si3 0.870702 0.778630 0.877328
Si Si4 0.050621 0.729245 0.532681
Si Si5 0.620561 0.694987 0.394843
Si Si6 0.479616 0.384553 0.037518
O O1 0.836427 0.197921 0.313709
O O2 0.537786 0.504247 0.354894
O O3 0.692977 0.957160 0.012253
O O4 0.541202 0.958589 0.152635
O O5 0.972254 0.524862 0.821946
O O6 0.712280 0.414236 0.828936
O O7 0.052517 0.010749 0.627188
O O8 0.000000 0.500000 0.000000
O O9 0.839573 0.591049 0.671984
O O10 0.000000 0.000000 0.000000
O O11 0.176851 0.267570 0.505503
O O12 0.643668 0.464600 0.176679
O O13 0.500000 0.000000 0.500000
O O14 0.500000 0.500000 0.000000
#
# Coordination Sequence:
#
# PCOD9061638 Si02
#       6
#     2   2   2   2   2   2
#     4  11  26  52  75 108 154 197 255 316 363 460
#     4  11  23  45  75 105 151 195 252 312 364 453
#     4  11  24  41  75 113 143 190 256 310 374 432
#     4  12  24  46  82 107 150 194 259 303 381 443
#     4  12  26  46  75 107 153 197 244 314 386 442
#     4  11  26  47  75 107 155 202 244 307 392 441
#
# _framework density 26.865348999999998
#
# number of rings (size 3 to 8) (size 9 to 14) (size 15 to 20)
#    0.000    0.667    6.667    1.500    2.333    1.333 
#    3.000    0.833    0.000    0.000    0.000    0.000 
#    0.000    0.000    0.000    0.000    0.000    0.000 
#
# Total GULP energy -67078.547422 kJ/mol
# GULP energy per Si atom -5589.878952 kJ/mol
# Density = 2.680420 g / cm^3
# Si number density = 26.865349 Si / 1000 Ang^3
#
#
#
# Elastic Constant Matrix: (Units=GPa)
#
#
# Indices 1 2 3 4 5 6 
#
# 1 136.9655 50.9057 48.1979 20.5704 15.4149 -1.9990
# 2 50.9057 188.9267 59.3994 57.7287 21.0134 9.9864
# 3 48.1979 59.3994 166.0372 31.4589 19.5354 -3.7279
# 4 20.5704 57.7287 31.4589 59.4841 -2.1763 6.4009
# 5 15.4149 21.0134 19.5354 -2.1763 40.8489 5.7519
# 6 -1.9990 9.9864 -3.7279 6.4009 5.7519 47.9394
#
#
#
# Elastic Compliance Matrix: (Units=1/GPa)
#
#
# Indices 1 2 3 4 5 6 
#
# 1 0.008769 -0.001367 -0.001603 -0.001029 -0.002021 0.000906
# 2 -0.001367 0.008716 -0.000821 -0.007647 -0.003920 -0.000445
# 3 -0.001603 -0.000821 0.007744 -0.003014 -0.003044 0.001474
# 4 -0.001029 -0.007647 -0.003014 0.026804 0.007639 -0.003180
# 5 -0.002021 -0.003920 -0.003044 0.007639 0.029698 -0.004088
# 6 0.000906 -0.000445 0.001474 -0.003180 -0.004088 0.022020
#
#
# Mechanical properties :
#
#
# Convention : Reuss Voigt Hill
#
# Bulk Modulus (GPa) = 56.67136 89.88173 73.27655
# Shear Modulus (GPa) = 42.65637 51.88292 47.26965
#
# Velocity S-wave (km/s) = 3.98902 4.39933 4.19919
# Velocity P-wave (km/s) = 6.50821 7.70289 7.13061
#
# Compressibility (1/GPa) = 0.01764560
#
# Stress axis : x y z
#
# Youngs Moduli (GPa) = 114.04229 114.73501 129.12738
#
# Poissons Ratio (x) = 0.15688 0.20701
# Poissons Ratio (y) = 0.15593 0.10603
# Poissons Ratio (z) = 0.18283 0.09421
#
# Static dielectric constant tensor:
#      x y z
#    x 1.820640 -0.176580 0.199170 
#    y -0.176580 2.212950 0.011960 
#    z 0.199170 0.011960 2.080930 
# 
# From -- ./inp_files/494178.got.cif
#   From: 2010.05.17/outbox.cif.g08.bks.cpg/sg2_248_cif.got.tgz:494178.got - 2010.06.03 11:33:40.
