data_PCOD9061318
_publ_section_title
;
Structure prediction by ZEFSAII (Michael W. Deem and Ramdas Pophale) SiO2 
 PCOD9061318
Probable space group: P -1
;
_chemical_formula_sum "Si O2"
_cell_formula_units_Z 16
_cell_length_a 15.774084
_cell_length_b 9.382721
_cell_length_c 18.877671
_cell_angle_alpha 28.775556
_cell_angle_beta 141.230407
_cell_angle_gamma 144.413965
_cell_volume 760.049875
_symmetry_space_group_name_H-M "P -1"
_symmetry_group_IT_number 2
_symmetry_cell_setting 'triclinic'
loop_
_space_group_symop_operation_xyz
x,y,z
-x,-y,-z
loop_
_atom_site_type_symbol
_atom_site_label
_atom_site_fract_x
_atom_site_fract_y
_atom_site_fract_z
Si Si1 0.786931 0.786841 0.345719
Si Si2 0.664561 0.231279 0.144936
Si Si3 0.146083 0.615420 0.092678
Si Si4 0.861312 0.924975 0.579687
Si Si5 0.604651 0.116177 0.311587
Si Si6 0.151174 0.020763 0.057239
Si Si7 0.307109 0.645553 0.394975
Si Si8 0.611011 0.767565 0.097024
O O1 0.715049 0.476099 0.486235
O O2 0.686185 0.738397 0.231795
O O3 0.774407 0.084456 0.250927
O O4 0.960056 0.880107 0.399959
O O5 0.579985 0.046224 0.241739
O O6 0.752840 0.604324 0.064089
O O7 0.550339 0.226697 0.011560
O O8 0.168583 0.303117 0.271042
O O9 0.123134 0.787895 0.073184
O O10 0.000000 0.500000 0.000000
O O11 0.280496 0.892798 0.017209
O O12 0.788588 0.672191 0.577271
O O13 0.768101 0.140355 0.426503
O O14 0.594603 0.452346 0.177607
O O15 0.476789 0.822217 0.399938
O O16 0.238557 0.902902 0.222301
O O17 0.000000 0.000000 0.000000
#
# Coordination Sequence:
#
# PCOD9061318 Si02
#       8
#     2   2   2   2   2   2   2   2
#     4  12  27  44  68 100 144 176 223 279 348 396
#     4  12  23  46  71  97 134 181 230 282 326 406
#     4  11  23  45  68 100 138 171 228 278 340 399
#     4  11  24  44  72 100 132 180 225 281 332 408
#     4  12  25  45  72  99 134 177 233 274 336 404
#     4  11  24  42  72 100 132 178 232 280 328 399
#     4  11  24  44  67 103 133 177 227 277 336 406
#     4  12  26  46  66 102 136 182 222 285 340 397
#
# _framework density 21.051248999999999
#
# number of rings (size 3 to 8) (size 9 to 14) (size 15 to 20)
#    0.000    0.500    5.000    4.500    3.500    1.000 
#    2.250    0.000    0.000    0.000    0.000    0.000 
#    0.000    0.000    0.000    0.000    0.000    0.000 
#
# Total GULP energy -89497.467100 kJ/mol
# GULP energy per Si atom -5593.591694 kJ/mol
# Density = 2.100334 g / cm^3
# Si number density = 21.051249 Si / 1000 Ang^3
#
#
#
# Elastic Constant Matrix: (Units=GPa)
#
#
# Indices 1 2 3 4 5 6 
#
# 1 73.5585 21.1580 49.9544 11.2092 -11.5074 22.5504
# 2 21.1580 63.4316 18.2857 14.9580 -6.5438 18.9373
# 3 49.9544 18.2857 106.7403 24.2465 -4.1332 12.2266
# 4 11.2092 14.9580 24.2465 33.1499 -1.0704 0.3195
# 5 -11.5074 -6.5438 -4.1332 -1.0704 49.7865 2.0825
# 6 22.5504 18.9373 12.2266 0.3195 2.0825 32.8065
#
#
#
# Elastic Compliance Matrix: (Units=1/GPa)
#
#
# Indices 1 2 3 4 5 6 
#
# 1 0.025879 -0.000838 -0.009983 -0.000755 0.005609 -0.013933
# 2 -0.000838 0.022322 0.000357 -0.009830 0.003083 -0.012542
# 3 -0.009983 0.000357 0.015716 -0.008328 -0.001175 0.000955
# 4 -0.000755 -0.009830 -0.008328 0.040808 -0.001657 0.009005
# 5 0.005609 0.003083 -0.001175 -0.001657 0.021929 -0.006574
# 6 -0.013933 -0.012542 0.000955 0.009005 -0.006574 0.047273
#
#
# Mechanical properties :
#
#
# Convention : Reuss Voigt Hill
#
# Bulk Modulus (GPa) = 23.26131 46.94740 35.10435
# Shear Modulus (GPa) = 23.90217 33.43739 28.66978
#
# Velocity S-wave (km/s) = 3.37327 3.98977 3.69440
# Velocity P-wave (km/s) = 5.12306 6.60108 5.90847
#
# Compressibility (1/GPa) = 0.04298985
#
# Stress axis : x y z
#
# Youngs Moduli (GPa) = 38.64072 44.79872 63.62776
#
# Poissons Ratio (x) = 0.03753 0.63521
# Poissons Ratio (y) = 0.03237 -0.02271
# Poissons Ratio (z) = 0.38576 -0.01599
#
# Static dielectric constant tensor:
#      x y z
#    x 1.862300 -0.011380 -0.027340 
#    y -0.011380 1.744480 0.002060 
#    z -0.027340 0.002060 1.768900 
# 
# From -- ./inp_files/185123.got.cif
#   From: 2010.05.17/outbox.cif.g08.bks.cpg/sg2_93_cif.got.tgz:185123.got - 2010.06.03 11:33:40.
