data_PCOD9061698
_publ_section_title
;
Structure prediction by ZEFSAII (Michael W. Deem and Ramdas Pophale) SiO2 
 PCOD9061698
Probable space group: P -1
;
_chemical_formula_sum "Si O2"
_cell_formula_units_Z 14
_cell_length_a 12.743589
_cell_length_b 15.340919
_cell_length_c 8.590662
_cell_angle_alpha 57.057716
_cell_angle_beta 43.411528
_cell_angle_gamma 29.577986
_cell_volume 550.219896
_symmetry_space_group_name_H-M "P -1"
_symmetry_group_IT_number 2
_symmetry_cell_setting 'triclinic'
loop_
_space_group_symop_operation_xyz
x,y,z
-x,-y,-z
loop_
_atom_site_type_symbol
_atom_site_label
_atom_site_fract_x
_atom_site_fract_y
_atom_site_fract_z
Si Si1 0.069865 0.081572 0.353654
Si Si2 0.738756 0.006920 0.411771
Si Si3 0.830805 0.422735 0.167787
Si Si4 0.601492 0.535133 0.968560
Si Si5 0.769921 0.615895 0.286696
Si Si6 0.866987 0.703473 0.559307
Si Si7 0.327513 0.893934 0.932804
O O1 0.879501 0.288978 0.337044
O O2 0.163167 0.037679 0.473567
O O3 0.000000 0.000000 0.500000
O O4 0.246149 0.989523 0.092880
O O5 0.477737 0.225958 0.488875
O O6 0.852674 0.970044 0.152198
O O7 0.710764 0.899200 0.541031
O O8 0.669749 0.601642 0.263829
O O9 0.691433 0.466813 0.115529
O O10 0.101101 0.342565 0.926251
O O11 0.356567 0.753768 0.036614
O O12 0.877260 0.422859 0.703565
O O13 0.500000 0.500000 0.000000
O O14 0.001685 0.416407 0.309338
O O15 0.634652 0.756540 0.709900
#
# Coordination Sequence:
#
# PCOD9061698 Si02
#       7
#     2   2   2   2   2   2   2
#     4  12  30  48  74 113 158 204 253 313 392 469
#     4  12  26  46  77 113 150 198 255 312 389 447
#     4  11  24  47  74 109 155 198 259 320 378 452
#     4  12  27  45  77 112 156 204 251 313 393 462
#     4  11  23  45  80 112 148 198 257 328 371 450
#     4  12  24  49  75 116 150 197 261 316 380 456
#     4  12  26  49  77 110 154 198 260 320 373 457
#
# _framework density 25.444372999999999
#
# number of rings (size 3 to 8) (size 9 to 14) (size 15 to 20)
#    0.000    0.286    4.286    4.286    6.000    1.714 
#    0.000    2.143    0.000    0.000    0.000    0.000 
#    0.000    0.000    0.000    0.000    0.000    0.000 
#
# Total GULP energy -78159.309006 kJ/mol
# GULP energy per Si atom -5582.807786 kJ/mol
# Density = 2.538646 g / cm^3
# Si number density = 25.444373 Si / 1000 Ang^3
#
#
#
# Elastic Constant Matrix: (Units=GPa)
#
#
# Indices 1 2 3 4 5 6 
#
# 1 175.5192 61.7333 51.2357 -11.0251 29.2234 0.4947
# 2 61.7333 89.6828 25.5477 -26.5009 5.3277 5.0705
# 3 51.2357 25.5477 97.4052 0.8736 22.6075 -14.5597
# 4 -11.0251 -26.5009 0.8736 42.0475 2.1101 15.1186
# 5 29.2234 5.3277 22.6075 2.1101 37.2378 -19.3139
# 6 0.4947 5.0705 -14.5597 15.1186 -19.3139 50.9574
#
#
#
# Elastic Compliance Matrix: (Units=1/GPa)
#
#
# Indices 1 2 3 4 5 6 
#
# 1 0.009347 -0.004844 -0.002554 0.000942 -0.006804 -0.003197
# 2 -0.004844 0.020482 -0.003728 0.014750 -0.001938 -0.008167
# 3 -0.002554 -0.003728 0.014097 -0.004781 -0.003386 0.004559
# 4 0.000942 0.014750 -0.004781 0.041183 -0.012562 -0.019823
# 5 -0.006804 -0.001938 -0.003386 -0.012562 0.045810 0.020381
# 6 -0.003197 -0.008167 0.004559 -0.019823 0.020381 0.035377
#
#
# Mechanical properties :
#
#
# Convention : Reuss Voigt Hill
#
# Bulk Modulus (GPa) = 46.13116 71.07117 58.60117
# Shear Modulus (GPa) = 25.54009 40.98792 33.26400
#
# Velocity S-wave (km/s) = 3.17166 4.01794 3.61961
# Velocity P-wave (km/s) = 5.61980 7.03688 6.36788
#
# Compressibility (1/GPa) = 0.02167732
#
# Stress axis : x y z
#
# Youngs Moduli (GPa) = 106.98263 48.82412 70.93493
#
# Poissons Ratio (x) = 0.23648 0.18113
# Poissons Ratio (y) = 0.51817 0.26441
# Poissons Ratio (z) = 0.27318 0.18199
#
# Static dielectric constant tensor:
#      x y z
#    x 2.009500 -0.096680 0.012070 
#    y -0.096680 1.914410 -0.055030 
#    z 0.012070 -0.055030 2.082700 
# 
# From -- ./inp_files/243996.got.cif
#   From: 2010.05.17/outbox.cif.g08.bks.cpg/sg2_122_cif.got.tgz:243996.got - 2010.06.03 11:33:40.
