data_PCOD9061572
_publ_section_title
;
Structure prediction by ZEFSAII (Michael W. Deem and Ramdas Pophale) SiO2 
 PCOD9061572
Probable space group: P -1
;
_chemical_formula_sum "Si O2"
_cell_formula_units_Z 16
_cell_length_a 15.007072
_cell_length_b 11.583456
_cell_length_c 8.289808
_cell_angle_alpha 40.244364
_cell_angle_beta 128.005201
_cell_angle_gamma 105.550591
_cell_volume 673.413599
_symmetry_space_group_name_H-M "P -1"
_symmetry_group_IT_number 2
_symmetry_cell_setting 'triclinic'
loop_
_space_group_symop_operation_xyz
x,y,z
-x,-y,-z
loop_
_atom_site_type_symbol
_atom_site_label
_atom_site_fract_x
_atom_site_fract_y
_atom_site_fract_z
Si Si1 0.214651 0.976422 0.440181
Si Si2 0.355687 0.599828 0.188383
Si Si3 0.117488 0.345588 0.385841
Si Si4 0.306840 0.450696 0.617170
Si Si5 0.034447 0.009241 0.715894
Si Si6 0.293484 0.261805 0.363435
Si Si7 0.291101 0.793754 0.375265
Si Si8 0.535786 0.995805 0.734768
O O1 0.268028 0.886617 0.425437
O O2 0.081407 0.978826 0.322588
O O3 0.211807 0.192204 0.226274
O O4 0.304879 0.819833 0.835621
O O5 0.500000 0.500000 0.500000
O O6 0.295626 0.583121 0.307459
O O7 0.310751 0.465481 0.164667
O O8 0.178491 0.426129 0.507731
O O9 0.069843 0.193629 0.569327
O O10 0.225341 0.258769 0.461398
O O11 0.000000 0.500000 0.000000
O O12 0.348969 0.559079 0.687731
O O13 0.406071 0.234499 0.924212
O O14 0.000000 0.000000 0.500000
O O15 0.157547 0.842646 0.096506
O O16 0.427477 0.105244 0.624220
O O17 0.370151 0.896005 0.264305
O O18 0.500000 0.000000 0.500000
#
# Coordination Sequence:
#
# PCOD9061572 Si02
#       8
#     2   2   2   2   2   2   2   2
#     4  12  26  45  72 110 149 197 244 302 379 438
#     4  11  25  44  71 108 143 189 255 303 361 433
#     4  11  23  45  73 109 143 186 248 307 364 427
#     4  11  26  45  71 106 144 192 245 300 365 433
#     4  12  23  46  75 104 147 191 250 309 361 443
#     4  11  25  44  75 104 146 193 245 300 371 428
#     4  12  27  47  73 109 152 196 243 302 375 446
#     4  12  26  47  72 106 153 196 240 297 375 442
#
# _framework density 23.759543000000001
#
# number of rings (size 3 to 8) (size 9 to 14) (size 15 to 20)
#    0.000    0.500    3.750    4.875    1.750    5.000 
#    0.000    0.625    0.000    0.000    0.000    0.000 
#    0.000    0.000    0.000    0.000    0.000    0.000 
#
# Total GULP energy -89391.758532 kJ/mol
# GULP energy per Si atom -5586.984908 kJ/mol
# Density = 2.370547 g / cm^3
# Si number density = 23.759543 Si / 1000 Ang^3
#
#
#
# Elastic Constant Matrix: (Units=GPa)
#
#
# Indices 1 2 3 4 5 6 
#
# 1 143.5704 43.5330 19.6353 -7.9922 22.9442 23.5640
# 2 43.5330 135.1390 -4.6152 -20.7624 2.9992 15.9088
# 3 19.6353 -4.6152 58.8910 2.9005 13.0488 -2.9369
# 4 -7.9922 -20.7624 2.9005 31.9129 -0.8967 0.5389
# 5 22.9442 2.9992 13.0488 -0.8967 26.1638 5.0252
# 6 23.5640 15.9088 -2.9369 0.5389 5.0252 44.9750
#
#
#
# Elastic Compliance Matrix: (Units=1/GPa)
#
#
# Indices 1 2 3 4 5 6 
#
# 1 0.009692 -0.002492 -0.002242 0.000893 -0.006365 -0.003643
# 2 -0.002492 0.009286 0.000907 0.005407 0.001262 -0.002126
# 3 -0.002242 0.000907 0.020009 -0.002091 -0.008797 0.003169
# 4 0.000893 0.005407 -0.002091 0.035360 0.001448 -0.003102
# 5 -0.006365 0.001262 -0.008797 0.001448 0.048699 -0.003144
# 6 -0.003643 -0.002126 0.003169 -0.003102 -0.003144 0.025490
#
#
# Mechanical properties :
#
#
# Convention : Reuss Voigt Hill
#
# Bulk Modulus (GPa) = 31.91430 50.52298 41.21864
# Shear Modulus (GPa) = 30.00557 39.21349 34.60953
#
# Velocity S-wave (km/s) = 3.55756 4.06696 3.82076
# Velocity P-wave (km/s) = 5.50785 6.58513 6.07043
#
# Compressibility (1/GPa) = 0.03133392
#
# Stress axis : x y z
#
# Youngs Moduli (GPa) = 103.17633 107.68573 49.97657
#
# Poissons Ratio (x) = 0.26830 0.11205
# Poissons Ratio (y) = 0.25706 -0.04531
# Poissons Ratio (z) = 0.23132 -0.09762
#
# Static dielectric constant tensor:
#      x y z
#    x 1.953310 0.052620 0.046840 
#    y 0.052620 2.113350 -0.061390 
#    z 0.046840 -0.061390 2.146240 
# 
# From -- ./inp_files/306350.got.cif
#   From: 2010.05.17/outbox.cif.g08.bks.cpg/sg2_154_cif.got.tgz:306350.got - 2010.06.03 11:33:40.
