data_PCOD9061822
_publ_section_title
;
Structure prediction by ZEFSAII (Michael W. Deem and Ramdas Pophale) SiO2 
 PCOD9061822
Probable space group: P -1
;
_chemical_formula_sum "Si O2"
_cell_formula_units_Z 14
_cell_length_a 13.438403
_cell_length_b 8.354407
_cell_length_c 11.895474
_cell_angle_alpha 55.518120
_cell_angle_beta 149.288611
_cell_angle_gamma 115.318168
_cell_volume 556.658080
_symmetry_space_group_name_H-M "P -1"
_symmetry_group_IT_number 2
_symmetry_cell_setting 'triclinic'
loop_
_space_group_symop_operation_xyz
x,y,z
-x,-y,-z
loop_
_atom_site_type_symbol
_atom_site_label
_atom_site_fract_x
_atom_site_fract_y
_atom_site_fract_z
Si Si1 0.037367 0.518885 0.208902
Si Si2 0.035897 0.818472 0.421110
Si Si3 0.733250 0.547323 0.331819
Si Si4 0.189186 0.114839 0.136360
Si Si5 0.596854 0.128441 0.136714
Si Si6 0.518256 0.902210 0.374555
Si Si7 0.162724 0.759884 0.021270
O O1 0.924096 0.350968 0.120548
O O2 0.219946 0.451188 0.491226
O O3 0.884643 0.671595 0.069525
O O4 0.101126 0.646956 0.116598
O O5 0.188020 0.668502 0.553199
O O6 0.168833 0.874648 0.632317
O O7 0.867202 0.695663 0.346376
O O8 0.933835 0.013566 0.181228
O O9 0.511227 0.648435 0.061122
O O10 0.288386 0.147137 0.341534
O O11 0.356863 0.002563 0.266196
O O12 0.000000 0.000000 0.000000
O O13 0.558592 0.037299 0.257049
O O14 0.500000 0.000000 0.000000
O O15 0.398994 0.742572 0.265287
#
# Coordination Sequence:
#
# PCOD9061822 Si02
#       7
#     2   2   2   2   2   2   2
#     4  11  25  41  74 105 142 190 234 300 365 424
#     4  11  25  48  74  98 146 190 242 302 350 430
#     4  11  26  45  72 107 137 193 243 291 364 425
#     4  11  24  46  73 107 141 188 238 303 364 425
#     4  12  27  45  72 108 147 196 240 294 363 435
#     4  11  25  44  77 104 142 193 243 296 362 434
#     4  11  23  46  71 106 144 185 239 295 367 429
#
# _framework density 25.150088
#
# number of rings (size 3 to 8) (size 9 to 14) (size 15 to 20)
#    0.000    0.857    2.857    3.000    6.000    2.857 
#    2.571    0.000    0.000    0.000    0.000    0.000 
#    0.000    0.000    0.000    0.000    0.000    0.000 
#
# Total GULP energy -78376.826779 kJ/mol
# GULP energy per Si atom -5598.344770 kJ/mol
# Density = 2.509284 g / cm^3
# Si number density = 25.150088 Si / 1000 Ang^3
#
#
#
# Elastic Constant Matrix: (Units=GPa)
#
#
# Indices 1 2 3 4 5 6 
#
# 1 62.1924 19.0418 26.2768 0.1020 -3.3163 10.0780
# 2 19.0418 136.3989 45.5122 9.3815 -2.8748 3.0198
# 3 26.2768 45.5122 181.2485 21.7366 -14.1809 4.6036
# 4 0.1020 9.3815 21.7366 43.5884 -0.1378 1.9988
# 5 -3.3163 -2.8748 -14.1809 -0.1378 36.3860 3.9453
# 6 10.0780 3.0198 4.6036 1.9988 3.9453 25.9961
#
#
#
# Elastic Compliance Matrix: (Units=1/GPa)
#
#
# Indices 1 2 3 4 5 6 
#
# 1 0.018777 -0.001828 -0.002179 0.001764 0.001488 -0.007043
# 2 -0.001828 0.008212 -0.001707 -0.000920 -0.000204 0.000159
# 3 -0.002179 -0.001707 0.006813 -0.003004 0.002341 -0.000288
# 4 0.001764 -0.000920 -0.003004 0.024715 -0.000791 -0.001825
# 5 0.001488 -0.000204 0.002341 -0.000791 0.029089 -0.005322
# 6 -0.007043 0.000159 -0.000288 -0.001825 -0.005322 0.042178
#
#
# Mechanical properties :
#
#
# Convention : Reuss Voigt Hill
#
# Bulk Modulus (GPa) = 44.69664 62.38903 53.54283
# Shear Modulus (GPa) = 33.63154 40.46137 37.04645
#
# Velocity S-wave (km/s) = 3.66079 4.01533 3.84215
# Velocity P-wave (km/s) = 5.97319 6.80865 6.40456
#
# Compressibility (1/GPa) = 0.02237305
#
# Stress axis : x y z
#
# Youngs Moduli (GPa) = 53.25550 121.77960 146.78734
#
# Poissons Ratio (x) = 0.22264 0.31992
# Poissons Ratio (y) = 0.09736 0.25050
# Poissons Ratio (z) = 0.11607 0.20782
#
# Static dielectric constant tensor:
#      x y z
#    x 2.068030 -0.078000 0.019760 
#    y -0.078000 2.032780 0.038370 
#    z 0.019760 0.038370 1.961150 
# 
# From -- ./inp_files/446860.got.cif
#   From: 2010.05.17/outbox.cif.g08.bks.cpg/sg2_224_cif.got.tgz:446860.got - 2010.06.03 11:33:40.
