data_PCOD9061690
_publ_section_title
;
Structure prediction by ZEFSAII (Michael W. Deem and Ramdas Pophale) SiO2 
 PCOD9061690
Probable space group: P -1
;
_chemical_formula_sum "Si O2"
_cell_formula_units_Z 14
_cell_length_a 11.480584
_cell_length_b 6.623039
_cell_length_c 8.728420
_cell_angle_alpha 104.337691
_cell_angle_beta 86.577031
_cell_angle_gamma 102.094616
_cell_volume 628.711452
_symmetry_space_group_name_H-M "P -1"
_symmetry_group_IT_number 2
_symmetry_cell_setting 'triclinic'
loop_
_space_group_symop_operation_xyz
x,y,z
-x,-y,-z
loop_
_atom_site_type_symbol
_atom_site_label
_atom_site_fract_x
_atom_site_fract_y
_atom_site_fract_z
Si Si1 0.319465 0.477857 0.518012
Si Si2 0.237375 0.680901 0.277591
Si Si3 0.628064 0.033018 0.919824
Si Si4 0.856887 0.933892 0.475597
Si Si5 0.828608 0.983402 0.131267
Si Si6 0.967468 0.650684 0.901672
Si Si7 0.490527 0.178341 0.409022
O O1 0.318262 0.574295 0.365307
O O2 0.195677 0.311971 0.519065
O O3 0.416442 0.336875 0.523386
O O4 0.378700 0.700629 0.637975
O O5 0.303049 0.746629 0.122875
O O6 0.119532 0.502091 0.232416
O O7 0.198633 0.890030 0.393098
O O8 0.593141 0.896260 0.743008
O O9 0.715347 0.970817 0.028483
O O10 0.500000 0.000000 0.000000
O O11 0.815711 0.940234 0.303983
O O12 0.000000 0.000000 0.500000
O O13 0.913955 0.215002 0.156301
O O14 0.899353 0.816451 0.018828
O O15 0.000000 0.500000 0.000000
O O16 0.500000 0.000000 0.500000
#
# Coordination Sequence:
#
# PCOD9061690 Si02
#       7
#     2   2   2   2   2   2   2
#     4  11  24  42  77  97 141 189 243 295 361 420
#     4  12  25  47  74 102 146 190 247 299 365 445
#     4  12  27  44  72 103 145 193 239 303 363 427
#     4  12  27  46  75 112 147 189 247 304 369 440
#     4  11  27  46  72 111 154 184 248 308 363 444
#     4  11  23  45  78 104 145 193 234 305 385 427
#     4  11  23  46  72  99 137 192 247 294 355 430
#
# _framework density 22.267766000000002
#
# number of rings (size 3 to 8) (size 9 to 14) (size 15 to 20)
#    0.000    0.571    4.286    2.571    6.000    4.571 
#    0.000    2.143    0.000    0.000    0.000    0.000 
#    0.000    0.000    0.000    0.000    0.000    0.000 
#
# Total GULP energy -78099.487327 kJ/mol
# GULP energy per Si atom -5578.534809 kJ/mol
# Density = 2.221708 g / cm^3
# Si number density = 22.267766 Si / 1000 Ang^3
#
#
#
# Elastic Constant Matrix: (Units=GPa)
#
#
# Indices 1 2 3 4 5 6 
#
# 1 142.8707 66.4113 40.4143 -16.4117 22.1872 12.4851
# 2 66.4113 129.7451 41.7232 -16.1025 10.7874 19.9461
# 3 40.4143 41.7232 98.3656 -15.8526 20.0747 4.9161
# 4 -16.4117 -16.1025 -15.8526 41.3670 4.4988 16.3489
# 5 22.1872 10.7874 20.0747 4.4988 45.2324 -0.9922
# 6 12.4851 19.9461 4.9161 16.3489 -0.9922 50.7150
#
#
#
# Elastic Compliance Matrix: (Units=1/GPa)
#
#
# Indices 1 2 3 4 5 6 
#
# 1 0.010301 -0.003824 -0.001129 0.003437 -0.004028 -0.002109
# 2 -0.003824 0.011700 -0.002443 0.004003 -0.000332 -0.004721
# 3 -0.001129 -0.002443 0.013723 0.005201 -0.005513 -0.001876
# 4 0.003437 0.004003 0.005201 0.035840 -0.008835 -0.014651
# 5 -0.004028 -0.000332 -0.005513 -0.008835 0.027599 0.005045
# 6 -0.002109 -0.004721 -0.001876 -0.014651 0.005045 0.027098
#
#
# Mechanical properties :
#
#
# Convention : Reuss Voigt Hill
#
# Bulk Modulus (GPa) = 47.77100 74.23099 61.00100
# Shear Modulus (GPa) = 33.77685 42.29171 38.03428
#
# Velocity S-wave (km/s) = 3.89890 4.36275 4.13733
# Velocity P-wave (km/s) = 6.46283 7.66721 7.09064
#
# Compressibility (1/GPa) = 0.02093320
#
# Stress axis : x y z
#
# Youngs Moduli (GPa) = 97.07995 85.46708 72.86924
#
# Poissons Ratio (x) = 0.32680 0.08226
# Poissons Ratio (y) = 0.37121 0.17802
# Poissons Ratio (z) = 0.10959 0.20880
#
# Static dielectric constant tensor:
#      x y z
#    x 1.920730 0.089780 0.025040 
#    y 0.089780 1.891130 0.076060 
#    z 0.025040 0.076060 1.956430 
# 
# From -- ./inp_files/107082.got.cif
#   From: 2010.05.17/outbox.cif.g08.bks.cpg/sg2_54_cif.got.tgz:107082.got - 2010.06.03 11:33:40.
