data_PCOD9061309
_publ_section_title
;
Structure prediction by ZEFSAII (Michael W. Deem and Ramdas Pophale) SiO2 
 PCOD9061309
Probable space group: P -1
;
_chemical_formula_sum "Si O2"
_cell_formula_units_Z 14
_cell_length_a 16.879346
_cell_length_b 6.711509
_cell_length_c 8.057459
_cell_angle_alpha 62.513194
_cell_angle_beta 108.443063
_cell_angle_gamma 128.555318
_cell_volume 632.693726
_symmetry_space_group_name_H-M "P -1"
_symmetry_group_IT_number 2
_symmetry_cell_setting 'triclinic'
loop_
_space_group_symop_operation_xyz
x,y,z
-x,-y,-z
loop_
_atom_site_type_symbol
_atom_site_label
_atom_site_fract_x
_atom_site_fract_y
_atom_site_fract_z
Si Si1 0.806982 0.015186 0.703072
Si Si2 0.736077 0.443154 0.996952
Si Si3 0.881097 0.269118 0.027945
Si Si4 0.594259 0.923624 0.948262
Si Si5 0.110630 0.062386 0.534013
Si Si6 0.291670 0.695985 0.436787
Si Si7 0.372072 0.530900 0.809475
O O1 0.744895 0.137383 0.554720
O O2 0.741604 0.688612 0.810479
O O3 0.883216 0.066111 0.586049
O O4 0.848173 0.142480 0.866887
O O5 0.629571 0.152735 0.019451
O O6 0.821947 0.402629 0.005024
O O7 0.727386 0.512763 0.153151
O O8 0.869386 0.065915 0.243960
O O9 0.000000 0.500000 0.000000
O O10 0.478163 0.720727 0.901910
O O11 0.655558 0.113437 0.759992
O O12 0.638686 0.751735 0.097676
O O13 0.194767 0.388885 0.457890
O O14 0.000000 0.000000 0.500000
O O15 0.374644 0.664215 0.588343
#
# Coordination Sequence:
#
# PCOD9061309 Si02
#       7
#     2   2   2   2   2   2   2
#     4  12  24  45  72  97 143 186 224 296 356 405
#     4  12  21  45  67  98 140 182 231 290 352 415
#     4  12  27  46  72 105 139 186 238 290 356 423
#     4  11  23  45  67 103 141 181 239 292 348 428
#     4  12  27  45  70 105 139 184 241 289 351 430
#     4  12  23  45  67 101 141 181 235 292 347 424
#     4  11  25  41  73 101 139 190 232 291 363 408
#
# _framework density 22.127610000000001
#
# number of rings (size 3 to 8) (size 9 to 14) (size 15 to 20)
#    0.000    0.286    4.286    5.143    0.000    5.714 
#    0.000    0.714    0.000    0.000    0.000    0.000 
#    0.000    0.000    0.000    0.000    0.000    0.000 
#
# Total GULP energy -78131.270045 kJ/mol
# GULP energy per Si atom -5580.805003 kJ/mol
# Density = 2.207725 g / cm^3
# Si number density = 22.127610 Si / 1000 Ang^3
#
#
#
# Elastic Constant Matrix: (Units=GPa)
#
#
# Indices 1 2 3 4 5 6 
#
# 1 117.0224 50.2155 47.6888 -6.5444 11.6422 -26.4923
# 2 50.2155 116.5430 35.2163 -19.5025 17.5556 -17.6162
# 3 47.6888 35.2163 131.6337 -25.3592 27.3573 -24.3644
# 4 -6.5444 -19.5025 -25.3592 40.9566 -4.5612 2.9821
# 5 11.6422 17.5556 27.3573 -4.5612 41.6591 -0.3314
# 6 -26.4923 -17.6162 -24.3644 2.9821 -0.3314 22.5612
#
#
#
# Elastic Compliance Matrix: (Units=1/GPa)
#
#
# Indices 1 2 3 4 5 6 
#
# 1 0.013406 -0.003660 -0.001970 -0.001732 -0.001013 0.010971
# 2 -0.003660 0.012148 0.000872 0.004889 -0.004090 0.005423
# 3 -0.001970 0.000872 0.013020 0.006485 -0.007566 0.011460
# 4 -0.001732 0.004889 0.006485 0.029851 -0.002528 0.004804
# 5 -0.001013 -0.004090 -0.007566 -0.002528 0.030609 -0.011770
# 6 0.010971 0.005423 0.011460 0.004804 -0.011770 0.073008
#
#
# Mechanical properties :
#
#
# Convention : Reuss Voigt Hill
#
# Bulk Modulus (GPa) = 34.41486 70.16003 52.28745
# Shear Modulus (GPa) = 26.14425 36.50730 31.32577
#
# Velocity S-wave (km/s) = 3.44106 4.06624 3.76664
# Velocity P-wave (km/s) = 5.60129 7.33632 6.52672
#
# Compressibility (1/GPa) = 0.02905721
#
# Stress axis : x y z
#
# Youngs Moduli (GPa) = 74.59092 82.31679 76.80314
#
# Poissons Ratio (x) = 0.30129 0.15133
# Poissons Ratio (y) = 0.27301 -0.06695
# Poissons Ratio (z) = 0.14697 -0.07175
#
# Static dielectric constant tensor:
#      x y z
#    x 1.861020 -0.114620 -0.063990 
#    y -0.114620 2.038570 0.140780 
#    z -0.063990 0.140780 1.925900 
# 
# From -- ./inp_files/48123.got.cif
#   From: 2010.05.17/outbox.cif.g08.bks.cpg/sg2_25_cif.got.tgz:48123.got - 2010.06.03 11:33:40.
