data_PCOD9061971
_publ_section_title
;
Structure prediction by ZEFSAII (Michael W. Deem and Ramdas Pophale) SiO2 
 PCOD9061971
Probable space group: P -1
;
_chemical_formula_sum "Si O2"
_cell_formula_units_Z 13
_cell_length_a 12.244667
_cell_length_b 9.613459
_cell_length_c 12.524510
_cell_angle_alpha 99.779619
_cell_angle_beta 118.780305
_cell_angle_gamma 132.134826
_cell_volume 624.708021
_symmetry_space_group_name_H-M "P -1"
_symmetry_group_IT_number 2
_symmetry_cell_setting 'triclinic'
loop_
_space_group_symop_operation_xyz
x,y,z
-x,-y,-z
loop_
_atom_site_type_symbol
_atom_site_label
_atom_site_fract_x
_atom_site_fract_y
_atom_site_fract_z
Si Si1 0.656566 0.297072 0.581642
Si Si2 0.374755 0.873518 0.809514
Si Si3 0.806058 0.887411 0.815241
Si Si4 0.924568 0.633339 0.527821
Si Si5 0.000000 0.000000 0.500000
Si Si6 0.129694 0.738150 0.016109
Si Si7 0.309211 0.215176 0.485627
O O1 0.745342 0.413644 0.516194
O O2 0.477257 0.245262 0.533713
O O3 0.500000 0.000000 0.500000
O O4 0.926990 0.565084 0.804530
O O5 0.194413 0.563131 0.656623
O O6 0.200557 0.837589 0.704805
O O7 0.615085 0.086997 0.875928
O O8 0.500000 0.000000 0.000000
O O9 0.526717 0.546426 0.653577
O O10 0.855882 0.915978 0.715910
O O11 0.815039 0.059483 0.874086
O O12 0.000000 0.000000 0.000000
O O13 0.949229 0.822463 0.540552
O O14 0.144506 0.032439 0.489845
O O15 0.000000 0.500000 0.000000
#
# Coordination Sequence:
#
# PCOD9061971 Si02
#       7
#     2   2   2   2   1   2   2
#     4  12  25  47  76 104 144 194 246 312 364 433
#     4  11  24  45  72 104 145 190 241 301 361 431
#     4  11  23  46  75  99 140 192 246 299 353 437
#     4  11  26  47  72 106 151 191 241 301 368 435
#     4  12  28  46  72 108 150 196 230 298 376 436
#     4  12  25  42  71 108 141 188 250 299 362 435
#     4  11  25  45  71 104 144 187 241 296 367 432
#
# _framework density 20.809722000000001
#
# number of rings (size 3 to 8) (size 9 to 14) (size 15 to 20)
#    0.000    0.615    3.077    5.538    6.462    1.231 
#    0.000    1.538    0.000    0.000    0.000    0.000 
#    0.000    0.000    0.000    0.000    0.000    0.000 
#
# Total GULP energy -72385.055315 kJ/mol
# GULP energy per Si atom -5568.081178 kJ/mol
# Density = 2.076236 g / cm^3
# Si number density = 20.809722 Si / 1000 Ang^3
#
#
#
# Elastic Constant Matrix: (Units=GPa)
#
#
# Indices 1 2 3 4 5 6 
#
# 1 140.8375 77.6948 53.8841 2.5333 10.4467 7.9445
# 2 77.6948 144.6863 54.4655 1.8611 -9.1367 -3.9363
# 3 53.8841 54.4655 149.3460 -8.5646 -1.2474 0.7974
# 4 2.5333 1.8611 -8.5646 22.1827 -4.3052 -8.8248
# 5 10.4467 -9.1367 -1.2474 -4.3052 34.8428 -0.0126
# 6 7.9445 -3.9363 0.7974 -8.8248 -0.0126 53.0756
#
#
#
# Elastic Compliance Matrix: (Units=1/GPa)
#
#
# Indices 1 2 3 4 5 6 
#
# 1 0.011929 -0.005879 -0.002425 -0.004050 -0.005706 -0.002860
# 2 -0.005879 0.011107 -0.001862 0.000664 0.004691 0.001843
# 3 -0.002425 -0.001862 0.008498 0.004240 0.001067 0.000802
# 4 -0.004050 0.000664 0.004240 0.052381 0.008016 0.009303
# 5 -0.005706 0.004691 0.001067 0.008016 0.032671 0.002527
# 6 -0.002860 0.001843 0.000802 0.009303 0.002527 0.020941
#
#
# Mechanical properties :
#
#
# Convention : Reuss Voigt Hill
#
# Bulk Modulus (GPa) = 89.26820 89.66207 89.46513
# Shear Modulus (GPa) = 30.94219 38.60858 34.77538
#
# Velocity S-wave (km/s) = 3.86023 4.31201 4.09236
# Velocity P-wave (km/s) = 7.92837 8.24448 8.08797
#
# Compressibility (1/GPa) = 0.01120220
#
# Stress axis : x y z
#
# Youngs Moduli (GPa) = 83.83200 90.03132 117.68080
#
# Poissons Ratio (x) = 0.52928 0.28532
# Poissons Ratio (y) = 0.49284 0.21914
# Poissons Ratio (z) = 0.20325 0.16766
#
# Static dielectric constant tensor:
#      x y z
#    x 1.811040 -0.070270 -0.017690 
#    y -0.070270 1.710320 -0.071140 
#    z -0.017690 -0.071140 1.798600 
# 
# From -- ./inp_files/390891.got.cif
#   From: 2010.05.17/outbox.cif.g08.bks.cpg/sg2_196_cif.got.tgz:390891.got - 2010.06.03 11:33:40.
