data_PCOD9061925
_publ_section_title
;
Structure prediction by ZEFSAII (Michael W. Deem and Ramdas Pophale) SiO2 
 PCOD9061925
Probable space group: P -1
;
_chemical_formula_sum "Si O2"
_cell_formula_units_Z 16
_cell_length_a 15.412893
_cell_length_b 9.315150
_cell_length_c 14.392229
_cell_angle_alpha 40.774110
_cell_angle_beta 38.203250
_cell_angle_gamma 37.380352
_cell_volume 725.643572
_symmetry_space_group_name_H-M "P -1"
_symmetry_group_IT_number 2
_symmetry_cell_setting 'triclinic'
loop_
_space_group_symop_operation_xyz
x,y,z
-x,-y,-z
loop_
_atom_site_type_symbol
_atom_site_label
_atom_site_fract_x
_atom_site_fract_y
_atom_site_fract_z
Si Si1 0.016410 0.378521 0.147419
Si Si2 0.373448 0.092158 0.977508
Si Si3 0.495762 0.246486 0.148016
Si Si4 0.628848 0.067620 0.318394
Si Si5 0.013893 0.248431 0.844885
Si Si6 0.756377 0.190361 0.473449
Si Si7 0.144642 0.372320 0.367101
Si Si8 0.434248 0.531036 0.680877
O O1 0.884729 0.288378 0.315150
O O2 0.997922 0.587353 0.135785
O O3 0.000000 0.500000 0.000000
O O4 0.196265 0.138871 0.125405
O O5 0.347824 0.364880 0.838047
O O6 0.451802 0.914561 0.910793
O O7 0.500000 0.000000 0.000000
O O8 0.613560 0.095003 0.207335
O O9 0.316869 0.306587 0.296528
O O10 0.500000 0.500000 0.000000
O O11 0.589199 0.330111 0.270535
O O12 0.500000 0.000000 0.500000
O O13 0.808486 0.858392 0.294928
O O14 0.887770 0.433397 0.784974
O O15 0.000000 0.000000 0.000000
O O16 0.620571 0.345403 0.589102
O O17 0.652444 0.267218 0.427233
O O18 0.838438 0.888447 0.559271
O O19 0.000000 0.500000 0.500000
#
# Coordination Sequence:
#
# PCOD9061925 Si02
#       8
#     2   2   2   2   2   2   2   2
#     4  12  26  44  74 106 140 192 244 295 356 433
#     4  12  25  46  71 102 142 189 239 294 365 427
#     4  12  26  47  70 106 143 187 245 295 353 438
#     4  12  25  44  73 104 138 186 237 289 358 429
#     4  12  27  48  72 107 147 185 237 299 366 429
#     4  11  25  45  74 104 147 190 247 299 357 439
#     4  12  27  47  74 108 148 189 235 304 371 421
#     4  11  23  46  74 100 143 193 236 297 368 423
#
# _framework density 22.049392000000001
#
# number of rings (size 3 to 8) (size 9 to 14) (size 15 to 20)
#    0.000    0.250    2.500    6.750    5.250    0.500 
#    2.250    0.000    0.000    0.000    0.000    0.000 
#    0.000    0.000    0.000    0.000    0.000    0.000 
#
# Total GULP energy -89634.882363 kJ/mol
# GULP energy per Si atom -5602.180148 kJ/mol
# Density = 2.199921 g / cm^3
# Si number density = 22.049392 Si / 1000 Ang^3
#
#
#
# Elastic Constant Matrix: (Units=GPa)
#
#
# Indices 1 2 3 4 5 6 
#
# 1 91.9602 42.4874 10.1019 2.9141 3.7553 10.0184
# 2 42.4874 117.2334 23.9844 12.9862 -3.0927 9.1065
# 3 10.1019 23.9844 73.8069 -1.2468 -17.6171 2.1536
# 4 2.9141 12.9862 -1.2468 52.0605 -11.6408 -1.3425
# 5 3.7553 -3.0927 -17.6171 -11.6408 42.9515 5.1876
# 6 10.0184 9.1065 2.1536 -1.3425 5.1876 46.7692
#
#
#
# Elastic Compliance Matrix: (Units=1/GPa)
#
#
# Indices 1 2 3 4 5 6 
#
# 1 0.013326 -0.004601 -0.000648 -0.000006 -0.001552 -0.001757
# 2 -0.004601 0.011229 -0.003213 -0.002814 -0.000743 -0.001051
# 3 -0.000648 -0.003213 0.016538 0.002887 0.007481 -0.000744
# 4 -0.000006 -0.002814 0.002887 0.021502 0.006776 0.000282
# 5 -0.001552 -0.000743 0.007481 0.006776 0.028613 -0.002847
# 6 -0.001757 -0.001051 -0.000744 0.000282 -0.002847 0.022321
#
#
# Mechanical properties :
#
#
# Convention : Reuss Voigt Hill
#
# Bulk Modulus (GPa) = 41.37664 48.46086 44.91875
# Shear Modulus (GPa) = 36.09890 42.11803 39.10847
#
# Velocity S-wave (km/s) = 4.05060 4.37529 4.21607
# Velocity P-wave (km/s) = 6.37830 6.89567 6.64202
#
# Compressibility (1/GPa) = 0.02416823
#
# Stress axis : x y z
#
# Youngs Moduli (GPa) = 75.04082 89.05903 60.46729
#
# Poissons Ratio (x) = 0.40974 0.03919
# Poissons Ratio (y) = 0.34525 0.19430
# Poissons Ratio (z) = 0.04863 0.28617
#
# Static dielectric constant tensor:
#      x y z
#    x 1.787500 -0.019920 0.019290 
#    y -0.019920 1.800220 0.016180 
#    z 0.019290 0.016180 1.802280 
# 
# From -- ./inp_files/529278.got.cif
#   From: 2010.05.17/outbox.cif.g08.bks.cpg/sg2_265_cif.got.tgz:529278.got - 2010.06.03 11:33:40.
