data_PCOD9061216
_publ_section_title
;
Structure prediction by ZEFSAII (Michael W. Deem and Ramdas Pophale) SiO2 
 PCOD9061216
Probable space group: P -1
;
_chemical_formula_sum "Si O2"
_cell_formula_units_Z 16
_cell_length_a 9.695034
_cell_length_b 14.410211
_cell_length_c 7.877290
_cell_angle_alpha 44.007911
_cell_angle_beta 120.907416
_cell_angle_gamma 110.657153
_cell_volume 655.762469
_symmetry_space_group_name_H-M "P -1"
_symmetry_group_IT_number 2
_symmetry_cell_setting 'triclinic'
loop_
_space_group_symop_operation_xyz
x,y,z
-x,-y,-z
loop_
_atom_site_type_symbol
_atom_site_label
_atom_site_fract_x
_atom_site_fract_y
_atom_site_fract_z
Si Si1 0.124313 0.616496 0.968620
Si Si2 0.506422 0.188215 0.926718
Si Si3 0.200459 0.030527 0.992139
Si Si4 0.654523 0.308022 0.528873
Si Si5 0.960626 0.729669 0.239755
Si Si6 0.692127 0.186082 0.387942
Si Si7 0.017050 0.870455 0.797716
Si Si8 0.691645 0.550335 0.425029
O O1 0.263137 0.542452 0.263603
O O2 0.807382 0.307693 0.250550
O O3 0.065355 0.743764 0.876947
O O4 0.000000 0.500000 0.000000
O O5 0.367314 0.082951 0.957711
O O6 0.598323 0.220323 0.769313
O O7 0.414411 0.323820 0.750646
O O8 0.615018 0.146534 0.212347
O O9 0.086258 0.158308 0.796082
O O10 0.121679 0.938166 0.924345
O O11 0.584102 0.251415 0.384755
O O12 0.609852 0.458716 0.354020
O O13 0.851132 0.305082 0.634227
O O14 0.860318 0.602730 0.392748
O O15 0.888175 0.798606 0.931298
O O16 0.765967 0.057206 0.701798
O O17 0.000000 0.000000 0.500000
#
# Coordination Sequence:
#
# PCOD9061216 Si02
#       8
#     2   2   2   2   2   2   2   2
#     4  12  27  44  75 114 154 197 254 326 386 453
#     4  11  27  50  72 108 152 209 254 315 373 460
#     4  11  26  49  75 106 157 197 256 316 376 462
#     4  12  24  45  74 104 151 194 255 318 378 447
#     4  11  23  44  75 109 142 198 251 321 378 451
#     4  12  25  47  75 108 151 203 256 310 383 451
#     4  12  26  45  74 113 154 200 250 314 396 451
#     4  11  24  48  73 105 154 196 256 318 384 446
#
# _framework density 24.399080000000001
#
# number of rings (size 3 to 8) (size 9 to 14) (size 15 to 20)
#    0.000    0.500    3.750    3.000    7.000    1.000 
#    6.750    0.000    0.000    0.000    0.000    0.000 
#    0.000    0.000    0.000    0.000    0.000    0.000 
#
# Total GULP energy -89356.501743 kJ/mol
# GULP energy per Si atom -5584.781359 kJ/mol
# Density = 2.434355 g / cm^3
# Si number density = 24.399080 Si / 1000 Ang^3
#
#
#
# Elastic Constant Matrix: (Units=GPa)
#
#
# Indices 1 2 3 4 5 6 
#
# 1 144.5350 36.4292 21.3944 5.6253 -36.4502 -0.1533
# 2 36.4292 115.6734 22.3305 -15.3657 -16.2148 -18.6949
# 3 21.3944 22.3305 113.0488 -9.8842 -24.2382 -7.5429
# 4 5.6253 -15.3657 -9.8842 44.3397 -11.9311 -5.7188
# 5 -36.4502 -16.2148 -24.2382 -11.9311 41.9285 -2.0954
# 6 -0.1533 -18.6949 -7.5429 -5.7188 -2.0954 41.7121
#
#
#
# Elastic Compliance Matrix: (Units=1/GPa)
#
#
# Indices 1 2 3 4 5 6 
#
# 1 0.009248 -0.001962 0.000213 0.000138 0.007423 -0.000415
# 2 -0.001962 0.011901 0.000153 0.006649 0.005204 0.006527
# 3 0.000213 0.000153 0.011245 0.005208 0.008389 0.003238
# 4 0.000138 0.006649 0.005208 0.031200 0.015028 0.008955
# 5 0.007423 0.005204 0.008389 0.015028 0.041843 0.008039
# 6 -0.000415 0.006527 0.003238 0.008955 0.008039 0.029115
#
#
# Mechanical properties :
#
#
# Convention : Reuss Voigt Hill
#
# Bulk Modulus (GPa) = 34.24298 59.28505 46.76401
# Shear Modulus (GPa) = 33.90364 45.13625 39.51995
#
# Velocity S-wave (km/s) = 3.73171 4.30573 4.02895
# Velocity P-wave (km/s) = 5.71249 7.00499 6.39149
#
# Compressibility (1/GPa) = 0.02920306
#
# Stress axis : x y z
#
# Youngs Moduli (GPa) = 108.13485 84.02653 88.92694
#
# Poissons Ratio (x) = 0.16484 -0.01896
# Poissons Ratio (y) = 0.21213 -0.01361
# Poissons Ratio (z) = -0.02306 -0.01286
#
# Static dielectric constant tensor:
#      x y z
#    x 2.021590 0.031950 0.024590 
#    y 0.031950 1.993790 0.036100 
#    z 0.024590 0.036100 1.988060 
# 
# From -- ./inp_files/435352.got.cif
#   From: 2010.05.17/outbox.cif.g08.bks.cpg/sg2_218_cif.got.tgz:435352.got - 2010.06.03 11:33:40.
