data_PCOD9061349
_publ_section_title
;
Structure prediction by ZEFSAII (Michael W. Deem and Ramdas Pophale) SiO2 
 PCOD9061349
Probable space group: P -1
;
_chemical_formula_sum "Si O2"
_cell_formula_units_Z 16
_cell_length_a 19.500972
_cell_length_b 11.933128
_cell_length_c 8.811594
_cell_angle_alpha 126.630228
_cell_angle_beta 85.193060
_cell_angle_gamma 139.190893
_cell_volume 766.662642
_symmetry_space_group_name_H-M "P -1"
_symmetry_group_IT_number 2
_symmetry_cell_setting 'triclinic'
loop_
_space_group_symop_operation_xyz
x,y,z
-x,-y,-z
loop_
_atom_site_type_symbol
_atom_site_label
_atom_site_fract_x
_atom_site_fract_y
_atom_site_fract_z
Si Si1 0.449163 0.269267 0.408222
Si Si2 0.052447 0.735843 0.764686
Si Si3 0.474280 0.099317 0.000346
Si Si4 0.244462 0.381383 0.828016
Si Si5 0.128535 0.716775 0.030831
Si Si6 0.078373 0.312714 0.645675
Si Si7 0.814187 0.531766 0.583784
Si Si8 0.286018 0.371759 0.149203
O O1 0.500000 0.500000 0.500000
O O2 0.426105 0.120699 0.154222
O O3 0.568611 0.417967 0.619701
O O4 0.291997 0.014214 0.308801
O O5 0.000000 0.500000 0.500000
O O6 0.923433 0.618153 0.711282
O O7 0.114736 0.805683 0.973197
O O8 0.178346 0.044816 0.900113
O O9 0.624979 0.417327 0.150178
O O10 0.500000 0.000000 0.000000
O O11 0.342112 0.827329 0.691343
O O12 0.187543 0.435916 0.845644
O O13 0.306026 0.465550 0.052133
O O14 0.090901 0.021702 0.550893
O O15 0.104540 0.522871 0.803526
O O16 0.000000 0.500000 0.000000
O O17 0.120494 0.327294 0.484321
O O18 0.790325 0.637849 0.752645
#
# Coordination Sequence:
#
# PCOD9061349 Si02
#       8
#     2   2   2   2   2   2   2   2
#     4  12  25  47  72  98 142 189 229 283 354 421
#     4  12  24  47  69 102 145 185 230 288 350 415
#     4  12  23  47  70  98 137 190 226 280 355 418
#     4  11  25  41  72 102 138 173 238 291 340 409
#     4  12  27  44  71 102 139 182 237 284 349 417
#     4  11  23  45  68  99 139 191 226 282 352 419
#     4  12  24  44  75 101 142 187 233 281 356 412
#     4  12  26  43  74 110 136 179 241 294 340 410
#
# _framework density 20.869672999999999
#
# number of rings (size 3 to 8) (size 9 to 14) (size 15 to 20)
#    0.000    0.250    7.500    0.375    3.500    2.500 
#    0.000    0.625    0.000    0.000    0.000    0.000 
#    0.000    0.000    0.000    0.000    0.000    0.000 
#
# Total GULP energy -89470.599068 kJ/mol
# GULP energy per Si atom -5591.912442 kJ/mol
# Density = 2.082217 g / cm^3
# Si number density = 20.869673 Si / 1000 Ang^3
#
#
#
# Elastic Constant Matrix: (Units=GPa)
#
#
# Indices 1 2 3 4 5 6 
#
# 1 136.8318 41.0102 44.1656 -1.2761 20.2603 -10.5751
# 2 41.0102 117.4323 24.2086 12.8849 15.1740 10.9970
# 3 44.1656 24.2086 71.9153 11.9841 7.6134 9.9953
# 4 -1.2761 12.8849 11.9841 34.8539 1.2807 13.7946
# 5 20.2603 15.1740 7.6134 1.2807 37.6729 1.9427
# 6 -10.5751 10.9970 9.9953 13.7946 1.9427 34.7596
#
#
#
# Elastic Compliance Matrix: (Units=1/GPa)
#
#
# Indices 1 2 3 4 5 6 
#
# 1 0.011366 -0.002796 -0.006694 0.001577 -0.003989 0.005864
# 2 -0.002796 0.010490 -0.000755 -0.002518 -0.002338 -0.002822
# 3 -0.006694 -0.000755 0.019780 -0.004520 0.000355 -0.005712
# 4 0.001577 -0.002518 -0.004520 0.035836 0.000463 -0.011672
# 5 -0.003989 -0.002338 0.000355 0.000463 0.029669 -0.002418
# 6 0.005864 -0.002822 -0.005712 -0.011672 -0.002418 0.037856
#
#
# Mechanical properties :
#
#
# Convention : Reuss Voigt Hill
#
# Bulk Modulus (GPa) = 47.29106 60.54981 53.92044
# Shear Modulus (GPa) = 28.97960 35.91029 32.44494
#
# Velocity S-wave (km/s) = 3.73043 4.15262 3.94718
# Velocity P-wave (km/s) = 6.42372 7.21586 6.83128
#
# Compressibility (1/GPa) = 0.02114565
#
# Stress axis : x y z
#
# Youngs Moduli (GPa) = 87.98494 95.32703 50.55603
#
# Poissons Ratio (x) = 0.26652 0.33844
# Poissons Ratio (y) = 0.24599 0.03816
# Poissons Ratio (z) = 0.58900 0.07196
#
# Static dielectric constant tensor:
#      x y z
#    x 1.853860 0.041070 -0.009080 
#    y 0.041070 1.743720 -0.001020 
#    z -0.009080 -0.001020 1.778150 
# 
# From -- ./inp_files/244986.got.cif
#   From: 2010.05.17/outbox.cif.g08.bks.cpg/sg2_123_cif.got.tgz:244986.got - 2010.06.03 11:33:40.
