data_PCOD9061755
_publ_section_title
;
Structure prediction by ZEFSAII (Michael W. Deem and Ramdas Pophale) SiO2 
 PCOD9061755
Probable space group: P -1
;
_chemical_formula_sum "Si O2"
_cell_formula_units_Z 16
_cell_length_a 20.127076
_cell_length_b 17.362892
_cell_length_c 11.397994
_cell_angle_alpha 147.620668
_cell_angle_beta 33.862448
_cell_angle_gamma 159.250942
_cell_volume 738.167357
_symmetry_space_group_name_H-M "P -1"
_symmetry_group_IT_number 2
_symmetry_cell_setting 'triclinic'
loop_
_space_group_symop_operation_xyz
x,y,z
-x,-y,-z
loop_
_atom_site_type_symbol
_atom_site_label
_atom_site_fract_x
_atom_site_fract_y
_atom_site_fract_z
Si Si1 0.444676 0.421600 0.790866
Si Si2 0.972809 0.240440 0.154575
Si Si3 0.401158 0.641276 0.961617
Si Si4 0.489224 0.228795 0.282823
Si Si5 0.648171 0.100059 0.310460
Si Si6 0.810921 0.299587 0.941432
Si Si7 0.178197 0.210083 0.132479
Si Si8 0.029265 0.376236 0.511321
O O1 0.451224 0.574135 0.902738
O O2 0.426883 0.276342 0.537981
O O3 0.643266 0.593061 0.790022
O O4 0.276326 0.270977 0.940550
O O5 0.806643 0.146012 0.195195
O O6 0.978550 0.323127 0.379665
O O7 0.175970 0.454378 0.069391
O O8 0.933234 0.035185 0.974422
O O9 0.451279 0.637478 0.752908
O O10 0.525299 0.901285 0.138166
O O11 0.316967 0.955529 0.158544
O O12 0.673193 0.307539 0.152678
O O13 0.765061 0.351014 0.423231
O O14 0.500000 0.000000 0.500000
O O15 0.879415 0.322216 0.739321
O O16 0.000000 0.500000 0.000000
O O17 0.053220 0.235572 0.338518
#
# Coordination Sequence:
#
# PCOD9061755 Si02
#       8
#     2   2   2   2   2   2   2   2
#     4  11  23  46  69 102 138 184 234 284 352 409
#     4  12  25  43  69 106 139 179 234 285 355 410
#     4  12  25  46  68 102 145 181 232 286 350 421
#     4  11  26  45  71  98 141 188 231 281 346 422
#     4  12  25  43  66 104 144 181 222 289 354 410
#     4  11  25  47  68 101 137 184 236 284 345 415
#     4  11  24  44  74 105 139 178 237 297 344 407
#     4  12  24  43  74 101 138 181 234 291 348 412
#
# _framework density 21.675303
#
# number of rings (size 3 to 8) (size 9 to 14) (size 15 to 20)
#    0.000    0.500    3.750    4.125    5.250    1.000 
#    0.000    0.625    0.000    0.000    0.000    0.000 
#    0.000    0.000    0.000    0.000    0.000    0.000 
#
# Total GULP energy -89633.177634 kJ/mol
# GULP energy per Si atom -5602.073602 kJ/mol
# Density = 2.162597 g / cm^3
# Si number density = 21.675303 Si / 1000 Ang^3
#
#
#
# Elastic Constant Matrix: (Units=GPa)
#
#
# Indices 1 2 3 4 5 6 
#
# 1 76.3229 38.5465 21.4844 1.7111 7.7336 -3.6623
# 2 38.5465 116.5777 30.1419 13.4252 3.1327 2.2018
# 3 21.4844 30.1419 98.8066 4.2358 11.9231 -7.9573
# 4 1.7111 13.4252 4.2358 37.7005 -4.3687 2.7166
# 5 7.7336 3.1327 11.9231 -4.3687 26.4373 -5.3902
# 6 -3.6623 2.2018 -7.9573 2.7166 -5.3902 39.7246
#
#
#
# Elastic Compliance Matrix: (Units=1/GPa)
#
#
# Indices 1 2 3 4 5 6 
#
# 1 0.016456 -0.005050 -0.001611 0.000795 -0.003155 0.000992
# 2 -0.005050 0.011256 -0.002339 -0.003380 0.000380 -0.001275
# 3 -0.001611 -0.002339 0.011913 -0.001078 -0.004427 0.001840
# 4 0.000795 -0.003380 -0.001078 0.028494 0.005116 -0.001210
# 5 -0.003155 0.000380 -0.004427 0.005116 0.042403 0.004205
# 6 0.000992 -0.001275 0.001840 -0.001210 0.004205 0.026357
#
#
# Mechanical properties :
#
#
# Convention : Reuss Voigt Hill
#
# Bulk Modulus (GPa) = 46.24467 52.45033 49.34750
# Shear Modulus (GPa) = 30.84756 34.20809 32.52782
#
# Velocity S-wave (km/s) = 3.77658 3.97697 3.87807
# Velocity P-wave (km/s) = 6.35596 6.73344 6.54742
#
# Compressibility (1/GPa) = 0.02162412
#
# Stress axis : x y z
#
# Youngs Moduli (GPa) = 60.76921 88.84339 83.93921
#
# Poissons Ratio (x) = 0.44867 0.13523
# Poissons Ratio (y) = 0.30689 0.19635
# Poissons Ratio (z) = 0.09790 0.20783
#
# Static dielectric constant tensor:
#      x y z
#    x 1.779210 -0.005420 -0.001090 
#    y -0.005420 1.766630 0.016430 
#    z -0.001090 0.016430 1.765680 
# 
# From -- ./inp_files/428947.got.cif
#   From: 2010.05.17/outbox.cif.g08.bks.cpg/sg2_215_cif.got.tgz:428947.got - 2010.06.03 11:33:40.
