data_PCOD9061801
_publ_section_title
;
Structure prediction by ZEFSAII (Michael W. Deem and Ramdas Pophale) SiO2 
 PCOD9061801
Probable space group: P -1
;
_chemical_formula_sum "Si O2"
_cell_formula_units_Z 14
_cell_length_a 19.247300
_cell_length_b 8.977163
_cell_length_c 11.189713
_cell_angle_alpha 139.807562
_cell_angle_beta 134.480288
_cell_angle_gamma 28.449138
_cell_volume 591.745869
_symmetry_space_group_name_H-M "P -1"
_symmetry_group_IT_number 2
_symmetry_cell_setting 'triclinic'
loop_
_space_group_symop_operation_xyz
x,y,z
-x,-y,-z
loop_
_atom_site_type_symbol
_atom_site_label
_atom_site_fract_x
_atom_site_fract_y
_atom_site_fract_z
Si Si1 0.151455 0.297466 0.710106
Si Si2 0.496043 0.726257 0.818051
Si Si3 0.063498 0.375509 0.134915
Si Si4 0.851399 0.348246 0.473683
Si Si5 0.420656 0.377077 0.594942
Si Si6 0.741135 0.306048 0.658237
Si Si7 0.044609 0.906685 0.816960
O O1 0.080042 0.662878 0.811635
O O2 0.067751 0.364986 0.768267
O O3 0.324965 0.012290 0.755044
O O4 0.150894 0.100447 0.488169
O O5 0.500817 0.485756 0.762302
O O6 0.626449 0.453135 0.713392
O O7 0.500000 0.000000 0.000000
O O8 0.177830 0.367553 0.311216
O O9 0.000000 0.500000 0.000000
O O10 0.121801 0.013873 0.998380
O O11 0.726200 0.379586 0.354513
O O12 0.885912 0.318259 0.358528
O O13 0.000000 0.000000 0.500000
O O14 0.357191 0.462950 0.435008
O O15 0.500000 0.000000 0.500000
O O16 0.869072 0.265249 0.812921
#
# Coordination Sequence:
#
# PCOD9061801 Si02
#       7
#     2   2   2   2   2   2   2
#     4  11  24  44  69 106 138 190 245 288 359 432
#     4  11  26  47  71 101 145 189 239 294 358 433
#     4  12  24  41  69 104 142 185 234 302 359 420
#     4  12  23  44  68 102 141 186 232 296 370 416
#     4  11  25  43  70  99 138 185 240 286 358 429
#     4  11  23  46  70  98 140 194 232 289 364 425
#     4  12  25  42  73 103 143 181 244 299 353 432
#
# _framework density 23.658804
#
# number of rings (size 3 to 8) (size 9 to 14) (size 15 to 20)
#    0.000    0.571    4.286    4.286    4.000    1.143 
#    0.000    0.714    0.000    0.000    0.000    0.000 
#    0.000    0.000    0.000    0.000    0.000    0.000 
#
# Total GULP energy -78059.060220 kJ/mol
# GULP energy per Si atom -5575.647159 kJ/mol
# Density = 2.360496 g / cm^3
# Si number density = 23.658804 Si / 1000 Ang^3
#
#
#
# Elastic Constant Matrix: (Units=GPa)
#
#
# Indices 1 2 3 4 5 6 
#
# 1 185.6118 35.2554 53.7611 10.5870 10.5843 -7.7880
# 2 35.2554 67.5823 17.5988 24.2549 12.6482 15.6405
# 3 53.7611 17.5988 114.3704 17.0150 22.8242 9.5234
# 4 10.5870 24.2549 17.0150 27.9316 0.9567 11.8964
# 5 10.5843 12.6482 22.8242 0.9567 52.6666 14.0540
# 6 -7.7880 15.6405 9.5234 11.8964 14.0540 46.7710
#
#
#
# Elastic Compliance Matrix: (Units=1/GPa)
#
#
# Indices 1 2 3 4 5 6 
#
# 1 0.007118 -0.004157 -0.003229 0.001706 0.000206 0.002737
# 2 -0.004157 0.025314 0.002362 -0.020434 -0.005122 -0.002902
# 3 -0.003229 0.002362 0.012081 -0.007890 -0.004931 -0.000299
# 4 0.001706 -0.020434 -0.007890 0.061546 0.009475 -0.009778
# 5 0.000206 -0.005122 -0.004931 0.009475 0.023972 -0.006862
# 6 0.002737 -0.002902 -0.000299 -0.009778 -0.006862 0.027417
#
#
# Mechanical properties :
#
#
# Convention : Reuss Voigt Hill
#
# Bulk Modulus (GPa) = 29.01390 64.53277 46.77333
# Shear Modulus (GPa) = 27.93569 42.87046 35.40308
#
# Velocity S-wave (km/s) = 3.43997 4.26141 3.87253
# Velocity P-wave (km/s) = 5.29792 7.17973 6.30937
#
# Compressibility (1/GPa) = 0.03446624
#
# Stress axis : x y z
#
# Youngs Moduli (GPa) = 140.48487 39.50427 82.77716
#
# Poissons Ratio (x) = 0.16420 0.26730
# Poissons Ratio (y) = 0.58393 -0.19556
# Poissons Ratio (z) = 0.45364 -0.09333
#
# Static dielectric constant tensor:
#      x y z
#    x 2.182090 0.058960 0.235650 
#    y 0.058960 1.990320 0.032620 
#    z 0.235650 0.032620 2.276810 
# 
# From -- ./inp_files/283182.got.cif
#   From: 2010.05.17/outbox.cif.g08.bks.cpg/sg2_142_cif.got.tgz:283182.got - 2010.06.03 11:33:40.
