data_PCOD9061146
_publ_section_title
;
Structure prediction by ZEFSAII (Michael W. Deem and Ramdas Pophale) SiO2 
 PCOD9061146
Probable space group: P -1
;
_chemical_formula_sum "Si O2"
_cell_formula_units_Z 16
_cell_length_a 18.812550
_cell_length_b 7.881194
_cell_length_c 10.574071
_cell_angle_alpha 43.988193
_cell_angle_beta 138.758090
_cell_angle_gamma 107.969645
_cell_volume 618.372540
_symmetry_space_group_name_H-M "P -1"
_symmetry_group_IT_number 2
_symmetry_cell_setting 'triclinic'
loop_
_space_group_symop_operation_xyz
x,y,z
-x,-y,-z
loop_
_atom_site_type_symbol
_atom_site_label
_atom_site_fract_x
_atom_site_fract_y
_atom_site_fract_z
Si Si1 0.946541 0.040424 0.611025
Si Si2 0.597058 0.477381 0.748329
Si Si3 0.640009 0.028110 0.737361
Si Si4 0.367263 0.031126 0.771728
Si Si5 0.784318 0.467911 0.373270
Si Si6 0.213695 0.681873 0.275735
Si Si7 0.013989 0.390763 0.315085
Si Si8 0.733563 0.789713 0.713666
O O1 0.934317 0.816906 0.625488
O O2 0.067224 0.864458 0.955794
O O3 0.834260 0.258677 0.432902
O O4 0.980346 0.226279 0.463739
O O5 0.500000 0.500000 0.500000
O O6 0.505180 0.735920 0.579610
O O7 0.702356 0.534611 0.805174
O O8 0.647678 0.185112 0.044573
O O9 0.717443 0.187815 0.781644
O O10 0.694856 0.898019 0.744934
O O11 0.674783 0.776392 0.017524
O O12 0.265811 0.357470 0.484107
O O13 0.352856 0.989578 0.626856
O O14 0.500000 0.000000 0.000000
O O15 0.754114 0.333324 0.524294
O O16 0.893987 0.520406 0.545442
O O17 0.880118 0.662806 0.954900
#
# Coordination Sequence:
#
# PCOD9061146 Si02
#       8
#     2   2   2   2   2   2   2   2
#     4  11  23  44  73 106 147 194 244 300 364 438
#     4  12  26  47  79 104 143 193 247 299 371 441
#     4  12  26  48  75 108 150 188 245 309 365 439
#     4  12  25  48  73 104 144 190 247 301 363 436
#     4  12  26  47  76 110 151 201 241 302 377 437
#     4  12  25  46  75 105 147 197 242 301 372 434
#     4  11  24  46  75 106 153 193 242 304 367 437
#     4  12  26  48  75 108 146 193 244 308 368 437
#
# _framework density 25.874369000000002
#
# number of rings (size 3 to 8) (size 9 to 14) (size 15 to 20)
#    0.000    0.250    6.250    2.625    0.000    4.000 
#    4.500    0.000    0.000    0.000    0.000    0.000 
#    0.000    0.000    0.000    0.000    0.000    0.000 
#
# Total GULP energy -89842.256748 kJ/mol
# GULP energy per Si atom -5615.141047 kJ/mol
# Density = 2.581548 g / cm^3
# Si number density = 25.874369 Si / 1000 Ang^3
#
#
#
# Elastic Constant Matrix: (Units=GPa)
#
#
# Indices 1 2 3 4 5 6 
#
# 1 72.4702 20.5635 22.5868 -6.7816 -12.2784 0.1389
# 2 20.5635 103.5970 10.9855 3.3552 -0.0508 -6.8090
# 3 22.5868 10.9855 141.5228 -9.0567 -20.4368 7.5188
# 4 -6.7816 3.3552 -9.0567 43.2825 -3.1385 3.7273
# 5 -12.2784 -0.0508 -20.4368 -3.1385 52.1219 1.6301
# 6 0.1389 -6.8090 7.5188 3.7273 1.6301 57.9649
#
#
#
# Elastic Compliance Matrix: (Units=1/GPa)
#
#
# Indices 1 2 3 4 5 6 
#
# 1 0.016006 -0.003119 -0.001640 0.002685 0.003301 -0.000457
# 2 -0.003119 0.010491 -0.000663 -0.001649 -0.001129 0.001464
# 3 -0.001640 -0.000663 0.007980 0.001786 0.002890 -0.001305
# 4 0.002685 -0.001649 0.001786 0.024414 0.002867 -0.002082
# 5 0.003301 -0.001129 0.002890 0.002867 0.021309 -0.001299
# 6 -0.000457 0.001464 -0.001305 -0.002082 -0.001299 0.017765
#
#
# Mechanical properties :
#
#
# Convention : Reuss Voigt Hill
#
# Bulk Modulus (GPa) = 42.31049 47.31796 44.81423
# Shear Modulus (GPa) = 42.85028 48.23748 45.54388
#
# Velocity S-wave (km/s) = 4.07392 4.32243 4.20002
# Velocity P-wave (km/s) = 6.20620 6.57560 6.39357
#
# Compressibility (1/GPa) = 0.02363480
#
# Stress axis : x y z
#
# Youngs Moduli (GPa) = 62.47611 95.31823 125.30996
#
# Poissons Ratio (x) = 0.29727 0.20547
# Poissons Ratio (y) = 0.19484 0.08308
# Poissons Ratio (z) = 0.10244 0.06319
#
# Static dielectric constant tensor:
#      x y z
#    x 2.018380 -0.039880 -0.016270 
#    y -0.039880 2.138110 0.002700 
#    z -0.016270 0.002700 1.968080 
# 
# From -- ./inp_files/469777.got.cif
#   From: 2010.05.17/outbox.cif.g08.bks.cpg/sg2_235_cif.got.tgz:469777.got - 2010.06.03 11:33:40.
