data_PCOD9061274
_publ_section_title
;
Structure prediction by ZEFSAII (Michael W. Deem and Ramdas Pophale) SiO2 
 PCOD9061274
Probable space group: P -1
;
_chemical_formula_sum "Si O2"
_cell_formula_units_Z 10
_cell_length_a 8.621420
_cell_length_b 9.522034
_cell_length_c 9.911688
_cell_angle_alpha 87.644367
_cell_angle_beta 45.409523
_cell_angle_gamma 54.394142
_cell_volume 363.975541
_symmetry_space_group_name_H-M "P -1"
_symmetry_group_IT_number 2
_symmetry_cell_setting 'triclinic'
loop_
_space_group_symop_operation_xyz
x,y,z
-x,-y,-z
loop_
_atom_site_type_symbol
_atom_site_label
_atom_site_fract_x
_atom_site_fract_y
_atom_site_fract_z
Si Si1 0.103383 0.146073 0.233723
Si Si2 0.243071 0.541687 0.064869
Si Si3 0.613211 0.181325 0.616742
Si Si4 0.706778 0.608259 0.492237
Si Si5 0.739835 0.933374 0.152986
O O1 0.999875 0.048537 0.363388
O O2 0.838577 0.388076 0.453915
O O3 0.031745 0.184348 0.115904
O O4 0.500000 0.000000 0.000000
O O5 0.048780 0.531895 0.282338
O O6 0.964259 0.783029 0.152541
O O7 0.500000 0.500000 0.000000
O O8 0.406305 0.367279 0.851814
O O9 0.430148 0.312307 0.581008
O O10 0.546831 0.048267 0.681184
O O11 0.434326 0.827455 0.740355
#
# Coordination Sequence:
#
# PCOD9061274 Si02
#       5
#     2   2   2   2   2
#     4  12  28  47  74 111 146 193 250 302 358 436
#     4  11  23  44  80 111 142 194 248 296 366 438
#     4  11  23  50  77 101 152 196 237 303 370 429
#     4  11  24  49  74 107 149 192 242 297 368 433
#     4  11  25  51  76 106 150 195 239 302 367 435
#
# _framework density 27.474373
#
# number of rings (size 3 to 8) (size 9 to 14) (size 15 to 20)
#    0.000    0.800    4.000    4.200    2.800    5.600 
#    3.600    0.000    0.000    0.000    0.000    0.000 
#    0.000    0.000    0.000    0.000    0.000    0.000 
#
# Total GULP energy -56178.884065 kJ/mol
# GULP energy per Si atom -5617.888406 kJ/mol
# Density = 2.741184 g / cm^3
# Si number density = 27.474373 Si / 1000 Ang^3
#
#
#
# Elastic Constant Matrix: (Units=GPa)
#
#
# Indices 1 2 3 4 5 6 
#
# 1 120.0717 30.2557 31.8224 8.3399 -11.7739 23.6852
# 2 30.2557 136.9875 49.4523 5.0624 -0.4474 10.7127
# 3 31.8224 49.4523 103.4830 4.2461 -6.1308 24.6210
# 4 8.3399 5.0624 4.2461 61.3334 11.2764 3.9204
# 5 -11.7739 -0.4474 -6.1308 11.2764 43.3396 -0.1960
# 6 23.6852 10.7127 24.6210 3.9204 -0.1960 34.4466
#
#
#
# Elastic Compliance Matrix: (Units=1/GPa)
#
#
# Indices 1 2 3 4 5 6 
#
# 1 0.010506 -0.001479 -0.000865 -0.001428 0.003061 -0.005966
# 2 -0.001479 0.009053 -0.004205 -0.000177 -0.000852 0.001223
# 3 -0.000865 -0.004205 0.013967 -0.000309 0.001741 -0.008035
# 4 -0.001428 -0.000177 -0.000309 0.017501 -0.004990 -0.000763
# 5 0.003061 -0.000852 0.001741 -0.004990 0.025431 -0.002372
# 6 -0.005966 0.001223 -0.008035 -0.000763 -0.002372 0.038569
#
#
# Mechanical properties :
#
#
# Convention : Reuss Voigt Hill
#
# Bulk Modulus (GPa) = 48.95300 64.84476 56.89888
# Shear Modulus (GPa) = 37.05515 44.42470 40.73992
#
# Velocity S-wave (km/s) = 3.67647 4.02549 3.85494
# Velocity P-wave (km/s) = 5.98985 6.72750 6.36936
#
# Compressibility (1/GPa) = 0.02042776
#
# Stress axis : x y z
#
# Youngs Moduli (GPa) = 95.17944 110.46186 71.59906
#
# Poissons Ratio (x) = 0.16338 0.06191
# Poissons Ratio (y) = 0.14077 0.30111
# Poissons Ratio (z) = 0.08229 0.46455
#
# Static dielectric constant tensor:
#      x y z
#    x 2.227530 -0.004070 -0.064140 
#    y -0.004070 2.070340 -0.000810 
#    z -0.064140 -0.000810 2.078070 
# 
# From -- ./inp_files/144281.got.cif
#   From: 2010.05.17/outbox.cif.g08.bks.cpg/sg2_73_cif.got.tgz:144281.got - 2010.06.03 11:33:40.
