data_PCOD9061229
_publ_section_title
;
Structure prediction by ZEFSAII (Michael W. Deem and Ramdas Pophale) SiO2 
 PCOD9061229
Probable space group: P -1
;
_chemical_formula_sum "Si O2"
_cell_formula_units_Z 14
_cell_length_a 12.435454
_cell_length_b 9.421485
_cell_length_c 9.201142
_cell_angle_alpha 59.806161
_cell_angle_beta 115.839422
_cell_angle_gamma 72.525523
_cell_volume 624.210011
_symmetry_space_group_name_H-M "P -1"
_symmetry_group_IT_number 2
_symmetry_cell_setting 'triclinic'
loop_
_space_group_symop_operation_xyz
x,y,z
-x,-y,-z
loop_
_atom_site_type_symbol
_atom_site_label
_atom_site_fract_x
_atom_site_fract_y
_atom_site_fract_z
Si Si1 0.396322 0.069400 0.257845
Si Si2 0.571845 0.768827 0.093069
Si Si3 0.131221 0.697104 0.343229
Si Si4 0.946748 0.081153 0.262797
Si Si5 0.424288 0.570675 0.078405
Si Si6 0.612362 0.277095 0.592989
Si Si7 0.044334 0.301826 0.034420
O O1 0.500000 0.000000 0.500000
O O2 0.432105 0.862977 0.306712
O O3 0.402366 0.209663 0.073102
O O4 0.217809 0.189508 0.137946
O O5 0.733795 0.539427 0.375204
O O6 0.443167 0.742878 0.045920
O O7 0.500000 0.000000 0.000000
O O8 0.216924 0.784459 0.282754
O O9 0.060519 0.657337 0.188187
O O10 0.000294 0.882841 0.288399
O O11 0.758660 0.300077 0.054876
O O12 0.000000 0.000000 0.500000
O O13 0.038575 0.153245 0.215401
O O14 0.500000 0.500000 0.000000
O O15 0.544276 0.346381 0.354520
O O16 0.500000 0.500000 0.500000
O O17 0.000000 0.500000 0.000000
#
# Coordination Sequence:
#
# PCOD9061229 Si02
#       7
#     2   2   2   2   2   2   2
#     4  12  28  46  73 110 154 190 247 309 381 449
#     4  11  27  46  75 108 145 198 246 308 377 442
#     4  11  26  52  74 108 152 197 264 304 376 455
#     4  12  27  47  79 109 149 197 255 315 377 451
#     4  11  25  45  72 102 144 191 246 297 369 455
#     4  11  23  44  76 101 138 196 246 301 365 449
#     4  12  31  48  74 112 153 200 248 319 386 434
#
# _framework density 22.428349999999998
#
# number of rings (size 3 to 8) (size 9 to 14) (size 15 to 20)
#    0.000    0.571    1.429    5.571   16.000    0.571 
#    0.000    0.000    0.000    0.000    0.000    0.000 
#    0.000    0.000    0.000    0.000    0.000    0.000 
#
# Total GULP energy -78201.149137 kJ/mol
# GULP energy per Si atom -5585.796367 kJ/mol
# Density = 2.237730 g / cm^3
# Si number density = 22.428350 Si / 1000 Ang^3
#
#
#
# Elastic Constant Matrix: (Units=GPa)
#
#
# Indices 1 2 3 4 5 6 
#
# 1 96.8580 1.9065 25.0393 11.6550 -7.2347 3.3299
# 2 1.9065 133.6134 16.4953 3.7606 -4.8246 4.9720
# 3 25.0393 16.4953 93.3397 24.7173 -16.7945 6.1305
# 4 11.6550 3.7606 24.7173 43.5188 -1.1018 -5.9299
# 5 -7.2347 -4.8246 -16.7945 -1.1018 48.4845 -2.4083
# 6 3.3299 4.9720 6.1305 -5.9299 -2.4083 42.8421
#
#
#
# Elastic Compliance Matrix: (Units=1/GPa)
#
#
# Indices 1 2 3 4 5 6 
#
# 1 0.011236 0.000242 -0.002402 -0.001749 0.000791 -0.000755
# 2 0.000242 0.007681 -0.001297 -0.000082 0.000314 -0.000718
# 3 -0.002402 -0.001297 0.014581 -0.007771 0.004258 -0.002585
# 4 -0.001749 -0.000082 -0.007771 0.028509 -0.002060 0.005088
# 5 0.000791 0.000314 0.004258 -0.002060 0.022215 0.000256
# 6 -0.000755 -0.000718 -0.002585 0.005088 0.000256 0.024572
#
#
# Mechanical properties :
#
#
# Convention : Reuss Voigt Hill
#
# Bulk Modulus (GPa) = 37.61604 45.63260 41.62432
# Shear Modulus (GPa) = 40.13825 45.66041 42.89933
#
# Velocity S-wave (km/s) = 4.23498 4.51692 4.37822
# Velocity P-wave (km/s) = 6.38134 6.89880 6.64511
#
# Compressibility (1/GPa) = 0.02658440
#
# Stress axis : x y z
#
# Youngs Moduli (GPa) = 88.99919 130.18590 68.58332
#
# Poissons Ratio (x) = -0.03152 0.16473
# Poissons Ratio (y) = -0.02155 0.08896
# Poissons Ratio (z) = 0.21376 0.16887
#
# Static dielectric constant tensor:
#      x y z
#    x 2.346670 -0.331730 -0.710240 
#    y -0.331730 2.096660 0.509410 
#    z -0.710240 0.509410 2.818510 
# 
# From -- ./inp_files/156966.got.cif
#   From: 2010.05.17/outbox.cif.g08.bks.cpg/sg2_79_cif.got.tgz:156966.got - 2010.06.03 11:33:40.
