data_PCOD9061189
_publ_section_title
;
Structure prediction by ZEFSAII (Michael W. Deem and Ramdas Pophale) SiO2 
 PCOD9061189
Probable space group: P -1
;
_chemical_formula_sum "Si O2"
_cell_formula_units_Z 16
_cell_length_a 13.302534
_cell_length_b 8.549759
_cell_length_c 11.824026
_cell_angle_alpha 64.109118
_cell_angle_beta 134.981652
_cell_angle_gamma 86.339361
_cell_volume 693.783238
_symmetry_space_group_name_H-M "P -1"
_symmetry_group_IT_number 2
_symmetry_cell_setting 'triclinic'
loop_
_space_group_symop_operation_xyz
x,y,z
-x,-y,-z
loop_
_atom_site_type_symbol
_atom_site_label
_atom_site_fract_x
_atom_site_fract_y
_atom_site_fract_z
Si Si1 0.124874 0.801337 0.318959
Si Si2 0.183218 0.969989 0.684588
Si Si3 0.056745 0.481493 0.918299
Si Si4 0.890254 0.570361 0.510126
Si Si5 0.301074 0.619919 0.054987
Si Si6 0.259224 0.792567 0.188504
Si Si7 0.383660 0.809604 0.672487
Si Si8 0.583358 0.972456 0.695785
O O1 0.168986 0.592057 0.488241
O O2 0.201493 0.739958 0.273096
O O3 0.223872 0.887627 0.434825
O O4 0.920032 0.996080 0.075641
O O5 0.183776 0.178301 0.629600
O O6 0.313639 0.819902 0.736407
O O7 0.000000 0.000000 0.500000
O O8 0.257108 0.836424 0.899970
O O9 0.943361 0.529727 0.700221
O O10 0.129138 0.623958 0.914011
O O11 0.222408 0.240704 0.100333
O O12 0.000000 0.500000 0.000000
O O13 0.000000 0.500000 0.500000
O O14 0.344986 0.605006 0.225340
O O15 0.455455 0.420488 0.171289
O O16 0.392355 0.850481 0.302912
O O17 0.461884 0.947448 0.689521
O O18 0.500000 0.000000 0.500000
#
# Coordination Sequence:
#
# PCOD9061189 Si02
#       8
#     2   2   2   2   2   2   2   2
#     4  11  24  43  72 105 143 189 243 301 352 440
#     4  12  25  46  75 100 140 196 244 290 363 443
#     4  11  25  44  72 106 146 191 243 296 360 436
#     4  12  25  43  71 110 145 185 252 304 356 429
#     4  11  25  45  69 103 144 186 236 306 365 429
#     4  11  23  44  74 105 141 189 245 294 366 437
#     4  11  26  46  69 104 145 185 237 298 371 432
#     4  11  24  45  70 106 150 185 233 304 369 437
#
# _framework density 23.061959000000002
#
# number of rings (size 3 to 8) (size 9 to 14) (size 15 to 20)
#    0.000    0.750    3.750    3.375    3.500    1.500 
#    0.000    1.250    0.000    0.000    0.000    0.000 
#    0.000    0.000    0.000    0.000    0.000    0.000 
#
# Total GULP energy -89259.862933 kJ/mol
# GULP energy per Si atom -5578.741433 kJ/mol
# Density = 2.300947 g / cm^3
# Si number density = 23.061959 Si / 1000 Ang^3
#
#
#
# Elastic Constant Matrix: (Units=GPa)
#
#
# Indices 1 2 3 4 5 6 
#
# 1 177.5505 51.2818 24.4545 3.3832 -9.6077 -16.4962
# 2 51.2818 93.5259 11.5086 -0.4358 6.6213 2.5561
# 3 24.4545 11.5086 52.6703 -5.3537 -5.5325 9.2067
# 4 3.3832 -0.4358 -5.3537 31.4682 3.1647 -9.4951
# 5 -9.6077 6.6213 -5.5325 3.1647 27.5899 7.9315
# 6 -16.4962 2.5561 9.2067 -9.4951 7.9315 51.2043
#
#
#
# Elastic Compliance Matrix: (Units=1/GPa)
#
#
# Indices 1 2 3 4 5 6 
#
# 1 0.007597 -0.004046 -0.002944 -0.000806 0.002353 0.002665
# 2 -0.004046 0.013436 -0.001335 0.000598 -0.004713 -0.000893
# 3 -0.002944 -0.001335 0.022306 0.001981 0.005068 -0.005310
# 4 -0.000806 0.000598 0.001981 0.034843 -0.005961 0.006739
# 5 0.002353 -0.004713 0.005068 -0.005961 0.042063 -0.007539
# 6 0.002665 -0.000893 -0.005310 0.006739 -0.007539 0.023805
#
#
# Mechanical properties :
#
#
# Convention : Reuss Voigt Hill
#
# Bulk Modulus (GPa) = 37.46893 55.35963 46.41428
# Shear Modulus (GPa) = 29.48187 37.81926 33.65057
#
# Velocity S-wave (km/s) = 3.57932 4.05396 3.82401
# Velocity P-wave (km/s) = 5.77619 6.78009 6.29817
#
# Compressibility (1/GPa) = 0.02668878
#
# Stress axis : x y z
#
# Youngs Moduli (GPa) = 131.63906 74.42673 44.83034
#
# Poissons Ratio (x) = 0.30115 0.13196
# Poissons Ratio (y) = 0.53264 0.05986
# Poissons Ratio (z) = 0.38748 0.09938
#
# Static dielectric constant tensor:
#      x y z
#    x 1.844350 0.048970 0.051280 
#    y 0.048970 1.923310 0.015640 
#    z 0.051280 0.015640 1.886210 
# 
# From -- ./inp_files/419205.got.cif
#   From: 2010.05.17/outbox.cif.g08.bks.cpg/sg2_210_cif.got.tgz:419205.got - 2010.06.03 11:33:40.
