data_PCOD9061481
_publ_section_title
;
Structure prediction by ZEFSAII (Michael W. Deem and Ramdas Pophale) SiO2 
 PCOD9061481
Probable space group: P -1
;
_chemical_formula_sum "Si O2"
_cell_formula_units_Z 16
_cell_length_a 9.436429
_cell_length_b 11.303060
_cell_length_c 19.898341
_cell_angle_alpha 159.262570
_cell_angle_beta 69.510711
_cell_angle_gamma 110.507348
_cell_volume 702.268156
_symmetry_space_group_name_H-M "P -1"
_symmetry_group_IT_number 2
_symmetry_cell_setting 'triclinic'
loop_
_space_group_symop_operation_xyz
x,y,z
-x,-y,-z
loop_
_atom_site_type_symbol
_atom_site_label
_atom_site_fract_x
_atom_site_fract_y
_atom_site_fract_z
Si Si1 0.118569 0.730056 0.422709
Si Si2 0.689929 0.263808 0.166053
Si Si3 0.899183 0.484838 0.442002
Si Si4 0.500351 0.319728 0.818143
Si Si5 0.747817 0.752902 0.082760
Si Si6 0.631312 0.680187 0.528735
Si Si7 0.004481 0.448755 0.796573
Si Si8 0.570976 0.499004 0.756387
O O1 0.098284 0.621240 0.290310
O O2 0.288784 0.687213 0.394399
O O3 0.010304 0.507809 0.371983
O O4 0.067805 0.106072 0.630165
O O5 0.687923 0.436981 0.331312
O O6 0.564360 0.450094 0.244484
O O7 0.851424 0.323301 0.133704
O O8 0.638142 0.872276 0.965003
O O9 0.777789 0.761868 0.595378
O O10 0.000000 0.500000 0.500000
O O11 0.794500 0.143403 0.282019
O O12 0.328959 0.345334 0.885533
O O13 0.512550 0.308364 0.731002
O O14 0.569391 0.000999 0.672927
O O15 0.609392 0.634492 0.993260
O O16 0.897506 0.590100 0.945640
O O17 0.500000 0.500000 0.500000
#
# Coordination Sequence:
#
# PCOD9061481 Si02
#       8
#     2   2   2   2   2   2   2   2
#     4  11  24  43  72 101 142 180 235 293 347 421
#     4  11  26  45  72 106 141 185 233 295 353 424
#     4  12  27  46  69 106 143 188 237 297 359 417
#     4  11  24  44  73 107 140 192 236 290 355 427
#     4  11  24  44  71 104 139 192 234 289 358 420
#     4  12  25  45  70 101 142 187 241 286 355 429
#     4  11  23  45  71 105 135 185 238 287 353 418
#     4  11  25  45  71 108 143 181 237 291 355 419
#
# _framework density 22.783318999999999
#
# number of rings (size 3 to 8) (size 9 to 14) (size 15 to 20)
#    0.000    0.750    3.750    3.000    3.500    4.000 
#    0.000    3.125    0.000    0.000    0.000    0.000 
#    0.000    0.000    0.000    0.000    0.000    0.000 
#
# Total GULP energy -89566.883548 kJ/mol
# GULP energy per Si atom -5597.930222 kJ/mol
# Density = 2.273146 g / cm^3
# Si number density = 22.783319 Si / 1000 Ang^3
#
#
#
# Elastic Constant Matrix: (Units=GPa)
#
#
# Indices 1 2 3 4 5 6 
#
# 1 130.9203 74.5897 45.0163 -1.4999 -25.6471 10.5507
# 2 74.5897 133.4152 28.0508 7.2590 -6.0651 25.1775
# 3 45.0163 28.0508 63.8578 7.0058 -1.5603 2.5064
# 4 -1.4999 7.2590 7.0058 26.1676 11.1910 -13.3001
# 5 -25.6471 -6.0651 -1.5603 11.1910 34.7761 0.7099
# 6 10.5507 25.1775 2.5064 -13.3001 0.7099 47.9957
#
#
#
# Elastic Compliance Matrix: (Units=1/GPa)
#
#
# Indices 1 2 3 4 5 6 
#
# 1 0.016644 -0.007288 -0.008457 0.001295 0.010191 0.000814
# 2 -0.007288 0.013335 0.000447 -0.007981 -0.000305 -0.007624
# 3 -0.008457 0.000447 0.021995 -0.005582 -0.003355 -0.001022
# 4 0.001295 -0.007981 -0.005582 0.062050 -0.021098 0.021700
# 5 0.010191 -0.000305 -0.003355 -0.021098 0.043028 -0.008388
# 6 0.000814 -0.007624 -0.001022 0.021700 -0.008388 0.030846
#
#
# Mechanical properties :
#
#
# Convention : Reuss Voigt Hill
#
# Bulk Modulus (GPa) = 46.77389 69.27853 58.02621
# Shear Modulus (GPa) = 22.16123 33.82365 27.99244
#
# Velocity S-wave (km/s) = 3.12219 3.85720 3.50900
# Velocity P-wave (km/s) = 5.79412 7.09302 6.47622
#
# Compressibility (1/GPa) = 0.02137945
#
# Stress axis : x y z
#
# Youngs Moduli (GPa) = 60.08231 74.99065 45.46431
#
# Poissons Ratio (x) = 0.54654 0.38448
# Poissons Ratio (y) = 0.43788 -0.02034
# Poissons Ratio (z) = 0.50809 -0.03355
#
# Static dielectric constant tensor:
#      x y z
#    x 1.840210 -0.001060 -0.000150 
#    y -0.001060 1.821620 0.009670 
#    z -0.000150 0.009670 1.873730 
# 
# From -- ./inp_files/589775.got.cif
#   From: 2010.05.17/outbox.cif.g08.bks.cpg/sg2_295_cif.got.tgz:589775.got - 2010.06.03 11:33:40.
