data_PCOD9061305
_publ_section_title
;
Structure prediction by ZEFSAII (Michael W. Deem and Ramdas Pophale) SiO2 
 PCOD9061305
Probable space group: P -1
;
_chemical_formula_sum "Si O2"
_cell_formula_units_Z 16
_cell_length_a 15.775236
_cell_length_b 12.034148
_cell_length_c 12.012012
_cell_angle_alpha 107.167580
_cell_angle_beta 54.963111
_cell_angle_gamma 153.005670
_cell_volume 689.028245
_symmetry_space_group_name_H-M "P -1"
_symmetry_group_IT_number 2
_symmetry_cell_setting 'triclinic'
loop_
_space_group_symop_operation_xyz
x,y,z
-x,-y,-z
loop_
_atom_site_type_symbol
_atom_site_label
_atom_site_fract_x
_atom_site_fract_y
_atom_site_fract_z
Si Si1 0.461649 0.687484 0.794425
Si Si2 0.728762 0.183803 0.672917
Si Si3 0.577565 0.599859 0.158404
Si Si4 0.115358 0.125771 0.221465
Si Si5 0.735563 0.896923 0.336740
Si Si6 0.130081 0.496067 0.152697
Si Si7 0.706488 0.224074 0.306532
Si Si8 0.832045 0.607318 0.299588
O O1 0.505769 0.600436 0.768285
O O2 0.240858 0.460621 0.795868
O O3 0.702201 0.018441 0.667386
O O4 0.338454 0.630875 0.973014
O O5 0.731773 0.263066 0.805475
O O6 0.000000 0.500000 0.500000
O O7 0.477377 0.957393 0.717721
O O8 0.316737 0.388397 0.236980
O O9 0.735943 0.846228 0.196304
O O10 0.748917 0.737454 0.962585
O O11 0.838686 0.906282 0.347295
O O12 0.063005 0.939327 0.243311
O O13 0.437872 0.629923 0.506633
O O14 0.941594 0.216418 0.285033
O O15 0.919193 0.341027 0.183979
O O16 0.870506 0.514539 0.277242
O O17 0.500000 0.000000 0.500000
#
# Coordination Sequence:
#
# PCOD9061305 Si02
#       8
#     2   2   2   2   2   2   2   2
#     4  11  24  46  67  98 136 178 219 275 337 386
#     4  11  24  43  68  97 133 172 223 274 325 395
#     4  11  25  44  68  99 134 176 220 275 331 397
#     4  11  24  43  66  99 132 172 225 269 331 396
#     4  12  23  45  68  98 137 175 218 275 337 387
#     4  12  24  44  72  95 137 179 218 274 332 398
#     4  11  23  45  67 101 133 176 221 271 336 388
#     4  11  24  43  69  97 136 174 221 279 326 398
#
# _framework density 23.221109999999999
#
# number of rings (size 3 to 8) (size 9 to 14) (size 15 to 20)
#    0.000    0.750    5.000    2.625    1.750    3.500 
#    2.250    0.000    0.000    0.000    0.000    0.000 
#    0.000    0.000    0.000    0.000    0.000    0.000 
#
# Total GULP energy -89569.197258 kJ/mol
# GULP energy per Si atom -5598.074829 kJ/mol
# Density = 2.316826 g / cm^3
# Si number density = 23.221110 Si / 1000 Ang^3
#
#
#
# Elastic Constant Matrix: (Units=GPa)
#
#
# Indices 1 2 3 4 5 6 
#
# 1 66.5895 21.7060 8.1308 0.6581 4.5570 -12.4221
# 2 21.7060 85.4795 -8.4007 -8.4753 3.6569 -1.1385
# 3 8.1308 -8.4007 47.1062 -3.2829 9.7065 -0.1929
# 4 0.6581 -8.4753 -3.2829 25.7315 -9.7936 9.8948
# 5 4.5570 3.6569 9.7065 -9.7936 27.1760 -9.8770
# 6 -12.4221 -1.1385 -0.1929 9.8948 -9.8770 39.6105
#
#
#
# Elastic Compliance Matrix: (Units=1/GPa)
#
#
# Indices 1 2 3 4 5 6 
#
# 1 0.018834 -0.005700 -0.004589 -0.005770 -0.000252 0.007099
# 2 -0.005700 0.014179 0.004221 0.006043 -0.001457 -0.003232
# 3 -0.004589 0.004221 0.024844 0.002789 -0.009188 -0.004185
# 4 -0.005770 0.006043 0.002789 0.050678 0.013450 -0.010928
# 5 -0.000252 -0.001457 -0.009188 0.013450 0.048256 0.008508
# 6 0.007099 -0.003232 -0.004185 -0.010928 0.008508 0.032210
#
#
# Mechanical properties :
#
#
# Convention : Reuss Voigt Hill
#
# Bulk Modulus (GPa) = 21.87193 26.89415 24.38304
# Shear Modulus (GPa) = 23.10758 30.35287 26.73023
#
# Velocity S-wave (km/s) = 3.15796 3.61934 3.39649
# Velocity P-wave (km/s) = 4.76827 5.39194 5.08967
#
# Compressibility (1/GPa) = 0.04572070
#
# Stress axis : x y z
#
# Youngs Moduli (GPa) = 53.09429 70.52439 40.25148
#
# Poissons Ratio (x) = 0.40202 0.18470
# Poissons Ratio (y) = 0.30266 -0.16989
# Poissons Ratio (z) = 0.24364 -0.29766
#
# Static dielectric constant tensor:
#      x y z
#    x 1.853290 -0.013970 0.010280 
#    y -0.013970 1.845670 -0.004190 
#    z 0.010280 -0.004190 1.896000 
# 
# From -- ./inp_files/345377.got.cif
#   From: 2010.05.17/outbox.cif.g08.bks.cpg/sg2_173_cif.got.tgz:345377.got - 2010.06.03 11:33:40.
