data_PCOD9061799
_publ_section_title
;
Structure prediction by ZEFSAII (Michael W. Deem and Ramdas Pophale) SiO2 
 PCOD9061799
Probable space group: P -1
;
_chemical_formula_sum "Si O2"
_cell_formula_units_Z 16
_cell_length_a 14.278769
_cell_length_b 9.336379
_cell_length_c 11.972984
_cell_angle_alpha 37.010859
_cell_angle_beta 114.042968
_cell_angle_gamma 131.496224
_cell_volume 692.964749
_symmetry_space_group_name_H-M "P -1"
_symmetry_group_IT_number 2
_symmetry_cell_setting 'triclinic'
loop_
_space_group_symop_operation_xyz
x,y,z
-x,-y,-z
loop_
_atom_site_type_symbol
_atom_site_label
_atom_site_fract_x
_atom_site_fract_y
_atom_site_fract_z
Si Si1 0.916380 0.026736 0.174615
Si Si2 0.729248 0.715948 0.081954
Si Si3 0.439515 0.088824 0.082609
Si Si4 0.702707 0.340195 0.923870
Si Si5 0.745838 0.926349 0.555902
Si Si6 0.105017 0.701927 0.806419
Si Si7 0.098529 0.854856 0.299040
Si Si8 0.553003 0.034408 0.380437
O O1 0.898735 0.054240 0.280005
O O2 0.790856 0.779447 0.195559
O O3 0.023152 0.981548 0.226270
O O4 0.972675 0.364371 0.954144
O O5 0.675688 0.392069 0.208899
O O6 0.605307 0.712433 0.029926
O O7 0.841927 0.995037 0.886164
O O8 0.450488 0.952026 0.286163
O O9 0.339888 0.862809 0.079927
O O10 0.577995 0.250705 0.989734
O O11 0.761326 0.669674 0.705270
O O12 0.791253 0.310498 0.066858
O O13 0.850483 0.199981 0.358223
O O14 0.776691 0.016540 0.643430
O O15 0.608099 0.847020 0.509288
O O16 0.000000 0.500000 0.500000
O O17 0.500000 0.000000 0.500000
#
# Coordination Sequence:
#
# PCOD9061799 Si02
#       8
#     2   2   2   2   2   2   2   2
#     4  11  24  44  70  98 136 179 222 283 343 390
#     4  12  24  44  70  98 142 178 222 284 334 408
#     4  11  24  44  70  98 136 179 222 283 343 390
#     4  11  23  46  70  98 135 174 228 287 334 400
#     4  12  24  42  70  96 134 176 224 278 338 400
#     4  11  23  46  70  98 135 174 228 287 334 400
#     4  12  25  42  66 102 138 181 226 272 338 412
#     4  12  25  42  66 102 138 181 226 272 338 412
#
# _framework density 23.089196000000001
#
# number of rings (size 3 to 8) (size 9 to 14) (size 15 to 20)
#    0.000    0.500    3.750    5.250    0.000    3.000 
#    0.000    0.000    0.000    0.000    0.000    0.000 
#    0.000    0.000    0.000    0.000    0.000    0.000 
#
# Total GULP energy -89484.069786 kJ/mol
# GULP energy per Si atom -5592.754362 kJ/mol
# Density = 2.303664 g / cm^3
# Si number density = 23.089196 Si / 1000 Ang^3
#
#
#
# Elastic Constant Matrix: (Units=GPa)
#
#
# Indices 1 2 3 4 5 6 
#
# 1 89.0679 -2.1324 2.2876 5.3224 11.3333 -9.5939
# 2 -2.1324 82.6812 7.8646 9.0729 8.7182 -0.7577
# 3 2.2876 7.8646 64.9691 0.9875 -6.5213 -9.6464
# 4 5.3224 9.0729 0.9875 34.6876 0.2272 2.6589
# 5 11.3333 8.7182 -6.5213 0.2272 31.1663 4.7016
# 6 -9.5939 -0.7577 -9.6464 2.6589 4.7016 34.2526
#
#
#
# Elastic Compliance Matrix: (Units=1/GPa)
#
#
# Indices 1 2 3 4 5 6 
#
# 1 0.012624 0.001294 -0.000479 -0.002563 -0.005700 0.004411
# 2 0.001294 0.013215 -0.001906 -0.003650 -0.004697 0.001046
# 3 -0.000479 -0.001906 0.016600 -0.000232 0.003575 0.004026
# 4 -0.002563 -0.003650 -0.000232 0.030439 0.002215 -0.003531
# 5 -0.005700 -0.004697 0.003575 0.002215 0.037103 -0.005958
# 6 0.004411 0.001046 0.004026 -0.003531 -0.005958 0.032679
#
#
# Mechanical properties :
#
#
# Convention : Reuss Voigt Hill
#
# Bulk Modulus (GPa) = 24.84131 28.08421 26.46276
# Shear Modulus (GPa) = 31.59324 35.26785 33.43055
#
# Velocity S-wave (km/s) = 3.70308 3.91251 3.80924
# Velocity P-wave (km/s) = 5.39129 5.70965 5.55275
#
# Compressibility (1/GPa) = 0.04025553
#
# Stress axis : x y z
#
# Youngs Moduli (GPa) = 79.21335 75.67328 60.24226
#
# Poissons Ratio (x) = -0.09791 0.02888
# Poissons Ratio (y) = -0.10249 0.11482
# Poissons Ratio (z) = 0.03797 0.14423
#
# Static dielectric constant tensor:
#      x y z
#    x 1.847640 -0.002000 -0.007590 
#    y -0.002000 1.850560 -0.027340 
#    z -0.007590 -0.027340 1.867480 
# 
# From -- ./inp_files/83518.got.cif
#   From: 2010.05.17/outbox.cif.g08.bks.cpg/sg2_42_cif.got.tgz:83518.got - 2010.06.03 11:33:40.
