data_PCOD9061806
_publ_section_title
;
Structure prediction by ZEFSAII (Michael W. Deem and Ramdas Pophale) SiO2 
 PCOD9061806
Probable space group: P -1
;
_chemical_formula_sum "Si O2"
_cell_formula_units_Z 15
_cell_length_a 19.534384
_cell_length_b 16.762781
_cell_length_c 9.235142
_cell_angle_alpha 124.378356
_cell_angle_beta 40.983284
_cell_angle_gamma 156.291302
_cell_volume 699.656321
_symmetry_space_group_name_H-M "P -1"
_symmetry_group_IT_number 2
_symmetry_cell_setting 'triclinic'
loop_
_space_group_symop_operation_xyz
x,y,z
-x,-y,-z
loop_
_atom_site_type_symbol
_atom_site_label
_atom_site_fract_x
_atom_site_fract_y
_atom_site_fract_z
Si Si1 0.707650 0.191514 0.489787
Si Si2 0.500000 0.500000 0.000000
Si Si3 0.529992 0.325564 0.311209
Si Si4 0.505158 0.293453 0.663904
Si Si5 0.984878 0.065025 0.220589
Si Si6 0.052478 0.473970 0.753990
Si Si7 0.960412 0.201273 0.163511
Si Si8 0.566339 0.965442 0.959507
O O1 0.926869 0.437096 0.323275
O O2 0.824662 0.191161 0.365980
O O3 0.500000 0.000000 0.500000
O O4 0.581239 0.145948 0.771023
O O5 0.559530 0.434967 0.808513
O O6 0.778833 0.749625 0.871104
O O7 0.544898 0.345086 0.481370
O O8 0.495306 0.185956 0.174366
O O9 0.273094 0.162655 0.518430
O O10 0.773618 0.569177 0.097407
O O11 0.688558 0.361057 0.478035
O O12 0.229422 0.025563 0.851907
O O13 0.982100 0.167757 0.250501
O O14 0.000000 0.000000 0.000000
O O15 0.849353 0.221575 0.807253
O O16 0.000000 0.500000 0.000000
O O17 0.500000 0.000000 0.000000
#
# Coordination Sequence:
#
# PCOD9061806 Si02
#       8
#     2   1   2   2   2   2   2   2
#     4  12  24  41  70 109 148 193 248 300 371 449
#     4  12  24  50  76 102 140 190 248 310 378 442
#     4  11  25  44  70 102 145 188 241 300 370 447
#     4  11  24  44  71 103 144 191 243 306 375 438
#     4  11  24  50  74 101 140 187 239 307 381 435
#     4  12  23  43  73 105 150 192 244 308 365 449
#     4  11  23  46  71 101 149 185 236 308 368 439
#     4  12  25  41  65 103 146 198 243 296 375 438
#
# _framework density 21.439095999999999
#
# number of rings (size 3 to 8) (size 9 to 14) (size 15 to 20)
#    0.000    0.533    5.333    4.800    0.000    5.867 
#    0.000    1.333    0.000    0.000    0.000    0.000 
#    0.000    0.000    0.000    0.000    0.000    0.000 
#
# Total GULP energy -83643.280801 kJ/mol
# GULP energy per Si atom -5576.218720 kJ/mol
# Density = 2.139030 g / cm^3
# Si number density = 21.439096 Si / 1000 Ang^3
#
#
#
# Elastic Constant Matrix: (Units=GPa)
#
#
# Indices 1 2 3 4 5 6 
#
# 1 54.7106 -1.8993 18.7008 -10.2028 -22.2663 -0.1080
# 2 -1.8993 128.4772 58.9073 -19.4334 -9.0126 -4.3040
# 3 18.7008 58.9073 110.1369 -20.5895 -15.9225 -9.9919
# 4 -10.2028 -19.4334 -20.5895 42.5542 -5.3965 -9.6974
# 5 -22.2663 -9.0126 -15.9225 -5.3965 39.1459 -12.5476
# 6 -0.1080 -4.3040 -9.9919 -9.6974 -12.5476 32.7070
#
#
#
# Elastic Compliance Matrix: (Units=1/GPa)
#
#
# Indices 1 2 3 4 5 6 
#
# 1 0.033459 0.005668 0.000466 0.018453 0.028670 0.017469
# 2 0.005668 0.011524 -0.004704 0.006104 0.006177 0.004277
# 3 0.000466 -0.004704 0.015785 0.009431 0.010430 0.011002
# 4 0.018453 0.006104 0.009431 0.045989 0.031525 0.029475
# 5 0.028670 0.006177 0.010430 0.031525 0.064047 0.038011
# 6 0.017469 0.004277 0.011002 0.029475 0.038011 0.057878
#
#
# Mechanical properties :
#
#
# Convention : Reuss Voigt Hill
#
# Bulk Modulus (GPa) = 15.71592 49.41579 32.56586
# Shear Modulus (GPa) = 20.24038 37.38915 28.81476
#
# Velocity S-wave (km/s) = 3.07593 4.18062 3.67008
# Velocity P-wave (km/s) = 4.46784 6.81196 5.76040
#
# Compressibility (1/GPa) = 0.06362973
#
# Stress axis : x y z
#
# Youngs Moduli (GPa) = 29.88716 86.77592 63.34928
#
# Poissons Ratio (x) = -0.49188 -0.02953
# Poissons Ratio (y) = -0.16941 0.29800
# Poissons Ratio (z) = -0.01393 0.40820
#
# Static dielectric constant tensor:
#      x y z
#    x 1.840120 0.015520 -0.026120 
#    y 0.015520 1.795220 -0.017730 
#    z -0.026120 -0.017730 1.780540 
# 
# From -- ./inp_files/348565.got.cif
#   From: 2010.05.17/outbox.cif.g08.bks.cpg/sg2_175_cif.got.tgz:348565.got - 2010.06.03 11:33:40.
