data_PCOD9061215
_publ_section_title
;
Structure prediction by ZEFSAII (Michael W. Deem and Ramdas Pophale) SiO2 
 PCOD9061215
Probable space group: P -1
;
_chemical_formula_sum "Si O2"
_cell_formula_units_Z 13
_cell_length_a 15.047408
_cell_length_b 12.506328
_cell_length_c 9.638578
_cell_angle_alpha 61.045583
_cell_angle_beta 58.337204
_cell_angle_gamma 18.735898
_cell_volume 495.341949
_symmetry_space_group_name_H-M "P -1"
_symmetry_group_IT_number 2
_symmetry_cell_setting 'triclinic'
loop_
_space_group_symop_operation_xyz
x,y,z
-x,-y,-z
loop_
_atom_site_type_symbol
_atom_site_label
_atom_site_fract_x
_atom_site_fract_y
_atom_site_fract_z
Si Si1 0.851231 0.474000 0.584595
Si Si2 0.461656 0.076452 0.215673
Si Si3 0.500000 0.500000 0.500000
Si Si4 0.494160 0.780876 0.425708
Si Si5 0.201311 0.709092 0.118573
Si Si6 0.004175 0.617509 0.017512
Si Si7 0.726098 0.167010 0.824024
O O1 0.730635 0.717750 0.617262
O O2 0.623356 0.669034 0.541102
O O3 0.897685 0.319683 0.759297
O O4 0.151022 0.158971 0.461952
O O5 0.270353 0.328092 0.085433
O O6 0.574299 0.817245 0.254182
O O7 0.711842 0.897763 0.162458
O O8 0.582569 0.548684 0.458660
O O9 0.591543 0.337000 0.678389
O O10 0.154909 0.831731 0.223902
O O11 0.501126 0.386246 0.995920
O O12 0.000000 0.000000 0.000000
O O13 0.000000 0.500000 0.000000
O O14 0.935041 0.823435 0.875090
#
# Coordination Sequence:
#
# PCOD9061215 Si02
#       7
#     2   2   1   2   2   2   2
#     4  12  24  47  75 110 147 194 262 308 381 440
#     4  12  25  48  77 107 150 194 263 317 374 441
#     4  12  26  50  70 110 160 198 246 308 398 456
#     4  12  27  47  73 113 153 198 246 316 381 460
#     4  11  23  44  75 107 146 196 256 310 372 447
#     4  12  26  47  73 110 150 206 250 310 381 462
#     4  11  25  46  73 108 148 197 250 314 373 457
#
# _framework density 26.244496000000002
#
# number of rings (size 3 to 8) (size 9 to 14) (size 15 to 20)
#    0.000    0.308    3.077    6.000    2.154    0.615 
#    5.538    0.000    0.000    0.000    0.000    0.000 
#    0.000    0.000    0.000    0.000    0.000    0.000 
#
# Total GULP energy -72518.213408 kJ/mol
# GULP energy per Si atom -5578.324108 kJ/mol
# Density = 2.618476 g / cm^3
# Si number density = 26.244496 Si / 1000 Ang^3
#
#
#
# Elastic Constant Matrix: (Units=GPa)
#
#
# Indices 1 2 3 4 5 6 
#
# 1 115.6195 38.6089 43.3424 -17.6751 3.0437 39.3527
# 2 38.6089 107.2761 26.7589 -21.5555 -0.4235 32.8195
# 3 43.3424 26.7589 99.0590 -41.2915 15.6112 30.4477
# 4 -17.6751 -21.5555 -41.2915 40.2327 3.2383 -11.0107
# 5 3.0437 -0.4235 15.6112 3.2383 67.8885 -12.7631
# 6 39.3527 32.8195 30.4477 -11.0107 -12.7631 41.4546
#
#
#
# Elastic Compliance Matrix: (Units=1/GPa)
#
#
# Indices 1 2 3 4 5 6 
#
# 1 0.013698 -0.000654 -0.000997 0.001528 -0.002755 -0.012196
# 2 -0.000654 0.014067 0.004733 0.008911 -0.003802 -0.012796
# 3 -0.000997 0.004733 0.028311 0.026586 -0.011477 -0.020066
# 4 0.001528 0.008911 0.026586 0.053779 -0.011969 -0.017433
# 5 -0.002755 -0.003802 -0.011477 -0.011969 0.021318 0.017439
# 6 -0.012196 -0.012796 -0.020066 -0.017433 0.017439 0.061308
#
#
# Mechanical properties :
#
#
# Convention : Reuss Voigt Hill
#
# Bulk Modulus (GPa) = 16.06700 59.93055 37.99878
# Shear Modulus (GPa) = 24.14702 44.13145 34.13924
#
# Velocity S-wave (km/s) = 3.03657 4.10512 3.61059
# Velocity P-wave (km/s) = 4.29298 6.73457 5.64730
#
# Compressibility (1/GPa) = 0.06223937
#
# Stress axis : x y z
#
# Youngs Moduli (GPa) = 73.00098 71.09025 35.32143
#
# Poissons Ratio (x) = 0.04650 0.03522
# Poissons Ratio (y) = 0.04774 -0.16716
# Poissons Ratio (z) = 0.07280 -0.33645
#
# Static dielectric constant tensor:
#      x y z
#    x 1.603090 0.240750 0.093840 
#    y 0.240750 2.009830 0.055440 
#    z 0.093840 0.055440 2.070600 
# 
# From -- ./inp_files/26685.got.cif
#   From: 2010.05.17/outbox.cif.g08.bks.cpg/sg2_14_cif.got.tgz:26685.got - 2010.06.03 11:33:40.
