data_PCOD9061459
_publ_section_title
;
Structure prediction by ZEFSAII (Michael W. Deem and Ramdas Pophale) SiO2 
 PCOD9061459
Probable space group: P -1
;
_chemical_formula_sum "Si O2"
_cell_formula_units_Z 16
_cell_length_a 13.671454
_cell_length_b 10.341836
_cell_length_c 13.064319
_cell_angle_alpha 138.702749
_cell_angle_beta 139.814470
_cell_angle_gamma 33.540591
_cell_volume 623.642792
_symmetry_space_group_name_H-M "P -1"
_symmetry_group_IT_number 2
_symmetry_cell_setting 'triclinic'
loop_
_space_group_symop_operation_xyz
x,y,z
-x,-y,-z
loop_
_atom_site_type_symbol
_atom_site_label
_atom_site_fract_x
_atom_site_fract_y
_atom_site_fract_z
Si Si1 0.780742 0.232484 0.356627
Si Si2 0.428816 0.044014 0.635009
Si Si3 0.609066 0.302454 0.702066
Si Si4 0.216644 0.368129 0.047334
Si Si5 0.027437 0.912082 0.186651
Si Si6 0.863039 0.587596 0.540793
Si Si7 0.223387 0.990528 0.137982
Si Si8 0.349829 0.976055 0.740858
O O1 0.556348 0.405141 0.251288
O O2 0.863680 0.379295 0.477143
O O3 0.763174 0.142304 0.400576
O O4 0.898501 0.003470 0.236418
O O5 0.512327 0.770185 0.500367
O O6 0.608309 0.036778 0.805114
O O7 0.308481 0.112223 0.682033
O O8 0.335972 0.221123 0.567116
O O9 0.806279 0.062891 0.662187
O O10 0.678197 0.220789 0.824622
O O11 0.415267 0.228586 0.188671
O O12 0.181673 0.614106 0.121683
O O13 0.000000 0.500000 0.000000
O O14 0.273410 0.174415 0.888335
O O15 0.904839 0.020735 0.052031
O O16 0.885070 0.747738 0.734099
O O17 0.000000 0.500000 0.500000
#
# Coordination Sequence:
#
# PCOD9061459 Si02
#       8
#     2   2   2   2   2   2   2   2
#     4  12  23  47  72 103 143 186 234 297 354 412
#     4  11  23  46  73 101 140 191 237 284 362 429
#     4  11  23  47  69 103 147 180 235 305 349 420
#     4  11  23  47  65  96 152 190 232 295 355 426
#     4  12  26  42  71 106 144 183 240 296 357 420
#     4  11  24  47  74 103 142 184 240 296 350 430
#     4  11  23  45  71 101 142 191 232 291 361 422
#     4  11  26  43  74 102 138 193 239 287 363 419
#
# _framework density 25.655712000000001
#
# number of rings (size 3 to 8) (size 9 to 14) (size 15 to 20)
#    0.000    0.750    5.000    3.375    3.500    1.000 
#    0.000    2.500    0.000    0.000    0.000    0.000 
#    0.000    0.000    0.000    0.000    0.000    0.000 
#
# Total GULP energy -89151.520322 kJ/mol
# GULP energy per Si atom -5571.970020 kJ/mol
# Density = 2.559732 g / cm^3
# Si number density = 25.655712 Si / 1000 Ang^3
#
#
#
# Elastic Constant Matrix: (Units=GPa)
#
#
# Indices 1 2 3 4 5 6 
#
# 1 189.4320 31.3631 21.5058 12.1164 32.1444 -7.4558
# 2 31.3631 89.5322 12.8689 10.6381 11.1578 -25.4740
# 3 21.5058 12.8689 44.1487 -12.6193 4.6866 -3.8825
# 4 12.1164 10.6381 -12.6193 30.2314 16.6417 20.2237
# 5 32.1444 11.1578 4.6866 16.6417 67.0625 17.9045
# 6 -7.4558 -25.4740 -3.8825 20.2237 17.9045 62.0839
#
#
#
# Elastic Compliance Matrix: (Units=1/GPa)
#
#
# Indices 1 2 3 4 5 6 
#
# 1 0.006579 -0.000043 -0.004087 -0.004880 -0.002397 0.002798
# 2 -0.000043 0.018931 -0.009597 -0.019105 -0.001399 0.013790
# 3 -0.004087 -0.009597 0.034957 0.028409 -0.003107 -0.010601
# 4 -0.004880 -0.019105 0.028409 0.077826 -0.007840 -0.029739
# 5 -0.002397 -0.001399 -0.003107 -0.007840 0.019562 -0.004144
# 6 0.002798 0.013790 -0.010601 -0.029739 -0.004144 0.032321
#
#
# Mechanical properties :
#
#
# Convention : Reuss Voigt Hill
#
# Bulk Modulus (GPa) = 30.29043 50.50982 40.40013
# Shear Modulus (GPa) = 21.86903 49.03389 35.45146
#
# Velocity S-wave (km/s) = 2.92276 4.37650 3.72131
# Velocity P-wave (km/s) = 4.81894 6.72820 5.85196
#
# Compressibility (1/GPa) = 0.03301373
#
# Stress axis : x y z
#
# Youngs Moduli (GPa) = 152.00125 52.82209 28.60678
#
# Poissons Ratio (x) = 0.00225 0.11691
# Poissons Ratio (y) = 0.00648 0.27455
# Poissons Ratio (z) = 0.62118 0.50695
#
# Static dielectric constant tensor:
#      x y z
#    x 1.901430 0.000220 -0.043230 
#    y 0.000220 2.027280 0.060570 
#    z -0.043230 0.060570 1.884850 
# 
# From -- ./inp_files/532073.got.cif
#   From: 2010.05.17/outbox.cif.g08.bks.cpg/sg2_267_cif.got.tgz:532073.got - 2010.06.03 11:33:40.
