data_PCOD9061809
_publ_section_title
;
Structure prediction by ZEFSAII (Michael W. Deem and Ramdas Pophale) SiO2 
 PCOD9061809
Probable space group: P -1
;
_chemical_formula_sum "Si O2"
_cell_formula_units_Z 14
_cell_length_a 11.215578
_cell_length_b 8.191547
_cell_length_c 8.883733
_cell_angle_alpha 99.750482
_cell_angle_beta 137.934904
_cell_angle_gamma 87.826574
_cell_volume 534.131163
_symmetry_space_group_name_H-M "P -1"
_symmetry_group_IT_number 2
_symmetry_cell_setting 'triclinic'
loop_
_space_group_symop_operation_xyz
x,y,z
-x,-y,-z
loop_
_atom_site_type_symbol
_atom_site_label
_atom_site_fract_x
_atom_site_fract_y
_atom_site_fract_z
Si Si1 0.996413 0.133829 0.386988
Si Si2 0.490119 0.729665 0.841307
Si Si3 0.782003 0.311940 0.677591
Si Si4 0.000000 0.500000 0.500000
Si Si5 0.500000 0.000000 0.500000
Si Si6 0.186341 0.050653 0.263564
Si Si7 0.411591 0.886665 0.079862
Si Si8 0.833807 0.559816 0.045263
O O1 0.032398 0.311233 0.525636
O O2 0.140580 0.123804 0.389923
O O3 0.798573 0.104476 0.129765
O O4 0.000000 0.000000 0.500000
O O5 0.326220 0.649338 0.567902
O O6 0.496368 0.928068 0.851374
O O7 0.451555 0.733558 0.985185
O O8 0.667185 0.649440 0.957166
O O9 0.991868 0.317445 0.833376
O O10 0.715246 0.118772 0.636639
O O11 0.774909 0.438300 0.828289
O O12 0.086067 0.544158 0.761528
O O13 0.658630 0.877259 0.692126
O O14 0.473915 0.873589 0.304667
O O15 0.000000 0.000000 0.000000
#
# Coordination Sequence:
#
# PCOD9061809 Si02
#       8
#     2   2   2   1   1   2   2   2
#     4  12  26  48  79 107 151 202 244 307 380 436
#     4  11  23  46  71 102 143 200 246 310 374 440
#     4  11  24  48  70 105 144 199 258 302 366 465
#     4  12  26  46  72 118 148 188 256 306 360 462
#     4  12  26  42  66 114 144 186 258 306 366 460
#     4  12  24  44  71 103 146 195 247 307 373 442
#     4  11  24  43  71 106 143 188 259 301 365 462
#     4  11  26  44  71 102 152 193 243 313 378 431
#
# _framework density 26.210791
#
# number of rings (size 3 to 8) (size 9 to 14) (size 15 to 20)
#    0.000    0.571    2.857    5.571    4.000    0.000 
#    0.000    5.000    0.000    0.000    0.000    0.000 
#    0.000    0.000    0.000    0.000    0.000    0.000 
#
# Total GULP energy -78027.799520 kJ/mol
# GULP energy per Si atom -5573.414251 kJ/mol
# Density = 2.615113 g / cm^3
# Si number density = 26.210791 Si / 1000 Ang^3
#
#
#
# Elastic Constant Matrix: (Units=GPa)
#
#
# Indices 1 2 3 4 5 6 
#
# 1 146.2252 45.8923 80.8396 12.9731 0.7598 -47.2774
# 2 45.8923 107.7390 37.4908 8.0874 -10.0543 -13.1636
# 3 80.8396 37.4908 207.3310 18.3685 -9.4433 -38.2398
# 4 12.9731 8.0874 18.3685 33.5736 -11.2513 -2.1705
# 5 0.7598 -10.0543 -9.4433 -11.2513 62.4110 4.6067
# 6 -47.2774 -13.1636 -38.2398 -2.1705 4.6067 43.1901
#
#
#
# Elastic Compliance Matrix: (Units=1/GPa)
#
#
# Indices 1 2 3 4 5 6 
#
# 1 0.013142 -0.003416 -0.002225 -0.003119 -0.002457 0.011480
# 2 -0.003416 0.011046 -0.000785 -0.000417 0.001721 -0.001272
# 3 -0.002225 -0.000785 0.006606 -0.002281 0.000265 0.003031
# 4 -0.003119 -0.000417 -0.002281 0.034094 0.006104 -0.004498
# 5 -0.002457 0.001721 0.000265 0.006104 0.017730 -0.003514
# 6 0.011480 -0.001272 0.003031 -0.004498 -0.003514 0.038165
#
#
# Mechanical properties :
#
#
# Convention : Reuss Voigt Hill
#
# Bulk Modulus (GPa) = 55.73205 87.74896 71.74051
# Shear Modulus (GPa) = 35.81271 47.63977 41.72624
#
# Velocity S-wave (km/s) = 3.70041 4.26791 3.99425
# Velocity P-wave (km/s) = 6.29019 7.60511 6.97869
#
# Compressibility (1/GPa) = 0.01794300
#
# Stress axis : x y z
#
# Youngs Moduli (GPa) = 76.09134 90.52673 151.38391
#
# Poissons Ratio (x) = 0.30927 0.33676
# Poissons Ratio (y) = 0.25995 0.11880
# Poissons Ratio (z) = 0.16927 0.07104
#
# Static dielectric constant tensor:
#      x y z
#    x 2.287330 0.134820 0.083840 
#    y 0.134820 2.108810 0.073830 
#    z 0.083840 0.073830 2.045450 
# 
# From -- ./inp_files/244833.got.cif
#   From: 2010.05.17/outbox.cif.g08.bks.cpg/sg2_123_cif.got.tgz:244833.got - 2010.06.03 11:33:40.
