data_PCOD9061411
_publ_section_title
;
Structure prediction by ZEFSAII (Michael W. Deem and Ramdas Pophale) SiO2 
 PCOD9061411
Probable space group: P -1
;
_chemical_formula_sum "Si O2"
_cell_formula_units_Z 14
_cell_length_a 18.510927
_cell_length_b 9.072203
_cell_length_c 5.392017
_cell_angle_alpha 65.258021
_cell_angle_beta 59.414142
_cell_angle_gamma 46.102695
_cell_volume 558.549184
_symmetry_space_group_name_H-M "P -1"
_symmetry_group_IT_number 2
_symmetry_cell_setting 'triclinic'
loop_
_space_group_symop_operation_xyz
x,y,z
-x,-y,-z
loop_
_atom_site_type_symbol
_atom_site_label
_atom_site_fract_x
_atom_site_fract_y
_atom_site_fract_z
Si Si1 0.596222 0.164644 0.947640
Si Si2 0.380829 0.571013 0.601082
Si Si3 0.409954 0.246599 0.442759
Si Si4 0.069501 0.577548 0.276546
Si Si5 0.238459 0.962481 0.871552
Si Si6 0.992458 0.825851 0.724586
Si Si7 0.725489 0.785469 0.671247
O O1 0.642331 0.279542 0.691468
O O2 0.624059 0.986512 0.839486
O O3 0.472537 0.304608 0.122638
O O4 0.663494 0.064507 0.148205
O O5 0.500000 0.500000 0.500000
O O6 0.383624 0.382920 0.637631
O O7 0.289683 0.735468 0.836407
O O8 0.314104 0.287373 0.422991
O O9 0.500000 0.000000 0.500000
O O10 0.061303 0.660354 0.508239
O O11 0.193452 0.390492 0.154003
O O12 0.000000 0.500000 0.500000
O O13 0.029398 0.732788 0.004302
O O14 0.212468 0.127222 0.592938
O O15 0.132918 0.068747 0.139798
O O16 0.000000 0.000000 0.500000
#
# Coordination Sequence:
#
# PCOD9061411 Si02
#       7
#     2   2   2   2   2   2   2
#     4  11  23  45  70 102 154 197 248 310 398 478
#     4  11  24  45  70 105 148 205 251 305 396 478
#     4  12  23  44  70 108 156 193 256 326 380 472
#     4  12  26  52  85 112 156 208 272 335 399 474
#     4  11  24  47  77 103 151 206 253 320 401 472
#     4  12  29  53  77 118 160 207 270 336 401 474
#     4  11  25  43  74 115 144 202 263 325 397 459
#
# _framework density 25.064935999999999
#
# number of rings (size 3 to 8) (size 9 to 14) (size 15 to 20)
#    0.000    0.571    4.286    3.429    4.000    1.143 
#    5.143    0.000    0.000    0.000    0.000    0.000 
#    0.000    0.000    0.000    0.000    0.000    0.000 
#
# Total GULP energy -78243.598165 kJ/mol
# GULP energy per Si atom -5588.828440 kJ/mol
# Density = 2.500789 g / cm^3
# Si number density = 25.064936 Si / 1000 Ang^3
#
#
#
# Elastic Constant Matrix: (Units=GPa)
#
#
# Indices 1 2 3 4 5 6 
#
# 1 106.3910 60.8507 18.1110 -3.8313 7.9089 2.5292
# 2 60.8507 90.7760 16.1070 -6.6579 10.3183 -0.4175
# 3 18.1110 16.1070 102.0210 -4.9181 -0.4282 -2.4976
# 4 -3.8313 -6.6579 -4.9181 33.0676 6.4669 9.0895
# 5 7.9089 10.3183 -0.4282 6.4669 34.6815 0.4096
# 6 2.5292 -0.4175 -2.4976 9.0895 0.4096 35.8244
#
#
#
# Elastic Compliance Matrix: (Units=1/GPa)
#
#
# Indices 1 2 3 4 5 6 
#
# 1 0.015438 -0.010082 -0.001181 0.000042 -0.000528 -0.001294
# 2 -0.010082 0.018623 -0.001012 0.003155 -0.003843 0.000102
# 3 -0.001181 -0.001012 0.010232 0.000931 0.000517 0.000543
# 4 0.000042 0.003155 0.000931 0.034832 -0.007329 -0.008655
# 5 -0.000528 -0.003843 0.000517 -0.007329 0.031453 0.001529
# 6 -0.001294 0.000102 0.000543 -0.008655 0.001529 0.030223
#
#
# Mechanical properties :
#
#
# Convention : Reuss Voigt Hill
#
# Bulk Modulus (GPa) = 50.65074 54.36951 52.51012
# Shear Modulus (GPa) = 29.08131 34.32265 31.70198
#
# Velocity S-wave (km/s) = 3.40992 3.70449 3.56025
# Velocity P-wave (km/s) = 5.97956 6.32741 6.15594
#
# Compressibility (1/GPa) = 0.01974305
#
# Stress axis : x y z
#
# Youngs Moduli (GPa) = 64.77323 53.69714 97.73637
#
# Poissons Ratio (x) = 0.54139 0.11540
# Poissons Ratio (y) = 0.65307 0.09890
# Poissons Ratio (z) = 0.07648 0.05434
#
# Static dielectric constant tensor:
#      x y z
#    x 2.056950 0.083880 0.094400 
#    y 0.083880 2.239920 -0.107170 
#    z 0.094400 -0.107170 2.124280 
# 
# From -- ./inp_files/106447.got.cif
#   From: 2010.05.17/outbox.cif.g08.bks.cpg/sg2_54_cif.got.tgz:106447.got - 2010.06.03 11:33:40.
