data_PCOD9061868
_publ_section_title
;
Structure prediction by ZEFSAII (Michael W. Deem and Ramdas Pophale) SiO2 
 PCOD9061868
Probable space group: P -1
;
_chemical_formula_sum "Si O2"
_cell_formula_units_Z 16
_cell_length_a 11.334451
_cell_length_b 8.529029
_cell_length_c 24.627709
_cell_angle_alpha 31.393731
_cell_angle_beta 30.835822
_cell_angle_gamma 40.215760
_cell_volume 631.492343
_symmetry_space_group_name_H-M "P -1"
_symmetry_group_IT_number 2
_symmetry_cell_setting 'triclinic'
loop_
_space_group_symop_operation_xyz
x,y,z
-x,-y,-z
loop_
_atom_site_type_symbol
_atom_site_label
_atom_site_fract_x
_atom_site_fract_y
_atom_site_fract_z
Si Si1 0.308458 0.116386 0.928460
Si Si2 0.985443 0.829134 0.205715
Si Si3 0.710936 0.254431 0.654401
Si Si4 0.253843 0.214375 0.310880
Si Si5 0.462410 0.850011 0.429499
Si Si6 0.037870 0.703181 0.840729
Si Si7 0.595271 0.562981 0.005190
Si Si8 0.806595 0.942850 0.421340
O O1 0.460888 0.174871 0.797664
O O2 0.191646 0.449445 0.889478
O O3 0.500800 0.916012 0.946737
O O4 0.096183 0.908470 0.080859
O O5 0.048371 0.478523 0.300592
O O6 0.717002 0.931785 0.289871
O O7 0.093587 0.044180 0.143137
O O8 0.731199 0.609139 0.542371
O O9 0.924465 0.103671 0.651598
O O10 0.758344 0.095235 0.625270
O O11 0.293073 0.103435 0.389071
O O12 0.470009 0.362244 0.156036
O O13 0.500000 0.500000 0.500000
O O14 0.357053 0.875131 0.523696
O O15 0.864543 0.535419 0.920911
O O16 0.192680 0.877020 0.687885
O O17 0.500000 0.500000 0.000000
#
# Coordination Sequence:
#
# PCOD9061868 Si02
#       8
#     2   2   2   2   2   2   2   2
#     4  11  24  45  76 104 149 182 247 305 362 437
#     4  11  28  47  73 112 145 190 250 305 370 442
#     4  11  24  48  74 107 147 198 246 299 364 442
#     4  11  26  48  76 103 149 197 238 305 375 424
#     4  12  29  49  72 109 152 194 249 304 364 441
#     4  12  26  45  75 110 145 198 240 305 378 428
#     4  11  23  46  72 109 145 186 245 299 368 440
#     4  11  27  45  75 106 151 193 252 295 364 448
#
# _framework density 25.336807
#
# number of rings (size 3 to 8) (size 9 to 14) (size 15 to 20)
#    0.000    0.750    2.500    2.625    7.000    7.500 
#    0.000    0.000    0.000    0.000    0.000    0.000 
#    0.000    0.000    0.000    0.000    0.000    0.000 
#
# Total GULP energy -89438.173908 kJ/mol
# GULP energy per Si atom -5589.885869 kJ/mol
# Density = 2.527914 g / cm^3
# Si number density = 25.336807 Si / 1000 Ang^3
#
#
#
# Elastic Constant Matrix: (Units=GPa)
#
#
# Indices 1 2 3 4 5 6 
#
# 1 45.6088 16.1811 30.0861 2.2024 5.6113 5.6616
# 2 16.1811 144.6095 36.7392 2.7424 0.7380 3.2858
# 3 30.0861 36.7392 121.6349 21.3745 18.4133 -5.5323
# 4 2.2024 2.7424 21.3745 49.1703 -4.6315 3.0075
# 5 5.6113 0.7380 18.4133 -4.6315 35.7423 -1.8403
# 6 5.6616 3.2858 -5.5323 3.0075 -1.8403 26.2081
#
#
#
# Elastic Compliance Matrix: (Units=1/GPa)
#
#
# Indices 1 2 3 4 5 6 
#
# 1 0.028059 -0.001164 -0.007245 0.002363 -0.000742 -0.007768
# 2 -0.001164 0.007670 -0.002443 0.000888 0.001334 -0.001234
# 3 -0.007245 -0.002443 0.012942 -0.006029 -0.006010 0.004873
# 4 0.002363 0.000888 -0.006029 0.023584 0.005556 -0.004211
# 5 -0.000742 0.001334 -0.006010 0.005556 0.031900 0.000327
# 6 -0.007768 -0.001234 0.004873 -0.004211 0.000327 0.041524
#
#
# Mechanical properties :
#
#
# Convention : Reuss Voigt Hill
#
# Bulk Modulus (GPa) = 37.08023 53.09623 45.08823
# Shear Modulus (GPa) = 28.34902 37.48058 32.91480
#
# Velocity S-wave (km/s) = 3.34861 3.85033 3.60820
# Velocity P-wave (km/s) = 5.44220 6.38501 5.93237
#
# Compressibility (1/GPa) = 0.02696855
#
# Stress axis : x y z
#
# Youngs Moduli (GPa) = 35.63890 130.37025 77.26606
#
# Poissons Ratio (x) = 0.15169 0.55980
# Poissons Ratio (y) = 0.04147 0.18877
# Poissons Ratio (z) = 0.25821 0.31851
#
# Static dielectric constant tensor:
#      x y z
#    x 2.032460 0.021570 -0.076710 
#    y 0.021570 1.977420 0.006490 
#    z -0.076710 0.006490 2.017370 
# 
# From -- ./inp_files/618191.got.cif
#   From: 2010.05.17/outbox.cif.g08.bks.cpg/sg2_310_cif.got.tgz:618191.got - 2010.06.03 11:33:40.
