data_PCOD9061471
_publ_section_title
;
Structure prediction by ZEFSAII (Michael W. Deem and Ramdas Pophale) SiO2 
 PCOD9061471
Probable space group: P -1
;
_chemical_formula_sum "Si O2"
_cell_formula_units_Z 16
_cell_length_a 16.917547
_cell_length_b 6.214150
_cell_length_c 11.949588
_cell_angle_alpha 134.188347
_cell_angle_beta 51.593592
_cell_angle_gamma 122.784601
_cell_volume 692.602642
_symmetry_space_group_name_H-M "P -1"
_symmetry_group_IT_number 2
_symmetry_cell_setting 'triclinic'
loop_
_space_group_symop_operation_xyz
x,y,z
-x,-y,-z
loop_
_atom_site_type_symbol
_atom_site_label
_atom_site_fract_x
_atom_site_fract_y
_atom_site_fract_z
Si Si1 0.592729 0.271038 0.643062
Si Si2 0.942232 0.653842 0.931670
Si Si3 0.253053 0.895874 0.401721
Si Si4 0.046298 0.099046 0.618962
Si Si5 0.618066 0.970285 0.889652
Si Si6 0.574379 0.276687 0.394842
Si Si7 0.128488 0.273946 0.218477
Si Si8 0.757779 0.293551 0.080988
O O1 0.677763 0.080296 0.539793
O O2 0.616584 0.615592 0.792137
O O3 0.587937 0.298432 0.523790
O O4 0.484219 0.070174 0.705302
O O5 0.021457 0.427032 0.791270
O O6 0.889090 0.581719 0.832287
O O7 0.850855 0.571953 0.071547
O O8 0.000000 0.000000 0.000000
O O9 0.192001 0.546622 0.332360
O O10 0.329806 0.952686 0.249258
O O11 0.165069 0.088406 0.525229
O O12 0.978876 0.862381 0.677703
O O13 0.000000 0.000000 0.500000
O O14 0.500000 0.000000 0.000000
O O15 0.683863 0.194950 0.003111
O O16 0.500000 0.500000 0.500000
O O17 0.683413 0.347814 0.264783
O O18 0.188154 0.996204 0.050139
#
# Coordination Sequence:
#
# PCOD9061471 Si02
#       8
#     2   2   2   2   2   2   2   2
#     4  11  26  45  73 105 150 191 241 300 369 435
#     4  11  26  50  73 105 146 196 241 305 378 437
#     4  12  23  43  74 111 140 186 247 303 365 428
#     4  11  24  44  74 106 142 185 246 308 355 439
#     4  12  25  43  75 110 141 187 247 299 356 437
#     4  11  26  52  69 106 154 192 240 300 370 446
#     4  11  23  45  71 103 141 186 242 303 368 428
#     4  11  24  46  77 104 143 192 246 300 364 445
#
# _framework density 23.101268000000001
#
# number of rings (size 3 to 8) (size 9 to 14) (size 15 to 20)
#    0.000    0.750    3.750    3.375    1.750    5.000 
#   13.500    0.000    0.000    0.000    0.000    0.000 
#    0.000    0.000    0.000    0.000    0.000    0.000 
#
# Total GULP energy -89630.237675 kJ/mol
# GULP energy per Si atom -5601.889855 kJ/mol
# Density = 2.304869 g / cm^3
# Si number density = 23.101268 Si / 1000 Ang^3
#
#
#
# Elastic Constant Matrix: (Units=GPa)
#
#
# Indices 1 2 3 4 5 6 
#
# 1 137.5306 29.9638 42.0590 -13.8114 -30.8370 -8.1413
# 2 29.9638 137.9472 54.2238 -4.5065 -20.7540 22.1342
# 3 42.0590 54.2238 86.0645 -25.8767 -38.5897 9.5044
# 4 -13.8114 -4.5065 -25.8767 41.3885 11.2605 10.5866
# 5 -30.8370 -20.7540 -38.5897 11.2605 41.2502 -0.6255
# 6 -8.1413 22.1342 9.5044 10.5866 -0.6255 41.0175
#
#
#
# Elastic Compliance Matrix: (Units=1/GPa)
#
#
# Indices 1 2 3 4 5 6 
#
# 1 0.009357 -0.000885 -0.002599 -0.000582 0.004325 0.003153
# 2 -0.000885 0.010542 -0.007165 -0.002292 -0.001490 -0.003635
# 3 -0.002599 -0.007165 0.031474 0.014529 0.019818 -0.007390
# 4 -0.000582 -0.002292 0.014529 0.035067 0.002260 -0.011262
# 5 0.004325 -0.001490 0.019818 0.002260 0.044605 -0.002833
# 6 0.003153 -0.003635 -0.007390 -0.011262 -0.002833 0.031543
#
#
# Mechanical properties :
#
#
# Convention : Reuss Voigt Hill
#
# Bulk Modulus (GPa) = 33.25089 68.22620 50.73854
# Shear Modulus (GPa) = 25.78486 40.41762 33.10124
#
# Velocity S-wave (km/s) = 3.34453 4.18734 3.78944
# Velocity P-wave (km/s) = 5.41658 7.27847 6.41543
#
# Compressibility (1/GPa) = 0.03007439
#
# Stress axis : x y z
#
# Youngs Moduli (GPa) = 106.87615 94.85754 31.77189
#
# Poissons Ratio (x) = 0.08396 0.08258
# Poissons Ratio (y) = 0.09459 0.22765
# Poissons Ratio (z) = 0.27777 0.67968
#
# Static dielectric constant tensor:
#      x y z
#    x 1.903910 0.018080 0.040670 
#    y 0.018080 1.844120 0.037280 
#    z 0.040670 0.037280 1.857090 
# 
# From -- ./inp_files/459652.got.cif
#   From: 2010.05.17/outbox.cif.g08.bks.cpg/sg2_230_cif.got.tgz:459652.got - 2010.06.03 11:33:40.
