data_PCOD9061360
_publ_section_title
;
Structure prediction by ZEFSAII (Michael W. Deem and Ramdas Pophale) SiO2 
 PCOD9061360
Probable space group: P -1
;
_chemical_formula_sum "Si O2"
_cell_formula_units_Z 16
_cell_length_a 19.860167
_cell_length_b 11.770312
_cell_length_c 8.572138
_cell_angle_alpha 55.952853
_cell_angle_beta 147.554946
_cell_angle_gamma 134.989358
_cell_volume 756.730908
_symmetry_space_group_name_H-M "P -1"
_symmetry_group_IT_number 2
_symmetry_cell_setting 'triclinic'
loop_
_space_group_symop_operation_xyz
x,y,z
-x,-y,-z
loop_
_atom_site_type_symbol
_atom_site_label
_atom_site_fract_x
_atom_site_fract_y
_atom_site_fract_z
Si Si1 0.891683 0.565428 0.270710
Si Si2 0.476723 0.968478 0.662750
Si Si3 0.622205 0.529560 0.342457
Si Si4 0.919470 0.096244 0.766924
Si Si5 0.878876 0.562249 0.598030
Si Si6 0.582770 0.319590 0.713446
Si Si7 0.125419 0.762145 0.128707
Si Si8 0.614492 0.811434 0.267145
O O1 0.830568 0.557418 0.330849
O O2 0.000000 0.500000 0.500000
O O3 0.991216 0.752417 0.285506
O O4 0.750822 0.457179 0.971352
O O5 0.557885 0.144571 0.765012
O O6 0.500000 0.000000 0.500000
O O7 0.300172 0.877484 0.394518
O O8 0.530184 0.860489 0.938401
O O9 0.757000 0.533201 0.511231
O O10 0.550127 0.388842 0.440846
O O11 0.667995 0.700134 0.379987
O O12 0.500000 0.500000 0.000000
O O13 0.932959 0.172008 0.904116
O O14 0.751823 0.976920 0.475921
O O15 0.000000 0.000000 0.000000
O O16 0.906061 0.414812 0.760593
O O17 0.032334 0.727158 0.814986
O O18 0.486928 0.288811 0.705814
#
# Coordination Sequence:
#
# PCOD9061360 Si02
#       8
#     2   2   2   2   2   2   2   2
#     4  12  25  44  74 105 138 190 243 289 352 431
#     4  12  26  43  72 107 144 190 237 299 358 422
#     4  12  26  48  73 106 146 191 239 297 361 431
#     4  12  26  46  69 105 146 186 233 299 361 420
#     4  11  25  44  72 103 141 191 237 293 351 429
#     4  12  25  46  75 106 141 191 244 291 359 431
#     4  11  23  45  69 101 145 185 235 290 356 419
#     4  12  26  47  73 108 146 188 243 296 361 429
#
# _framework density 21.143581000000001
#
# number of rings (size 3 to 8) (size 9 to 14) (size 15 to 20)
#    0.000    0.250    2.500    7.500    5.250    1.000 
#    2.250    1.250    0.000    0.000    0.000    0.000 
#    0.000    0.000    0.000    0.000    0.000    0.000 
#
# Total GULP energy -89403.910483 kJ/mol
# GULP energy per Si atom -5587.744405 kJ/mol
# Density = 2.109546 g / cm^3
# Si number density = 21.143581 Si / 1000 Ang^3
#
#
#
# Elastic Constant Matrix: (Units=GPa)
#
#
# Indices 1 2 3 4 5 6 
#
# 1 118.9523 45.8296 36.6974 -12.0229 0.5489 -19.7388
# 2 45.8296 110.8467 26.3887 -9.8366 2.0857 -3.3189
# 3 36.6974 26.3887 96.3079 -1.3446 -4.4922 8.9052
# 4 -12.0229 -9.8366 -1.3446 39.1131 -2.2199 2.7430
# 5 0.5489 2.0857 -4.4922 -2.2199 29.4010 -2.5710
# 6 -19.7388 -3.3189 8.9052 2.7430 -2.5710 42.5104
#
#
#
# Elastic Compliance Matrix: (Units=1/GPa)
#
#
# Indices 1 2 3 4 5 6 
#
# 1 0.012421 -0.003736 -0.004248 0.002302 0.000102 0.006224
# 2 -0.003736 0.011075 -0.001566 0.001581 -0.000897 -0.000698
# 3 -0.004248 -0.001566 0.012928 -0.000833 0.001697 -0.004647
# 4 0.002302 0.001581 -0.000833 0.026759 0.001716 -0.000256
# 5 0.000102 -0.000897 0.001697 0.001716 0.034603 0.001604
# 6 0.006224 -0.000698 -0.004647 -0.000256 0.001604 0.027446
#
#
# Mechanical properties :
#
#
# Convention : Reuss Voigt Hill
#
# Bulk Modulus (GPa) = 57.72076 60.43758 59.07917
# Shear Modulus (GPa) = 33.30931 36.68431 34.99681
#
# Velocity S-wave (km/s) = 3.97342 4.16986 4.07283
# Velocity P-wave (km/s) = 6.95769 7.19931 7.07953
#
# Compressibility (1/GPa) = 0.01732479
#
# Stress axis : x y z
#
# Youngs Moduli (GPa) = 80.50586 90.29207 77.34892
#
# Poissons Ratio (x) = 0.33730 0.32858
# Poissons Ratio (y) = 0.30074 0.12116
# Poissons Ratio (z) = 0.34200 0.14144
#
# Static dielectric constant tensor:
#      x y z
#    x 1.738090 -0.032520 -0.041160 
#    y -0.032520 1.695110 -0.008030 
#    z -0.041160 -0.008030 1.799340 
# 
# From -- ./inp_files/298668.got.cif
#   From: 2010.05.17/outbox.cif.g08.bks.cpg/sg2_150_cif.got.tgz:298668.got - 2010.06.03 11:33:40.
