data_PCOD9061954
_publ_section_title
;
Structure prediction by ZEFSAII (Michael W. Deem and Ramdas Pophale) SiO2 
 PCOD9061954
Probable space group: P -1
;
_chemical_formula_sum "Si O2"
_cell_formula_units_Z 16
_cell_length_a 15.000954
_cell_length_b 20.676004
_cell_length_c 7.857552
_cell_angle_alpha 63.707450
_cell_angle_beta 106.539817
_cell_angle_gamma 160.646830
_cell_volume 647.176826
_symmetry_space_group_name_H-M "P -1"
_symmetry_group_IT_number 2
_symmetry_cell_setting 'triclinic'
loop_
_space_group_symop_operation_xyz
x,y,z
-x,-y,-z
loop_
_atom_site_type_symbol
_atom_site_label
_atom_site_fract_x
_atom_site_fract_y
_atom_site_fract_z
Si Si1 0.758649 0.248604 0.386850
Si Si2 0.988506 0.184541 0.328445
Si Si3 0.796317 0.225517 0.785890
Si Si4 0.387267 0.703577 0.758172
Si Si5 0.726294 0.746012 0.692050
Si Si6 0.961683 0.744805 0.127162
Si Si7 0.948823 0.031942 0.050378
Si Si8 0.694866 0.443429 0.788502
O O1 0.754331 0.252694 0.583781
O O2 0.685542 0.270769 0.237630
O O3 0.076602 0.448996 0.275371
O O4 0.500000 0.000000 0.500000
O O5 0.219490 0.288375 0.337579
O O6 0.119604 0.347337 0.318593
O O7 0.674317 0.924897 0.535666
O O8 0.954465 0.182362 0.113141
O O9 0.086043 0.458438 0.782025
O O10 0.866659 0.198388 0.778178
O O11 0.500000 0.000000 0.000000
O O12 0.431661 0.676780 0.958021
O O13 0.394686 0.530755 0.738969
O O14 0.792250 0.778093 0.888067
O O15 0.000000 0.000000 0.500000
O O16 0.032334 0.871304 0.115756
O O17 0.605777 0.770450 0.237198
O O18 0.000000 0.000000 0.000000
#
# Coordination Sequence:
#
# PCOD9061954 Si02
#       8
#     2   2   2   2   2   2   2   2
#     4  12  27  47  70 109 150 183 241 309 362 422
#     4  11  23  46  75 104 144 193 239 297 350 441
#     4  12  27  46  78 108 143 196 251 290 357 442
#     4  12  26  48  76 102 147 199 242 288 372 434
#     4  11  25  46  76 104 145 194 243 289 363 440
#     4  11  24  46  75 104 147 192 243 295 360 436
#     4  11  26  44  72 105 146 184 238 302 364 417
#     4  12  26  46  73 108 149 186 239 304 366 422
#
# _framework density 24.722766
#
# number of rings (size 3 to 8) (size 9 to 14) (size 15 to 20)
#    0.000    0.500    2.500    6.000   10.500    0.000 
#    0.000    1.250    0.000    0.000    0.000    0.000 
#    0.000    0.000    0.000    0.000    0.000    0.000 
#
# Total GULP energy -89691.746186 kJ/mol
# GULP energy per Si atom -5605.734137 kJ/mol
# Density = 2.466650 g / cm^3
# Si number density = 24.722766 Si / 1000 Ang^3
#
#
#
# Elastic Constant Matrix: (Units=GPa)
#
#
# Indices 1 2 3 4 5 6 
#
# 1 141.4754 17.6536 11.1606 -22.2845 4.4712 6.4064
# 2 17.6536 119.8818 31.0527 -33.9257 -9.8256 1.3596
# 3 11.1606 31.0527 121.4110 -35.0824 -2.7450 8.6812
# 4 -22.2845 -33.9257 -35.0824 40.3972 8.3238 -1.7382
# 5 4.4712 -9.8256 -2.7450 8.3238 37.7123 -13.9410
# 6 6.4064 1.3596 8.6812 -1.7382 -13.9410 43.8493
#
#
#
# Elastic Compliance Matrix: (Units=1/GPa)
#
#
# Indices 1 2 3 4 5 6 
#
# 1 0.008103 -0.000018 0.001042 0.005880 -0.002963 -0.002099
# 2 -0.000018 0.010980 -0.000277 0.008770 0.001055 0.000400
# 3 0.001042 -0.000277 0.011459 0.010746 -0.002796 -0.002875
# 4 0.005880 0.008770 0.010746 0.046467 -0.009530 -0.004446
# 5 -0.002963 0.001055 -0.002796 -0.009530 0.033152 0.011116
# 6 -0.002099 0.000400 -0.002875 -0.004446 0.011116 0.027027
#
#
# Mechanical properties :
#
#
# Convention : Reuss Voigt Hill
#
# Bulk Modulus (GPa) = 31.21605 55.83355 43.52480
# Shear Modulus (GPa) = 34.15921 45.91851 40.03886
#
# Velocity S-wave (km/s) = 3.72114 4.31436 4.02868
# Velocity P-wave (km/s) = 5.57821 6.88848 6.26768
#
# Compressibility (1/GPa) = 0.03203481
#
# Stress axis : x y z
#
# Youngs Moduli (GPa) = 123.40663 91.07644 87.26719
#
# Poissons Ratio (x) = 0.00166 -0.09092
# Poissons Ratio (y) = 0.00226 0.02419
# Poissons Ratio (z) = -0.12857 0.02525
#
# Static dielectric constant tensor:
#      x y z
#    x 1.967250 -0.023700 0.006860 
#    y -0.023700 1.961620 0.036600 
#    z 0.006860 0.036600 1.998850 
# 
# From -- ./inp_files/319308.got.cif
#   From: 2010.05.17/outbox.cif.g08.bks.cpg/sg2_160_cif.got.tgz:319308.got - 2010.06.03 11:33:40.
