data_PCOD9061388
_publ_section_title
;
Structure prediction by ZEFSAII (Michael W. Deem and Ramdas Pophale) SiO2 
 PCOD9061388
Probable space group: P -1
;
_chemical_formula_sum "Si O2"
_cell_formula_units_Z 14
_cell_length_a 9.899103
_cell_length_b 5.672877
_cell_length_c 22.495406
_cell_angle_alpha 114.479433
_cell_angle_beta 142.619031
_cell_angle_gamma 60.980945
_cell_volume 669.663531
_symmetry_space_group_name_H-M "P -1"
_symmetry_group_IT_number 2
_symmetry_cell_setting 'triclinic'
loop_
_space_group_symop_operation_xyz
x,y,z
-x,-y,-z
loop_
_atom_site_type_symbol
_atom_site_label
_atom_site_fract_x
_atom_site_fract_y
_atom_site_fract_z
Si Si1 0.298470 0.886061 0.445265
Si Si2 0.436368 0.662785 0.250768
Si Si3 0.127767 0.605878 0.245422
Si Si4 0.548266 0.166766 0.380779
Si Si5 0.366262 0.314936 0.968210
Si Si6 0.871778 0.295150 0.405672
Si Si7 0.140679 0.694576 0.038875
O O1 0.204160 0.759707 0.342895
O O2 0.409159 0.733339 0.528768
O O3 0.500000 0.000000 0.500000
O O4 0.072510 0.090717 0.417401
O O5 0.232785 0.652840 0.223535
O O6 0.651972 0.397579 0.295337
O O7 0.324796 0.739911 0.156159
O O8 0.560381 0.856947 0.348599
O O9 0.283195 0.303080 0.282137
O O10 0.855459 0.679184 0.149804
O O11 0.741153 0.207734 0.407214
O O12 0.500000 0.500000 0.000000
O O13 0.268021 0.501167 0.010329
O O14 0.500000 0.000000 0.000000
O O15 0.000000 0.500000 0.500000
O O16 0.000000 0.500000 0.000000
O O17 0.000000 0.000000 0.000000
#
# Coordination Sequence:
#
# PCOD9061388 Si02
#       7
#     2   2   2   2   2   2   2
#     4  12  23  42  69 101 142 182 227 283 362 431
#     4  11  24  44  74  97 135 186 238 291 353 427
#     4  11  25  44  70  99 142 184 233 295 361 426
#     4  11  23  45  69  98 137 185 233 286 353 429
#     4  12  29  50  73 111 153 189 244 314 375 433
#     4  11  24  43  65 101 139 179 234 289 341 428
#     4  12  26  49  80 105 141 194 253 300 362 440
#
# _framework density 20.906019000000001
#
# number of rings (size 3 to 8) (size 9 to 14) (size 15 to 20)
#    0.000    0.571    4.286    3.429    6.000    1.143 
#    0.000    0.000    0.000    0.000    0.000    0.000 
#    0.000    0.000    0.000    0.000    0.000    0.000 
#
# Total GULP energy -77989.208443 kJ/mol
# GULP energy per Si atom -5570.657746 kJ/mol
# Density = 2.085844 g / cm^3
# Si number density = 20.906019 Si / 1000 Ang^3
#
#
#
# Elastic Constant Matrix: (Units=GPa)
#
#
# Indices 1 2 3 4 5 6 
#
# 1 111.9505 52.1659 54.5066 -29.2808 3.2698 -6.5617
# 2 52.1659 104.1839 51.2403 -16.7243 0.9338 -10.5498
# 3 54.5066 51.2403 174.7415 -19.1830 -2.3657 -4.1934
# 4 -29.2808 -16.7243 -19.1830 30.3307 -5.5715 -6.4509
# 5 3.2698 0.9338 -2.3657 -5.5715 48.3934 12.4711
# 6 -6.5617 -10.5498 -4.1934 -6.4509 12.4711 28.7288
#
#
#
# Elastic Compliance Matrix: (Units=1/GPa)
#
#
# Indices 1 2 3 4 5 6 
#
# 1 0.015396 -0.004241 -0.002138 0.012014 -0.000900 0.004735
# 2 -0.004241 0.013828 -0.002308 0.002920 -0.001011 0.004867
# 3 -0.002138 -0.002308 0.007212 0.001296 0.000776 -0.000329
# 4 0.012014 0.002920 0.001296 0.050362 0.001179 0.014802
# 5 -0.000900 -0.001011 0.000776 0.001179 0.023610 -0.010448
# 6 0.004735 0.004867 -0.000329 0.014802 -0.010448 0.045488
#
#
# Mechanical properties :
#
#
# Convention : Reuss Voigt Hill
#
# Bulk Modulus (GPa) = 52.46661 78.52241 65.49451
# Shear Modulus (GPa) = 27.83573 37.02146 32.42860
#
# Velocity S-wave (km/s) = 3.65289 4.21271 3.94275
# Velocity P-wave (km/s) = 6.55304 7.82968 7.21963
#
# Compressibility (1/GPa) = 0.01905974
#
# Stress axis : x y z
#
# Youngs Moduli (GPa) = 64.95204 72.31801 138.66629
#
# Poissons Ratio (x) = 0.30671 0.29654
# Poissons Ratio (y) = 0.27547 0.32008
# Poissons Ratio (z) = 0.13890 0.16693
#
# Static dielectric constant tensor:
#      x y z
#    x 1.731250 0.035370 0.028550 
#    y 0.035370 1.845160 -0.075070 
#    z 0.028550 -0.075070 1.822540 
# 
# From -- ./inp_files/45708.got.cif
#   From: 2010.05.17/outbox.cif.g08.bks.cpg/sg2_23_cif.got.tgz:45708.got - 2010.06.03 11:33:40.
