data_PCOD9061762
_publ_section_title
;
Structure prediction by ZEFSAII (Michael W. Deem and Ramdas Pophale) SiO2 
 PCOD9061762
Probable space group: P -1
;
_chemical_formula_sum "Si O2"
_cell_formula_units_Z 16
_cell_length_a 8.554577
_cell_length_b 6.185848
_cell_length_c 17.611183
_cell_angle_alpha 78.240588
_cell_angle_beta 62.521397
_cell_angle_gamma 56.773766
_cell_volume 690.117062
_symmetry_space_group_name_H-M "P -1"
_symmetry_group_IT_number 2
_symmetry_cell_setting 'triclinic'
loop_
_space_group_symop_operation_xyz
x,y,z
-x,-y,-z
loop_
_atom_site_type_symbol
_atom_site_label
_atom_site_fract_x
_atom_site_fract_y
_atom_site_fract_z
Si Si1 0.054924 0.558870 0.651289
Si Si2 0.951094 0.380927 0.946261
Si Si3 0.305047 0.802418 0.895048
Si Si4 0.223085 0.778204 0.495866
Si Si5 0.284642 0.203488 0.159613
Si Si6 0.548535 0.875907 0.343316
Si Si7 0.471926 0.673377 0.218066
Si Si8 0.735874 0.539811 0.631249
O O1 0.180446 0.698986 0.592508
O O2 0.222140 0.281782 0.665641
O O3 0.870663 0.714960 0.740273
O O4 0.942809 0.537736 0.603210
O O5 0.848823 0.612303 0.892126
O O6 0.153695 0.110385 0.893378
O O7 0.000000 0.500000 0.000000
O O8 0.794703 0.286322 0.011383
O O9 0.528781 0.749796 0.870365
O O10 0.346425 0.603903 0.831746
O O11 0.392476 0.855326 0.438957
O O12 0.286735 0.542110 0.441155
O O13 0.000000 0.000000 0.500000
O O14 0.396116 0.891353 0.154382
O O15 0.536928 0.759941 0.273402
O O16 0.455715 0.175846 0.331395
O O17 0.282090 0.647310 0.291345
#
# Coordination Sequence:
#
# PCOD9061762 Si02
#       8
#     2   2   2   2   2   2   2   2
#     4  12  24  43  70 102 135 188 237 284 348 407
#     4  11  28  49  76 106 140 182 228 289 353 422
#     4  11  25  49  74 104 142 177 234 281 355 419
#     4  11  23  46  69  95 146 186 234 293 347 404
#     4  12  26  47  73 102 143 186 232 286 353 419
#     4  11  25  44  68 102 143 185 239 288 345 411
#     4  11  23  46  72 103 145 183 229 297 344 408
#     4  11  23  47  67 100 143 186 230 295 342 408
#
# _framework density 23.184470000000001
#
# number of rings (size 3 to 8) (size 9 to 14) (size 15 to 20)
#    0.000    0.750    3.750    2.625    5.250    4.500 
#    9.000    0.000    0.000    0.000    0.000    0.000 
#    0.000    0.000    0.000    0.000    0.000    0.000 
#
# Total GULP energy -89531.984116 kJ/mol
# GULP energy per Si atom -5595.749007 kJ/mol
# Density = 2.313170 g / cm^3
# Si number density = 23.184470 Si / 1000 Ang^3
#
#
#
# Elastic Constant Matrix: (Units=GPa)
#
#
# Indices 1 2 3 4 5 6 
#
# 1 40.6830 46.6927 30.5259 5.3173 -9.7359 -12.6472
# 2 46.6927 151.0215 41.2424 6.9699 7.6566 -11.8609
# 3 30.5259 41.2424 100.8214 -6.5210 -10.6971 2.9441
# 4 5.3173 6.9699 -6.5210 50.9899 3.8024 -2.7480
# 5 -9.7359 7.6566 -10.6971 3.8024 25.7496 -1.5483
# 6 -12.6472 -11.8609 2.9441 -2.7480 -1.5483 37.0915
#
#
#
# Elastic Compliance Matrix: (Units=1/GPa)
#
#
# Indices 1 2 3 4 5 6 
#
# 1 0.065199 -0.016778 -0.010976 -0.006949 0.027211 0.018358
# 2 -0.016778 0.012448 -0.001048 0.000601 -0.010693 -0.002059
# 3 -0.010976 -0.001048 0.014132 0.002729 0.001332 -0.004941
# 4 -0.006949 0.000601 0.002729 0.020907 -0.004822 -0.001046
# 5 0.027211 -0.010693 0.001332 -0.004822 0.054029 0.007651
# 6 0.018358 -0.002059 -0.004941 -0.001046 0.007651 0.033196
#
#
# Mechanical properties :
#
#
# Convention : Reuss Voigt Hill
#
# Bulk Modulus (GPa) = 29.25940 58.82753 44.04346
# Shear Modulus (GPa) = 18.59387 34.37055 26.48221
#
# Velocity S-wave (km/s) = 2.83503 3.85448 3.38337
# Velocity P-wave (km/s) = 4.83365 6.72593 5.85672
#
# Compressibility (1/GPa) = 0.03417705
#
# Stress axis : x y z
#
# Youngs Moduli (GPa) = 15.33755 80.33599 70.75958
#
# Poissons Ratio (x) = 1.34788 0.77664
# Poissons Ratio (y) = 0.25733 0.07412
# Poissons Ratio (z) = 0.16834 0.08415
#
# Static dielectric constant tensor:
#      x y z
#    x 1.836180 0.030650 -0.003920 
#    y 0.030650 1.906170 -0.028650 
#    z -0.003920 -0.028650 1.922290 
# 
# From -- ./inp_files/585645.got.cif
#   From: 2010.05.17/outbox.cif.g08.bks.cpg/sg2_293_cif.got.tgz:585645.got - 2010.06.03 11:33:40.
