data_PCOD9061207
_publ_section_title
;
Structure prediction by ZEFSAII (Michael W. Deem and Ramdas Pophale) SiO2 
 PCOD9061207
Probable space group: P -1
;
_chemical_formula_sum "Si O2"
_cell_formula_units_Z 12
_cell_length_a 11.221461
_cell_length_b 11.775553
_cell_length_c 8.261982
_cell_angle_alpha 58.268091
_cell_angle_beta 98.568285
_cell_angle_gamma 49.309572
_cell_volume 455.318420
_symmetry_space_group_name_H-M "P -1"
_symmetry_group_IT_number 2
_symmetry_cell_setting 'triclinic'
loop_
_space_group_symop_operation_xyz
x,y,z
-x,-y,-z
loop_
_atom_site_type_symbol
_atom_site_label
_atom_site_fract_x
_atom_site_fract_y
_atom_site_fract_z
Si Si1 0.792990 0.130243 0.367639
Si Si2 0.397916 0.988694 0.109706
Si Si3 0.184529 0.389805 0.996829
Si Si4 0.312709 0.560638 0.401907
Si Si5 0.948514 0.799714 0.371577
Si Si6 0.341921 0.513275 0.088621
O O1 0.638946 0.219624 0.416242
O O2 0.771541 0.054058 0.263221
O O3 0.500000 0.500000 0.000000
O O4 0.898415 0.182266 0.296540
O O5 0.575551 0.694119 0.377149
O O6 0.500000 0.000000 0.000000
O O7 0.354055 0.109851 0.174401
O O8 0.163707 0.154672 0.846350
O O9 0.056741 0.579087 0.670744
O O10 0.307501 0.397932 0.099331
O O11 0.000000 0.500000 0.000000
O O12 0.500000 0.500000 0.500000
O O13 0.216998 0.663715 0.123395
O O14 0.137384 0.727073 0.396868
#
# Coordination Sequence:
#
# PCOD9061207 Si02
#       6
#     2   2   2   2   2   2
#     4  11  23  44  75 102 142 181 229 296 355 407
#     4  12  27  48  73 102 147 190 231 292 356 417
#     4  12  27  45  72 105 141 188 238 288 353 420
#     4  12  28  47  74 107 142 187 238 289 354 420
#     4  12  26  47  73 103 143 185 239 293 348 422
#     4  11  26  45  71 108 141 180 238 289 352 423
#
# _framework density 26.355181999999999
#
# number of rings (size 3 to 8) (size 9 to 14) (size 15 to 20)
#    0.000    0.333    3.333    4.500    7.000    6.000 
#    0.000    0.000    0.000    0.000    0.000    0.000 
#    0.000    0.000    0.000    0.000    0.000    0.000 
#
# Total GULP energy -67039.750108 kJ/mol
# GULP energy per Si atom -5586.645842 kJ/mol
# Density = 2.629520 g / cm^3
# Si number density = 26.355182 Si / 1000 Ang^3
#
#
#
# Elastic Constant Matrix: (Units=GPa)
#
#
# Indices 1 2 3 4 5 6 
#
# 1 154.9014 51.4378 61.7751 -22.6326 5.9814 -10.1014
# 2 51.4378 155.9446 28.4413 -13.7433 -20.4484 -3.0404
# 3 61.7751 28.4413 102.7148 5.3371 -6.1212 -2.1313
# 4 -22.6326 -13.7433 5.3371 41.8209 16.2631 0.2425
# 5 5.9814 -20.4484 -6.1212 16.2631 23.8437 -8.6830
# 6 -10.1014 -3.0404 -2.1313 0.2425 -8.6830 70.8336
#
#
#
# Elastic Compliance Matrix: (Units=1/GPa)
#
#
# Indices 1 2 3 4 5 6 
#
# 1 0.015221 -0.004641 -0.010072 0.016601 -0.022107 -0.001098
# 2 -0.004641 0.009007 0.001349 -0.004788 0.013002 0.001376
# 3 -0.010072 0.001349 0.017301 -0.014413 0.018487 0.001458
# 4 0.016601 -0.004788 -0.014413 0.052371 -0.049329 -0.004498
# 5 -0.022107 0.013002 0.018487 -0.049329 0.100849 0.010493
# 6 -0.001098 0.001376 0.001458 -0.004498 0.010493 0.015366
#
#
# Mechanical properties :
#
#
# Convention : Reuss Voigt Hill
#
# Bulk Modulus (GPa) = 67.56243 77.42990 72.49617
# Shear Modulus (GPa) = 20.68031 45.42674 33.05353
#
# Velocity S-wave (km/s) = 2.80425 4.15617 3.54525
# Velocity P-wave (km/s) = 6.01466 7.24395 6.65774
#
# Compressibility (1/GPa) = 0.01480113
#
# Stress axis : x y z
#
# Youngs Moduli (GPa) = 65.69739 111.02515 57.80141
#
# Poissons Ratio (x) = 0.51526 0.58219
# Poissons Ratio (y) = 0.30490 -0.07799
# Poissons Ratio (z) = 0.66172 -0.14981
#
# Static dielectric constant tensor:
#      x y z
#    x 2.191720 0.180010 -0.105470 
#    y 0.180010 1.813240 -0.131410 
#    z -0.105470 -0.131410 2.401810 
# 
# From -- ./inp_files/256923.got.cif
#   From: 2010.05.17/outbox.cif.g08.bks.cpg/sg2_129_cif.got.tgz:256923.got - 2010.06.03 11:33:40.
