data_PCOD9061629
_publ_section_title
;
Structure prediction by ZEFSAII (Michael W. Deem and Ramdas Pophale) SiO2 
 PCOD9061629
Probable space group: P -1
;
_chemical_formula_sum "Si O2"
_cell_formula_units_Z 16
_cell_length_a 17.065844
_cell_length_b 12.740944
_cell_length_c 8.550124
_cell_angle_alpha 95.878293
_cell_angle_beta 139.830321
_cell_angle_gamma 53.543025
_cell_volume 709.179819
_symmetry_space_group_name_H-M "P -1"
_symmetry_group_IT_number 2
_symmetry_cell_setting 'triclinic'
loop_
_space_group_symop_operation_xyz
x,y,z
-x,-y,-z
loop_
_atom_site_type_symbol
_atom_site_label
_atom_site_fract_x
_atom_site_fract_y
_atom_site_fract_z
Si Si1 0.827359 0.497503 0.373493
Si Si2 0.011318 0.238994 0.163560
Si Si3 0.815067 0.546514 0.719926
Si Si4 0.707303 0.352579 0.197108
Si Si5 0.300318 0.701606 0.160118
Si Si6 0.441018 0.957716 0.271276
Si Si7 0.763095 0.775741 0.249801
Si Si8 0.117606 0.051740 0.974425
O O1 0.832620 0.484323 0.566458
O O2 0.735491 0.449727 0.178514
O O3 0.716022 0.686621 0.200211
O O4 0.045378 0.357937 0.600468
O O5 0.165242 0.204198 0.491513
O O6 0.842343 0.439318 0.875304
O O7 0.898573 0.230279 0.092901
O O8 0.097814 0.124821 0.121293
O O9 0.612215 0.751835 0.473455
O O10 0.000000 0.500000 0.000000
O O11 0.896502 0.190095 0.574526
O O12 0.500000 0.500000 0.000000
O O13 0.685448 0.293570 0.004401
O O14 0.500000 0.500000 0.500000
O O15 0.245438 0.855211 0.166612
O O16 0.500000 0.000000 0.500000
O O17 0.411364 0.041964 0.079681
O O18 0.239902 0.039314 0.037419
#
# Coordination Sequence:
#
# PCOD9061629 Si02
#       8
#     2   2   2   2   2   2   2   2
#     4  11  23  45  75 102 146 184 239 290 364 429
#     4  12  23  46  73 103 143 189 239 300 360 430
#     4  12  24  45  73 103 145 194 231 292 372 438
#     4  12  26  48  76 104 142 199 247 295 367 435
#     4  12  27  47  70 107 140 190 245 304 358 426
#     4  12  27  45  72 108 147 191 240 297 367 437
#     4  11  24  45  75 110 143 188 238 302 359 427
#     4  12  26  50  72 104 146 192 241 302 363 435
#
# _framework density 22.561271999999999
#
# number of rings (size 3 to 8) (size 9 to 14) (size 15 to 20)
#    0.000    0.250    5.000    3.750    3.500    1.500 
#    2.250    0.000    0.000    0.000    0.000    0.000 
#    0.000    0.000    0.000    0.000    0.000    0.000 
#
# Total GULP energy -89573.973116 kJ/mol
# GULP energy per Si atom -5598.373320 kJ/mol
# Density = 2.250992 g / cm^3
# Si number density = 22.561272 Si / 1000 Ang^3
#
#
#
# Elastic Constant Matrix: (Units=GPa)
#
#
# Indices 1 2 3 4 5 6 
#
# 1 66.9916 3.6121 11.9400 -13.0445 -6.4595 1.4637
# 2 3.6121 134.0722 50.9472 -13.3615 -27.2306 -3.8616
# 3 11.9400 50.9472 96.0389 -16.7950 -20.5516 -12.5239
# 4 -13.0445 -13.3615 -16.7950 28.9604 -3.0101 -8.7980
# 5 -6.4595 -27.2306 -20.5516 -3.0101 44.0341 -0.4965
# 6 1.4637 -3.8616 -12.5239 -8.7980 -0.4965 54.0043
#
#
#
# Elastic Compliance Matrix: (Units=1/GPa)
#
#
# Indices 1 2 3 4 5 6 
#
# 1 0.016963 0.001343 -0.000352 0.008756 0.003765 0.001016
# 2 0.001343 0.010292 -0.003818 0.003810 0.005045 0.000481
# 3 -0.000352 -0.003818 0.016045 0.009524 0.005784 0.005062
# 4 0.008756 0.003810 0.009524 0.050161 0.011633 0.010522
# 5 0.003765 0.005045 0.005784 0.011633 0.029919 0.003770
# 6 0.001016 0.000481 0.005062 0.010522 0.003770 0.021447
#
#
# Mechanical properties :
#
#
# Convention : Reuss Voigt Hill
#
# Bulk Modulus (GPa) = 26.56306 47.78904 37.17605
# Shear Modulus (GPa) = 30.66945 40.77331 35.72138
#
# Velocity S-wave (km/s) = 3.69098 4.25576 3.98339
# Velocity P-wave (km/s) = 5.47392 6.73621 6.13760
#
# Compressibility (1/GPa) = 0.03764626
#
# Stress axis : x y z
#
# Youngs Moduli (GPa) = 58.95049 97.16754 62.32500
#
# Poissons Ratio (x) = -0.13053 0.02196
# Poissons Ratio (y) = -0.07919 0.23795
# Poissons Ratio (z) = 0.02077 0.37097
#
# Static dielectric constant tensor:
#      x y z
#    x 1.843640 -0.040790 -0.002430 
#    y -0.040790 1.995260 0.064740 
#    z -0.002430 0.064740 1.867190 
# 
# From -- ./inp_files/333447.got.cif
#   From: 2010.05.17/outbox.cif.g08.bks.cpg/sg2_167_cif.got.tgz:333447.got - 2010.06.03 11:33:40.
