data_PCOD9061217
_publ_section_title
;
Structure prediction by ZEFSAII (Michael W. Deem and Ramdas Pophale) SiO2 
 PCOD9061217
Probable space group: P -1
;
_chemical_formula_sum "Si O2"
_cell_formula_units_Z 15
_cell_length_a 8.594578
_cell_length_b 13.191348
_cell_length_c 19.976206
_cell_angle_alpha 150.553711
_cell_angle_beta 34.062586
_cell_angle_gamma 137.295218
_cell_volume 622.860171
_symmetry_space_group_name_H-M "P -1"
_symmetry_group_IT_number 2
_symmetry_cell_setting 'triclinic'
loop_
_space_group_symop_operation_xyz
x,y,z
-x,-y,-z
loop_
_atom_site_type_symbol
_atom_site_label
_atom_site_fract_x
_atom_site_fract_y
_atom_site_fract_z
Si Si1 0.908272 0.796329 0.335973
Si Si2 0.585315 0.122139 0.971078
Si Si3 0.315835 0.703516 0.560614
Si Si4 0.000000 0.500000 0.000000
Si Si5 0.314622 0.833702 0.428739
Si Si6 0.033331 0.225143 0.150063
Si Si7 0.893280 0.746489 0.629289
Si Si8 0.704911 0.415903 0.824841
O O1 0.609771 0.773528 0.466220
O O2 0.127545 0.739770 0.280483
O O3 0.913378 0.033456 0.449228
O O4 0.944645 0.655677 0.175790
O O5 0.817947 0.308746 0.993130
O O6 0.711827 0.930860 0.776488
O O7 0.314416 0.213043 0.086749
O O8 0.500000 0.000000 0.000000
O O9 0.285971 0.460971 0.414634
O O10 0.231972 0.735080 0.685571
O O11 0.074831 0.812298 0.667273
O O12 0.460261 0.696959 0.243205
O O13 0.136903 0.688522 0.458150
O O14 0.500000 0.000000 0.500000
O O15 0.096440 0.404853 0.176174
O O16 0.000000 0.000000 0.000000
O O17 0.500000 0.500000 0.000000
#
# Coordination Sequence:
#
# PCOD9061217 Si02
#       8
#     2   2   2   1   2   2   2   2
#     4  12  28  47  81 109 159 203 265 324 409 479
#     4  12  26  48  80 112 161 204 268 334 400 473
#     4  11  25  47  76 110 146 200 260 318 402 471
#     4  12  28  46  82 124 146 214 278 326 408 490
#     4  12  26  48  79 113 149 202 260 328 391 473
#     4  12  30  49  73 113 160 208 264 327 410 485
#     4  11  23  44  75 109 145 191 256 325 382 466
#     4  12  31  52  75 111 163 208 263 332 404 485
#
# _framework density 24.082450999999999
#
# number of rings (size 3 to 8) (size 9 to 14) (size 15 to 20)
#    0.000    0.267    5.333    2.000   11.200    1.600 
#    0.000    0.000    0.000    0.000    0.000    0.000 
#    0.000    0.000    0.000    0.000    0.000    0.000 
#
# Total GULP energy -83622.710108 kJ/mol
# GULP energy per Si atom -5574.847341 kJ/mol
# Density = 2.402764 g / cm^3
# Si number density = 24.082451 Si / 1000 Ang^3
#
#
#
# Elastic Constant Matrix: (Units=GPa)
#
#
# Indices 1 2 3 4 5 6 
#
# 1 43.5121 11.7881 19.8014 -3.4741 10.2572 -12.8031
# 2 11.7881 130.6857 19.5632 -19.1264 20.6348 -12.3731
# 3 19.8014 19.5632 112.8008 -28.4736 32.4258 -2.4858
# 4 -3.4741 -19.1264 -28.4736 53.9647 -11.4102 3.5187
# 5 10.2572 20.6348 32.4258 -11.4102 45.9213 1.2131
# 6 -12.8031 -12.3731 -2.4858 3.5187 1.2131 28.3604
#
#
#
# Elastic Compliance Matrix: (Units=1/GPa)
#
#
# Indices 1 2 3 4 5 6 
#
# 1 0.029786 -0.000426 -0.004147 -0.002232 -0.004441 0.013364
# 2 -0.000426 0.008893 0.000208 0.002243 -0.003585 0.003581
# 3 -0.004147 0.000208 0.012830 0.005180 -0.006913 -0.001004
# 4 -0.002232 0.002243 0.005180 0.022381 0.001458 -0.002414
# 5 -0.004441 -0.003585 -0.006913 0.001458 0.029771 -0.005629
# 6 0.013364 0.003581 -0.001004 -0.002414 -0.005629 0.043308
#
#
# Mechanical properties :
#
#
# Convention : Reuss Voigt Hill
#
# Bulk Modulus (GPa) = 23.37668 43.25600 33.31634
# Shear Modulus (GPa) = 29.41913 41.37234 35.39574
#
# Velocity S-wave (km/s) = 3.49893 4.14931 3.83792
# Velocity P-wave (km/s) = 5.10405 6.39971 5.78825
#
# Compressibility (1/GPa) = 0.04277767
#
# Stress axis : x y z
#
# Youngs Moduli (GPa) = 33.57310 112.45425 77.94423
#
# Poissons Ratio (x) = 0.04792 0.32324
# Poissons Ratio (y) = 0.01431 -0.01622
# Poissons Ratio (z) = 0.13923 -0.02340
#
# Static dielectric constant tensor:
#      x y z
#    x 2.002650 -0.014910 -0.048870 
#    y -0.014910 1.895960 -0.082960 
#    z -0.048870 -0.082960 2.360000 
# 
# From -- ./inp_files/560103.got.cif
#   From: 2010.05.17/outbox.cif.g08.bks.cpg/sg2_281_cif.got.tgz:560103.got - 2010.06.03 11:33:40.
