data_PCOD9061020
_publ_section_title
;
Structure prediction by ZEFSAII (Michael W. Deem and Ramdas Pophale) SiO2 
 PCOD9061020
Probable space group: P -1
;
_chemical_formula_sum "Si O2"
_cell_formula_units_Z 13
_cell_length_a 7.666441
_cell_length_b 9.489615
_cell_length_c 11.524385
_cell_angle_alpha 125.385165
_cell_angle_beta 66.652227
_cell_angle_gamma 133.707382
_cell_volume 494.107835
_symmetry_space_group_name_H-M "P -1"
_symmetry_group_IT_number 2
_symmetry_cell_setting 'triclinic'
loop_
_space_group_symop_operation_xyz
x,y,z
-x,-y,-z
loop_
_atom_site_type_symbol
_atom_site_label
_atom_site_fract_x
_atom_site_fract_y
_atom_site_fract_z
Si Si1 0.000000 0.500000 0.500000
Si Si2 0.710089 0.972065 0.932949
Si Si3 0.773064 0.238193 0.669835
Si Si4 0.653323 0.777924 0.457690
Si Si5 0.879452 0.654269 0.159125
Si Si6 0.792349 0.701727 0.623070
Si Si7 0.508662 0.704284 0.060849
O O1 0.903393 0.410594 0.614931
O O2 0.019490 0.729399 0.626182
O O3 0.669862 0.780293 0.769817
O O4 0.725873 0.907559 0.028088
O O5 0.951602 0.181990 0.910613
O O6 0.500000 0.000000 0.000000
O O7 0.558580 0.225562 0.776560
O O8 0.959554 0.322802 0.767185
O O9 0.675752 0.993829 0.548461
O O10 0.731682 0.724468 0.295517
O O11 0.807346 0.790768 0.533071
O O12 0.380582 0.567395 0.464564
O O13 0.703682 0.414546 0.037433
O O14 0.500000 0.500000 0.000000
#
# Coordination Sequence:
#
# PCOD9061020 Si02
#       7
#     1   2   2   2   2   2   2
#     4  12  26  44  72 110 152 186 248 314 370 426
#     4  12  24  45  77 109 143 200 253 293 369 460
#     4  12  25  47  72 110 146 196 248 304 371 444
#     4  11  23  45  76 104 146 198 251 298 370 444
#     4  12  24  47  80 103 146 200 242 304 371 443
#     4  11  23  44  71 109 148 193 245 307 364 446
#     4  12  28  50  72 109 153 189 244 315 373 443
#
# _framework density 26.310044000000001
#
# number of rings (size 3 to 8) (size 9 to 14) (size 15 to 20)
#    0.000    0.308    6.154    2.769    0.000    1.231 
#    5.538    0.000    0.000    0.000    0.000    0.000 
#    0.000    0.000    0.000    0.000    0.000    0.000 
#
# Total GULP energy -72610.757153 kJ/mol
# GULP energy per Si atom -5585.442858 kJ/mol
# Density = 2.625016 g / cm^3
# Si number density = 26.310044 Si / 1000 Ang^3
#
#
#
# Elastic Constant Matrix: (Units=GPa)
#
#
# Indices 1 2 3 4 5 6 
#
# 1 61.3706 51.1762 33.0477 0.9516 -1.6757 -31.3605
# 2 51.1762 212.6044 71.7661 -42.5950 -7.1429 -33.3526
# 3 33.0477 71.7661 181.0512 -23.1094 -39.8967 -10.5473
# 4 0.9516 -42.5950 -23.1094 65.3353 2.9449 -1.6925
# 5 -1.6757 -7.1429 -39.8967 2.9449 31.7060 8.5586
# 6 -31.3605 -33.3526 -10.5473 -1.6925 8.5586 50.3578
#
#
#
# Elastic Compliance Matrix: (Units=1/GPa)
#
#
# Indices 1 2 3 4 5 6 
#
# 1 0.031772 -0.004026 -0.006252 -0.004327 -0.011447 0.017610
# 2 -0.004026 0.007587 -0.002032 0.004452 -0.002180 0.002612
# 3 -0.006252 -0.002032 0.010354 0.001681 0.013519 -0.005312
# 4 -0.004327 0.004452 0.001681 0.018856 0.000843 0.001097
# 5 -0.011447 -0.002180 0.013519 0.000843 0.051271 -0.014426
# 6 0.017610 0.002612 -0.005312 0.001097 -0.014426 0.033931
#
#
# Mechanical properties :
#
#
# Convention : Reuss Voigt Hill
#
# Bulk Modulus (GPa) = 39.85395 85.22292 62.53843
# Shear Modulus (GPa) = 26.77260 49.41555 38.09408
#
# Velocity S-wave (km/s) = 3.19342 4.33852 3.80924
# Velocity P-wave (km/s) = 5.36450 7.58677 6.57028
#
# Compressibility (1/GPa) = 0.02509162
#
# Stress axis : x y z
#
# Youngs Moduli (GPa) = 31.47407 131.79804 96.57774
#
# Poissons Ratio (x) = 0.53065 0.60385
# Poissons Ratio (y) = 0.12672 0.19629
# Poissons Ratio (z) = 0.19679 0.26787
#
# Static dielectric constant tensor:
#      x y z
#    x 1.520510 -0.003040 0.052870 
#    y -0.003040 2.064420 0.002820 
#    z 0.052870 0.002820 2.008340 
# 
# From -- ./inp_files/380531.got.cif
#   From: 2010.05.17/outbox.cif.g08.bks.cpg/sg2_191_cif.got.tgz:380531.got - 2010.06.03 11:33:40.
