data_PCOD9061571
_publ_section_title
;
Structure prediction by ZEFSAII (Michael W. Deem and Ramdas Pophale) SiO2 
 PCOD9061571
Probable space group: P -1
;
_chemical_formula_sum "Si O2"
_cell_formula_units_Z 15
_cell_length_a 8.526640
_cell_length_b 11.772428
_cell_length_c 15.550738
_cell_angle_alpha 147.849865
_cell_angle_beta 49.750025
_cell_angle_gamma 117.335958
_cell_volume 618.978695
_symmetry_space_group_name_H-M "P -1"
_symmetry_group_IT_number 2
_symmetry_cell_setting 'triclinic'
loop_
_space_group_symop_operation_xyz
x,y,z
-x,-y,-z
loop_
_atom_site_type_symbol
_atom_site_label
_atom_site_fract_x
_atom_site_fract_y
_atom_site_fract_z
Si Si1 0.452431 0.821679 0.640882
Si Si2 0.304427 0.549834 0.226307
Si Si3 0.484139 0.390418 0.248034
Si Si4 0.899222 0.752127 0.715807
Si Si5 0.338472 0.247544 0.856397
Si Si6 0.000000 0.000000 0.000000
Si Si7 0.093409 0.075873 0.427164
Si Si8 0.932035 0.176411 0.885255
O O1 0.459307 0.580854 0.448619
O O2 0.683284 0.853272 0.606384
O O3 0.405507 0.991079 0.686310
O O4 0.256132 0.893721 0.820944
O O5 0.383913 0.473633 0.243988
O O6 0.477953 0.672130 0.205043
O O7 0.081606 0.718592 0.411970
O O8 0.299646 0.361794 0.036823
O O9 0.340992 0.220340 0.212997
O O10 0.728469 0.295463 0.085465
O O11 0.000000 0.500000 0.500000
O O12 0.991526 0.933839 0.749553
O O13 0.933895 0.816048 0.842197
O O14 0.123791 0.291794 0.907214
O O15 0.117074 0.865787 0.222166
O O16 0.000000 0.000000 0.500000
#
# Coordination Sequence:
#
# PCOD9061571 Si02
#       8
#     2   2   2   2   2   1   2   2
#     4  12  25  48  73 112 148 200 253 314 385 456
#     4  11  25  44  76 107 151 197 252 315 383 460
#     4  12  27  47  75 108 154 202 254 314 381 461
#     4  12  24  49  77 111 149 203 255 313 386 453
#     4  11  23  45  73 108 145 198 248 311 387 446
#     4  12  24  46  82 106 154 198 248 322 378 464
#     4  12  26  46  75 109 148 195 252 314 379 458
#     4  12  27  46  73 111 153 196 256 315 378 462
#
# _framework density 24.233467000000001
#
# number of rings (size 3 to 8) (size 9 to 14) (size 15 to 20)
#    0.000    0.267    4.000    5.200    3.733    1.600 
#    2.400    1.333    0.000    0.000    0.000    0.000 
#    0.000    0.000    0.000    0.000    0.000    0.000 
#
# Total GULP energy -83756.749152 kJ/mol
# GULP energy per Si atom -5583.783277 kJ/mol
# Density = 2.417831 g / cm^3
# Si number density = 24.233467 Si / 1000 Ang^3
#
#
#
# Elastic Constant Matrix: (Units=GPa)
#
#
# Indices 1 2 3 4 5 6 
#
# 1 156.4997 40.0318 62.0446 -9.1781 5.5100 64.6772
# 2 40.0318 54.2063 32.0213 -14.3391 2.5323 20.2570
# 3 62.0446 32.0213 174.6824 -9.1059 9.2535 32.4151
# 4 -9.1781 -14.3391 -9.1059 34.0929 6.6041 -6.5692
# 5 5.5100 2.5323 9.2535 6.6041 31.1539 0.0165
# 6 64.6772 20.2570 32.4151 -6.5692 0.0165 52.2086
#
#
#
# Elastic Compliance Matrix: (Units=1/GPa)
#
#
# Indices 1 2 3 4 5 6 
#
# 1 0.014430 -0.004196 -0.001452 -0.000943 -0.001572 -0.015465
# 2 -0.004196 0.026426 -0.002260 0.009436 -0.002734 -0.002465
# 3 -0.001452 -0.002260 0.007086 0.000579 -0.001786 -0.001650
# 4 -0.000943 0.009436 0.000579 0.035094 -0.008212 0.001566
# 5 -0.001572 -0.002734 -0.001786 -0.008212 0.034869 0.003072
# 6 -0.015465 -0.002465 -0.001650 0.001566 0.003072 0.040489
#
#
# Mechanical properties :
#
#
# Convention : Reuss Voigt Hill
#
# Bulk Modulus (GPa) = 31.12735 72.62044 51.87389
# Shear Modulus (GPa) = 27.03908 40.24381 33.64144
#
# Velocity S-wave (km/s) = 3.34394 4.07955 3.72993
# Velocity P-wave (km/s) = 5.27086 7.22651 6.32473
#
# Compressibility (1/GPa) = 0.03212609
#
# Stress axis : x y z
#
# Youngs Moduli (GPa) = 69.30028 37.84097 141.12776
#
# Poissons Ratio (x) = 0.15876 0.20498
# Poissons Ratio (y) = 0.29075 0.31895
# Poissons Ratio (z) = 0.10065 0.08552
#
# Static dielectric constant tensor:
#      x y z
#    x 1.970850 -0.045180 -0.020330 
#    y -0.045180 1.971930 -0.034730 
#    z -0.020330 -0.034730 1.911280 
# 
# From -- ./inp_files/501070.got.cif
#   From: 2010.05.17/outbox.cif.g08.bks.cpg/sg2_251_cif.got.tgz:501070.got - 2010.06.03 11:33:40.
