data_PCOD9061328
_publ_section_title
;
Structure prediction by ZEFSAII (Michael W. Deem and Ramdas Pophale) SiO2 
 PCOD9061328
Probable space group: P -1
;
_chemical_formula_sum "Si O2"
_cell_formula_units_Z 13
_cell_length_a 5.270394
_cell_length_b 21.815801
_cell_length_c 24.241511
_cell_angle_alpha 168.435922
_cell_angle_beta 110.359336
_cell_angle_gamma 66.778987
_cell_volume 502.216809
_symmetry_space_group_name_H-M "P -1"
_symmetry_group_IT_number 2
_symmetry_cell_setting 'triclinic'
loop_
_space_group_symop_operation_xyz
x,y,z
-x,-y,-z
loop_
_atom_site_type_symbol
_atom_site_label
_atom_site_fract_x
_atom_site_fract_y
_atom_site_fract_z
Si Si1 0.538220 0.589685 0.859586
Si Si2 0.808867 0.874185 0.612559
Si Si3 0.000000 0.000000 0.000000
Si Si4 0.014139 0.280919 0.708319
Si Si5 0.589230 0.966176 0.849835
Si Si6 0.245659 0.792890 0.216547
Si Si7 0.852329 0.397394 0.501379
O O1 0.351398 0.386218 0.640563
O O2 0.775267 0.371084 0.723205
O O3 0.363955 0.856576 0.122370
O O4 0.619117 0.777385 0.979814
O O5 0.081960 0.700105 0.515577
O O6 0.801425 0.057726 0.716389
O O7 0.716694 0.120170 0.044804
O O8 0.849837 0.755681 0.804846
O O9 0.264448 0.089577 0.517763
O O10 0.012214 0.593327 0.018374
O O11 0.000000 0.000000 0.500000
O O12 0.422257 0.715447 0.633386
O O13 0.879553 0.790106 0.682830
O O14 0.500000 0.500000 0.000000
#
# Coordination Sequence:
#
# PCOD9061328 Si02
#       7
#     2   2   1   2   2   2   2
#     4  11  23  45  68 103 142 191 246 311 375 450
#     4  11  23  45  68 103 142 191 246 311 375 450
#     4  12  24  50  72 112 140 202 248 314 390 446
#     4  12  24  41  66 100 139 191 243 309 372 446
#     4  11  26  46  72 107 148 195 251 314 380 456
#     4  12  24  41  66 100 139 191 243 309 372 446
#     4  11  26  46  72 107 148 195 251 314 380 456
#
# _framework density 25.885235000000002
#
# number of rings (size 3 to 8) (size 9 to 14) (size 15 to 20)
#    0.000    0.615    1.538    6.462    0.000    4.923 
#    0.000    0.000    0.000    0.000    0.000    0.000 
#    0.000    0.000    0.000    0.000    0.000    0.000 
#
# Total GULP energy -72394.930853 kJ/mol
# GULP energy per Si atom -5568.840835 kJ/mol
# Density = 2.582632 g / cm^3
# Si number density = 25.885235 Si / 1000 Ang^3
#
#
#
# Elastic Constant Matrix: (Units=GPa)
#
#
# Indices 1 2 3 4 5 6 
#
# 1 79.1379 40.9280 28.9812 -13.0823 28.0593 8.7530
# 2 40.9280 284.9435 3.9620 -12.4246 30.0947 39.9423
# 3 28.9812 3.9620 139.2872 4.3526 35.9601 -1.2255
# 4 -13.0823 -12.4246 4.3526 80.1178 4.5131 2.3391
# 5 28.0593 30.0947 35.9601 4.5131 64.9176 -6.9351
# 6 8.7530 39.9423 -1.2255 2.3391 -6.9351 57.9479
#
#
#
# Elastic Compliance Matrix: (Units=1/GPa)
#
#
# Indices 1 2 3 4 5 6 
#
# 1 0.017015 -0.001268 -0.002042 0.003114 -0.006130 -0.002598
# 2 -0.001268 0.004382 0.000667 0.000653 -0.002230 -0.003108
# 3 -0.002042 0.000667 0.008695 -0.000449 -0.004261 -0.000460
# 4 0.003114 0.000653 -0.000449 0.013309 -0.002514 -0.001768
# 5 -0.006130 -0.002230 -0.004261 -0.002514 0.022171 0.005128
# 6 -0.002598 -0.003108 -0.000460 -0.001768 0.005128 0.020467
#
#
# Mechanical properties :
#
#
# Convention : Reuss Voigt Hill
#
# Bulk Modulus (GPa) = 40.31112 72.34565 56.32838
# Shear Modulus (GPa) = 50.20387 69.22982 59.71684
#
# Velocity S-wave (km/s) = 4.40873 5.17716 4.80832
# Velocity P-wave (km/s) = 6.44381 7.98415 7.25497
#
# Compressibility (1/GPa) = 0.02480705
#
# Stress axis : x y z
#
# Youngs Moduli (GPa) = 58.77071 228.20432 115.00293
#
# Poissons Ratio (x) = 0.28941 0.23483
# Poissons Ratio (y) = 0.07453 -0.07674
# Poissons Ratio (z) = 0.12001 -0.15228
#
# Static dielectric constant tensor:
#      x y z
#    x 2.218740 0.049600 -0.129180 
#    y 0.049600 2.097620 -0.038660 
#    z -0.129180 -0.038660 2.132010 
# 
# From -- ./inp_files/125286.got.cif
#   From: 2010.05.17/outbox.cif.g08.bks.cpg/sg2_63_cif.got.tgz:125286.got - 2010.06.03 11:33:40.
