data_PCOD9061438
_publ_section_title
;
Structure prediction by ZEFSAII (Michael W. Deem and Ramdas Pophale) SiO2 
 PCOD9061438
Probable space group: P -1
;
_chemical_formula_sum "Si O2"
_cell_formula_units_Z 16
_cell_length_a 6.760332
_cell_length_b 24.455278
_cell_length_c 22.200994
_cell_angle_alpha 161.442953
_cell_angle_beta 46.837503
_cell_angle_gamma 123.634890
_cell_volume 778.064022
_symmetry_space_group_name_H-M "P -1"
_symmetry_group_IT_number 2
_symmetry_cell_setting 'triclinic'
loop_
_space_group_symop_operation_xyz
x,y,z
-x,-y,-z
loop_
_atom_site_type_symbol
_atom_site_label
_atom_site_fract_x
_atom_site_fract_y
_atom_site_fract_z
Si Si1 0.414803 0.101330 0.188874
Si Si2 0.658729 0.030163 0.603462
Si Si3 0.177127 0.594566 0.324906
Si Si4 0.157691 0.353877 0.973620
Si Si5 0.596104 0.264451 0.973470
Si Si6 0.312412 0.380555 0.841391
Si Si7 0.351472 0.237915 0.120713
Si Si8 0.664424 0.408927 0.432031
O O1 0.540054 0.263114 0.331759
O O2 0.067833 0.214375 0.397241
O O3 0.500000 0.000000 0.000000
O O4 0.557047 0.937212 0.036508
O O5 0.450478 0.183378 0.759771
O O6 0.628286 0.837698 0.399041
O O7 0.566384 0.115773 0.778113
O O8 0.000000 0.000000 0.500000
O O9 0.344647 0.460571 0.206037
O O10 0.431660 0.604374 0.237801
O O11 0.033978 0.492852 0.201864
O O12 0.256807 0.439799 0.985039
O O13 0.908165 0.285652 0.930968
O O14 0.552804 0.200963 0.981921
O O15 0.000000 0.500000 0.000000
O O16 0.371459 0.417581 0.336420
O O17 0.014226 0.296941 0.231789
O O18 0.500000 0.500000 0.500000
#
# Coordination Sequence:
#
# PCOD9061438 Si02
#       8
#     2   2   2   2   2   2   2   2
#     4  12  26  47  72 104 143 182 237 291 352 419
#     4  11  24  42  66  96 135 182 227 280 339 416
#     4  11  26  44  67 103 141 180 233 292 341 418
#     4  11  23  45  70  94 142 185 224 287 347 407
#     4  11  24  45  67  99 139 181 233 277 350 408
#     4  12  23  44  69 102 137 183 228 283 345 408
#     4  11  26  43  74 101 134 188 231 287 353 416
#     4  11  23  48  72  98 138 179 231 294 351 408
#
# _framework density 20.563860999999999
#
# number of rings (size 3 to 8) (size 9 to 14) (size 15 to 20)
#    0.000    0.750    3.750    3.375    3.500    3.000 
#    4.500    0.000    0.000    0.000    0.000    0.000 
#    0.000    0.000    0.000    0.000    0.000    0.000 
#
# Total GULP energy -89389.106636 kJ/mol
# GULP energy per Si atom -5586.819165 kJ/mol
# Density = 2.051706 g / cm^3
# Si number density = 20.563861 Si / 1000 Ang^3
#
#
#
# Elastic Constant Matrix: (Units=GPa)
#
#
# Indices 1 2 3 4 5 6 
#
# 1 96.7350 38.0855 29.6730 -4.6427 -12.6648 -16.1362
# 2 38.0855 131.7530 27.1109 2.7951 -6.5951 -15.1389
# 3 29.6730 27.1109 93.7408 -3.8475 -17.9145 -11.0179
# 4 -4.6427 2.7951 -3.8475 32.8088 -0.1684 -1.1042
# 5 -12.6648 -6.5951 -17.9145 -0.1684 20.9639 6.5248
# 6 -16.1362 -15.1389 -11.0179 -1.1042 6.5248 33.4637
#
#
#
# Elastic Compliance Matrix: (Units=1/GPa)
#
#
# Indices 1 2 3 4 5 6 
#
# 1 0.013368 -0.002840 -0.002074 0.002037 0.004271 0.003713
# 2 -0.002840 0.008998 -0.001687 -0.001294 -0.001056 0.002309
# 3 -0.002074 -0.001687 0.013855 0.001557 0.009775 0.000944
# 4 0.002037 -0.001294 0.001557 0.031123 0.001918 0.001563
# 5 0.004271 -0.001056 0.009775 0.001918 0.060474 -0.006928
# 6 0.003713 0.002309 0.000944 0.001563 -0.006928 0.034431
#
#
# Mechanical properties :
#
#
# Convention : Reuss Voigt Hill
#
# Bulk Modulus (GPa) = 43.44210 56.88531 50.16370
# Shear Modulus (GPa) = 27.30389 32.60458 29.95424
#
# Velocity S-wave (km/s) = 3.64780 3.98619 3.82074
# Velocity P-wave (km/s) = 6.23805 6.99350 6.62655
#
# Compressibility (1/GPa) = 0.02301915
#
# Stress axis : x y z
#
# Youngs Moduli (GPa) = 74.80402 111.13581 72.17668
#
# Poissons Ratio (x) = 0.31567 0.14969
# Poissons Ratio (y) = 0.21247 0.12174
# Poissons Ratio (z) = 0.15514 0.18745
#
# Static dielectric constant tensor:
#      x y z
#    x 1.781890 0.017490 0.040630 
#    y 0.017490 1.749370 -0.008500 
#    z 0.040630 -0.008500 1.776230 
# 
# From -- ./inp_files/38254.got.cif
#   From: 2010.05.17/outbox.cif.g08.bks.cpg/sg2_20_cif.got.tgz:38254.got - 2010.06.03 11:33:40.
