data_PCOD9061665
_publ_section_title
;
Structure prediction by ZEFSAII (Michael W. Deem and Ramdas Pophale) SiO2 
 PCOD9061665
Probable space group: P -1
;
_chemical_formula_sum "Si O2"
_cell_formula_units_Z 10
_cell_length_a 9.047069
_cell_length_b 13.621053
_cell_length_c 7.503654
_cell_angle_alpha 75.247535
_cell_angle_beta 91.844465
_cell_angle_gamma 31.422104
_cell_volume 405.097056
_symmetry_space_group_name_H-M "P -1"
_symmetry_group_IT_number 2
_symmetry_cell_setting 'triclinic'
loop_
_space_group_symop_operation_xyz
x,y,z
-x,-y,-z
loop_
_atom_site_type_symbol
_atom_site_label
_atom_site_fract_x
_atom_site_fract_y
_atom_site_fract_z
Si Si1 0.868528 0.842978 0.069799
Si Si2 0.157594 0.515275 0.490479
Si Si3 0.681141 0.766992 0.899433
Si Si4 0.643671 0.188168 0.338970
Si Si5 0.667928 0.263320 0.920856
O O1 0.912051 0.748872 0.293801
O O2 0.191649 0.709482 0.109725
O O3 0.804793 0.805328 0.921155
O O4 0.548021 0.105674 0.989490
O O5 0.416256 0.353382 0.416244
O O6 0.356040 0.431349 0.708464
O O7 0.000000 0.500000 0.500000
O O8 0.439665 0.877554 0.683401
O O9 0.413771 0.716364 0.890403
O O10 0.000000 0.500000 0.000000
O O11 0.000000 0.000000 0.500000
O O12 0.000000 0.000000 0.000000
#
# Coordination Sequence:
#
# PCOD9061665 Si02
#       5
#     2   2   2   2   2
#     4  11  25  46  80 113 155 208 255 319 401 447
#     4  12  27  48  79 111 159 206 259 324 382 459
#     4  11  23  45  76 108 155 196 259 317 375 468
#     4  12  25  47  77 111 154 203 254 318 391 454
#     4  12  25  46  80 111 158 202 256 326 382 462
#
# _framework density 24.685441000000001
#
# number of rings (size 3 to 8) (size 9 to 14) (size 15 to 20)
#    0.000    0.400    6.000    1.800    2.800    0.800 
#    0.000    6.000    0.000    0.000    0.000    0.000 
#    0.000    0.000    0.000    0.000    0.000    0.000 
#
# Total GULP energy -55888.682254 kJ/mol
# GULP energy per Si atom -5588.868225 kJ/mol
# Density = 2.462926 g / cm^3
# Si number density = 24.685441 Si / 1000 Ang^3
#
#
#
# Elastic Constant Matrix: (Units=GPa)
#
#
# Indices 1 2 3 4 5 6 
#
# 1 179.9330 28.3737 85.6818 -9.1111 24.9406 -10.7322
# 2 28.3737 145.9915 34.2033 10.2887 10.8023 -10.1548
# 3 85.6818 34.2033 203.9239 7.9223 35.8257 -0.4203
# 4 -9.1111 10.2887 7.9223 32.5420 -5.3440 3.6384
# 5 24.9406 10.8023 35.8257 -5.3440 62.5167 9.8989
# 6 -10.7322 -10.1548 -0.4203 3.6384 9.8989 44.5125
#
#
#
# Elastic Compliance Matrix: (Units=1/GPa)
#
#
# Indices 1 2 3 4 5 6 
#
# 1 0.007455 -0.000752 -0.002890 0.002643 -0.001224 0.001655
# 2 -0.000752 0.007578 -0.000624 -0.002885 -0.001223 0.002049
# 3 -0.002890 -0.000624 0.006842 -0.002767 -0.002912 0.000099
# 4 0.002643 -0.002885 -0.002767 0.034237 0.004568 -0.003861
# 5 -0.001224 -0.001223 -0.002912 0.004568 0.019599 -0.005334
# 6 0.001655 0.002049 0.000099 -0.003861 -0.005334 0.024835
#
#
# Mechanical properties :
#
#
# Convention : Reuss Voigt Hill
#
# Bulk Modulus (GPa) = 74.94895 91.81847 83.38371
# Shear Modulus (GPa) = 44.04254 53.35354 48.69804
#
# Velocity S-wave (km/s) = 4.22850 4.65406 4.44638
# Velocity P-wave (km/s) = 7.36667 8.13367 7.75965
#
# Compressibility (1/GPa) = 0.01334241
#
# Stress axis : x y z
#
# Youngs Moduli (GPa) = 134.14342 131.95357 146.15226
#
# Poissons Ratio (x) = 0.09927 0.42242
# Poissons Ratio (y) = 0.10092 0.09118
# Poissons Ratio (z) = 0.38771 0.08232
#
# Static dielectric constant tensor:
#      x y z
#    x 2.054670 0.116230 -0.006330 
#    y 0.116230 1.505410 0.520330 
#    z -0.006330 0.520330 1.389520 
# 
# From -- ./inp_files/148139.got.cif
#   From: 2010.05.17/outbox.cif.g08.bks.cpg/sg2_75_cif.got.tgz:148139.got - 2010.06.03 11:33:40.
