data_PCOD9061649
_publ_section_title
;
Structure prediction by ZEFSAII (Michael W. Deem and Ramdas Pophale) SiO2 
 PCOD9061649
Probable space group: P -1
;
_chemical_formula_sum "Si O2"
_cell_formula_units_Z 13
_cell_length_a 11.487674
_cell_length_b 13.655691
_cell_length_c 13.931772
_cell_angle_alpha 149.797173
_cell_angle_beta 148.638757
_cell_angle_gamma 30.876228
_cell_volume 508.214790
_symmetry_space_group_name_H-M "P -1"
_symmetry_group_IT_number 2
_symmetry_cell_setting 'triclinic'
loop_
_space_group_symop_operation_xyz
x,y,z
-x,-y,-z
loop_
_atom_site_type_symbol
_atom_site_label
_atom_site_fract_x
_atom_site_fract_y
_atom_site_fract_z
Si Si1 0.480558 0.120475 0.265238
Si Si2 0.500000 0.500000 0.500000
Si Si3 0.810343 0.781902 0.497890
Si Si4 0.045573 0.351161 0.813236
Si Si5 0.660604 0.595632 0.417064
Si Si6 0.652118 0.567972 0.063703
Si Si7 0.024635 0.894729 0.033153
O O1 0.429101 0.294806 0.292549
O O2 0.514410 0.246352 0.490080
O O3 0.238406 0.084358 0.094210
O O4 0.716764 0.889690 0.214388
O O5 0.794585 0.337802 0.596816
O O6 0.728288 0.728525 0.497595
O O7 0.618316 0.776245 0.279049
O O8 0.083547 0.577088 0.498035
O O9 0.859889 0.989380 0.716389
O O10 0.133337 0.459987 0.883356
O O11 0.000000 0.500000 0.000000
O O12 0.555634 0.451128 0.164299
O O13 0.770599 0.359328 0.040793
O O14 0.000000 0.000000 0.000000
#
# Coordination Sequence:
#
# PCOD9061649 Si02
#       7
#     2   1   2   2   2   2   2
#     4  12  26  52  83 118 164 215 273 341 407 487
#     4  12  26  54  80 112 154 214 278 340 412 462
#     4  11  23  45  75 110 168 211 255 328 391 490
#     4  12  29  53  79 116 158 212 281 344 404 477
#     4  11  23  46  74 114 158 208 268 320 398 490
#     4  12  26  47  76 116 156 211 270 325 403 478
#     4  12  24  48  80 117 169 211 257 328 406 486
#
# _framework density 25.579734999999999
#
# number of rings (size 3 to 8) (size 9 to 14) (size 15 to 20)
#    0.000    0.308    4.615    3.692    2.154    3.692 
#    2.769    0.000    0.000    0.000    0.000    0.000 
#    0.000    0.000    0.000    0.000    0.000    0.000 
#
# Total GULP energy -72662.041960 kJ/mol
# GULP energy per Si atom -5589.387843 kJ/mol
# Density = 2.552151 g / cm^3
# Si number density = 25.579735 Si / 1000 Ang^3
#
#
#
# Elastic Constant Matrix: (Units=GPa)
#
#
# Indices 1 2 3 4 5 6 
#
# 1 78.7879 33.4089 29.6853 9.4127 5.7368 -10.0974
# 2 33.4089 155.5305 46.9243 9.7511 1.4479 -23.7907
# 3 29.6853 46.9243 199.4556 1.2053 13.4824 -12.0901
# 4 9.4127 9.7511 1.2053 43.1798 -10.5340 0.5405
# 5 5.7368 1.4479 13.4824 -10.5340 53.9982 5.6788
# 6 -10.0974 -23.7907 -12.0901 0.5405 5.6788 40.9636
#
#
#
# Elastic Compliance Matrix: (Units=1/GPa)
#
#
# Indices 1 2 3 4 5 6 
#
# 1 0.015002 -0.002218 -0.001411 -0.003262 -0.002063 0.002322
# 2 -0.002218 0.007960 -0.001284 -0.001405 -0.000327 0.003761
# 3 -0.001411 -0.001284 0.005657 0.000117 -0.001285 0.000753
# 4 -0.003262 -0.001405 0.000117 0.025592 0.005632 -0.002704
# 5 -0.002063 -0.000327 -0.001285 0.005632 0.020588 -0.004006
# 6 0.002322 0.003761 0.000753 -0.002704 -0.004006 0.027982
#
#
# Mechanical properties :
#
#
# Convention : Reuss Voigt Hill
#
# Bulk Modulus (GPa) = 53.20982 72.64566 62.92774
# Shear Modulus (GPa) = 42.06233 49.21203 45.63718
#
# Velocity S-wave (km/s) = 4.05947 4.39095 4.22846
# Velocity P-wave (km/s) = 6.54363 7.35993 6.96375
#
# Compressibility (1/GPa) = 0.01879352
#
# Stress axis : x y z
#
# Youngs Moduli (GPa) = 66.65797 125.63058 176.75658
#
# Poissons Ratio (x) = 0.27862 0.24942
# Poissons Ratio (y) = 0.14783 0.22696
# Poissons Ratio (z) = 0.09406 0.16131
#
# Static dielectric constant tensor:
#      x y z
#    x 2.050670 0.025840 0.008330 
#    y 0.025840 2.016520 -0.013190 
#    z 0.008330 -0.013190 1.978880 
# 
# From -- ./inp_files/521994.got.cif
#   From: 2010.05.17/outbox.cif.g08.bks.cpg/sg2_261_cif.got.tgz:521994.got - 2010.06.03 11:33:40.
