data_PCOD9061424
_publ_section_title
;
Structure prediction by ZEFSAII (Michael W. Deem and Ramdas Pophale) SiO2 
 PCOD9061424
Probable space group: P -1
;
_chemical_formula_sum "Si O2"
_cell_formula_units_Z 16
_cell_length_a 8.036239
_cell_length_b 10.620460
_cell_length_c 13.065331
_cell_angle_alpha 46.740242
_cell_angle_beta 94.772886
_cell_angle_gamma 119.188016
_cell_volume 651.377735
_symmetry_space_group_name_H-M "P -1"
_symmetry_group_IT_number 2
_symmetry_cell_setting 'triclinic'
loop_
_space_group_symop_operation_xyz
x,y,z
-x,-y,-z
loop_
_atom_site_type_symbol
_atom_site_label
_atom_site_fract_x
_atom_site_fract_y
_atom_site_fract_z
Si Si1 0.027968 0.806780 0.839282
Si Si2 0.393498 0.954645 0.228271
Si Si3 0.198779 0.002170 0.535081
Si Si4 0.754395 0.377324 0.956207
Si Si5 0.643832 0.376252 0.716567
Si Si6 0.405938 0.530778 0.709083
Si Si7 0.846818 0.902762 0.951730
Si Si8 0.122289 0.658215 0.565700
O O1 0.849685 0.615534 0.864612
O O2 0.199894 0.969619 0.675058
O O3 0.085379 0.681951 0.985987
O O4 0.955228 0.918555 0.842719
O O5 0.476142 0.839724 0.235129
O O6 0.264708 0.822650 0.392707
O O7 0.570246 0.203822 0.117789
O O8 0.246711 0.965541 0.136186
O O9 0.410892 0.224488 0.387926
O O10 0.163805 0.799995 0.588875
O O11 0.000000 0.000000 0.500000
O O12 0.681138 0.341965 0.855409
O O13 0.515579 0.474152 0.662182
O O14 0.878642 0.527117 0.600906
O O15 0.324190 0.349822 0.892395
O O16 0.209881 0.520672 0.666456
O O17 0.000000 0.000000 0.000000
#
# Coordination Sequence:
#
# PCOD9061424 Si02
#       8
#     2   2   2   2   2   2   2   2
#     4  11  25  43  75 104 145 190 243 301 371 432
#     4  12  27  45  74 106 147 194 244 304 366 435
#     4  12  24  48  73 106 151 195 242 305 367 437
#     4  11  23  45  70 106 139 195 239 301 366 435
#     4  12  25  50  73 104 154 195 242 305 371 431
#     4  12  27  46  77 107 146 197 241 304 368 437
#     4  12  28  48  74 112 145 188 251 305 364 443
#     4  12  26  48  74 108 150 189 252 300 366 438
#
# _framework density 24.563320999999998
#
# number of rings (size 3 to 8) (size 9 to 14) (size 15 to 20)
#    0.000    0.250    3.750    4.875    5.250    1.000 
#    0.000    0.000    0.000    0.000    0.000    0.000 
#    0.000    0.000    0.000    0.000    0.000    0.000 
#
# Total GULP energy -89651.338047 kJ/mol
# GULP energy per Si atom -5603.208628 kJ/mol
# Density = 2.450741 g / cm^3
# Si number density = 24.563321 Si / 1000 Ang^3
#
#
#
# Elastic Constant Matrix: (Units=GPa)
#
#
# Indices 1 2 3 4 5 6 
#
# 1 111.1014 17.9631 7.7754 -1.8277 16.3597 -18.0678
# 2 17.9631 85.2533 17.9101 -1.1826 -5.3090 -12.7662
# 3 7.7754 17.9101 101.2058 1.9872 -12.3783 -5.8766
# 4 -1.8277 -1.1826 1.9872 29.1081 -4.6308 1.2750
# 5 16.3597 -5.3090 -12.3783 -4.6308 42.2448 -3.5237
# 6 -18.0678 -12.7662 -5.8766 1.2750 -3.5237 27.0005
#
#
#
# Elastic Compliance Matrix: (Units=1/GPa)
#
#
# Indices 1 2 3 4 5 6 
#
# 1 0.010857 -0.001519 -0.000727 -0.000247 -0.004147 0.005859
# 2 -0.001519 0.013330 -0.001676 0.000696 0.002281 0.005186
# 3 -0.000727 -0.001676 0.010732 -0.000388 0.003299 0.001505
# 4 -0.000247 0.000696 -0.000388 0.035049 0.003822 -0.001077
# 5 -0.004147 0.002281 0.003299 0.003822 0.027149 0.002384
# 6 0.005859 0.005186 0.001505 -0.001077 0.002384 0.044099
#
#
# Mechanical properties :
#
#
# Convention : Reuss Voigt Hill
#
# Bulk Modulus (GPa) = 36.93561 42.76197 39.84879
# Shear Modulus (GPa) = 31.62873 36.59813 34.11343
#
# Velocity S-wave (km/s) = 3.59226 3.86418 3.73070
# Velocity P-wave (km/s) = 5.68114 6.11194 5.90047
#
# Compressibility (1/GPa) = 0.02707415
#
# Stress axis : x y z
#
# Youngs Moduli (GPa) = 92.10970 75.01754 93.18103
#
# Poissons Ratio (x) = 0.11395 0.06778
# Poissons Ratio (y) = 0.13992 0.15615
# Poissons Ratio (z) = 0.06700 0.12571
#
# Static dielectric constant tensor:
#      x y z
#    x 2.005410 0.067870 -0.019030 
#    y 0.067870 1.914170 -0.011430 
#    z -0.019030 -0.011430 1.926300 
# 
# From -- ./inp_files/498772.got.cif
#   From: 2010.05.17/outbox.cif.g08.bks.cpg/sg2_250_cif.got.tgz:498772.got - 2010.06.03 11:33:40.
