data_PCOD9061626
_publ_section_title
;
Structure prediction by ZEFSAII (Michael W. Deem and Ramdas Pophale) SiO2 
 PCOD9061626
Probable space group: P -1
;
_chemical_formula_sum "Si O2"
_cell_formula_units_Z 16
_cell_length_a 8.878732
_cell_length_b 8.839213
_cell_length_c 12.466398
_cell_angle_alpha 100.150452
_cell_angle_beta 58.352575
_cell_angle_gamma 117.132378
_cell_volume 738.658202
_symmetry_space_group_name_H-M "P -1"
_symmetry_group_IT_number 2
_symmetry_cell_setting 'triclinic'
loop_
_space_group_symop_operation_xyz
x,y,z
-x,-y,-z
loop_
_atom_site_type_symbol
_atom_site_label
_atom_site_fract_x
_atom_site_fract_y
_atom_site_fract_z
Si Si1 0.398952 0.061652 0.451155
Si Si2 0.130331 0.161942 0.043223
Si Si3 0.811960 0.157705 0.701868
Si Si4 0.455937 0.807745 0.023992
Si Si5 0.210909 0.498771 0.922653
Si Si6 0.473489 0.566403 0.633951
Si Si7 0.109481 0.381279 0.463340
Si Si8 0.005787 0.935028 0.688145
O O1 0.509354 0.244496 0.375567
O O2 0.500000 0.000000 0.500000
O O3 0.319238 0.926940 0.365507
O O4 0.215367 0.068222 0.583112
O O5 0.005446 0.123977 0.194070
O O6 0.342910 0.179959 0.001280
O O7 0.175105 0.334865 0.986546
O O8 0.000000 0.000000 0.000000
O O9 0.708305 0.239631 0.827848
O O10 0.022261 0.294968 0.599187
O O11 0.851170 0.011210 0.729120
O O12 0.369147 0.671016 0.943348
O O13 0.500000 0.000000 0.000000
O O14 0.290854 0.483563 0.772879
O O15 0.000000 0.500000 0.000000
O O16 0.500000 0.500000 0.500000
O O17 0.657777 0.552180 0.622004
O O18 0.000000 0.500000 0.500000
O O19 0.036730 0.229312 0.387039
#
# Coordination Sequence:
#
# PCOD9061626 Si02
#       8
#     2   2   2   2   2   2   2   2
#     4  11  25  43  72 105 141 185 246 307 371 449
#     4  12  29  47  76 109 154 200 258 315 382 469
#     4  11  23  45  75 100 142 195 247 308 378 457
#     4  12  25  47  78 106 150 201 252 310 394 457
#     4  12  31  50  74 114 161 202 258 323 385 462
#     4  12  28  45  72 105 151 190 246 312 382 449
#     4  11  25  43  71 105 142 190 249 307 377 451
#     4  11  23  48  73  99 144 194 249 311 375 449
#
# _framework density 21.660899000000001
#
# number of rings (size 3 to 8) (size 9 to 14) (size 15 to 20)
#    0.000    0.500    3.750    3.375   14.000    0.000 
#    0.000    0.000    0.000    0.000    0.000    0.000 
#    0.000    0.000    0.000    0.000    0.000    0.000 
#
# Total GULP energy -89378.576155 kJ/mol
# GULP energy per Si atom -5586.161010 kJ/mol
# Density = 2.161160 g / cm^3
# Si number density = 21.660899 Si / 1000 Ang^3
#
#
#
# Elastic Constant Matrix: (Units=GPa)
#
#
# Indices 1 2 3 4 5 6 
#
# 1 125.9162 31.0822 8.8660 -7.7651 -0.6308 -19.8925
# 2 31.0822 73.3595 3.7650 -8.2882 7.4524 -14.8235
# 3 8.8660 3.7650 143.4934 -8.0617 4.6540 1.0959
# 4 -7.7651 -8.2882 -8.0617 33.2014 -4.7860 8.5408
# 5 -0.6308 7.4524 4.6540 -4.7860 29.7104 -1.7739
# 6 -19.8925 -14.8235 1.0959 8.5408 -1.7739 39.3997
#
#
#
# Elastic Compliance Matrix: (Units=1/GPa)
#
#
# Indices 1 2 3 4 5 6 
#
# 1 0.009388 -0.003336 -0.000534 0.000551 0.001414 0.003444
# 2 -0.003336 0.016416 -0.000037 0.001766 -0.003663 0.003945
# 3 -0.000534 -0.000037 0.007134 0.001698 -0.000899 -0.000890
# 4 0.000551 0.001766 0.001698 0.033298 0.004301 -0.006129
# 5 0.001414 -0.003663 -0.000899 0.004301 0.035442 0.000024
# 6 0.003444 0.003945 -0.000890 -0.006129 0.000024 0.029958
#
#
# Mechanical properties :
#
#
# Convention : Reuss Voigt Hill
#
# Bulk Modulus (GPa) = 39.80046 47.79949 43.79998
# Shear Modulus (GPa) = 33.82412 40.39936 37.11174
#
# Velocity S-wave (km/s) = 3.95591 4.32335 4.14370
# Velocity P-wave (km/s) = 6.26736 6.85834 6.56950
#
# Compressibility (1/GPa) = 0.02512534
#
# Stress axis : x y z
#
# Youngs Moduli (GPa) = 106.51965 60.91802 140.16901
#
# Poissons Ratio (x) = 0.20321 0.07481
# Poissons Ratio (y) = 0.35532 0.00515
# Poissons Ratio (z) = 0.05685 0.00224
#
# Static dielectric constant tensor:
#      x y z
#    x 1.772530 0.021190 -0.054510 
#    y 0.021190 1.801540 -0.030190 
#    z -0.054510 -0.030190 1.806290 
# 
# From -- ./inp_files/382541.got.cif
#   From: 2010.05.17/outbox.cif.g08.bks.cpg/sg2_192_cif.got.tgz:382541.got - 2010.06.03 11:33:40.
