data_PCOD9061174
_publ_section_title
;
Structure prediction by ZEFSAII (Michael W. Deem and Ramdas Pophale) SiO2 
 PCOD9061174
Probable space group: P -1
;
_chemical_formula_sum "Si O2"
_cell_formula_units_Z 14
_cell_length_a 9.220372
_cell_length_b 7.871731
_cell_length_c 13.658385
_cell_angle_alpha 115.752044
_cell_angle_beta 41.903818
_cell_angle_gamma 92.548041
_cell_volume 528.362304
_symmetry_space_group_name_H-M "P -1"
_symmetry_group_IT_number 2
_symmetry_cell_setting 'triclinic'
loop_
_space_group_symop_operation_xyz
x,y,z
-x,-y,-z
loop_
_atom_site_type_symbol
_atom_site_label
_atom_site_fract_x
_atom_site_fract_y
_atom_site_fract_z
Si Si1 0.019471 0.144326 0.872046
Si Si2 0.484322 0.208395 0.692031
Si Si3 0.004110 0.829104 0.336659
Si Si4 0.556258 0.127073 0.834285
Si Si5 0.218123 0.394695 0.242035
Si Si6 0.759022 0.326199 0.417284
Si Si7 0.520549 0.276125 0.257410
O O1 0.228591 0.213292 0.802387
O O2 0.940018 0.210780 0.816585
O O3 0.145979 0.885506 0.749565
O O4 0.786803 0.245620 0.085193
O O5 0.471737 0.295454 0.829598
O O6 0.581881 0.299928 0.579908
O O7 0.713922 0.971856 0.523909
O O8 0.154039 0.956490 0.323801
O O9 0.098459 0.621590 0.304294
O O10 0.466008 0.955602 0.809246
O O11 0.434172 0.235569 0.023447
O O12 0.329152 0.386587 0.290870
O O13 0.014690 0.312279 0.323264
O O14 0.594599 0.582752 0.551610
#
# Coordination Sequence:
#
# PCOD9061174 Si02
#       7
#     2   2   2   2   2   2   2
#     4  11  25  49  70 103 145 185 231 287 348 420
#     4  11  26  47  70 103 141 187 235 283 349 420
#     4  11  23  44  74 100 141 183 235 291 345 410
#     4  12  24  44  72 106 141 181 235 291 347 412
#     4  12  24  44  72 110 140 177 238 295 348 407
#     4  11  24  45  70 102 139 183 231 284 347 410
#     4  12  24  44  75 105 141 184 231 291 352 408
#
# _framework density 26.496970999999998
#
# number of rings (size 3 to 8) (size 9 to 14) (size 15 to 20)
#    0.000    0.571    2.857    6.857    2.000    2.286 
#    2.571    3.571    0.000    0.000    0.000    0.000 
#    0.000    0.000    0.000    0.000    0.000    0.000 
#
# Total GULP energy -78398.831668 kJ/mol
# GULP energy per Si atom -5599.916548 kJ/mol
# Density = 2.643666 g / cm^3
# Si number density = 26.496971 Si / 1000 Ang^3
#
#
#
# Elastic Constant Matrix: (Units=GPa)
#
#
# Indices 1 2 3 4 5 6 
#
# 1 71.8369 9.5536 11.9871 -18.6462 -18.3171 18.8484
# 2 9.5536 86.2572 2.9218 -6.3504 -27.9892 -0.7014
# 3 11.9871 2.9218 142.0600 -16.7162 -21.7406 14.1416
# 4 -18.6462 -6.3504 -16.7162 52.2761 14.8117 -16.5270
# 5 -18.3171 -27.9892 -21.7406 14.8117 53.7566 -14.6232
# 6 18.8484 -0.7014 14.1416 -16.5270 -14.6232 42.2088
#
#
#
# Elastic Compliance Matrix: (Units=1/GPa)
#
#
# Indices 1 2 3 4 5 6 
#
# 1 0.017067 -0.000676 -0.000028 0.003482 0.003080 -0.005192
# 2 -0.000676 0.014421 0.000760 0.000443 0.008378 0.003363
# 3 -0.000028 0.000760 0.007730 0.001426 0.002842 -0.001022
# 4 0.003482 0.000443 0.001426 0.023660 -0.002822 0.006261
# 5 0.003080 0.008378 0.002842 -0.002822 0.027651 0.006286
# 6 -0.005192 0.003363 -0.001022 0.006261 0.006286 0.031038
#
#
# Mechanical properties :
#
#
# Convention : Reuss Voigt Hill
#
# Bulk Modulus (GPa) = 25.42576 38.78656 32.10616
# Shear Modulus (GPa) = 37.15679 48.02774 42.59227
#
# Velocity S-wave (km/s) = 3.74880 4.26205 4.01364
# Velocity P-wave (km/s) = 5.32490 6.23619 5.79847
#
# Compressibility (1/GPa) = 0.03933019
#
# Stress axis : x y z
#
# Youngs Moduli (GPa) = 58.59418 69.34367 129.35893
#
# Poissons Ratio (x) = 0.04685 0.00365
# Poissons Ratio (y) = 0.03959 -0.09831
# Poissons Ratio (z) = 0.00165 -0.05270
#
# Static dielectric constant tensor:
#      x y z
#    x 2.093150 -0.079660 0.029740 
#    y -0.079660 2.184470 0.033590 
#    z 0.029740 0.033590 2.045430 
# 
# From -- ./inp_files/159789.got.cif
#   From: 2010.05.17/outbox.cif.g08.bks.cpg/sg2_80_cif.got.tgz:159789.got - 2010.06.03 11:33:40.
