data_PCOD9061846
_publ_section_title
;
Structure prediction by ZEFSAII (Michael W. Deem and Ramdas Pophale) SiO2 
 PCOD9061846
Probable space group: P -1
;
_chemical_formula_sum "Si O2"
_cell_formula_units_Z 16
_cell_length_a 9.483104
_cell_length_b 17.343525
_cell_length_c 11.178115
_cell_angle_alpha 131.866630
_cell_angle_beta 129.854361
_cell_angle_gamma 88.994064
_cell_volume 732.195477
_symmetry_space_group_name_H-M "P -1"
_symmetry_group_IT_number 2
_symmetry_cell_setting 'triclinic'
loop_
_space_group_symop_operation_xyz
x,y,z
-x,-y,-z
loop_
_atom_site_type_symbol
_atom_site_label
_atom_site_fract_x
_atom_site_fract_y
_atom_site_fract_z
Si Si1 0.306919 0.195751 0.275084
Si Si2 0.612480 0.669277 0.796073
Si Si3 0.822367 0.447778 0.962840
Si Si4 0.568447 0.100640 0.752883
Si Si5 0.759423 0.847014 0.280233
Si Si6 0.787683 0.654822 0.267365
Si Si7 0.055487 0.357440 0.147477
Si Si8 0.157680 0.907997 0.926086
O O1 0.393704 0.283470 0.289832
O O2 0.523558 0.305074 0.609102
O O3 0.034377 0.130901 0.111225
O O4 0.260474 0.056295 0.079011
O O5 0.351195 0.496933 0.495415
O O6 0.883273 0.710540 0.984800
O O7 0.595248 0.744180 0.969724
O O8 0.873925 0.585003 0.175723
O O9 0.000000 0.500000 0.000000
O O10 0.920128 0.402260 0.062599
O O11 0.378651 0.121371 0.682112
O O12 0.500000 0.000000 0.500000
O O13 0.592754 0.049002 0.836220
O O14 0.866065 0.255064 0.046734
O O15 0.787224 0.754509 0.281200
O O16 0.000000 0.000000 0.500000
O O17 0.984420 0.768422 0.598313
O O18 0.500000 0.500000 0.000000
#
# Coordination Sequence:
#
# PCOD9061846 Si02
#       8
#     2   2   2   2   2   2   2   2
#     4  11  23  46  72 103 145 193 238 293 367 426
#     4  11  24  45  72 102 145 187 236 295 360 425
#     4  12  24  43  70 106 143 186 239 301 353 430
#     4  12  27  46  73 104 140 189 243 291 354 438
#     4  12  29  49  71 104 150 189 235 300 365 429
#     4  12  27  47  74 109 147 188 242 298 365 424
#     4  11  24  42  71 102 141 183 240 284 358 425
#     4  11  26  44  75 102 146 191 240 297 358 435
#
# _framework density 21.852088999999999
#
# number of rings (size 3 to 8) (size 9 to 14) (size 15 to 20)
#    0.000    0.500    3.750    3.750    8.750    1.500 
#    0.000    1.875    0.000    0.000    0.000    0.000 
#    0.000    0.000    0.000    0.000    0.000    0.000 
#
# Total GULP energy -89371.967058 kJ/mol
# GULP energy per Si atom -5585.747941 kJ/mol
# Density = 2.180235 g / cm^3
# Si number density = 21.852089 Si / 1000 Ang^3
#
#
#
# Elastic Constant Matrix: (Units=GPa)
#
#
# Indices 1 2 3 4 5 6 
#
# 1 105.8599 42.2293 20.7528 12.9067 -19.4771 -17.0960
# 2 42.2293 143.3358 34.8384 11.2897 -5.6920 -24.1064
# 3 20.7528 34.8384 93.1596 10.7941 -25.9167 -8.5900
# 4 12.9067 11.2897 10.7941 32.4121 2.8616 3.2473
# 5 -19.4771 -5.6920 -25.9167 2.8616 45.7008 10.0564
# 6 -17.0960 -24.1064 -8.5900 3.2473 10.0564 37.6737
#
#
#
# Elastic Compliance Matrix: (Units=1/GPa)
#
#
# Indices 1 2 3 4 5 6 
#
# 1 0.012416 -0.002650 0.000425 -0.004905 0.004811 0.003174
# 2 -0.002650 0.009325 -0.003020 -0.001444 -0.002671 0.004913
# 3 0.000425 -0.003020 0.014646 -0.004717 0.008461 -0.000252
# 4 -0.004905 -0.001444 -0.004717 0.035979 -0.005934 -0.005742
# 5 0.004811 -0.002671 0.008461 -0.005934 0.029883 -0.005062
# 6 0.003174 0.004913 -0.000252 -0.005742 -0.005062 0.032917
#
#
# Mechanical properties :
#
#
# Convention : Reuss Voigt Hill
#
# Bulk Modulus (GPa) = 38.61427 59.77737 49.19582
# Shear Modulus (GPa) = 32.40668 39.45964 35.93316
#
# Velocity S-wave (km/s) = 3.85515 4.25403 4.05950
# Velocity P-wave (km/s) = 6.12580 7.17941 6.67343
#
# Compressibility (1/GPa) = 0.02589716
#
# Stress axis : x y z
#
# Youngs Moduli (GPa) = 80.54007 107.23506 68.27718
#
# Poissons Ratio (x) = 0.28417 -0.02899
# Poissons Ratio (y) = 0.21343 0.20618
# Poissons Ratio (z) = -0.03419 0.32383
#
# Static dielectric constant tensor:
#      x y z
#    x 1.829260 -0.049210 -0.020090 
#    y -0.049210 2.013060 0.124520 
#    z -0.020090 0.124520 1.911120 
# 
# From -- ./inp_files/403420.got.cif
#   From: 2010.05.17/outbox.cif.g08.bks.cpg/sg2_202_cif.got.tgz:403420.got - 2010.06.03 11:33:40.
