data_PCOD9061810
_publ_section_title
;
Structure prediction by ZEFSAII (Michael W. Deem and Ramdas Pophale) SiO2 
 PCOD9061810
Probable space group: P -1
;
_chemical_formula_sum "Si O2"
_cell_formula_units_Z 14
_cell_length_a 22.050967
_cell_length_b 8.900447
_cell_length_c 12.408407
_cell_angle_alpha 55.329012
_cell_angle_beta 151.777602
_cell_angle_gamma 143.728897
_cell_volume 587.727753
_symmetry_space_group_name_H-M "P -1"
_symmetry_group_IT_number 2
_symmetry_cell_setting 'triclinic'
loop_
_space_group_symop_operation_xyz
x,y,z
-x,-y,-z
loop_
_atom_site_type_symbol
_atom_site_label
_atom_site_fract_x
_atom_site_fract_y
_atom_site_fract_z
Si Si1 0.026912 0.551177 0.393332
Si Si2 0.959113 0.775302 0.596870
Si Si3 0.448998 0.153788 0.827662
Si Si4 0.381894 0.618939 0.389637
Si Si5 0.245047 0.253678 0.534494
Si Si6 0.197113 0.787635 0.124423
Si Si7 0.210346 0.380774 0.999478
O O1 0.000000 0.500000 0.500000
O O2 0.066236 0.404704 0.459965
O O3 0.226353 0.888514 0.530207
O O4 0.829271 0.450704 0.100327
O O5 0.773092 0.624089 0.446405
O O6 0.129540 0.871940 0.901823
O O7 0.000000 0.000000 0.500000
O O8 0.381546 0.224818 0.784778
O O9 0.623029 0.430289 0.911302
O O10 0.500000 0.000000 0.000000
O O11 0.343788 0.457154 0.502425
O O12 0.280258 0.701776 0.227408
O O13 0.292450 0.409200 0.232332
O O14 0.625047 0.934362 0.633271
O O15 0.005450 0.937570 0.255595
O O16 0.000000 0.500000 0.000000
#
# Coordination Sequence:
#
# PCOD9061810 Si02
#       7
#     2   2   2   2   2   2   2
#     4  11  23  46  71 102 144 188 241 295 372 441
#     4  12  26  46  77 104 149 192 236 310 368 428
#     4  11  25  42  72 100 147 195 242 298 368 437
#     4  11  25  45  76 105 142 194 251 293 369 437
#     4  11  27  45  69 111 145 185 252 306 357 434
#     4  11  25  46  73 107 150 189 238 305 370 434
#     4  11  24  44  73 102 146 192 241 299 363 431
#
# _framework density 23.820551999999999
#
# number of rings (size 3 to 8) (size 9 to 14) (size 15 to 20)
#    0.000    0.857    4.286    2.143    4.000    0.571 
#    0.000    1.429    0.000    0.000    0.000    0.000 
#    0.000    0.000    0.000    0.000    0.000    0.000 
#
# Total GULP energy -78163.552389 kJ/mol
# GULP energy per Si atom -5583.110885 kJ/mol
# Density = 2.376634 g / cm^3
# Si number density = 23.820552 Si / 1000 Ang^3
#
#
#
# Elastic Constant Matrix: (Units=GPa)
#
#
# Indices 1 2 3 4 5 6 
#
# 1 137.9324 35.1966 51.6943 8.4977 19.0107 -15.3757
# 2 35.1966 81.5154 27.9214 -1.8816 20.4551 1.7570
# 3 51.6943 27.9214 76.7441 -4.9949 21.3614 6.6597
# 4 8.4977 -1.8816 -4.9949 49.3118 1.5469 13.9270
# 5 19.0107 20.4551 21.3614 1.5469 39.0730 -7.5813
# 6 -15.3757 1.7570 6.6597 13.9270 -7.5813 49.4452
#
#
#
# Elastic Compliance Matrix: (Units=1/GPa)
#
#
# Indices 1 2 3 4 5 6 
#
# 1 0.011937 -0.003005 -0.008345 -0.004941 0.001806 0.006611
# 2 -0.003005 0.015861 -0.001517 0.001990 -0.006648 -0.002874
# 3 -0.008345 -0.001517 0.023144 0.006578 -0.009808 -0.009015
# 4 -0.004941 0.001990 0.006578 0.024952 -0.005225 -0.010322
# 5 0.001806 -0.006648 -0.009808 -0.005225 0.035517 0.009036
# 6 0.006611 -0.002874 -0.009015 -0.010322 0.009036 0.027890
#
#
# Mechanical properties :
#
#
# Convention : Reuss Voigt Hill
#
# Bulk Modulus (GPa) = 39.67166 58.42404 49.04785
# Shear Modulus (GPa) = 28.82877 39.65798 34.24337
#
# Velocity S-wave (km/s) = 3.48264 4.08470 3.79562
# Velocity P-wave (km/s) = 5.73256 6.84298 6.31223
#
# Compressibility (1/GPa) = 0.02520691
#
# Stress axis : x y z
#
# Youngs Moduli (GPa) = 83.77388 63.04771 43.20773
#
# Poissons Ratio (x) = 0.18949 0.36058
# Poissons Ratio (y) = 0.25178 0.06554
# Poissons Ratio (z) = 0.69911 0.09563
#
# Static dielectric constant tensor:
#      x y z
#    x 1.960630 -0.085300 -0.046460 
#    y -0.085300 1.955850 -0.016440 
#    z -0.046460 -0.016440 2.013630 
# 
# From -- ./inp_files/469918.got.cif
#   From: 2010.05.17/outbox.cif.g08.bks.cpg/sg2_235_cif.got.tgz:469918.got - 2010.06.03 11:33:40.
