data_PCOD9061325
_publ_section_title
;
Structure prediction by ZEFSAII (Michael W. Deem and Ramdas Pophale) SiO2 
 PCOD9061325
Probable space group: P -1
;
_chemical_formula_sum "Si O2"
_cell_formula_units_Z 14
_cell_length_a 14.153565
_cell_length_b 9.071853
_cell_length_c 12.657476
_cell_angle_alpha 48.358849
_cell_angle_beta 149.783934
_cell_angle_gamma 115.425070
_cell_volume 564.083484
_symmetry_space_group_name_H-M "P -1"
_symmetry_group_IT_number 2
_symmetry_cell_setting 'triclinic'
loop_
_space_group_symop_operation_xyz
x,y,z
-x,-y,-z
loop_
_atom_site_type_symbol
_atom_site_label
_atom_site_fract_x
_atom_site_fract_y
_atom_site_fract_z
Si Si1 0.824454 0.166646 0.948059
Si Si2 0.961358 0.658691 0.073115
Si Si3 0.506228 0.280673 0.160271
Si Si4 0.674281 0.029615 0.232303
Si Si5 0.655273 0.114619 0.598962
Si Si6 0.850019 0.287051 0.140688
Si Si7 0.947537 0.678385 0.275122
O O1 0.664609 0.205521 0.679896
O O2 0.926831 0.331492 0.931171
O O3 0.765156 0.219785 0.985576
O O4 0.952281 0.908184 0.198996
O O5 0.062372 0.581453 0.322636
O O6 0.814603 0.533255 0.980108
O O7 0.861562 0.909248 0.880531
O O8 0.594174 0.098425 0.241391
O O9 0.622741 0.251497 0.397369
O O10 0.500000 0.500000 0.000000
O O11 0.290777 0.276787 0.987989
O O12 0.738074 0.219394 0.158567
O O13 0.900909 0.835664 0.550015
O O14 0.500000 0.000000 0.000000
O O15 0.500000 0.000000 0.500000
O O16 0.000000 0.500000 0.500000
#
# Coordination Sequence:
#
# PCOD9061325 Si02
#       7
#     2   2   2   2   2   2   2
#     4  11  24  45  72 100 143 191 237 300 369 427
#     4  11  24  44  72 105 139 193 238 294 378 430
#     4  12  26  43  71 107 139 185 246 302 362 434
#     4  11  27  46  72 106 154 195 243 302 363 435
#     4  11  23  45  68 102 144 180 241 308 356 426
#     4  11  26  49  72 107 152 195 246 300 365 441
#     4  11  25  41  71 103 141 190 245 298 362 430
#
# _framework density 24.819022
#
# number of rings (size 3 to 8) (size 9 to 14) (size 15 to 20)
#    0.000    0.857    2.857    4.714   12.000    0.000 
#    0.000    0.714    0.000    0.000    0.000    0.000 
#    0.000    0.000    0.000    0.000    0.000    0.000 
#
# Total GULP energy -78117.906735 kJ/mol
# GULP energy per Si atom -5579.850481 kJ/mol
# Density = 2.476253 g / cm^3
# Si number density = 24.819022 Si / 1000 Ang^3
#
#
#
# Elastic Constant Matrix: (Units=GPa)
#
#
# Indices 1 2 3 4 5 6 
#
# 1 92.4075 23.9066 32.8547 -1.7107 -24.4831 4.9961
# 2 23.9066 132.3507 33.4030 5.1961 -7.8087 12.6958
# 3 32.8547 33.4030 114.0638 8.1875 -30.6867 0.0239
# 4 -1.7107 5.1961 8.1875 40.1233 15.4189 -13.3739
# 5 -24.4831 -7.8087 -30.6867 15.4189 54.5416 2.4855
# 6 4.9961 12.6958 0.0239 -13.3739 2.4855 48.0918
#
#
#
# Elastic Compliance Matrix: (Units=1/GPa)
#
#
# Indices 1 2 3 4 5 6 
#
# 1 0.013300 -0.001395 -0.001936 -0.001391 0.005150 -0.001665
# 2 -0.001395 0.008628 -0.001981 -0.001673 0.000086 -0.002601
# 3 -0.001936 -0.001981 0.012297 -0.005585 0.007400 -0.001217
# 4 -0.001391 -0.001673 -0.005585 0.035564 -0.014572 0.011232
# 5 0.005150 0.000086 0.007400 -0.014572 0.029221 -0.006124
# 6 -0.001665 -0.002601 -0.001217 0.011232 -0.006124 0.025094
#
#
# Mechanical properties :
#
#
# Convention : Reuss Voigt Hill
#
# Bulk Modulus (GPa) = 42.37489 57.68339 50.02914
# Shear Modulus (GPa) = 35.06425 45.12853 40.09639
#
# Velocity S-wave (km/s) = 3.76280 4.26878 4.02375
# Velocity P-wave (km/s) = 5.99907 6.89846 6.46442
#
# Compressibility (1/GPa) = 0.02359888
#
# Stress axis : x y z
#
# Youngs Moduli (GPa) = 75.18834 115.90201 81.32112
#
# Poissons Ratio (x) = 0.16173 0.15748
# Poissons Ratio (y) = 0.10492 0.16110
# Poissons Ratio (z) = 0.14560 0.22961
#
# Static dielectric constant tensor:
#      x y z
#    x 2.133770 -0.037740 0.112950 
#    y -0.037740 2.003620 -0.044920 
#    z 0.112950 -0.044920 2.191750 
# 
# From -- ./inp_files/446870.got.cif
#   From: 2010.05.17/outbox.cif.g08.bks.cpg/sg2_224_cif.got.tgz:446870.got - 2010.06.03 11:33:40.
