data_PCOD9061061
_publ_section_title
;
Structure prediction by ZEFSAII (Michael W. Deem and Ramdas Pophale) SiO2 
 PCOD9061061
Probable space group: P -1
;
_chemical_formula_sum "Si O2"
_cell_formula_units_Z 14
_cell_length_a 9.392359
_cell_length_b 14.122555
_cell_length_c 8.409462
_cell_angle_alpha 136.758223
_cell_angle_beta 127.344614
_cell_angle_gamma 74.959293
_cell_volume 572.446735
_symmetry_space_group_name_H-M "P -1"
_symmetry_group_IT_number 2
_symmetry_cell_setting 'triclinic'
loop_
_space_group_symop_operation_xyz
x,y,z
-x,-y,-z
loop_
_atom_site_type_symbol
_atom_site_label
_atom_site_fract_x
_atom_site_fract_y
_atom_site_fract_z
Si Si1 0.404829 0.834338 0.675455
Si Si2 0.173799 0.961082 0.158252
Si Si3 0.277797 0.453479 0.280256
Si Si4 0.768669 0.537324 0.115851
Si Si5 0.031422 0.856024 0.278671
Si Si6 0.466687 0.264645 0.665744
Si Si7 0.796926 0.312915 0.335599
O O1 0.207441 0.826318 0.447708
O O2 0.538649 0.784395 0.583549
O O3 0.345360 0.739365 0.676351
O O4 0.500000 0.000000 0.000000
O O5 0.088384 0.892860 0.182223
O O6 0.359034 0.107472 0.480504
O O7 0.239281 0.833648 0.967995
O O8 0.000000 0.000000 0.000000
O O9 0.500000 0.500000 0.500000
O O10 0.221233 0.525787 0.490673
O O11 0.238956 0.489715 0.113142
O O12 0.156840 0.282551 0.998844
O O13 0.645753 0.634512 0.214834
O O14 0.981548 0.636889 0.414551
O O15 0.684458 0.379881 0.956979
O O16 0.000000 0.000000 0.500000
#
# Coordination Sequence:
#
# PCOD9061061 Si02
#       7
#     2   2   2   2   2   2   2
#     4  12  25  46  78 108 145 192 249 303 369 435
#     4  12  26  46  73 107 149 193 242 298 365 437
#     4  12  28  44  73 109 149 188 248 305 368 433
#     4  11  23  44  72 103 142 188 243 296 362 435
#     4  12  29  47  74 108 152 194 248 303 365 439
#     4  11  24  40  73 103 138 188 244 293 364 427
#     4  12  24  48  76 103 146 195 242 301 371 433
#
# _framework density 24.456424999999999
#
# number of rings (size 3 to 8) (size 9 to 14) (size 15 to 20)
#    0.000    0.286    5.714    3.000    4.000    2.286 
#    0.000    0.000    0.000    0.000    0.000    0.000 
#    0.000    0.000    0.000    0.000    0.000    0.000 
#
# Total GULP energy -78162.242181 kJ/mol
# GULP energy per Si atom -5583.017299 kJ/mol
# Density = 2.440076 g / cm^3
# Si number density = 24.456425 Si / 1000 Ang^3
#
#
#
# Elastic Constant Matrix: (Units=GPa)
#
#
# Indices 1 2 3 4 5 6 
#
# 1 125.1147 15.7418 45.9976 18.6634 -28.9834 6.1861
# 2 15.7418 52.5177 29.9106 16.0461 7.1069 -3.8450
# 3 45.9976 29.9106 161.5701 44.1340 4.4187 -16.0826
# 4 18.6634 16.0461 44.1340 42.2731 -2.4078 -2.2712
# 5 -28.9834 7.1069 4.4187 -2.4078 76.1616 25.1552
# 6 6.1861 -3.8450 -16.0826 -2.2712 25.1552 23.9700
#
#
#
# Elastic Compliance Matrix: (Units=1/GPa)
#
#
# Indices 1 2 3 4 5 6 
#
# 1 0.015802 -0.005279 -0.006999 0.001835 0.015443 -0.025653
# 2 -0.005279 0.024964 0.000768 -0.007675 -0.009685 0.015319
# 3 -0.006999 0.000768 0.013361 -0.010626 -0.010884 0.021309
# 4 0.001835 -0.007675 -0.010626 0.036568 0.007592 -0.013337
# 5 0.015443 -0.009685 -0.010884 0.007592 0.037935 -0.051933
# 6 -0.025653 0.015319 0.021309 -0.013337 -0.051933 0.118331
#
#
# Mechanical properties :
#
#
# Convention : Reuss Voigt Hill
#
# Bulk Modulus (GPa) = 32.14791 58.05584 45.10188
# Shear Modulus (GPa) = 17.83492 44.98446 31.40969
#
# Velocity S-wave (km/s) = 2.70340 4.29344 3.58762
# Velocity P-wave (km/s) = 4.78727 6.95473 5.97018
#
# Compressibility (1/GPa) = 0.03110622
#
# Stress axis : x y z
#
# Youngs Moduli (GPa) = 63.28334 40.05824 74.84605
#
# Poissons Ratio (x) = 0.21148 0.52381
# Poissons Ratio (y) = 0.33410 -0.05747
# Poissons Ratio (z) = 0.44289 -0.03076
#
# Static dielectric constant tensor:
#      x y z
#    x 2.828020 -0.248410 -0.269250 
#    y -0.248410 2.096680 0.081480 
#    z -0.269250 0.081480 2.038370 
# 
# From -- ./inp_files/157190.got.cif
#   From: 2010.05.17/outbox.cif.g08.bks.cpg/sg2_79_cif.got.tgz:157190.got - 2010.06.03 11:33:40.
