data_PCOD9061947
_publ_section_title
;
Structure prediction by ZEFSAII (Michael W. Deem and Ramdas Pophale) SiO2 
 PCOD9061947
Probable space group: P -1
;
_chemical_formula_sum "Si O2"
_cell_formula_units_Z 13
_cell_length_a 13.375239
_cell_length_b 7.774365
_cell_length_c 6.517932
_cell_angle_alpha 59.773477
_cell_angle_beta 115.357512
_cell_angle_gamma 90.259917
_cell_volume 509.490609
_symmetry_space_group_name_H-M "P -1"
_symmetry_group_IT_number 2
_symmetry_cell_setting 'triclinic'
loop_
_space_group_symop_operation_xyz
x,y,z
-x,-y,-z
loop_
_atom_site_type_symbol
_atom_site_label
_atom_site_fract_x
_atom_site_fract_y
_atom_site_fract_z
Si Si1 0.804582 0.838523 0.851189
Si Si2 0.548103 0.654202 0.291509
Si Si3 0.210678 0.549300 0.169542
Si Si4 0.500000 0.500000 0.000000
Si Si5 0.759225 0.210238 0.315220
Si Si6 0.428041 0.052101 0.200522
Si Si7 0.958872 0.319628 0.685642
O O1 0.813067 0.607330 0.926447
O O2 0.767498 0.977819 0.532138
O O3 0.703908 0.906584 0.886473
O O4 0.923605 0.848158 0.049076
O O5 0.674097 0.570782 0.538037
O O6 0.473277 0.861614 0.202579
O O7 0.493435 0.475386 0.278979
O O8 0.552529 0.733160 0.003995
O O9 0.108479 0.605832 0.207472
O O10 0.228569 0.743017 0.941169
O O11 0.361273 0.647873 0.792997
O O12 0.867616 0.254332 0.500709
O O13 0.500000 0.000000 0.500000
O O14 0.000000 0.500000 0.500000
#
# Coordination Sequence:
#
# PCOD9061947 Si02
#       7
#     2   2   2   1   2   2   2
#     4  12  26  48  80 111 158 203 257 321 387 469
#     4  11  25  44  76 108 158 205 256 324 388 460
#     4  12  26  51  77 112 155 207 253 325 388 458
#     4  12  26  50  70 116 162 194 260 322 384 458
#     4  12  29  48  76 118 152 203 263 316 388 469
#     4  11  23  46  74 111 150 203 264 312 389 466
#     4  12  26  54  79 108 159 209 257 321 386 465
#
# _framework density 25.51568
#
# number of rings (size 3 to 8) (size 9 to 14) (size 15 to 20)
#    0.000    0.308    4.615    3.692    4.308    2.462 
#    2.769    0.000    0.000    0.000    0.000    0.000 
#    0.000    0.000    0.000    0.000    0.000    0.000 
#
# Total GULP energy -72764.114838 kJ/mol
# GULP energy per Si atom -5597.239603 kJ/mol
# Density = 2.545761 g / cm^3
# Si number density = 25.515680 Si / 1000 Ang^3
#
#
#
# Elastic Constant Matrix: (Units=GPa)
#
#
# Indices 1 2 3 4 5 6 
#
# 1 203.3424 41.2507 69.5008 -7.5354 23.7875 -19.7755
# 2 41.2507 96.0424 34.3693 8.8251 -1.0088 -8.9470
# 3 69.5008 34.3693 115.1402 -16.5450 11.7788 6.0940
# 4 -7.5354 8.8251 -16.5450 52.9383 23.6654 -4.5939
# 5 23.7875 -1.0088 11.7788 23.6654 62.7896 1.9113
# 6 -19.7755 -8.9470 6.0940 -4.5939 1.9113 44.8136
#
#
#
# Elastic Compliance Matrix: (Units=1/GPa)
#
#
# Indices 1 2 3 4 5 6 
#
# 1 0.007215 -0.001720 -0.003470 0.001848 -0.002917 0.003626
# 2 -0.001720 0.013310 -0.004137 -0.005185 0.003542 0.001778
# 3 -0.003470 -0.004137 0.013316 0.005494 -0.003215 -0.003467
# 4 0.001848 -0.005185 0.005494 0.027399 -0.012213 0.002363
# 5 -0.002917 0.003542 -0.003215 -0.012213 0.022366 -0.002349
# 6 0.003626 0.001778 -0.003467 0.002363 -0.002349 0.025084
#
#
# Mechanical properties :
#
#
# Convention : Reuss Voigt Hill
#
# Bulk Modulus (GPa) = 65.83636 78.30742 72.07189
# Shear Modulus (GPa) = 37.76287 50.06856 43.91572
#
# Velocity S-wave (km/s) = 3.85123 4.43455 4.15315
# Velocity P-wave (km/s) = 6.75532 7.54830 7.16279
#
# Compressibility (1/GPa) = 0.01518918
#
# Stress axis : x y z
#
# Youngs Moduli (GPa) = 138.60017 75.12918 75.09750
#
# Poissons Ratio (x) = 0.12921 0.26056
# Poissons Ratio (y) = 0.23838 0.31065
# Poissons Ratio (z) = 0.48090 0.31078
#
# Static dielectric constant tensor:
#      x y z
#    x 2.030200 0.054820 -0.160610 
#    y 0.054820 2.233050 0.081720 
#    z -0.160610 0.081720 2.231730 
# 
# From -- ./inp_files/26432.got.cif
#   From: 2010.05.17/outbox.cif.g08.bks.cpg/sg2_14_cif.got.tgz:26432.got - 2010.06.03 11:33:40.
