data_PCOD9061631
_publ_section_title
;
Structure prediction by ZEFSAII (Michael W. Deem and Ramdas Pophale) SiO2 
 PCOD9061631
Probable space group: P -1
;
_chemical_formula_sum "Si O2"
_cell_formula_units_Z 14
_cell_length_a 8.857659
_cell_length_b 9.145651
_cell_length_c 12.058968
_cell_angle_alpha 38.491334
_cell_angle_beta 88.032555
_cell_angle_gamma 85.595711
_cell_volume 605.691382
_symmetry_space_group_name_H-M "P -1"
_symmetry_group_IT_number 2
_symmetry_cell_setting 'triclinic'
loop_
_space_group_symop_operation_xyz
x,y,z
-x,-y,-z
loop_
_atom_site_type_symbol
_atom_site_label
_atom_site_fract_x
_atom_site_fract_y
_atom_site_fract_z
Si Si1 0.731646 0.596327 0.742294
Si Si2 0.688796 0.101768 0.152863
Si Si3 0.962920 0.608683 0.557016
Si Si4 0.863722 0.845417 0.126782
Si Si5 0.649111 0.847298 0.935492
Si Si6 0.827371 0.010264 0.624236
Si Si7 0.622477 0.290341 0.283898
O O1 0.558539 0.707425 0.691742
O O2 0.795598 0.581381 0.625004
O O3 0.840837 0.765031 0.703025
O O4 0.734352 0.343911 0.951078
O O5 0.522692 0.057802 0.138152
O O6 0.671676 0.144502 0.258734
O O7 0.806973 0.901526 0.219780
O O8 0.072379 0.421237 0.736934
O O9 0.022902 0.862119 0.428220
O O10 0.000000 0.500000 0.500000
O O11 0.721328 0.908949 0.013451
O O12 0.000000 0.000000 0.000000
O O13 0.749646 0.950077 0.776784
O O14 0.650054 0.562962 0.097441
O O15 0.715918 0.182612 0.449381
#
# Coordination Sequence:
#
# PCOD9061631 Si02
#       7
#     2   2   2   2   2   2   2
#     4  11  23  46  71 102 139 183 227 291 347 401
#     4  11  23  45  75 103 137 183 232 289 344 415
#     4  12  28  47  65 104 146 187 232 280 351 420
#     4  12  25  47  67  99 144 186 229 279 348 417
#     4  11  23  46  71 104 139 181 235 288 345 406
#     4  12  24  45  74 103 140 179 235 291 344 408
#     4  11  23  46  74 106 137 176 242 288 340 411
#
# _framework density 23.114082
#
# number of rings (size 3 to 8) (size 9 to 14) (size 15 to 20)
#    0.000    0.571    5.714    3.000    2.000    0.000 
#    2.571    3.571    0.000    0.000    0.000    0.000 
#    0.000    0.000    0.000    0.000    0.000    0.000 
#
# Total GULP energy -78381.466765 kJ/mol
# GULP energy per Si atom -5598.676198 kJ/mol
# Density = 2.306147 g / cm^3
# Si number density = 23.114082 Si / 1000 Ang^3
#
#
#
# Elastic Constant Matrix: (Units=GPa)
#
#
# Indices 1 2 3 4 5 6 
#
# 1 83.4296 52.1883 34.5717 5.7420 -17.7575 2.9348
# 2 52.1883 105.3019 20.8776 24.5146 -16.1790 -15.5312
# 3 34.5717 20.8776 84.1579 15.3164 -24.7822 -8.8663
# 4 5.7420 24.5146 15.3164 48.0030 -4.8134 -4.3975
# 5 -17.7575 -16.1790 -24.7822 -4.8134 43.1135 3.5472
# 6 2.9348 -15.5312 -8.8663 -4.3975 3.5472 48.9212
#
#
#
# Elastic Compliance Matrix: (Units=1/GPa)
#
#
# Indices 1 2 3 4 5 6 
#
# 1 0.022488 -0.011493 -0.007450 0.005181 0.001739 -0.006008
# 2 -0.011493 0.017640 0.003075 -0.007838 0.002287 0.005977
# 3 -0.007450 0.003075 0.017687 -0.005252 0.007368 0.003622
# 4 0.005181 -0.007838 -0.005252 0.025680 -0.000846 -0.001381
# 5 0.001739 0.002287 0.007368 -0.000846 0.028928 -0.000217
# 6 -0.006008 0.005977 0.003622 -0.001381 -0.000217 0.023247
#
#
# Mechanical properties :
#
#
# Convention : Reuss Voigt Hill
#
# Bulk Modulus (GPa) = 38.34621 54.24049 46.29335
# Shear Modulus (GPa) = 28.39300 39.02433 33.70866
#
# Velocity S-wave (km/s) = 3.50863 4.11339 3.82299
# Velocity P-wave (km/s) = 5.74804 6.78803 6.28957
#
# Compressibility (1/GPa) = 0.02607820
#
# Stress axis : x y z
#
# Youngs Moduli (GPa) = 44.46873 56.68776 56.53772
#
# Poissons Ratio (x) = 0.65151 0.42123
# Poissons Ratio (y) = 0.51107 -0.17383
# Poissons Ratio (z) = 0.33131 -0.17429
#
# Static dielectric constant tensor:
#      x y z
#    x 1.832450 -0.003580 0.023790 
#    y -0.003580 1.877160 0.004830 
#    z 0.023790 0.004830 1.878670 
# 
# From -- ./inp_files/177998.got.cif
#   From: 2010.05.17/outbox.cif.g08.bks.cpg/sg2_89_cif.got.tgz:177998.got - 2010.06.03 11:33:40.
