data_PCOD9061003
_publ_section_title
;
Structure prediction by ZEFSAII (Michael W. Deem and Ramdas Pophale) SiO2 
 PCOD9061003
Probable space group: P -1
;
_chemical_formula_sum "Si O2"
_cell_formula_units_Z 12
_cell_length_a 12.020107
_cell_length_b 12.493461
_cell_length_c 9.874502
_cell_angle_alpha 35.892007
_cell_angle_beta 144.641438
_cell_angle_gamma 145.204924
_cell_volume 443.224586
_symmetry_space_group_name_H-M "P -1"
_symmetry_group_IT_number 2
_symmetry_cell_setting 'triclinic'
loop_
_space_group_symop_operation_xyz
x,y,z
-x,-y,-z
loop_
_atom_site_type_symbol
_atom_site_label
_atom_site_fract_x
_atom_site_fract_y
_atom_site_fract_z
Si Si1 0.740022 0.341629 0.804260
Si Si2 0.562378 0.925271 0.443517
Si Si3 0.057593 0.223741 0.381865
Si Si4 0.511764 0.288941 0.134881
Si Si5 0.068305 0.081974 0.823407
Si Si6 0.970479 0.610734 0.221537
O O1 0.516962 0.193068 0.656490
O O2 0.761461 0.538339 0.708060
O O3 0.912207 0.418500 0.767004
O O4 0.836073 0.233687 0.112433
O O5 0.445493 0.767995 0.613098
O O6 0.503596 0.110544 0.210596
O O7 0.817364 0.031959 0.624648
O O8 0.138589 0.195052 0.636466
O O9 0.000000 0.000000 0.500000
O O10 0.707654 0.497294 0.060232
O O11 0.264382 0.249580 0.936426
O O12 0.055517 0.857593 0.059216
O O13 0.000000 0.500000 0.500000
#
# Coordination Sequence:
#
# PCOD9061003 Si02
#       6
#     2   2   2   2   2   2
#     4  11  24  47  77 109 148 198 248 307 371 430
#     4  11  23  45  71 107 147 196 243 306 369 443
#     4  11  24  48  75 105 151 194 255 307 360 447
#     4  11  23  44  71 105 157 190 239 308 367 441
#     4  12  26  44  72 110 145 197 253 291 375 446
#     4  12  23  45  75 108 151 192 241 307 369 439
#
# _framework density 27.074311000000002
#
# number of rings (size 3 to 8) (size 9 to 14) (size 15 to 20)
#    0.000    0.667    5.000    2.500    2.333    2.667 
#    0.000    5.000    0.000    0.000    0.000    0.000 
#    0.000    0.000    0.000    0.000    0.000    0.000 
#
# Total GULP energy -66993.371412 kJ/mol
# GULP energy per Si atom -5582.780951 kJ/mol
# Density = 2.701269 g / cm^3
# Si number density = 27.074311 Si / 1000 Ang^3
#
#
#
# Elastic Constant Matrix: (Units=GPa)
#
#
# Indices 1 2 3 4 5 6 
#
# 1 -31.2920 64.0912 40.1363 -1.6446 21.3541 -35.9190
# 2 64.0912 172.6123 39.5380 7.6871 22.8639 26.6912
# 3 40.1363 39.5380 153.8694 -3.9033 -14.4628 7.2043
# 4 -1.6446 7.6871 -3.9033 56.2225 -6.8933 3.4029
# 5 21.3541 22.8639 -14.4628 -6.8933 43.7537 13.1096
# 6 -35.9190 26.6912 7.2043 3.4029 13.1096 28.3783
#
#
#
# Elastic Compliance Matrix: (Units=1/GPa)
#
#
# Indices 1 2 3 4 5 6 
#
# 1 -0.005421 0.002729 0.001884 0.001084 0.005826 -0.012728
# 2 0.002729 0.006140 -0.003001 -0.001834 -0.006291 0.001568
# 3 0.001884 -0.003001 0.006937 0.001118 0.002467 0.002172
# 4 0.001084 -0.001834 0.001118 0.018738 0.004157 -0.001354
# 5 0.005826 -0.006291 0.002467 0.004157 0.024518 0.000841
# 6 -0.012728 0.001568 0.002172 -0.001354 0.000841 0.016875
#
#
# Mechanical properties :
#
#
# Convention : Reuss Voigt Hill
#
# Bulk Modulus (GPa) = 91.90464 64.74675 78.32569
# Shear Modulus (GPa) = 73.32457 35.76583 54.54520
#
# Velocity S-wave (km/s) = 5.20975 3.63853 4.49335
# Velocity P-wave (km/s) = 8.37900 6.45122 7.47750
#
# Compressibility (1/GPa) = 0.01088084
#
# Stress axis : x y z
#
# Youngs Moduli (GPa) = -184.47060 162.87146 144.14719
#
# Poissons Ratio (x) = -0.44455 -0.27154
# Poissons Ratio (y) = 0.50351 0.43258
# Poissons Ratio (z) = 0.34750 0.48877
#
# Static dielectric constant tensor:
#      x y z
#    x 2.304130 0.016870 0.048760 
#    y 0.016870 1.988650 0.034720 
#    z 0.048760 0.034720 2.041930 
# 
# From -- ./inp_files/454422.got.cif
#   From: 2010.05.17/outbox.cif.g08.bks.cpg/sg2_228_cif.got.tgz:454422.got - 2010.06.03 11:33:40.
