data_PCOD9061238
_publ_section_title
;
Structure prediction by ZEFSAII (Michael W. Deem and Ramdas Pophale) SiO2 
 PCOD9061238
Probable space group: P -1
;
_chemical_formula_sum "Si O2"
_cell_formula_units_Z 16
_cell_length_a 22.901608
_cell_length_b 6.712909
_cell_length_c 12.828065
_cell_angle_alpha 137.222362
_cell_angle_beta 35.131427
_cell_angle_gamma 127.259801
_cell_volume 770.689874
_symmetry_space_group_name_H-M "P -1"
_symmetry_group_IT_number 2
_symmetry_cell_setting 'triclinic'
loop_
_space_group_symop_operation_xyz
x,y,z
-x,-y,-z
loop_
_atom_site_type_symbol
_atom_site_label
_atom_site_fract_x
_atom_site_fract_y
_atom_site_fract_z
Si Si1 0.813859 0.748703 0.122160
Si Si2 0.824504 0.446752 0.396839
Si Si3 0.721522 0.486970 0.784491
Si Si4 0.414676 0.313930 0.490478
Si Si5 0.656827 0.827048 0.684663
Si Si6 0.902479 0.689870 0.745564
Si Si7 0.037745 0.626414 0.103922
Si Si8 0.555097 0.802212 0.050266
O O1 0.694812 0.680937 0.291481
O O2 0.830522 0.101404 0.229555
O O3 0.862031 0.637201 0.901425
O O4 0.876648 0.585218 0.057391
O O5 0.764900 0.457309 0.594808
O O6 0.758312 0.641538 0.489107
O O7 0.935357 0.588119 0.305815
O O8 0.810259 0.585753 0.768416
O O9 0.640716 0.746488 0.990280
O O10 0.680023 0.163200 0.748118
O O11 0.500000 0.500000 0.500000
O O12 0.396829 0.339724 0.399817
O O13 0.467726 0.003288 0.297440
O O14 0.598575 0.867025 0.895727
O O15 0.000000 0.500000 0.500000
O O16 0.927433 0.036046 0.826126
O O17 0.000000 0.500000 0.000000
O O18 0.500000 0.500000 0.000000
#
# Coordination Sequence:
#
# PCOD9061238 Si02
#       8
#     2   2   2   2   2   2   2   2
#     4  12  27  47  71 104 148 185 241 289 356 431
#     4  11  23  44  76 105 141 186 235 290 356 438
#     4  11  25  43  73 102 143 186 239 289 352 422
#     4  12  27  44  71 104 143 188 240 296 350 411
#     4  11  23  45  75 101 143 189 235 290 360 418
#     4  12  29  46  72 110 144 183 236 297 359 423
#     4  12  26  45  76 104 142 187 231 292 364 426
#     4  11  24  46  71 104 137 188 244 290 351 420
#
# _framework density 20.760621
#
# number of rings (size 3 to 8) (size 9 to 14) (size 15 to 20)
#    0.000    0.500    3.750    3.750    5.250    3.000 
#    0.000    1.875    0.000    0.000    0.000    0.000 
#    0.000    0.000    0.000    0.000    0.000    0.000 
#
# Total GULP energy -89332.018185 kJ/mol
# GULP energy per Si atom -5583.251137 kJ/mol
# Density = 2.071337 g / cm^3
# Si number density = 20.760621 Si / 1000 Ang^3
#
#
#
# Elastic Constant Matrix: (Units=GPa)
#
#
# Indices 1 2 3 4 5 6 
#
# 1 158.0787 50.8842 54.7434 2.9427 -21.8102 0.6248
# 2 50.8842 109.6655 32.8466 -7.5547 -10.3721 -2.7716
# 3 54.7434 32.8466 121.2355 -0.6924 -31.3491 -14.7414
# 4 2.9427 -7.5547 -0.6924 36.1193 6.9001 0.4009
# 5 -21.8102 -10.3721 -31.3491 6.9001 32.3540 1.7478
# 6 0.6248 -2.7716 -14.7414 0.4009 1.7478 35.7435
#
#
#
# Elastic Compliance Matrix: (Units=1/GPa)
#
#
# Indices 1 2 3 4 5 6 
#
# 1 0.008653 -0.003166 -0.002500 -0.001951 0.002895 -0.001547
# 2 -0.003166 0.011238 -0.001801 0.002738 -0.000871 0.000196
# 3 -0.002500 -0.001801 0.013213 -0.002019 0.010708 0.004852
# 4 -0.001951 0.002738 -0.002019 0.030061 -0.008778 -0.000494
# 5 0.002895 -0.000871 0.010708 -0.008778 0.044709 0.002210
# 6 -0.001547 0.000196 0.004852 -0.000494 0.002210 0.029918
#
#
# Mechanical properties :
#
#
# Convention : Reuss Voigt Hill
#
# Bulk Modulus (GPa) = 55.03633 73.99201 64.51417
# Shear Modulus (GPa) = 31.48976 37.54372 34.51674
#
# Velocity S-wave (km/s) = 3.89884 4.25715 4.08193
# Velocity P-wave (km/s) = 6.84364 7.73837 7.30472
#
# Compressibility (1/GPa) = 0.01816981
#
# Stress axis : x y z
#
# Youngs Moduli (GPa) = 115.57187 88.98269 75.68528
#
# Poissons Ratio (x) = 0.28169 0.18922
# Poissons Ratio (y) = 0.36586 0.13632
# Poissons Ratio (z) = 0.28893 0.16027
#
# Static dielectric constant tensor:
#      x y z
#    x 1.796250 -0.049430 0.023420 
#    y -0.049430 1.831840 -0.096240 
#    z 0.023420 -0.096240 1.803570 
# 
# From -- ./inp_files/38189.got.cif
#   From: 2010.05.17/outbox.cif.g08.bks.cpg/sg2_20_cif.got.tgz:38189.got - 2010.06.03 11:33:40.
