data_PCOD9061962
_publ_section_title
;
Structure prediction by ZEFSAII (Michael W. Deem and Ramdas Pophale) SiO2 
 PCOD9061962
Probable space group: P -1
;
_chemical_formula_sum "Si O2"
_cell_formula_units_Z 14
_cell_length_a 14.798374
_cell_length_b 22.545042
_cell_length_c 14.118942
_cell_angle_alpha 158.582430
_cell_angle_beta 147.320013
_cell_angle_gamma 20.556362
_cell_volume 587.246255
_symmetry_space_group_name_H-M "P -1"
_symmetry_group_IT_number 2
_symmetry_cell_setting 'triclinic'
loop_
_space_group_symop_operation_xyz
x,y,z
-x,-y,-z
loop_
_atom_site_type_symbol
_atom_site_label
_atom_site_fract_x
_atom_site_fract_y
_atom_site_fract_z
Si Si1 0.849120 0.784405 0.379305
Si Si2 0.366834 0.926925 0.194663
Si Si3 0.559199 0.519261 0.183743
Si Si4 0.626712 0.725079 0.840199
Si Si5 0.828734 0.898225 0.314772
Si Si6 0.429931 0.549211 0.313013
Si Si7 0.884982 0.752403 0.728654
O O1 0.667997 0.766344 0.221901
O O2 0.775286 0.891649 0.367783
O O3 0.160626 0.512922 0.253652
O O4 0.777109 0.957023 0.658799
O O5 0.218597 0.163477 0.345599
O O6 0.398554 0.717212 0.877759
O O7 0.466382 0.483696 0.136921
O O8 0.869833 0.311121 0.152170
O O9 0.393947 0.809065 0.478143
O O10 0.500000 0.500000 0.000000
O O11 0.544213 0.641728 0.573829
O O12 0.786217 0.770244 0.021326
O O13 0.357345 0.994587 0.048650
O O14 0.117038 0.763832 0.371435
O O15 0.000000 0.500000 0.500000
#
# Coordination Sequence:
#
# PCOD9061962 Si02
#       7
#     2   2   2   2   2   2   2
#     4  11  23  46  75 107 144 201 243 306 373 434
#     4  11  24  45  75 110 149 192 250 311 368 439
#     4  12  27  49  73 106 150 200 246 308 373 443
#     4  12  25  46  76 109 146 197 242 308 370 440
#     4  12  24  49  73 106 154 193 251 306 370 440
#     4  12  28  47  76 115 147 192 252 307 375 443
#     4  12  25  48  74 108 148 199 251 299 373 442
#
# _framework density 23.840081999999999
#
# number of rings (size 3 to 8) (size 9 to 14) (size 15 to 20)
#    0.000    0.286    4.286    4.286    0.000    7.429 
#    5.143    0.000    0.000    0.000    0.000    0.000 
#    0.000    0.000    0.000    0.000    0.000    0.000 
#
# Total GULP energy -78260.235969 kJ/mol
# GULP energy per Si atom -5590.016855 kJ/mol
# Density = 2.378582 g / cm^3
# Si number density = 23.840082 Si / 1000 Ang^3
#
#
#
# Elastic Constant Matrix: (Units=GPa)
#
#
# Indices 1 2 3 4 5 6 
#
# 1 87.7526 33.1358 20.9968 13.9412 -8.4293 0.5530
# 2 33.1358 138.3017 38.6979 14.2427 0.8748 -10.7098
# 3 20.9968 38.6979 110.9673 8.5127 8.2046 19.0035
# 4 13.9412 14.2427 8.5127 43.8365 2.4164 5.1288
# 5 -8.4293 0.8748 8.2046 2.4164 22.7686 2.3099
# 6 0.5530 -10.7098 19.0035 5.1288 2.3099 30.5799
#
#
#
# Elastic Compliance Matrix: (Units=1/GPa)
#
#
# Indices 1 2 3 4 5 6 
#
# 1 0.013989 -0.002420 -0.002045 -0.003652 0.006366 0.000302
# 2 -0.002420 0.009568 -0.003728 -0.002315 -0.000296 0.006122
# 3 -0.002045 -0.003728 0.012471 0.000707 -0.004289 -0.008813
# 4 -0.003652 -0.002315 0.000707 0.025396 -0.003689 -0.005165
# 5 0.006366 -0.000296 -0.004289 -0.003689 0.048284 -0.000582
# 6 0.000302 0.006122 -0.008813 -0.005165 -0.000582 0.041227
#
#
# Mechanical properties :
#
#
# Convention : Reuss Voigt Hill
#
# Bulk Modulus (GPa) = 50.91314 58.07585 54.49449
# Shear Modulus (GPa) = 28.75777 35.71641 32.23709
#
# Velocity S-wave (km/s) = 3.47692 3.87481 3.68125
# Velocity P-wave (km/s) = 6.12545 6.66576 6.40131
#
# Compressibility (1/GPa) = 0.01964130
#
# Stress axis : x y z
#
# Youngs Moduli (GPa) = 71.48701 104.51808 80.18855
#
# Poissons Ratio (x) = 0.25295 0.16400
# Poissons Ratio (y) = 0.17301 0.29891
# Poissons Ratio (z) = 0.14620 0.38960
#
# Static dielectric constant tensor:
#      x y z
#    x 2.222870 0.770600 0.084340 
#    y 0.770600 3.701330 0.151480 
#    z 0.084340 0.151480 2.012030 
# 
# From -- ./inp_files/404631.got.cif
#   From: 2010.05.17/outbox.cif.g08.bks.cpg/sg2_203_cif.got.tgz:404631.got - 2010.06.03 11:33:40.
