data_PCOD9061040
_publ_section_title
;
Structure prediction by ZEFSAII (Michael W. Deem and Ramdas Pophale) SiO2 
 PCOD9061040
Probable space group: P -1
;
_chemical_formula_sum "Si O2"
_cell_formula_units_Z 14
_cell_length_a 7.257890
_cell_length_b 8.100786
_cell_length_c 17.259284
_cell_angle_alpha 74.284037
_cell_angle_beta 32.842612
_cell_angle_gamma 72.324097
_cell_volume 524.108350
_symmetry_space_group_name_H-M "P -1"
_symmetry_group_IT_number 2
_symmetry_cell_setting 'triclinic'
loop_
_space_group_symop_operation_xyz
x,y,z
-x,-y,-z
loop_
_atom_site_type_symbol
_atom_site_label
_atom_site_fract_x
_atom_site_fract_y
_atom_site_fract_z
Si Si1 0.344685 0.467054 0.154759
Si Si2 0.454417 0.829618 0.583745
Si Si3 0.239454 0.262417 0.952684
Si Si4 0.151674 0.533371 0.526013
Si Si5 0.233028 0.294353 0.766732
Si Si6 0.589149 0.094717 0.246269
Si Si7 0.332951 0.102550 0.170845
O O1 0.618585 0.589806 0.067286
O O2 0.491076 0.281772 0.088678
O O3 0.059775 0.570128 0.186400
O O4 0.803108 0.905263 0.210633
O O5 0.623695 0.652228 0.508129
O O6 0.600246 0.841651 0.616909
O O7 0.045801 0.841930 0.733910
O O8 0.500000 0.000000 0.500000
O O9 0.261859 0.310148 0.847791
O O10 0.477162 0.076749 0.907049
O O11 0.859256 0.223654 0.111887
O O12 0.412052 0.669532 0.402828
O O13 0.000000 0.500000 0.500000
O O14 0.864855 0.570848 0.688456
O O15 0.649838 0.934189 0.738089
#
# Coordination Sequence:
#
# PCOD9061040 Si02
#       7
#     2   2   2   2   2   2   2
#     4  12  25  45  75 106 141 190 232 300 356 410
#     4  12  27  46  71 108 142 182 239 294 350 428
#     4  11  26  51  69 103 148 186 240 292 349 425
#     4  12  24  45  70 106 146 180 237 294 355 420
#     4  11  23  44  71  99 143 186 231 295 351 417
#     4  11  27  48  72 101 143 193 232 292 360 415
#     4  11  25  46  73 106 139 187 240 285 356 421
#
# _framework density 26.712036000000001
#
# number of rings (size 3 to 8) (size 9 to 14) (size 15 to 20)
#    0.000    0.571    2.857    5.571    4.000    4.571 
#    2.571    3.571    0.000    0.000    0.000    0.000 
#    0.000    0.000    0.000    0.000    0.000    0.000 
#
# Total GULP energy -78595.886848 kJ/mol
# GULP energy per Si atom -5613.991918 kJ/mol
# Density = 2.665124 g / cm^3
# Si number density = 26.712036 Si / 1000 Ang^3
#
#
#
# Elastic Constant Matrix: (Units=GPa)
#
#
# Indices 1 2 3 4 5 6 
#
# 1 104.5436 26.4469 13.2182 -18.4695 5.8294 -7.3784
# 2 26.4469 187.9710 40.4232 5.9201 -5.5091 15.2276
# 3 13.2182 40.4232 94.5176 -17.3550 14.5403 1.4565
# 4 -18.4695 5.9201 -17.3550 65.1100 -6.5243 -4.0794
# 5 5.8294 -5.5091 14.5403 -6.5243 44.8073 -6.9423
# 6 -7.3784 15.2276 1.4565 -4.0794 -6.9423 47.8544
#
#
#
# Elastic Compliance Matrix: (Units=1/GPa)
#
#
# Indices 1 2 3 4 5 6 
#
# 1 0.010834 -0.001838 -0.000042 0.003305 -0.000765 0.002427
# 2 -0.001838 0.006521 -0.003069 -0.001930 0.001411 -0.002225
# 3 -0.000042 -0.003069 0.013146 0.003376 -0.004106 0.000262
# 4 0.003305 -0.001930 0.003376 0.017664 0.001228 0.002705
# 5 -0.000765 0.001411 -0.004106 0.001228 0.024603 0.003232
# 6 0.002427 -0.002225 0.000262 0.002705 0.003232 0.022670
#
#
# Mechanical properties :
#
#
# Convention : Reuss Voigt Hill
#
# Bulk Modulus (GPa) = 48.53905 60.80097 54.67001
# Shear Modulus (GPa) = 44.56192 52.01729 48.28961
#
# Velocity S-wave (km/s) = 4.08883 4.41765 4.25642
# Velocity P-wave (km/s) = 6.36412 6.98798 6.68334
#
# Compressibility (1/GPa) = 0.02060197
#
# Stress axis : x y z
#
# Youngs Moduli (GPa) = 92.30619 153.35018 76.06904
#
# Poissons Ratio (x) = 0.28192 0.00318
# Poissons Ratio (y) = 0.16969 0.23346
# Poissons Ratio (z) = 0.00386 0.47064
#
# Static dielectric constant tensor:
#      x y z
#    x 2.089460 -0.049760 -0.017250 
#    y -0.049760 2.068180 0.009780 
#    z -0.017250 0.009780 2.112930 
# 
# From -- ./inp_files/587354.got.cif
#   From: 2010.05.17/outbox.cif.g08.bks.cpg/sg2_294_cif.got.tgz:587354.got - 2010.06.03 11:33:40.
