data_PCOD9061531
_publ_section_title
;
Structure prediction by ZEFSAII (Michael W. Deem and Ramdas Pophale) SiO2 
 PCOD9061531
Probable space group: P -1
;
_chemical_formula_sum "Si O2"
_cell_formula_units_Z 16
_cell_length_a 11.544908
_cell_length_b 12.591430
_cell_length_c 8.677085
_cell_angle_alpha 86.435698
_cell_angle_beta 142.487197
_cell_angle_gamma 91.116919
_cell_volume 765.682378
_symmetry_space_group_name_H-M "P -1"
_symmetry_group_IT_number 2
_symmetry_cell_setting 'triclinic'
loop_
_space_group_symop_operation_xyz
x,y,z
-x,-y,-z
loop_
_atom_site_type_symbol
_atom_site_label
_atom_site_fract_x
_atom_site_fract_y
_atom_site_fract_z
Si Si1 0.148537 0.861064 0.000898
Si Si2 0.599614 0.949533 0.762217
Si Si3 0.306395 0.538735 0.875058
Si Si4 0.949761 0.642438 0.310899
Si Si5 0.271516 0.933771 0.675275
Si Si6 0.032009 0.167085 0.860780
Si Si7 0.174857 0.181197 0.577093
Si Si8 0.578743 0.240255 0.894216
O O1 0.997830 0.821590 0.723862
O O2 0.339119 0.787585 0.185035
O O3 0.053304 0.868610 0.064660
O O4 0.230226 0.972765 0.031034
O O5 0.443825 0.941018 0.732070
O O6 0.500000 0.000000 0.500000
O O7 0.737151 0.845681 0.893012
O O8 0.214773 0.440363 0.874044
O O9 0.137506 0.579989 0.578742
O O10 0.500000 0.500000 0.000000
O O11 0.358321 0.642957 0.013073
O O12 0.008019 0.707479 0.217907
O O13 0.877678 0.736410 0.347617
O O14 0.092465 0.891219 0.395897
O O15 0.225373 0.054851 0.676166
O O16 0.332399 0.846347 0.877465
O O17 0.356628 0.225637 0.679456
#
# Coordination Sequence:
#
# PCOD9061531 Si02
#       8
#     2   2   2   2   2   2   2   2
#     4  12  25  40  61  93 140 173 214 263 327 393
#     4  12  24  40  61  95 139 186 221 250 321 399
#     4  11  23  45  72  96 127 166 225 285 331 381
#     4  11  25  43  71  99 125 172 227 274 333 386
#     4  12  24  40  66  98 138 173 220 268 324 398
#     4  12  25  42  64  95 138 180 220 263 320 401
#     4  12  23  41  64 101 134 169 211 277 331 387
#     4  12  25  42  66 101 128 175 220 277 333 387
#
# _framework density 20.896394000000001
#
# number of rings (size 3 to 8) (size 9 to 14) (size 15 to 20)
#    0.000    0.250    7.500    2.250    1.750    1.000 
#    0.000    0.625    0.000    1.500    0.000    0.000 
#    0.000    0.000    0.000    0.000    0.000    0.000 
#
# Total GULP energy -89356.097098 kJ/mol
# GULP energy per Si atom -5584.756069 kJ/mol
# Density = 2.084883 g / cm^3
# Si number density = 20.896394 Si / 1000 Ang^3
#
#
#
# Elastic Constant Matrix: (Units=GPa)
#
#
# Indices 1 2 3 4 5 6 
#
# 1 106.3863 26.8115 33.7369 -13.1280 21.7096 5.6123
# 2 26.8115 109.7284 10.1789 8.6192 7.2595 19.7576
# 3 33.7369 10.1789 74.8043 4.6104 22.6801 16.4655
# 4 -13.1280 8.6192 4.6104 26.9242 0.5169 15.2242
# 5 21.7096 7.2595 22.6801 0.5169 33.4113 4.3392
# 6 5.6123 19.7576 16.4655 15.2242 4.3392 32.3470
#
#
#
# Elastic Compliance Matrix: (Units=1/GPa)
#
#
# Indices 1 2 3 4 5 6 
#
# 1 0.013987 -0.003024 -0.004392 0.009952 -0.005303 -0.002316
# 2 -0.003024 0.010978 0.001492 -0.001847 -0.000627 -0.005987
# 3 -0.004392 0.001492 0.020129 -0.001029 -0.010005 -0.008569
# 4 0.009952 -0.001847 -0.001029 0.058113 -0.002752 -0.027057
# 5 -0.005303 -0.000627 -0.010005 -0.002752 0.040045 0.002319
# 6 -0.002316 -0.005987 -0.008569 -0.027057 0.002319 0.051759
#
#
# Mechanical properties :
#
#
# Convention : Reuss Voigt Hill
#
# Bulk Modulus (GPa) = 30.07939 48.04152 39.06045
# Shear Modulus (GPa) = 22.94180 33.21596 28.07888
#
# Velocity S-wave (km/s) = 3.31703 3.99125 3.66965
# Velocity P-wave (km/s) = 5.39407 6.65435 6.05708
#
# Compressibility (1/GPa) = 0.03324536
#
# Stress axis : x y z
#
# Youngs Moduli (GPa) = 71.49460 91.08716 49.67868
#
# Poissons Ratio (x) = 0.27545 0.21821
# Poissons Ratio (y) = 0.21620 -0.07410
# Poissons Ratio (z) = 0.31404 -0.13587
#
# Static dielectric constant tensor:
#      x y z
#    x 1.822060 -0.097850 0.029670 
#    y -0.097850 1.904040 -0.037180 
#    z 0.029670 -0.037180 1.778800 
# 
# From -- ./inp_files/258705.got.cif
#   From: 2010.05.17/outbox.cif.g08.bks.cpg/sg2_130_cif.got.tgz:258705.got - 2010.06.03 11:33:40.
