data_PCOD9061768
_publ_section_title
;
Structure prediction by ZEFSAII (Michael W. Deem and Ramdas Pophale) SiO2 
 PCOD9061768
Probable space group: P -1
;
_chemical_formula_sum "Si O2"
_cell_formula_units_Z 16
_cell_length_a 8.743859
_cell_length_b 11.481333
_cell_length_c 9.301868
_cell_angle_alpha 73.163972
_cell_angle_beta 60.840626
_cell_angle_gamma 62.295649
_cell_volume 719.582216
_symmetry_space_group_name_H-M "P -1"
_symmetry_group_IT_number 2
_symmetry_cell_setting 'triclinic'
loop_
_space_group_symop_operation_xyz
x,y,z
-x,-y,-z
loop_
_atom_site_type_symbol
_atom_site_label
_atom_site_fract_x
_atom_site_fract_y
_atom_site_fract_z
Si Si1 0.941377 0.074044 0.155138
Si Si2 0.866894 0.569371 0.903336
Si Si3 0.286083 0.068820 0.505089
Si Si4 0.493476 0.730974 0.095235
Si Si5 0.999723 0.367313 0.476059
Si Si6 0.684966 0.991147 0.826435
Si Si7 0.672189 0.359120 0.073366
Si Si8 0.436202 0.536668 0.355863
O O1 0.810929 0.224435 0.127836
O O2 0.836658 0.000780 0.328596
O O3 0.120055 0.080943 0.154833
O O4 0.000000 0.000000 0.000000
O O5 0.977359 0.602058 0.711616
O O6 0.699293 0.714999 0.952139
O O7 0.769076 0.463095 0.952343
O O8 0.000000 0.500000 0.000000
O O9 0.162312 0.229454 0.507970
O O10 0.500000 0.000000 0.500000
O O11 0.311086 0.039624 0.332648
O O12 0.345384 0.856695 0.192534
O O13 0.556145 0.621464 0.227168
O O14 0.401081 0.684528 0.021910
O O15 0.000000 0.500000 0.500000
O O16 0.786035 0.375902 0.590062
O O17 0.500000 0.000000 0.000000
O O18 0.505097 0.422328 0.245113
O O19 0.500000 0.500000 0.500000
#
# Coordination Sequence:
#
# PCOD9061768 Si02
#       8
#     2   2   2   2   2   2   2   2
#     4  12  27  49  79 107 154 207 261 315 399 467
#     4  11  25  43  72 110 143 190 246 313 376 457
#     4  12  31  50  77 116 158 207 261 325 394 471
#     4  11  23  46  69  98 144 193 249 301 380 460
#     4  12  26  45  75 104 149 187 248 311 381 452
#     4  12  27  48  75 109 151 200 256 322 386 467
#     4  11  25  46  74 103 148 199 254 305 390 464
#     4  11  25  42  70 106 142 191 243 312 376 452
#
# _framework density 22.235123000000002
#
# number of rings (size 3 to 8) (size 9 to 14) (size 15 to 20)
#    0.000    0.500    1.250    7.125   12.250    1.000 
#    0.000    0.000    0.000    0.000    0.000    0.000 
#    0.000    0.000    0.000    0.000    0.000    0.000 
#
# Total GULP energy -89263.613101 kJ/mol
# GULP energy per Si atom -5578.975819 kJ/mol
# Density = 2.218451 g / cm^3
# Si number density = 22.235123 Si / 1000 Ang^3
#
#
#
# Elastic Constant Matrix: (Units=GPa)
#
#
# Indices 1 2 3 4 5 6 
#
# 1 142.7256 51.9257 54.4566 4.8979 8.2913 -23.7092
# 2 51.9257 152.6925 44.2185 5.1391 7.6321 -29.0371
# 3 54.4566 44.2185 158.8757 4.5993 6.3387 -8.9297
# 4 4.8979 5.1391 4.5993 37.4486 -0.7025 1.9307
# 5 8.2913 7.6321 6.3387 -0.7025 44.6230 -3.5221
# 6 -23.7092 -29.0371 -8.9297 1.9307 -3.5221 40.5417
#
#
#
# Elastic Compliance Matrix: (Units=1/GPa)
#
#
# Indices 1 2 3 4 5 6 
#
# 1 0.009224 -0.001671 -0.002435 -0.000881 -0.000809 0.003633
# 2 -0.001671 0.008521 -0.001476 -0.001028 -0.000575 0.004800
# 3 -0.002435 -0.001476 0.007520 -0.000367 -0.000436 -0.000845
# 4 -0.000881 -0.001028 -0.000367 0.027149 0.000616 -0.002571
# 5 -0.000809 -0.000575 -0.000436 0.000616 0.022807 0.000971
# 6 0.003633 0.004800 -0.000845 -0.002571 0.000971 0.030249
#
#
# Mechanical properties :
#
#
# Convention : Reuss Voigt Hill
#
# Bulk Modulus (GPa) = 70.91510 83.94393 77.42952
# Shear Modulus (GPa) = 41.20870 44.76885 42.98878
#
# Velocity S-wave (km/s) = 4.30969 4.49199 4.40178
# Velocity P-wave (km/s) = 7.53174 8.04604 7.79313
#
# Compressibility (1/GPa) = 0.01410137
#
# Stress axis : x y z
#
# Youngs Moduli (GPa) = 108.41316 117.35874 132.97579
#
# Poissons Ratio (x) = 0.19608 0.32375
# Poissons Ratio (y) = 0.18113 0.19633
# Poissons Ratio (z) = 0.26395 0.17327
#
# Static dielectric constant tensor:
#      x y z
#    x 1.881170 0.046660 0.000900 
#    y 0.046660 2.014180 -0.006490 
#    z 0.000900 -0.006490 1.792770 
# 
# From -- ./inp_files/185707.got.cif
#   From: 2010.05.17/outbox.cif.g08.bks.cpg/sg2_93_cif.got.tgz:185707.got - 2010.06.03 11:33:40.
