data_PCOD9061350
_publ_section_title
;
Structure prediction by ZEFSAII (Michael W. Deem and Ramdas Pophale) SiO2 
 PCOD9061350
Probable space group: P -1
;
_chemical_formula_sum "Si O2"
_cell_formula_units_Z 16
_cell_length_a 26.573663
_cell_length_b 9.354914
_cell_length_c 9.185829
_cell_angle_alpha 77.129938
_cell_angle_beta 40.236213
_cell_angle_gamma 46.172532
_cell_volume 802.764793
_symmetry_space_group_name_H-M "P -1"
_symmetry_group_IT_number 2
_symmetry_cell_setting 'triclinic'
loop_
_space_group_symop_operation_xyz
x,y,z
-x,-y,-z
loop_
_atom_site_type_symbol
_atom_site_label
_atom_site_fract_x
_atom_site_fract_y
_atom_site_fract_z
Si Si1 0.630471 0.229978 0.686686
Si Si2 0.144196 0.184035 0.275226
Si Si3 0.173473 0.617536 0.715389
Si Si4 0.333778 0.419279 0.701190
Si Si5 0.135868 0.973948 0.600580
Si Si6 0.349861 0.710284 0.706581
Si Si7 0.659540 0.864316 0.043623
Si Si8 0.638665 0.870431 0.763232
O O1 0.632920 0.270812 0.503621
O O2 0.767636 0.077705 0.497631
O O3 0.618747 0.074398 0.756941
O O4 0.500000 0.500000 0.000000
O O5 0.122425 0.079525 0.454211
O O6 0.000000 0.500000 0.500000
O O7 0.249746 0.133654 0.129110
O O8 0.227728 0.992346 0.993137
O O9 0.238453 0.571890 0.733926
O O10 0.251222 0.353423 0.547333
O O11 0.196483 0.713678 0.527287
O O12 0.014677 0.819760 0.043849
O O13 0.314986 0.591722 0.803191
O O14 0.305933 0.313764 0.874350
O O15 0.495920 0.159880 0.352963
O O16 0.500000 0.500000 0.500000
O O17 0.683903 0.764667 0.851546
O O18 0.500000 0.000000 0.000000
#
# Coordination Sequence:
#
# PCOD9061350 Si02
#       8
#     2   2   2   2   2   2   2   2
#     4  12  25  45  73 103 142 180 240 295 342 419
#     4  12  27  47  69 103 145 185 234 291 355 424
#     4  11  25  45  70  99 138 182 233 291 355 416
#     4  11  23  45  68  99 142 174 234 289 351 416
#     4  11  25  48  68  94 143 184 227 296 348 417
#     4  12  26  43  74 104 135 189 235 282 354 414
#     4  11  24  43  67 101 141 181 225 295 346 419
#     4  12  25  40  71 103 133 179 229 284 356 409
#
# _framework density 19.931118000000001
#
# number of rings (size 3 to 8) (size 9 to 14) (size 15 to 20)
#    0.000    0.500    5.000    3.000    7.000    1.500 
#    0.000    1.250    0.000    0.000    0.000    0.000 
#    0.000    0.000    0.000    0.000    0.000    0.000 
#
# Total GULP energy -89460.000916 kJ/mol
# GULP energy per Si atom -5591.250057 kJ/mol
# Density = 1.988575 g / cm^3
# Si number density = 19.931118 Si / 1000 Ang^3
#
#
#
# Elastic Constant Matrix: (Units=GPa)
#
#
# Indices 1 2 3 4 5 6 
#
# 1 112.4660 42.1662 51.9625 9.6691 3.6553 13.7373
# 2 42.1662 116.4663 47.3340 -9.1293 -4.5758 7.7033
# 3 51.9625 47.3340 94.0354 1.0565 -3.6626 7.6652
# 4 9.6691 -9.1293 1.0565 39.2759 4.2962 4.9108
# 5 3.6553 -4.5758 -3.6626 4.2962 34.4136 -3.0263
# 6 13.7373 7.7033 7.6652 4.9108 -3.0263 41.6651
#
#
#
# Elastic Compliance Matrix: (Units=1/GPa)
#
#
# Indices 1 2 3 4 5 6 
#
# 1 0.013214 -0.002567 -0.005849 -0.003126 -0.002206 -0.002598
# 2 -0.002567 0.011661 -0.004388 0.003474 0.000848 -0.000850
# 3 -0.005849 -0.004388 0.016153 -0.000199 0.001775 -0.000080
# 4 -0.003126 0.003474 -0.000199 0.027750 -0.002961 -0.003061
# 5 -0.002206 0.000848 0.001775 -0.002961 0.030209 0.002787
# 6 -0.002598 -0.000850 -0.000080 -0.003061 0.002787 0.025592
#
#
# Mechanical properties :
#
#
# Convention : Reuss Voigt Hill
#
# Bulk Modulus (GPa) = 64.84917 67.32146 66.08531
# Shear Modulus (GPa) = 32.19035 35.17126 33.68080
#
# Velocity S-wave (km/s) = 4.02317 4.20532 4.11525
# Velocity P-wave (km/s) = 7.36128 7.57826 7.47056
#
# Compressibility (1/GPa) = 0.01542040
#
# Stress axis : x y z
#
# Youngs Moduli (GPa) = 75.67679 85.75848 61.90884
#
# Poissons Ratio (x) = 0.22014 0.36209
# Poissons Ratio (y) = 0.19426 0.27164
# Poissons Ratio (z) = 0.44262 0.37629
#
# Static dielectric constant tensor:
#      x y z
#    x 1.660350 -0.015080 0.013440 
#    y -0.015080 1.730220 -0.012540 
#    z 0.013440 -0.012540 1.690290 
# 
# From -- ./inp_files/217113.got.cif
#   From: 2010.05.17/outbox.cif.g08.bks.cpg/sg2_109_cif.got.tgz:217113.got - 2010.06.03 11:33:40.
