data_PCOD9061365
_publ_section_title
;
Structure prediction by ZEFSAII (Michael W. Deem and Ramdas Pophale) SiO2 
 PCOD9061365
Probable space group: P -1
;
_chemical_formula_sum "Si O2"
_cell_formula_units_Z 14
_cell_length_a 9.026304
_cell_length_b 18.074092
_cell_length_c 14.250875
_cell_angle_alpha 159.151917
_cell_angle_beta 50.883749
_cell_angle_gamma 129.190724
_cell_volume 634.384731
_symmetry_space_group_name_H-M "P -1"
_symmetry_group_IT_number 2
_symmetry_cell_setting 'triclinic'
loop_
_space_group_symop_operation_xyz
x,y,z
-x,-y,-z
loop_
_atom_site_type_symbol
_atom_site_label
_atom_site_fract_x
_atom_site_fract_y
_atom_site_fract_z
Si Si1 0.997216 0.158551 0.350157
Si Si2 0.145077 0.658982 0.066091
Si Si3 0.055442 0.287812 0.184937
Si Si4 0.284149 0.022900 0.582632
Si Si5 0.460143 0.383538 0.224271
Si Si6 0.554070 0.791586 0.777580
Si Si7 0.080316 0.390067 0.095410
O O1 0.864868 0.076291 0.394372
O O2 0.902681 0.360837 0.596126
O O3 0.224082 0.235673 0.366310
O O4 0.008743 0.949578 0.036256
O O5 0.209029 0.883265 0.356659
O O6 0.346150 0.579086 0.869093
O O7 0.000000 0.500000 0.000000
O O8 0.041608 0.665261 0.014855
O O9 0.285071 0.314275 0.141870
O O10 0.982791 0.288220 0.107697
O O11 0.000000 0.500000 0.500000
O O12 0.500000 0.000000 0.500000
O O13 0.263987 0.268088 0.867691
O O14 0.430105 0.592537 0.540385
O O15 0.472152 0.222523 0.115721
O O16 0.500000 0.000000 0.000000
#
# Coordination Sequence:
#
# PCOD9061365 Si02
#       7
#     2   2   2   2   2   2   2
#     4  11  23  45  69 102 140 181 240 282 349 425
#     4  12  23  47  73 103 140 187 237 290 351 422
#     4  11  25  43  71 102 147 185 230 293 353 409
#     4  11  25  46  71 104 142 181 232 297 351 418
#     4  11  25  44  66 104 139 175 237 292 341 418
#     4  11  24  42  72  99 140 181 233 286 352 418
#     4  11  24  44  73  97 140 190 232 288 354 414
#
# _framework density 22.068628
#
# number of rings (size 3 to 8) (size 9 to 14) (size 15 to 20)
#    0.000    0.857    2.857    3.857    6.000    4.000 
#    5.143    0.000    0.000    0.000    0.000    0.000 
#    0.000    0.000    0.000    0.000    0.000    0.000 
#
# Total GULP energy -78083.732818 kJ/mol
# GULP energy per Si atom -5577.409487 kJ/mol
# Density = 2.201840 g / cm^3
# Si number density = 22.068628 Si / 1000 Ang^3
#
#
#
# Elastic Constant Matrix: (Units=GPa)
#
#
# Indices 1 2 3 4 5 6 
#
# 1 97.8883 37.7059 33.1707 8.7978 -4.6548 -7.0172
# 2 37.7059 88.6175 15.6924 -2.0401 -2.6121 -9.5763
# 3 33.1707 15.6924 176.8835 20.5712 -20.4768 -9.5394
# 4 8.7978 -2.0401 20.5712 28.3336 -0.2002 -2.5512
# 5 -4.6548 -2.6121 -20.4768 -0.2002 38.2433 -4.3679
# 6 -7.0172 -9.5763 -9.5394 -2.5512 -4.3679 42.3915
#
#
#
# Elastic Compliance Matrix: (Units=1/GPa)
#
#
# Indices 1 2 3 4 5 6 
#
# 1 0.013140 -0.005332 -0.001528 -0.003309 0.000454 0.000474
# 2 -0.005332 0.013975 -0.000441 0.003201 0.000361 0.002405
# 3 -0.001528 -0.000441 0.006997 -0.004492 0.003658 0.001329
# 4 -0.003309 0.003201 -0.004492 0.039917 -0.002227 0.001338
# 5 0.000454 0.000361 0.003658 -0.002227 0.028609 0.003794
# 6 0.000474 0.002405 0.001329 0.001338 0.003794 0.024982
#
#
# Mechanical properties :
#
#
# Convention : Reuss Voigt Hill
#
# Bulk Modulus (GPa) = 51.25437 59.61414 55.43425
# Shear Modulus (GPa) = 33.61891 40.24836 36.93364
#
# Velocity S-wave (km/s) = 3.90728 4.27521 4.09538
# Velocity P-wave (km/s) = 6.60539 7.17228 6.89467
#
# Compressibility (1/GPa) = 0.01951053
#
# Stress axis : x y z
#
# Youngs Moduli (GPa) = 76.10112 71.55403 142.92571
#
# Poissons Ratio (x) = 0.38153 0.21843
# Poissons Ratio (y) = 0.40577 0.06299
# Poissons Ratio (z) = 0.11630 0.03153
#
# Static dielectric constant tensor:
#      x y z
#    x 1.807290 -0.022450 0.017700 
#    y -0.022450 1.820340 -0.008020 
#    z 0.017700 -0.008020 1.916300 
# 
# From -- ./inp_files/293761.got.cif
#   From: 2010.05.17/outbox.cif.g08.bks.cpg/sg2_147_cif.got.tgz:293761.got - 2010.06.03 11:33:40.
