data_PCOD9061335
_publ_section_title
;
Structure prediction by ZEFSAII (Michael W. Deem and Ramdas Pophale) SiO2 
 PCOD9061335
Probable space group: P -1
;
_chemical_formula_sum "Si O2"
_cell_formula_units_Z 14
_cell_length_a 17.893438
_cell_length_b 9.451542
_cell_length_c 11.557865
_cell_angle_alpha 63.317545
_cell_angle_beta 140.411131
_cell_angle_gamma 144.633288
_cell_volume 629.997235
_symmetry_space_group_name_H-M "P -1"
_symmetry_group_IT_number 2
_symmetry_cell_setting 'triclinic'
loop_
_space_group_symop_operation_xyz
x,y,z
-x,-y,-z
loop_
_atom_site_type_symbol
_atom_site_label
_atom_site_fract_x
_atom_site_fract_y
_atom_site_fract_z
Si Si1 0.314942 0.172044 0.875903
Si Si2 0.065796 0.068497 0.919992
Si Si3 0.950599 0.292777 0.666328
Si Si4 0.125472 0.302644 0.382079
Si Si5 0.153041 0.692288 0.221765
Si Si6 0.316021 0.917074 0.780932
Si Si7 0.580121 0.772725 0.778946
O O1 0.344788 0.106833 0.820400
O O2 0.500000 0.500000 0.000000
O O3 0.340425 0.088626 0.050291
O O4 0.079133 0.967291 0.689641
O O5 0.039065 0.214416 0.781508
O O6 0.287646 0.231455 0.105427
O O7 0.919093 0.794306 0.767727
O O8 0.000000 0.000000 0.000000
O O9 0.927971 0.288621 0.777928
O O10 0.742205 0.097645 0.414825
O O11 0.114582 0.603985 0.704954
O O12 0.170389 0.539079 0.354870
O O13 0.340098 0.463296 0.613892
O O14 0.359384 0.012211 0.308412
O O15 0.000000 0.500000 0.000000
O O16 0.500000 0.000000 0.000000
#
# Coordination Sequence:
#
# PCOD9061335 Si02
#       7
#     2   2   2   2   2   2   2
#     4  11  26  47  69 101 140 188 240 298 354 429
#     4  11  23  45  68 105 147 182 232 297 366 432
#     4  11  25  46  72 104 146 188 236 301 364 429
#     4  11  25  43  71 102 139 187 242 293 356 431
#     4  12  20  48  72 105 145 186 239 298 360 443
#     4  11  27  47  71 102 141 192 246 297 360 424
#     4  11  25  43  73 105 137 193 237 296 365 423
#
# _framework density 22.22232
#
# number of rings (size 3 to 8) (size 9 to 14) (size 15 to 20)
#    0.000    0.857    5.714    0.429    8.000    1.143 
#    5.143    0.000    0.000    0.000    0.000    0.000 
#    0.000    0.000    0.000    0.000    0.000    0.000 
#
# Total GULP energy -78186.393974 kJ/mol
# GULP energy per Si atom -5584.742427 kJ/mol
# Density = 2.217174 g / cm^3
# Si number density = 22.222320 Si / 1000 Ang^3
#
#
#
# Elastic Constant Matrix: (Units=GPa)
#
#
# Indices 1 2 3 4 5 6 
#
# 1 104.3795 18.6276 74.5446 13.7381 -10.0727 -15.1662
# 2 18.6276 111.8923 28.0231 5.1876 10.0936 -13.7725
# 3 74.5446 28.0231 159.1142 10.3376 22.7385 -0.7507
# 4 13.7381 5.1876 10.3376 36.1804 3.9215 4.8127
# 5 -10.0727 10.0936 22.7385 3.9215 31.4898 -1.4109
# 6 -15.1662 -13.7725 -0.7507 4.8127 -1.4109 39.6776
#
#
#
# Elastic Compliance Matrix: (Units=1/GPa)
#
#
# Indices 1 2 3 4 5 6 
#
# 1 0.023123 -0.000689 -0.012737 -0.008359 0.018305 0.010023
# 2 -0.000689 0.009966 -0.001004 -0.001047 -0.002416 0.003218
# 3 -0.012737 -0.001004 0.014296 0.003275 -0.014746 -0.005868
# 4 -0.008359 -0.001047 0.003275 0.032032 -0.009037 -0.007703
# 5 0.018305 -0.002416 -0.014746 -0.009037 0.050552 0.008773
# 6 0.010023 0.003218 -0.005868 -0.007703 0.008773 0.031286
#
#
# Mechanical properties :
#
#
# Convention : Reuss Voigt Hill
#
# Bulk Modulus (GPa) = 53.98465 68.64185 61.31325
# Shear Modulus (GPa) = 25.47251 38.41559 31.94405
#
# Velocity S-wave (km/s) = 3.38932 4.16227 3.79552
# Velocity P-wave (km/s) = 6.29780 7.35221 6.84534
#
# Compressibility (1/GPa) = 0.01852378
#
# Stress axis : x y z
#
# Youngs Moduli (GPa) = 43.24737 100.34274 69.95095
#
# Poissons Ratio (x) = 0.06918 0.89097
# Poissons Ratio (y) = 0.02982 0.07022
# Poissons Ratio (z) = 0.55084 0.10072
#
# Static dielectric constant tensor:
#      x y z
#    x 1.803670 0.011940 0.024890 
#    y 0.011940 1.868100 -0.073570 
#    z 0.024890 -0.073570 1.878640 
# 
# From -- ./inp_files/462061.got.cif
#   From: 2010.05.17/outbox.cif.g08.bks.cpg/sg2_232_cif.got.tgz:462061.got - 2010.06.03 11:33:40.
