data_PCOD9061096
_publ_section_title
;
Structure prediction by ZEFSAII (Michael W. Deem and Ramdas Pophale) SiO2 
 PCOD9061096
Probable space group: P -1
;
_chemical_formula_sum "Si O2"
_cell_formula_units_Z 11
_cell_length_a 10.962442
_cell_length_b 6.650049
_cell_length_c 7.765149
_cell_angle_alpha 76.935105
_cell_angle_beta 132.832775
_cell_angle_gamma 93.102417
_cell_volume 400.440757
_symmetry_space_group_name_H-M "P -1"
_symmetry_group_IT_number 2
_symmetry_cell_setting 'triclinic'
loop_
_space_group_symop_operation_xyz
x,y,z
-x,-y,-z
loop_
_atom_site_type_symbol
_atom_site_label
_atom_site_fract_x
_atom_site_fract_y
_atom_site_fract_z
Si Si1 0.500000 0.500000 0.500000
Si Si2 0.027607 0.323480 0.384460
Si Si3 0.658473 0.430114 0.377152
Si Si4 0.600197 0.191802 0.017045
Si Si5 0.153248 0.366501 0.066858
Si Si6 0.931766 0.965847 0.197851
O O1 0.643056 0.323204 0.564940
O O2 0.336723 0.367796 0.316514
O O3 0.185317 0.447224 0.517896
O O4 0.009304 0.208223 0.567936
O O5 0.057857 0.136296 0.309270
O O6 0.863555 0.482917 0.148765
O O7 0.624985 0.299836 0.204154
O O8 0.501473 0.619153 0.231339
O O9 0.761170 0.088149 0.089045
O O10 0.500000 0.000000 0.000000
O O11 0.101953 0.153348 0.983272
O O12 0.000000 0.500000 0.000000
#
# Coordination Sequence:
#
# PCOD9061096 Si02
#       6
#     1   2   2   2   2   2
#     4  12  26  48  72 100 144 206 228 284 376 422
#     4  11  25  45  73 107 142 187 243 303 355 423
#     4  11  25  44  73 105 150 191 236 304 357 428
#     4  11  23  44  72 110 142 185 252 298 355 429
#     4  12  27  50  72 105 151 192 239 297 365 434
#     4  11  26  44  77 106 141 190 243 303 363 420
#
# _framework density 27.469729999999998
#
# number of rings (size 3 to 8) (size 9 to 14) (size 15 to 20)
#    0.000    0.727    3.636    2.727   10.182    0.727 
#    3.273    6.364    0.000    0.000    0.000    0.000 
#    0.000    0.000    0.000    0.000    0.000    0.000 
#
# Total GULP energy -61419.110138 kJ/mol
# GULP energy per Si atom -5583.555467 kJ/mol
# Density = 2.740721 g / cm^3
# Si number density = 27.469730 Si / 1000 Ang^3
#
#
#
# Elastic Constant Matrix: (Units=GPa)
#
#
# Indices 1 2 3 4 5 6 
#
# 1 101.9395 73.3223 46.4784 42.2893 6.5332 -13.3064
# 2 73.3223 192.5351 90.6525 63.7201 11.5413 -19.5801
# 3 46.4784 90.6525 160.7844 60.1574 4.7694 -8.1898
# 4 42.2893 63.7201 60.1574 91.5161 -3.8405 -2.0334
# 5 6.5332 11.5413 4.7694 -3.8405 60.7697 14.0466
# 6 -13.3064 -19.5801 -8.1898 -2.0334 14.0466 51.4482
#
#
#
# Elastic Compliance Matrix: (Units=1/GPa)
#
#
# Indices 1 2 3 4 5 6 
#
# 1 0.014807 -0.003723 -0.000532 -0.003913 -0.001700 0.002637
# 2 -0.003723 0.009301 -0.002911 -0.002866 -0.001901 0.002519
# 3 -0.000532 -0.002911 0.009541 -0.004013 -0.000447 0.000237
# 4 -0.003913 -0.002866 -0.004013 0.017432 0.003048 -0.002885
# 5 -0.001700 -0.001901 -0.000447 0.003048 0.018662 -0.006209
# 6 0.002637 0.002519 0.000237 -0.002885 -0.006209 0.022697
#
#
# Mechanical properties :
#
#
# Convention : Reuss Voigt Hill
#
# Bulk Modulus (GPa) = 51.76970 97.35170 74.56070
# Shear Modulus (GPa) = 44.16528 57.06720 50.61624
#
# Velocity S-wave (km/s) = 4.01406 4.56286 4.29723
# Velocity P-wave (km/s) = 6.35379 7.95463 7.19884
#
# Compressibility (1/GPa) = 0.01931632
#
# Stress axis : x y z
#
# Youngs Moduli (GPa) = 67.53672 107.51741 104.80917
#
# Poissons Ratio (x) = 0.40030 0.05580
# Poissons Ratio (y) = 0.25145 0.30506
# Poissons Ratio (z) = 0.03596 0.31295
#
# Static dielectric constant tensor:
#      x y z
#    x 0.976650 -0.211440 1.124700 
#    y -0.211440 2.149130 0.223250 
#    z 1.124700 0.223250 1.115130 
# 
# From -- ./inp_files/73860.got.cif
#   From: 2010.05.17/outbox.cif.g08.bks.cpg/sg2_37_cif.got.tgz:73860.got - 2010.06.03 11:33:40.
