data_PCOD9061974
_publ_section_title
;
Structure prediction by ZEFSAII (Michael W. Deem and Ramdas Pophale) SiO2 
 PCOD9061974
Probable space group: P -1
;
_chemical_formula_sum "Si O2"
_cell_formula_units_Z 14
_cell_length_a 8.658745
_cell_length_b 10.699785
_cell_length_c 8.295196
_cell_angle_alpha 121.434885
_cell_angle_beta 59.630088
_cell_angle_gamma 104.569083
_cell_volume 565.672770
_symmetry_space_group_name_H-M "P -1"
_symmetry_group_IT_number 2
_symmetry_cell_setting 'triclinic'
loop_
_space_group_symop_operation_xyz
x,y,z
-x,-y,-z
loop_
_atom_site_type_symbol
_atom_site_label
_atom_site_fract_x
_atom_site_fract_y
_atom_site_fract_z
Si Si1 0.539098 0.838835 0.949667
Si Si2 0.910980 0.832745 0.268277
Si Si3 0.209391 0.716547 0.227488
Si Si4 0.718702 0.307060 0.460012
Si Si5 0.357759 0.347732 0.533469
Si Si6 0.673424 0.993517 0.285045
Si Si7 0.970220 0.438191 0.194131
O O1 0.454120 0.605669 0.457866
O O2 0.628786 0.729574 0.699676
O O3 0.647987 0.871401 0.078593
O O4 0.500000 0.000000 0.000000
O O5 0.720773 0.779618 0.398303
O O6 0.854360 0.965196 0.272947
O O7 0.360620 0.758438 0.049308
O O8 0.990785 0.703147 0.027944
O O9 0.288864 0.726274 0.370391
O O10 0.047193 0.830064 0.344496
O O11 0.127330 0.553638 0.167465
O O12 0.904668 0.379762 0.362640
O O13 0.696621 0.147669 0.285669
O O14 0.206491 0.472547 0.707961
O O15 0.500000 0.000000 0.500000
#
# Coordination Sequence:
#
# PCOD9061974 Si02
#       7
#     2   2   2   2   2   2   2
#     4  12  24  46  75 106 139 183 241 286 352 422
#     4  11  25  48  72 103 149 184 234 297 353 416
#     4  11  25  45  73 106 144 184 232 298 351 415
#     4  12  24  46  76 103 145 188 238 287 346 430
#     4  11  23  46  76 103 142 187 237 292 343 427
#     4  12  24  49  73 106 138 188 240 289 353 418
#     4  11  27  49  67 107 144 190 235 289 361 407
#
# _framework density 24.749292000000001
#
# number of rings (size 3 to 8) (size 9 to 14) (size 15 to 20)
#    0.000    0.571    4.286    3.429    0.000    5.714 
#    2.571    5.714    0.000    0.000    0.000    0.000 
#    0.000    0.000    0.000    0.000    0.000    0.000 
#
# Total GULP energy -78291.213132 kJ/mol
# GULP energy per Si atom -5592.229509 kJ/mol
# Density = 2.469296 g / cm^3
# Si number density = 24.749292 Si / 1000 Ang^3
#
#
#
# Elastic Constant Matrix: (Units=GPa)
#
#
# Indices 1 2 3 4 5 6 
#
# 1 90.3415 15.3037 56.4451 12.1370 14.0716 -3.9027
# 2 15.3037 115.0712 33.4562 -11.3735 -16.4853 16.0470
# 3 56.4451 33.4562 136.0640 -4.8160 1.1417 -2.1032
# 4 12.1370 -11.3735 -4.8160 42.3124 -0.4509 -5.9860
# 5 14.0716 -16.4853 1.1417 -0.4509 28.4006 -2.1379
# 6 -3.9027 16.0470 -2.1032 -5.9860 -2.1379 44.9304
#
#
#
# Elastic Compliance Matrix: (Units=1/GPa)
#
#
# Indices 1 2 3 4 5 6 
#
# 1 0.018634 -0.002688 -0.007212 -0.006885 -0.010550 0.000822
# 2 -0.002688 0.011497 -0.001719 0.003238 0.007854 -0.003615
# 3 -0.007212 -0.001719 0.010867 0.003010 0.002262 0.001005
# 4 -0.006885 0.003238 0.003010 0.027206 0.005774 0.002286
# 5 -0.010550 0.007854 0.002262 0.005774 0.044944 -0.000708
# 6 0.000822 -0.003615 0.001005 0.002286 -0.000708 0.023937
#
#
# Mechanical properties :
#
#
# Convention : Reuss Voigt Hill
#
# Bulk Modulus (GPa) = 56.30479 61.32076 58.81277
# Shear Modulus (GPa) = 30.07653 38.88013 34.47833
#
# Velocity S-wave (km/s) = 3.48982 3.96783 3.73648
# Velocity P-wave (km/s) = 6.24803 6.76921 6.51383
#
# Compressibility (1/GPa) = 0.01776048
#
# Stress axis : x y z
#
# Youngs Moduli (GPa) = 53.66526 86.98062 92.02208
#
# Poissons Ratio (x) = 0.23380 0.66364
# Poissons Ratio (y) = 0.14425 0.15819
# Poissons Ratio (z) = 0.38702 0.14952
#
# Static dielectric constant tensor:
#      x y z
#    x 2.018720 -0.002290 0.062570 
#    y -0.002290 2.021170 0.010670 
#    z 0.062570 0.010670 1.969200 
# 
# From -- ./inp_files/183059.got.cif
#   From: 2010.05.17/outbox.cif.g08.bks.cpg/sg2_92_cif.got.tgz:183059.got - 2010.06.03 11:33:40.
