data_PCOD9061573
_publ_section_title
;
Structure prediction by ZEFSAII (Michael W. Deem and Ramdas Pophale) SiO2 
 PCOD9061573
Probable space group: P -1
;
_chemical_formula_sum "Si O2"
_cell_formula_units_Z 14
_cell_length_a 7.585625
_cell_length_b 15.469097
_cell_length_c 8.573621
_cell_angle_alpha 55.667655
_cell_angle_beta 41.677426
_cell_angle_gamma 77.310133
_cell_volume 513.845170
_symmetry_space_group_name_H-M "P -1"
_symmetry_group_IT_number 2
_symmetry_cell_setting 'triclinic'
loop_
_space_group_symop_operation_xyz
x,y,z
-x,-y,-z
loop_
_atom_site_type_symbol
_atom_site_label
_atom_site_fract_x
_atom_site_fract_y
_atom_site_fract_z
Si Si1 0.908634 0.671876 0.069383
Si Si2 0.256434 0.385265 0.425426
Si Si3 0.600749 0.265773 0.718020
Si Si4 0.847942 0.849079 0.415963
Si Si5 0.411881 0.896863 0.842181
Si Si6 0.751071 0.120115 0.572026
Si Si7 0.112357 0.472801 0.133705
O O1 0.917974 0.671412 0.250284
O O2 0.599385 0.664561 0.226886
O O3 0.972288 0.562322 0.094349
O O4 0.105724 0.790338 0.748114
O O5 0.289048 0.283698 0.403904
O O6 0.136416 0.457899 0.319960
O O7 0.563215 0.471570 0.189746
O O8 0.510201 0.160259 0.767735
O O9 0.904579 0.346045 0.368244
O O10 0.617216 0.217035 0.926017
O O11 0.591947 0.893799 0.571590
O O12 0.029322 0.870766 0.438318
O O13 0.094339 0.899136 0.070261
O O14 0.615975 0.999335 0.708044
#
# Coordination Sequence:
#
# PCOD9061573 Si02
#       7
#     2   2   2   2   2   2   2
#     4  12  26  42  71 106 150 186 245 310 366 428
#     4  11  26  46  71 102 150 191 245 298 377 446
#     4  11  23  45  73 109 143 190 250 304 360 435
#     4  11  23  46  76 107 143 195 245 298 365 440
#     4  11  24  44  81 108 143 193 254 298 363 439
#     4  11  24  44  73 107 145 185 251 304 362 432
#     4  11  25  47  71 101 147 198 246 292 377 442
#
# _framework density 27.245560000000001
#
# number of rings (size 3 to 8) (size 9 to 14) (size 15 to 20)
#    0.000    0.857    4.286    3.857    4.000    5.714 
#    0.000    1.429    0.000    0.000    0.000    0.000 
#    0.000    0.000    0.000    0.000    0.000    0.000 
#
# Total GULP energy -78405.966756 kJ/mol
# GULP energy per Si atom -5600.426197 kJ/mol
# Density = 2.718355 g / cm^3
# Si number density = 27.245560 Si / 1000 Ang^3
#
#
#
# Elastic Constant Matrix: (Units=GPa)
#
#
# Indices 1 2 3 4 5 6 
#
# 1 80.9070 20.1417 24.8225 -7.8173 0.7942 -8.4720
# 2 20.1417 122.8194 36.7601 3.4217 -13.6088 1.8465
# 3 24.8225 36.7601 178.6297 -2.0023 14.1273 0.2838
# 4 -7.8173 3.4217 -2.0023 48.9911 1.7893 -7.8258
# 5 0.7942 -13.6088 14.1273 1.7893 33.3080 -2.0577
# 6 -8.4720 1.8465 0.2838 -7.8258 -2.0577 42.5536
#
#
#
# Elastic Compliance Matrix: (Units=1/GPa)
#
#
# Indices 1 2 3 4 5 6 
#
# 1 0.013949 -0.002038 -0.001453 0.002866 -0.000494 0.003378
# 2 -0.002038 0.009710 -0.002120 -0.001403 0.004939 -0.000832
# 3 -0.001453 -0.002120 0.006527 0.000257 -0.003637 -0.000369
# 4 0.002866 -0.001403 0.000257 0.021765 -0.001639 0.004553
# 5 -0.000494 0.004939 -0.003637 -0.001639 0.033747 0.001042
# 6 0.003378 -0.000832 -0.000369 0.004553 0.001042 0.025099
#
#
# Mechanical properties :
#
#
# Convention : Reuss Voigt Hill
#
# Bulk Modulus (GPa) = 52.73248 60.64497 56.68872
# Shear Modulus (GPa) = 38.95906 45.01266 41.98586
#
# Velocity S-wave (km/s) = 3.78553 4.06902 3.92984
# Velocity P-wave (km/s) = 6.20512 6.66205 6.43764
#
# Compressibility (1/GPa) = 0.01896365
#
# Stress axis : x y z
#
# Youngs Moduli (GPa) = 71.69177 102.99085 153.19970
#
# Poissons Ratio (x) = 0.20990 0.22261
# Poissons Ratio (y) = 0.14611 0.32477
# Poissons Ratio (z) = 0.10417 0.21833
#
# Static dielectric constant tensor:
#      x y z
#    x 2.161780 0.053960 -0.015970 
#    y 0.053960 2.146570 0.080230 
#    z -0.015970 0.080230 2.123440 
# 
# From -- ./inp_files/205802.got.cif
#   From: 2010.05.17/outbox.cif.g08.bks.cpg/sg2_103_cif.got.tgz:205802.got - 2010.06.03 11:33:40.
