data_PCOD9061614
_publ_section_title
;
Structure prediction by ZEFSAII (Michael W. Deem and Ramdas Pophale) SiO2 
 PCOD9061614
Probable space group: P -1
;
_chemical_formula_sum "Si O2"
_cell_formula_units_Z 16
_cell_length_a 9.246516
_cell_length_b 9.469063
_cell_length_c 11.401114
_cell_angle_alpha 88.583878
_cell_angle_beta 47.603446
_cell_angle_gamma 79.749365
_cell_volume 719.163962
_symmetry_space_group_name_H-M "P -1"
_symmetry_group_IT_number 2
_symmetry_cell_setting 'triclinic'
loop_
_space_group_symop_operation_xyz
x,y,z
-x,-y,-z
loop_
_atom_site_type_symbol
_atom_site_label
_atom_site_fract_x
_atom_site_fract_y
_atom_site_fract_z
Si Si1 0.473933 0.569156 0.283813
Si Si2 0.306051 0.944806 0.865955
Si Si3 0.068598 0.144704 0.806871
Si Si4 0.122742 0.464846 0.813615
Si Si5 0.041686 0.668448 0.635681
Si Si6 0.624407 0.697819 0.778131
Si Si7 0.933116 0.001741 0.670443
Si Si8 0.524713 0.831497 0.087929
O O1 0.651486 0.522037 0.281153
O O2 0.259197 0.614855 0.461967
O O3 0.464458 0.440024 0.201837
O O4 0.516757 0.705278 0.186776
O O5 0.513996 0.827326 0.752060
O O6 0.237113 0.023344 0.780411
O O7 0.330816 0.071399 0.940186
O O8 0.135321 0.866231 0.010707
O O9 0.116001 0.301434 0.787356
O O10 0.033121 0.104095 0.694360
O O11 0.029457 0.573809 0.759507
O O12 0.000000 0.500000 0.000000
O O13 0.864278 0.657372 0.642404
O O14 0.002265 0.838539 0.682548
O O15 0.577420 0.758626 0.934322
O O16 0.694918 0.063876 0.803133
O O17 0.000000 0.000000 0.500000
#
# Coordination Sequence:
#
# PCOD9061614 Si02
#       8
#     2   2   2   2   2   2   2   2
#     4  12  27  48  70 106 155 196 245 304 374 447
#     4  11  23  45  74 110 141 186 249 316 364 431
#     4  11  26  45  75 108 147 190 249 306 373 436
#     4  12  28  49  74 109 152 197 248 306 371 446
#     4  12  28  47  74 106 152 198 244 310 375 442
#     4  12  25  42  75 108 145 198 251 307 367 436
#     4  12  26  47  77 109 152 193 247 310 375 442
#     4  12  23  47  74 110 146 193 253 312 367 438
#
# _framework density 22.248055000000001
#
# number of rings (size 3 to 8) (size 9 to 14) (size 15 to 20)
#    0.000    0.250    5.000    3.750    7.000    1.000 
#    0.000    1.250    0.000    0.000    0.000    0.000 
#    0.000    0.000    0.000    0.000    0.000    0.000 
#
# Total GULP energy -89664.467267 kJ/mol
# GULP energy per Si atom -5604.029204 kJ/mol
# Density = 2.219742 g / cm^3
# Si number density = 22.248055 Si / 1000 Ang^3
#
#
#
# Elastic Constant Matrix: (Units=GPa)
#
#
# Indices 1 2 3 4 5 6 
#
# 1 126.3863 21.9223 20.9404 5.8724 -22.8484 -8.8545
# 2 21.9223 86.5608 9.1182 -6.3024 -13.6981 -9.6980
# 3 20.9404 9.1182 69.1563 7.3645 -10.0401 -10.7984
# 4 5.8724 -6.3024 7.3645 23.7713 -4.1740 -1.2504
# 5 -22.8484 -13.6981 -10.0401 -4.1740 30.5076 0.6235
# 6 -8.8545 -9.6980 -10.7984 -1.2504 0.6235 51.0554
#
#
#
# Elastic Compliance Matrix: (Units=1/GPa)
#
#
# Indices 1 2 3 4 5 6 
#
# 1 0.009590 -0.001300 -0.001604 -0.001130 0.005897 0.000978
# 2 -0.001300 0.013461 -0.000794 0.005215 0.005477 0.002224
# 3 -0.001604 -0.000794 0.016415 -0.004183 0.003213 0.002901
# 4 -0.001130 0.005215 -0.004183 0.046203 0.006420 0.000963
# 5 0.005897 0.005477 0.003213 0.006420 0.041541 0.002393
# 6 0.000978 0.002224 0.002901 0.000963 0.002393 0.020787
#
#
# Mechanical properties :
#
#
# Convention : Reuss Voigt Hill
#
# Bulk Modulus (GPa) = 31.17952 42.89612 37.03782
# Shear Modulus (GPa) = 30.10544 36.40836 33.25690
#
# Velocity S-wave (km/s) = 3.68254 4.04972 3.87049
# Velocity P-wave (km/s) = 5.66801 6.41792 6.05459
#
# Compressibility (1/GPa) = 0.03207233
#
# Stress axis : x y z
#
# Youngs Moduli (GPa) = 104.27130 74.28845 60.91915
#
# Poissons Ratio (x) = 0.09654 0.09769
# Poissons Ratio (y) = 0.13550 0.04838
# Poissons Ratio (z) = 0.16720 0.05899
#
# Static dielectric constant tensor:
#      x y z
#    x 1.816910 -0.002570 -0.022620 
#    y -0.002570 1.794650 -0.005670 
#    z -0.022620 -0.005670 1.820510 
# 
# From -- ./inp_files/184138.got.cif
#   From: 2010.05.17/outbox.cif.g08.bks.cpg/sg2_93_cif.got.tgz:184138.got - 2010.06.03 11:33:40.
