data_PCOD9061395
_publ_section_title
;
Structure prediction by ZEFSAII (Michael W. Deem and Ramdas Pophale) SiO2 
 PCOD9061395
Probable space group: P -1
;
_chemical_formula_sum "Si O2"
_cell_formula_units_Z 16
_cell_length_a 11.477488
_cell_length_b 6.098838
_cell_length_c 11.743134
_cell_angle_alpha 121.671658
_cell_angle_beta 91.262634
_cell_angle_gamma 74.995636
_cell_volume 669.221169
_symmetry_space_group_name_H-M "P -1"
_symmetry_group_IT_number 2
_symmetry_cell_setting 'triclinic'
loop_
_space_group_symop_operation_xyz
x,y,z
-x,-y,-z
loop_
_atom_site_type_symbol
_atom_site_label
_atom_site_fract_x
_atom_site_fract_y
_atom_site_fract_z
Si Si1 0.357158 0.157816 0.453414
Si Si2 0.037778 0.780187 0.038647
Si Si3 0.114028 0.539328 0.441964
Si Si4 0.772737 0.992163 0.377534
Si Si5 0.601781 0.348295 0.286434
Si Si6 0.679792 0.389858 0.045058
Si Si7 0.991393 0.359569 0.778092
Si Si8 0.527417 0.070128 0.829654
O O1 0.235995 0.316817 0.424350
O O2 0.311564 0.022513 0.522214
O O3 0.417768 0.380941 0.565253
O O4 0.440480 0.952371 0.310238
O O5 0.010785 0.875590 0.195249
O O6 0.182544 0.657869 0.000320
O O7 0.959266 0.593498 0.934240
O O8 0.000000 0.000000 0.000000
O O9 0.088762 0.554934 0.310880
O O10 0.000000 0.500000 0.500000
O O11 0.141096 0.821534 0.542522
O O12 0.869301 0.705112 0.277460
O O13 0.692461 0.118672 0.302675
O O14 0.663077 0.381762 0.178180
O O15 0.491740 0.220500 0.223200
O O16 0.592783 0.680821 0.083376
O O17 0.630248 0.156345 0.924625
#
# Coordination Sequence:
#
# PCOD9061395 Si02
#       8
#     2   2   2   2   2   2   2   2
#     4  11  25  43  71 105 136 186 232 290 350 411
#     4  11  26  43  71 100 137 184 227 283 338 420
#     4  11  25  40  69 102 142 179 224 284 348 415
#     4  11  24  42  71 101 138 177 225 286 348 419
#     4  11  23  45  70 100 135 180 234 291 350 410
#     4  11  26  46  70  99 140 185 233 284 353 406
#     4  11  24  42  66 103 137 181 227 275 350 408
#     4  11  26  46  70  99 139 184 235 294 341 414
#
# _framework density 23.908389
#
# number of rings (size 3 to 8) (size 9 to 14) (size 15 to 20)
#    0.000    1.000    1.250    4.125    7.000    5.000 
#    2.250    0.000    0.000    0.000    0.000    0.000 
#    0.000    0.000    0.000    0.000    0.000    0.000 
#
# Total GULP energy -89446.485390 kJ/mol
# GULP energy per Si atom -5590.405337 kJ/mol
# Density = 2.385397 g / cm^3
# Si number density = 23.908389 Si / 1000 Ang^3
#
#
#
# Elastic Constant Matrix: (Units=GPa)
#
#
# Indices 1 2 3 4 5 6 
#
# 1 131.6185 33.2382 56.6880 1.3995 4.9369 9.0547
# 2 33.2382 57.1400 32.2297 -20.4498 13.1294 1.6821
# 3 56.6880 32.2297 133.4733 -16.0590 22.2194 4.7295
# 4 1.3995 -20.4498 -16.0590 43.7207 4.8024 6.4294
# 5 4.9369 13.1294 22.2194 4.8024 45.3451 -0.1121
# 6 9.0547 1.6821 4.7295 6.4294 -0.1121 42.3408
#
#
#
# Elastic Compliance Matrix: (Units=1/GPa)
#
#
# Indices 1 2 3 4 5 6 
#
# 1 0.011122 -0.006716 -0.004278 -0.005321 0.003391 -0.000817
# 2 -0.006716 0.029334 -0.000892 0.014867 -0.008904 -0.001911
# 3 -0.004278 -0.000892 0.010944 0.004442 -0.005111 -0.000960
# 4 -0.005321 0.014867 0.004442 0.033409 -0.009453 -0.005047
# 5 0.003391 -0.008904 -0.005111 -0.009453 0.027772 0.001708
# 6 -0.000817 -0.001911 -0.000960 -0.005047 0.001708 0.024747
#
#
# Mechanical properties :
#
#
# Convention : Reuss Voigt Hill
#
# Bulk Modulus (GPa) = 36.19591 62.94928 49.57259
# Shear Modulus (GPa) = 29.35872 39.61971 34.48921
#
# Velocity S-wave (km/s) = 3.50804 4.07522 3.80222
# Velocity P-wave (km/s) = 5.61967 6.96633 6.32892
#
# Compressibility (1/GPa) = 0.02762743
#
# Stress axis : x y z
#
# Youngs Moduli (GPa) = 89.91412 34.09043 91.37726
#
# Poissons Ratio (x) = 0.22896 0.39088
# Poissons Ratio (y) = 0.60389 0.08151
# Poissons Ratio (z) = 0.38462 0.03041
#
# Static dielectric constant tensor:
#      x y z
#    x 0.898720 -2.849830 0.349070 
#    y -2.849830 -6.166210 1.017310 
#    z 0.349070 1.017310 1.817700 
# 
# From -- ./inp_files/411256.got.cif
#   From: 2010.05.17/outbox.cif.g08.bks.cpg/sg2_206_cif.got.tgz:411256.got - 2010.06.03 11:33:40.
