data_PCOD9061068
_publ_section_title
;
Structure prediction by ZEFSAII (Michael W. Deem and Ramdas Pophale) SiO2 
 PCOD9061068
Probable space group: P -1
;
_chemical_formula_sum "Si O2"
_cell_formula_units_Z 16
_cell_length_a 14.142685
_cell_length_b 8.268997
_cell_length_c 6.835737
_cell_angle_alpha 107.253464
_cell_angle_beta 102.959608
_cell_angle_gamma 97.364386
_cell_volume 727.530864
_symmetry_space_group_name_H-M "P -1"
_symmetry_group_IT_number 2
_symmetry_cell_setting 'triclinic'
loop_
_space_group_symop_operation_xyz
x,y,z
-x,-y,-z
loop_
_atom_site_type_symbol
_atom_site_label
_atom_site_fract_x
_atom_site_fract_y
_atom_site_fract_z
Si Si1 0.674500 0.292191 0.796992
Si Si2 0.074089 0.944940 0.356635
Si Si3 0.836767 0.425324 0.215265
Si Si4 0.745796 0.166400 0.395416
Si Si5 0.604388 0.978439 0.956205
Si Si6 0.604886 0.594071 0.670321
Si Si7 0.015857 0.345462 0.090218
Si Si8 0.189834 0.309850 0.422520
O O1 0.680727 0.208008 0.558745
O O2 0.626599 0.459564 0.799026
O O3 0.630254 0.131924 0.861626
O O4 0.782036 0.371947 0.967602
O O5 0.148020 0.105023 0.344208
O O6 0.149718 0.853616 0.476562
O O7 0.000000 0.000000 0.500000
O O8 0.014020 0.825423 0.116638
O O9 0.767227 0.326139 0.315829
O O10 0.841241 0.619539 0.357158
O O11 0.937667 0.356008 0.230747
O O12 0.687365 0.012388 0.178513
O O13 0.598333 0.785192 0.807450
O O14 0.500000 0.000000 0.000000
O O15 0.500000 0.500000 0.500000
O O16 0.696404 0.630899 0.569993
O O17 0.122760 0.371037 0.245358
O O18 0.000000 0.500000 0.000000
#
# Coordination Sequence:
#
# PCOD9061068 Si02
#       8
#     2   2   2   2   2   2   2   2
#     4  11  24  49  76 105 150 192 248 311 375 443
#     4  12  26  42  69 109 153 194 240 309 376 445
#     4  11  23  44  72 104 141 195 241 295 370 448
#     4  11  23  46  71 102 146 191 242 302 375 439
#     4  11  28  47  76 110 144 194 254 316 374 441
#     4  12  28  49  77 110 149 199 256 310 374 444
#     4  12  24  44  72 104 146 197 243 299 376 448
#     4  12  26  43  71 107 148 189 254 304 366 451
#
# _framework density 21.992191999999999
#
# number of rings (size 3 to 8) (size 9 to 14) (size 15 to 20)
#    0.000    0.500    2.500    5.250    7.000    3.500 
#    0.000    0.000    0.000    0.000    0.000    0.000 
#    0.000    0.000    0.000    0.000    0.000    0.000 
#
# Total GULP energy -89438.340597 kJ/mol
# GULP energy per Si atom -5589.896287 kJ/mol
# Density = 2.194214 g / cm^3
# Si number density = 21.992192 Si / 1000 Ang^3
#
#
#
# Elastic Constant Matrix: (Units=GPa)
#
#
# Indices 1 2 3 4 5 6 
#
# 1 121.9404 28.0105 44.8556 15.5227 -5.3442 4.2818
# 2 28.0105 117.4551 40.5939 7.4276 -9.8035 2.6936
# 3 44.8556 40.5939 100.3885 19.7436 -12.6034 13.7495
# 4 15.5227 7.4276 19.7436 46.6907 -4.4464 -0.8305
# 5 -5.3442 -9.8035 -12.6034 -4.4464 40.8672 2.2269
# 6 4.2818 2.6936 13.7495 -0.8305 2.2269 34.6905
#
#
#
# Elastic Compliance Matrix: (Units=1/GPa)
#
#
# Indices 1 2 3 4 5 6 
#
# 1 0.010020 -0.000992 -0.003854 -0.001567 -0.000306 0.000350
# 2 -0.000992 0.010071 -0.003661 0.000399 0.001161 0.000727
# 3 -0.003854 -0.003661 0.015174 -0.004354 0.003127 -0.005559
# 4 -0.001567 0.000399 -0.004354 0.023855 0.001013 0.002394
# 5 -0.000306 0.001161 0.003127 0.001013 0.025942 -0.002933
# 6 0.000350 0.000727 -0.005559 0.002394 -0.002933 0.031176
#
#
# Mechanical properties :
#
#
# Convention : Reuss Voigt Hill
#
# Bulk Modulus (GPa) = 54.79523 62.96710 58.88116
# Shear Modulus (GPa) = 35.88427 39.53795 37.71111
#
# Velocity S-wave (km/s) = 4.04379 4.24467 4.14545
# Velocity P-wave (km/s) = 6.83907 7.26062 7.05300
#
# Compressibility (1/GPa) = 0.01824976
#
# Stress axis : x y z
#
# Youngs Moduli (GPa) = 99.79926 99.29637 65.90104
#
# Poissons Ratio (x) = 0.09850 0.25400
# Poissons Ratio (y) = 0.09900 0.24129
# Poissons Ratio (z) = 0.38466 0.36357
#
# Static dielectric constant tensor:
#      x y z
#    x 1.835260 -0.029420 -0.037320 
#    y -0.029420 1.817850 0.039920 
#    z -0.037320 0.039920 1.837160 
# 
# From -- ./inp_files/47781.got.cif
#   From: 2010.05.17/outbox.cif.g08.bks.cpg/sg2_24_cif.got.tgz:47781.got - 2010.06.03 11:33:40.
