data_PCOD9061543
_publ_section_title
;
Structure prediction by ZEFSAII (Michael W. Deem and Ramdas Pophale) SiO2 
 PCOD9061543
Probable space group: P -1
;
_chemical_formula_sum "Si O2"
_cell_formula_units_Z 14
_cell_length_a 19.144504
_cell_length_b 15.325682
_cell_length_c 8.675640
_cell_angle_alpha 133.105228
_cell_angle_beta 47.800756
_cell_angle_gamma 160.136242
_cell_volume 627.130782
_symmetry_space_group_name_H-M "P -1"
_symmetry_group_IT_number 2
_symmetry_cell_setting 'triclinic'
loop_
_space_group_symop_operation_xyz
x,y,z
-x,-y,-z
loop_
_atom_site_type_symbol
_atom_site_label
_atom_site_fract_x
_atom_site_fract_y
_atom_site_fract_z
Si Si1 0.013894 0.502645 0.666814
Si Si2 0.668533 0.345640 0.555650
Si Si3 0.261636 0.195183 0.962686
Si Si4 0.297240 0.021460 0.889550
Si Si5 0.440083 0.065415 0.231407
Si Si6 0.982731 0.072092 0.306756
Si Si7 0.625123 0.765346 0.658769
O O1 0.192133 0.611163 0.572448
O O2 0.000000 0.500000 0.500000
O O3 0.800062 0.218898 0.711229
O O4 0.097506 0.722128 0.874247
O O5 0.488254 0.153928 0.717416
O O6 0.826486 0.633968 0.682287
O O7 0.570047 0.233098 0.396431
O O8 0.099414 0.079785 0.175811
O O9 0.500000 0.500000 0.000000
O O10 0.245666 0.037945 0.833092
O O11 0.182362 0.130942 0.831033
O O12 0.368272 0.191691 0.120998
O O13 0.456246 0.205050 0.271690
O O14 0.500000 0.000000 0.000000
O O15 0.856346 0.995441 0.533959
O O16 0.500000 0.500000 0.500000
#
# Coordination Sequence:
#
# PCOD9061543 Si02
#       7
#     2   2   2   2   2   2   2
#     4  12  26  48  77 112 146 189 256 308 372 449
#     4  12  25  48  76 106 145 194 250 301 373 443
#     4  11  23  45  73 101 141 194 244 299 364 441
#     4  12  26  44  76 107 148 194 248 308 370 444
#     4  12  29  50  78 108 153 200 247 314 374 444
#     4  11  25  44  74 103 143 192 244 301 371 437
#     4  12  29  49  71 112 156 196 251 310 378 444
#
# _framework density 22.323893999999999
#
# number of rings (size 3 to 8) (size 9 to 14) (size 15 to 20)
#    0.000    0.286    4.286    3.857    8.000    2.857 
#    0.000    0.000    0.000    0.000    0.000    0.000 
#    0.000    0.000    0.000    0.000    0.000    0.000 
#
# Total GULP energy -78304.003289 kJ/mol
# GULP energy per Si atom -5593.143092 kJ/mol
# Density = 2.227308 g / cm^3
# Si number density = 22.323894 Si / 1000 Ang^3
#
#
#
# Elastic Constant Matrix: (Units=GPa)
#
#
# Indices 1 2 3 4 5 6 
#
# 1 109.5469 50.8932 34.4978 -4.5473 -22.1060 12.5182
# 2 50.8932 117.7991 27.3079 17.9873 -6.1557 5.8614
# 3 34.4978 27.3079 112.0424 3.3415 -5.6318 12.1142
# 4 -4.5473 17.9873 3.3415 47.4948 2.7092 -10.1676
# 5 -22.1060 -6.1557 -5.6318 2.7092 37.3947 2.8646
# 6 12.5182 5.8614 12.1142 -10.1676 2.8646 38.8975
#
#
#
# Elastic Compliance Matrix: (Units=1/GPa)
#
#
# Indices 1 2 3 4 5 6 
#
# 1 0.014368 -0.005509 -0.002485 0.002609 0.007244 -0.002872
# 2 -0.005509 0.011874 -0.000992 -0.005104 -0.001007 -0.000968
# 3 -0.002485 -0.000992 0.010252 -0.001142 0.000190 -0.002556
# 4 0.002609 -0.005104 -0.001142 0.024904 -0.001805 0.006928
# 5 0.007244 -0.001007 0.000190 -0.001805 0.031402 -0.005023
# 6 -0.002872 -0.000968 -0.002556 0.006928 -0.005023 0.029756
#
#
# Mechanical properties :
#
#
# Convention : Reuss Voigt Hill
#
# Bulk Modulus (GPa) = 53.98306 62.75401 58.36853
# Shear Modulus (GPa) = 34.08307 39.87005 36.97656
#
# Velocity S-wave (km/s) = 3.91161 4.23067 4.07426
# Velocity P-wave (km/s) = 6.68095 7.21363 6.95240
#
# Compressibility (1/GPa) = 0.01852433
#
# Stress axis : x y z
#
# Youngs Moduli (GPa) = 69.59756 84.22002 97.54282
#
# Poissons Ratio (x) = 0.46393 0.24235
# Poissons Ratio (y) = 0.38338 0.09673
# Poissons Ratio (z) = 0.17292 0.08352
#
# Static dielectric constant tensor:
#      x y z
#    x 1.845200 -0.029450 -0.043400 
#    y -0.029450 1.799430 0.023700 
#    z -0.043400 0.023700 1.914180 
# 
# From -- ./inp_files/46372.got.cif
#   From: 2010.05.17/outbox.cif.g08.bks.cpg/sg2_24_cif.got.tgz:46372.got - 2010.06.03 11:33:40.
