data_PCOD9061978
_publ_section_title
;
Structure prediction by ZEFSAII (Michael W. Deem and Ramdas Pophale) SiO2 
 PCOD9061978
Probable space group: P -1
;
_chemical_formula_sum "Si O2"
_cell_formula_units_Z 16
_cell_length_a 8.588009
_cell_length_b 8.870783
_cell_length_c 15.004687
_cell_angle_alpha 70.191149
_cell_angle_beta 81.246493
_cell_angle_gamma 38.570214
_cell_volume 658.008929
_symmetry_space_group_name_H-M "P -1"
_symmetry_group_IT_number 2
_symmetry_cell_setting 'triclinic'
loop_
_space_group_symop_operation_xyz
x,y,z
-x,-y,-z
loop_
_atom_site_type_symbol
_atom_site_label
_atom_site_fract_x
_atom_site_fract_y
_atom_site_fract_z
Si Si1 0.403214 0.854084 0.722728
Si Si2 0.571937 0.536431 0.624016
Si Si3 0.086478 0.714874 0.636700
Si Si4 0.756761 0.689417 0.050522
Si Si5 0.000412 0.308510 0.530233
Si Si6 0.673720 0.383291 0.094779
Si Si7 0.168281 0.983213 0.214815
Si Si8 0.356257 0.190976 0.780483
O O1 0.594845 0.669969 0.661723
O O2 0.399344 0.688951 0.809177
O O3 0.433737 0.969438 0.767668
O O4 0.153108 0.108595 0.638908
O O5 0.285268 0.700448 0.607605
O O6 0.714241 0.469990 0.535267
O O7 0.709745 0.279326 0.712516
O O8 0.902258 0.835033 0.544632
O O9 0.234910 0.426845 0.683799
O O10 0.967359 0.841965 0.718408
O O11 0.667002 0.575541 0.082073
O O12 0.834642 0.679312 0.146029
O O13 0.000000 0.500000 0.000000
O O14 0.500000 0.000000 0.000000
O O15 0.000000 0.500000 0.500000
O O16 0.978971 0.110525 0.122720
O O17 0.500000 0.500000 0.000000
O O18 0.383233 0.938130 0.182739
#
# Coordination Sequence:
#
# PCOD9061978 Si02
#       8
#     2   2   2   2   2   2   2   2
#     4  12  26  49  72 116 157 196 264 323 387 469
#     4  11  24  45  73 106 159 198 267 320 397 467
#     4  11  23  46  76 105 149 208 259 317 394 478
#     4  12  27  53  81 116 156 210 273 328 406 489
#     4  12  26  44  72 116 157 206 257 323 395 471
#     4  12  25  51  79 113 151 198 262 330 400 472
#     4  11  23  49  76 108 153 208 265 323 400 485
#     4  11  25  46  76 108 156 204 257 324 395 474
#
# _framework density 24.315778000000002
#
# number of rings (size 3 to 8) (size 9 to 14) (size 15 to 20)
#    0.000    0.500    5.000    2.625    1.750    4.500 
#    2.250    5.000    0.000    0.000    0.000    0.000 
#    0.000    0.000    0.000    0.000    0.000    0.000 
#
# Total GULP energy -89385.893318 kJ/mol
# GULP energy per Si atom -5586.618332 kJ/mol
# Density = 2.426043 g / cm^3
# Si number density = 24.315778 Si / 1000 Ang^3
#
#
#
# Elastic Constant Matrix: (Units=GPa)
#
#
# Indices 1 2 3 4 5 6 
#
# 1 88.3883 48.6440 50.7680 9.1521 -1.8978 18.0780
# 2 48.6440 112.1064 36.7682 10.6653 -11.0396 26.9726
# 3 50.7680 36.7682 130.0206 3.0969 4.9230 3.0443
# 4 9.1521 10.6653 3.0969 46.4250 8.4550 -2.4524
# 5 -1.8978 -11.0396 4.9230 8.4550 42.7465 -3.4880
# 6 18.0780 26.9726 3.0443 -2.4524 -3.4880 44.2106
#
#
#
# Elastic Compliance Matrix: (Units=1/GPa)
#
#
# Indices 1 2 3 4 5 6 
#
# 1 0.018345 -0.004807 -0.005659 -0.002426 0.000355 -0.004285
# 2 -0.004807 0.013790 -0.001943 -0.003087 0.003677 -0.006195
# 3 -0.005659 -0.001943 0.010430 0.001374 -0.002006 0.002699
# 4 -0.002426 -0.003087 0.001374 0.023827 -0.005477 0.003670
# 5 0.000355 0.003677 -0.002006 -0.005477 0.025630 -0.000532
# 6 -0.004285 -0.006195 0.002699 0.003670 -0.000532 0.028126
#
#
# Mechanical properties :
#
#
# Convention : Reuss Voigt Hill
#
# Bulk Modulus (GPa) = 56.35043 66.98619 61.66831
# Shear Modulus (GPa) = 33.13848 39.63209 36.38528
#
# Velocity S-wave (km/s) = 3.69567 4.04157 3.87248
# Velocity P-wave (km/s) = 6.43703 7.02761 6.73879
#
# Compressibility (1/GPa) = 0.01774609
#
# Stress axis : x y z
#
# Youngs Moduli (GPa) = 54.51083 72.51891 95.87593
#
# Poissons Ratio (x) = 0.34862 0.54255
# Poissons Ratio (y) = 0.26205 0.18629
# Poissons Ratio (z) = 0.30847 0.14091
#
# Static dielectric constant tensor:
#      x y z
#    x 1.932230 -0.038590 0.017510 
#    y -0.038590 1.986210 -0.036950 
#    z 0.017510 -0.036950 2.016650 
# 
# From -- ./inp_files/494640.got.cif
#   From: 2010.05.17/outbox.cif.g08.bks.cpg/sg2_248_cif.got.tgz:494640.got - 2010.06.03 11:33:40.
