data_PCOD9061790
_publ_section_title
;
Structure prediction by ZEFSAII (Michael W. Deem and Ramdas Pophale) SiO2 
 PCOD9061790
Probable space group: P -1
;
_chemical_formula_sum "Si O2"
_cell_formula_units_Z 16
_cell_length_a 23.815027
_cell_length_b 8.009087
_cell_length_c 7.595625
_cell_angle_alpha 127.315144
_cell_angle_beta 126.588349
_cell_angle_gamma 36.402793
_cell_volume 665.600581
_symmetry_space_group_name_H-M "P -1"
_symmetry_group_IT_number 2
_symmetry_cell_setting 'triclinic'
loop_
_space_group_symop_operation_xyz
x,y,z
-x,-y,-z
loop_
_atom_site_type_symbol
_atom_site_label
_atom_site_fract_x
_atom_site_fract_y
_atom_site_fract_z
Si Si1 0.405635 0.321473 0.587388
Si Si2 0.690918 0.072937 0.351500
Si Si3 0.503286 0.223001 0.062297
Si Si4 0.759009 0.655103 0.780292
Si Si5 0.094239 0.266357 0.405496
Si Si6 0.811673 0.293102 0.988645
Si Si7 0.674216 0.196604 0.778327
Si Si8 0.900109 0.329621 0.520886
O O1 0.365929 0.588354 0.561168
O O2 0.437176 0.354955 0.850232
O O3 0.322612 0.323149 0.442049
O O4 0.500000 0.000000 0.500000
O O5 0.694704 0.012084 0.527369
O O6 0.803527 0.894220 0.404072
O O7 0.612570 0.069828 0.129285
O O8 0.440149 0.520209 0.245201
O O9 0.500000 0.000000 0.000000
O O10 0.777562 0.533451 0.933467
O O11 0.850553 0.424280 0.678657
O O12 0.719922 0.974209 0.885420
O O13 0.084585 0.459716 0.360084
O O14 0.000000 0.500000 0.500000
O O15 0.110966 0.010904 0.172133
O O16 0.730439 0.296081 0.904953
O O17 0.845131 0.341927 0.258047
O O18 0.000000 0.000000 0.500000
#
# Coordination Sequence:
#
# PCOD9061790 Si02
#       8
#     2   2   2   2   2   2   2   2
#     4  12  25  43  69 108 153 195 254 305 380 463
#     4  11  23  46  70 105 152 193 253 315 378 460
#     4  12  26  41  71 108 152 204 249 314 388 461
#     4  12  24  50  77 110 152 204 253 322 384 464
#     4  11  25  50  77 113 154 201 263 328 382 459
#     4  11  26  51  79 112 155 202 256 323 395 459
#     4  11  23  48  72 110 149 194 258 309 384 469
#     4  12  28  49  80 115 153 198 268 324 395 464
#
# _framework density 24.038440000000001
#
# number of rings (size 3 to 8) (size 9 to 14) (size 15 to 20)
#    0.000    0.500    5.000    4.500    1.750    3.500 
#    4.500    0.000    0.000    0.000    0.000    0.000 
#    0.000    0.000    0.000    0.000    0.000    0.000 
#
# Total GULP energy -89506.789491 kJ/mol
# GULP energy per Si atom -5594.174343 kJ/mol
# Density = 2.398373 g / cm^3
# Si number density = 24.038440 Si / 1000 Ang^3
#
#
#
# Elastic Constant Matrix: (Units=GPa)
#
#
# Indices 1 2 3 4 5 6 
#
# 1 130.7981 72.8926 20.6074 0.1484 -2.5079 3.8470
# 2 72.8926 175.5861 19.6653 17.2359 -4.8254 0.1855
# 3 20.6074 19.6653 80.2839 -6.3063 -4.3154 2.9954
# 4 0.1484 17.2359 -6.3063 44.2852 2.3649 -10.1221
# 5 -2.5079 -4.8254 -4.3154 2.3649 17.9683 3.9443
# 6 3.8470 0.1855 2.9954 -10.1221 3.9443 61.4331
#
#
#
# Elastic Compliance Matrix: (Units=1/GPa)
#
#
# Indices 1 2 3 4 5 6 
#
# 1 0.010235 -0.004217 -0.001486 0.001330 -0.000164 -0.000326
# 2 -0.004217 0.007946 -0.001019 -0.003410 0.001835 -0.000390
# 3 -0.001486 -0.001019 0.013402 0.002088 0.002546 -0.000377
# 4 0.001330 -0.003410 0.002088 0.025426 -0.004520 0.004305
# 5 -0.000164 0.001835 0.002546 -0.004520 0.058342 -0.004610
# 6 -0.000326 -0.000390 -0.000377 0.004305 -0.004610 0.017323
#
#
# Mechanical properties :
#
#
# Convention : Reuss Voigt Hill
#
# Bulk Modulus (GPa) = 55.13247 68.11095 61.62171
# Shear Modulus (GPa) = 32.85955 42.97083 37.91519
#
# Velocity S-wave (km/s) = 3.70125 4.23257 3.97580
# Velocity P-wave (km/s) = 6.42266 7.23063 6.83859
#
# Compressibility (1/GPa) = 0.01813813
#
# Stress axis : x y z
#
# Youngs Moduli (GPa) = 97.70818 125.85686 74.61755
#
# Poissons Ratio (x) = 0.53074 0.11091
# Poissons Ratio (y) = 0.41203 0.07600
# Poissons Ratio (z) = 0.14523 0.12819
#
# Static dielectric constant tensor:
#      x y z
#    x 0.427280 1.751590 2.315920 
#    y 1.751590 -0.116950 -2.745980 
#    z 2.315920 -2.745980 -1.677910 
# 
# From -- ./inp_files/356544.got.cif
#   From: 2010.05.17/outbox.cif.g08.bks.cpg/sg2_179_cif.got.tgz:356544.got - 2010.06.03 11:33:40.
