data_PCOD9061707
_publ_section_title
;
Structure prediction by ZEFSAII (Michael W. Deem and Ramdas Pophale) SiO2 
 PCOD9061707
Probable space group: P -1
;
_chemical_formula_sum "Si O2"
_cell_formula_units_Z 16
_cell_length_a 10.208922
_cell_length_b 5.133504
_cell_length_c 17.213720
_cell_angle_alpha 129.330690
_cell_angle_beta 83.127797
_cell_angle_gamma 95.125268
_cell_volume 692.677021
_symmetry_space_group_name_H-M "P -1"
_symmetry_group_IT_number 2
_symmetry_cell_setting 'triclinic'
loop_
_space_group_symop_operation_xyz
x,y,z
-x,-y,-z
loop_
_atom_site_type_symbol
_atom_site_label
_atom_site_fract_x
_atom_site_fract_y
_atom_site_fract_z
Si Si1 0.339971 0.293810 0.140784
Si Si2 0.304087 0.807335 0.358505
Si Si3 0.078276 0.947022 0.064582
Si Si4 0.846366 0.001931 0.339069
Si Si5 0.568611 0.862247 0.066633
Si Si6 0.633998 0.430818 0.524667
Si Si7 0.008468 0.646953 0.385961
Si Si8 0.180720 0.238402 0.871885
O O1 0.355306 0.663863 0.245352
O O2 0.184779 0.216000 0.136065
O O3 0.450581 0.100141 0.144935
O O4 0.375447 0.139955 0.025097
O O5 0.385862 0.698430 0.409339
O O6 0.163074 0.630192 0.353936
O O7 0.292051 0.205745 0.421644
O O8 0.963248 0.918268 0.130117
O O9 0.160359 0.608527 0.979881
O O10 0.000000 0.000000 0.000000
O O11 0.725440 0.155893 0.424675
O O12 0.943935 0.320488 0.370881
O O13 0.923799 0.728427 0.331333
O O14 0.796786 0.810347 0.229367
O O15 0.694899 0.908387 0.120471
O O16 0.500000 0.500000 0.000000
O O17 0.500000 0.500000 0.500000
O O18 0.000000 0.000000 0.500000
#
# Coordination Sequence:
#
# PCOD9061707 Si02
#       8
#     2   2   2   2   2   2   2   2
#     4  11  26  43  73  98 138 183 232 288 348 417
#     4  12  27  45  77 102 137 189 230 295 350 414
#     4  11  23  46  64 103 140 175 231 290 344 414
#     4  12  26  44  73 105 139 187 227 295 347 422
#     4  11  24  47  65 101 138 180 232 285 342 423
#     4  12  27  49  67 105 145 184 239 285 344 419
#     4  12  23  47  71 103 140 176 236 292 353 400
#     4  11  26  40  74  98 140 186 227 287 355 413
#
# _framework density 23.098787999999999
#
# number of rings (size 3 to 8) (size 9 to 14) (size 15 to 20)
#    0.000    0.500    5.000    2.250    7.000    0.000 
#    0.000    0.000    0.000    0.000    0.000    0.000 
#    0.000    0.000    0.000    0.000    0.000    0.000 
#
# Total GULP energy -89322.986722 kJ/mol
# GULP energy per Si atom -5582.686670 kJ/mol
# Density = 2.304621 g / cm^3
# Si number density = 23.098788 Si / 1000 Ang^3
#
#
#
# Elastic Constant Matrix: (Units=GPa)
#
#
# Indices 1 2 3 4 5 6 
#
# 1 89.1402 10.5050 13.4785 -3.0604 10.5221 -14.4250
# 2 10.5050 57.1075 -5.1206 -8.9618 2.0266 -7.5353
# 3 13.4785 -5.1206 99.4104 -14.0818 11.0619 -18.1268
# 4 -3.0604 -8.9618 -14.0818 24.9573 -11.9317 5.3536
# 5 10.5221 2.0266 11.0619 -11.9317 13.7394 -3.4869
# 6 -14.4250 -7.5353 -18.1268 5.3536 -3.4869 38.0518
#
#
#
# Elastic Compliance Matrix: (Units=1/GPa)
#
#
# Indices 1 2 3 4 5 6 
#
# 1 0.013874 -0.002778 -0.000679 -0.008006 -0.015585 0.004084
# 2 -0.002778 0.020246 0.002804 0.011467 0.007700 0.003384
# 3 -0.000679 0.002804 0.012395 0.004649 -0.004532 0.005133
# 4 -0.008006 0.011467 0.004649 0.079477 0.068848 -0.003423
# 5 -0.015585 0.007700 -0.004532 0.068848 0.146305 -0.002822
# 6 0.004084 0.003384 0.005133 -0.003423 -0.002822 0.031166
#
#
# Mechanical properties :
#
#
# Convention : Reuss Voigt Hill
#
# Bulk Modulus (GPa) = 22.11949 31.48711 26.80330
# Shear Modulus (GPa) = 15.63288 30.46938 23.05113
#
# Velocity S-wave (km/s) = 2.60433 3.63587 3.16244
# Velocity P-wave (km/s) = 4.31743 5.59349 4.99637
#
# Compressibility (1/GPa) = 0.04520901
#
# Stress axis : x y z
#
# Youngs Moduli (GPa) = 72.07718 49.39253 80.67962
#
# Poissons Ratio (x) = 0.13719 0.05481
# Poissons Ratio (y) = 0.20020 -0.22623
# Poissons Ratio (z) = 0.04897 -0.13850
#
# Static dielectric constant tensor:
#      x y z
#    x 1.928220 -0.142960 0.063130 
#    y -0.142960 1.081960 0.264800 
#    z 0.063130 0.264800 1.705910 
# 
# From -- ./inp_files/46263.got.cif
#   From: 2010.05.17/outbox.cif.g08.bks.cpg/sg2_24_cif.got.tgz:46263.got - 2010.06.03 11:33:40.
