data_PCOD9061677
_publ_section_title
;
Structure prediction by ZEFSAII (Michael W. Deem and Ramdas Pophale) SiO2 
 PCOD9061677
Probable space group: P -1
;
_chemical_formula_sum "Si O2"
_cell_formula_units_Z 12
_cell_length_a 9.966811
_cell_length_b 8.916998
_cell_length_c 13.895195
_cell_angle_alpha 122.159812
_cell_angle_beta 33.758401
_cell_angle_gamma 105.945988
_cell_volume 542.729884
_symmetry_space_group_name_H-M "P -1"
_symmetry_group_IT_number 2
_symmetry_cell_setting 'triclinic'
loop_
_space_group_symop_operation_xyz
x,y,z
-x,-y,-z
loop_
_atom_site_type_symbol
_atom_site_label
_atom_site_fract_x
_atom_site_fract_y
_atom_site_fract_z
Si Si1 0.203578 0.390025 0.419747
Si Si2 0.248416 0.692241 0.001132
Si Si3 0.995760 0.813710 0.991458
Si Si4 0.568767 0.008877 0.573256
Si Si5 0.083084 0.023518 0.349894
Si Si6 0.847313 0.576188 0.315736
O O1 0.110856 0.444686 0.602426
O O2 0.000000 0.500000 0.500000
O O3 0.224071 0.173372 0.320248
O O4 0.471586 0.416726 0.246002
O O5 0.080693 0.804553 0.048911
O O6 0.089626 0.577490 0.106820
O O7 0.263428 0.833888 0.124962
O O8 0.186366 0.615872 0.765634
O O9 0.691989 0.846317 0.175833
O O10 0.000000 0.000000 0.000000
O O11 0.647087 0.791513 0.491672
O O12 0.500000 0.000000 0.500000
O O13 0.812151 0.072891 0.470252
O O14 0.000000 0.000000 0.500000
#
# Coordination Sequence:
#
# PCOD9061677 Si02
#       6
#     2   2   2   2   2   2
#     4  12  28  44  72 109 145 196 245 304 368 442
#     4  11  25  48  73 101 148 197 245 305 366 435
#     4  12  27  44  76 111 145 195 247 307 373 437
#     4  11  23  45  77 104 141 199 241 294 372 428
#     4  11  23  47  73 101 149 192 242 301 365 432
#     4  11  26  50  71 110 151 189 250 309 360 446
#
# _framework density 22.110448000000002
#
# number of rings (size 3 to 8) (size 9 to 14) (size 15 to 20)
#    0.000    0.667    6.667    2.000    4.667    4.667 
#    0.000    0.000    0.000    0.000    0.000    0.000 
#    0.000    0.000    0.000    0.000    0.000    0.000 
#
# Total GULP energy -67018.932171 kJ/mol
# GULP energy per Si atom -5584.911014 kJ/mol
# Density = 2.206012 g / cm^3
# Si number density = 22.110448 Si / 1000 Ang^3
#
#
#
# Elastic Constant Matrix: (Units=GPa)
#
#
# Indices 1 2 3 4 5 6 
#
# 1 113.3308 20.8126 36.3580 -13.4295 19.2209 -30.1911
# 2 20.8126 76.3091 40.7936 1.9830 27.2323 -24.8389
# 3 36.3580 40.7936 76.7140 -3.4238 -5.5080 -20.6724
# 4 -13.4295 1.9830 -3.4238 46.2027 9.3200 8.7327
# 5 19.2209 27.2323 -5.5080 9.3200 49.1593 -1.8516
# 6 -30.1911 -24.8389 -20.6724 8.7327 -1.8516 38.2369
#
#
#
# Elastic Compliance Matrix: (Units=1/GPa)
#
#
# Indices 1 2 3 4 5 6 
#
# 1 0.016240 0.009527 -0.010320 0.003936 -0.013082 0.011900
# 2 0.009527 0.037191 -0.021075 0.001370 -0.026244 0.018704
# 3 -0.010320 -0.021075 0.029198 -0.003004 0.019384 -0.004429
# 4 0.003936 0.001370 -0.003004 0.024696 -0.007453 -0.003627
# 5 -0.013082 -0.026244 0.019384 -0.007453 0.043086 -0.013109
# 6 0.011900 0.018704 -0.004429 -0.003627 -0.013109 0.045499
#
#
# Mechanical properties :
#
#
# Convention : Reuss Voigt Hill
#
# Bulk Modulus (GPa) = 25.71142 51.36471 38.53807
# Shear Modulus (GPa) = 19.79351 37.94575 28.86963
#
# Velocity S-wave (km/s) = 2.99525 4.14719 3.61737
# Velocity P-wave (km/s) = 4.85962 6.79806 5.90887
#
# Compressibility (1/GPa) = 0.03889323
#
# Stress axis : x y z
#
# Youngs Moduli (GPa) = 61.57579 26.88848 34.24938
#
# Poissons Ratio (x) = -0.25617 0.35345
# Poissons Ratio (y) = -0.58665 0.72180
# Poissons Ratio (z) = 0.63546 0.56667
#
# Static dielectric constant tensor:
#      x y z
#    x 1.779150 0.040360 -0.029240 
#    y 0.040360 1.818920 -0.007910 
#    z -0.029240 -0.007910 1.888610 
# 
# From -- ./inp_files/183706.got.cif
#   From: 2010.05.17/outbox.cif.g08.bks.cpg/sg2_92_cif.got.tgz:183706.got - 2010.06.03 11:33:40.
