data_PCOD9061067
_publ_section_title
;
Structure prediction by ZEFSAII (Michael W. Deem and Ramdas Pophale) SiO2 
 PCOD9061067
Probable space group: P -1
;
_chemical_formula_sum "Si O2"
_cell_formula_units_Z 14
_cell_length_a 8.610174
_cell_length_b 9.159996
_cell_length_c 12.753889
_cell_angle_alpha 93.078161
_cell_angle_beta 118.429320
_cell_angle_gamma 48.711478
_cell_volume 610.868013
_symmetry_space_group_name_H-M "P -1"
_symmetry_group_IT_number 2
_symmetry_cell_setting 'triclinic'
loop_
_space_group_symop_operation_xyz
x,y,z
-x,-y,-z
loop_
_atom_site_type_symbol
_atom_site_label
_atom_site_fract_x
_atom_site_fract_y
_atom_site_fract_z
Si Si1 0.797387 0.271953 0.079248
Si Si2 0.319770 0.091908 0.544128
Si Si3 0.592363 0.814535 0.218469
Si Si4 0.321043 0.753623 0.544354
Si Si5 0.110992 0.655690 0.316194
Si Si6 0.905107 0.869763 0.039232
Si Si7 0.794594 0.390811 0.307918
O O1 0.889695 0.261967 0.224850
O O2 0.862616 0.063601 0.069634
O O3 0.500000 0.500000 0.000000
O O4 0.935488 0.257010 0.020820
O O5 0.463677 0.085573 0.683173
O O6 0.039002 0.320640 0.437543
O O7 0.500000 0.000000 0.500000
O O8 0.260993 0.958505 0.548791
O O9 0.594145 0.638063 0.223846
O O10 0.874679 0.701249 0.279574
O O11 0.385820 0.998374 0.077572
O O12 0.144003 0.783568 0.400368
O O13 0.611925 0.580408 0.590086
O O14 0.310821 0.662425 0.643553
O O15 0.050879 0.713680 0.177192
#
# Coordination Sequence:
#
# PCOD9061067 Si02
#       7
#     2   2   2   2   2   2   2
#     4  11  23  44  72 104 141 188 246 289 355 425
#     4  12  26  43  68 106 143 185 239 300 362 424
#     4  12  26  45  69 107 147 187 236 297 369 421
#     4  11  26  45  74 104 137 189 246 294 358 427
#     4  11  25  46  71 100 145 187 241 299 356 429
#     4  11  25  45  72 107 145 191 237 297 360 430
#     4  12  24  45  74 102 143 187 240 299 354 431
#
# _framework density 22.918209000000001
#
# number of rings (size 3 to 8) (size 9 to 14) (size 15 to 20)
#    0.000    0.571    2.857    4.714    8.000    0.000 
#    0.000    1.429    0.000    0.000    0.000    0.000 
#    0.000    0.000    0.000    0.000    0.000    0.000 
#
# Total GULP energy -78254.552112 kJ/mol
# GULP energy per Si atom -5589.610865 kJ/mol
# Density = 2.286605 g / cm^3
# Si number density = 22.918209 Si / 1000 Ang^3
#
#
#
# Elastic Constant Matrix: (Units=GPa)
#
#
# Indices 1 2 3 4 5 6 
#
# 1 104.7505 20.9985 37.1536 3.7367 -7.9214 -19.3235
# 2 20.9985 68.9517 20.1823 12.5749 6.5555 -9.2619
# 3 37.1536 20.1823 143.8668 22.6900 -6.5815 -0.6136
# 4 3.7367 12.5749 22.6900 45.5685 -13.0447 1.2857
# 5 -7.9214 6.5555 -6.5815 -13.0447 28.9169 2.2048
# 6 -19.3235 -9.2619 -0.6136 1.2857 2.2048 25.6808
#
#
#
# Elastic Compliance Matrix: (Units=1/GPa)
#
#
# Indices 1 2 3 4 5 6 
#
# 1 0.012900 -0.002644 -0.003076 0.002036 0.003722 0.008258
# 2 -0.002644 0.018543 -0.001194 -0.006985 -0.008791 0.005774
# 3 -0.003076 -0.001194 0.008465 -0.003591 -0.000086 -0.002356
# 4 0.002036 -0.006985 -0.003591 0.029932 0.015121 -0.003870
# 5 0.003722 -0.008791 -0.000086 0.015121 0.044776 -0.004973
# 6 0.008258 0.005774 -0.002356 -0.003870 -0.004973 0.047800
#
#
# Mechanical properties :
#
#
# Convention : Reuss Voigt Hill
#
# Bulk Modulus (GPa) = 38.34489 52.69307 45.51898
# Shear Modulus (GPa) = 27.03620 35.98220 31.50920
#
# Velocity S-wave (km/s) = 3.43838 3.96666 3.71193
# Velocity P-wave (km/s) = 5.70357 6.63482 6.18674
#
# Compressibility (1/GPa) = 0.02607909
#
# Stress axis : x y z
#
# Youngs Moduli (GPa) = 77.52114 53.92871 118.12986
#
# Poissons Ratio (x) = 0.14259 0.36337
# Poissons Ratio (y) = 0.20497 0.14109
# Poissons Ratio (z) = 0.23846 0.06441
#
# Static dielectric constant tensor:
#      x y z
#    x 1.878080 -0.013140 -0.002850 
#    y -0.013140 1.881500 -0.001550 
#    z -0.002850 -0.001550 1.859300 
# 
# From -- ./inp_files/352450.got.cif
#   From: 2010.05.17/outbox.cif.g08.bks.cpg/sg2_177_cif.got.tgz:352450.got - 2010.06.03 11:33:40.
