data_PCOD9061122
_publ_section_title
;
Structure prediction by ZEFSAII (Michael W. Deem and Ramdas Pophale) SiO2 
 PCOD9061122
Probable space group: P -1
;
_chemical_formula_sum "Si O2"
_cell_formula_units_Z 15
_cell_length_a 22.513889
_cell_length_b 8.569288
_cell_length_c 13.574905
_cell_angle_alpha 64.849633
_cell_angle_beta 151.930955
_cell_angle_gamma 135.410363
_cell_volume 681.671759
_symmetry_space_group_name_H-M "P -1"
_symmetry_group_IT_number 2
_symmetry_cell_setting 'triclinic'
loop_
_space_group_symop_operation_xyz
x,y,z
-x,-y,-z
loop_
_atom_site_type_symbol
_atom_site_label
_atom_site_fract_x
_atom_site_fract_y
_atom_site_fract_z
Si Si1 0.095543 0.790269 0.271058
Si Si2 0.035510 0.872243 0.515976
Si Si3 0.487963 0.310384 0.094198
Si Si4 0.077526 0.124635 0.859830
Si Si5 0.705003 0.278844 0.280990
Si Si6 0.459382 0.445219 0.570051
Si Si7 0.000000 0.500000 0.000000
Si Si8 0.734763 0.505480 0.592699
O O1 0.171598 0.737066 0.478638
O O2 0.944763 0.759471 0.116994
O O3 0.295521 0.120562 0.444705
O O4 0.006129 0.602329 0.093107
O O5 0.043426 0.941887 0.396053
O O6 0.850577 0.540120 0.349965
O O7 0.000000 0.000000 0.500000
O O8 0.246311 0.007477 0.820223
O O9 0.628795 0.327038 0.239964
O O10 0.579019 0.413427 0.308381
O O11 0.500000 0.500000 0.000000
O O12 0.310982 0.340828 0.109977
O O13 0.962735 0.828999 0.811766
O O14 0.500000 0.000000 0.000000
O O15 0.500000 0.500000 0.500000
O O16 0.355781 0.509221 0.438221
O O17 0.773616 0.345554 0.689148
#
# Coordination Sequence:
#
# PCOD9061122 Si02
#       8
#     2   2   2   2   2   2   1   2
#     4  11  26  46  69 101 145 189 231 306 361 419
#     4  12  24  41  74 108 141 191 242 288 365 447
#     4  12  23  44  70 104 144 187 240 292 362 430
#     4  11  23  44  73 101 141 185 239 291 363 433
#     4  12  26  44  71 109 148 187 234 304 367 425
#     4  11  24  45  72 101 131 187 248 289 356 434
#     4  12  24  48  68  96 142 190 240 284 364 412
#     4  11  24  45  73 103 141 189 230 306 352 429
#
# _framework density 22.004725000000001
#
# number of rings (size 3 to 8) (size 9 to 14) (size 15 to 20)
#    0.000    0.533    4.000    4.000    1.867    5.333 
#    2.400    3.333    0.000    0.000    0.000    0.000 
#    0.000    0.000    0.000    0.000    0.000    0.000 
#
# Total GULP energy -83657.279116 kJ/mol
# GULP energy per Si atom -5577.151941 kJ/mol
# Density = 2.195464 g / cm^3
# Si number density = 22.004725 Si / 1000 Ang^3
#
#
#
# Elastic Constant Matrix: (Units=GPa)
#
#
# Indices 1 2 3 4 5 6 
#
# 1 107.4446 -8.9796 3.2351 4.5526 1.0541 10.3897
# 2 -8.9796 29.4875 3.1633 13.8969 5.5832 19.1570
# 3 3.2351 3.1633 101.2974 3.7984 1.6960 8.0607
# 4 4.5526 13.8969 3.7984 32.2965 6.6875 -0.7551
# 5 1.0541 5.5832 1.6960 6.6875 47.1485 -1.2615
# 6 10.3897 19.1570 8.0607 -0.7551 -1.2615 23.9553
#
#
#
# Elastic Compliance Matrix: (Units=1/GPa)
#
#
# Indices 1 2 3 4 5 6 
#
# 1 0.020768 0.057327 0.003232 -0.028299 -0.004883 -0.057088
# 2 0.057327 0.299253 0.016408 -0.140078 -0.024809 -0.275418
# 3 0.003232 0.016408 0.011100 -0.008916 -0.001648 -0.018627
# 4 -0.028299 -0.140078 -0.008916 0.097849 0.007161 0.130755
# 5 -0.004883 -0.024809 -0.001648 0.007161 0.023942 0.023999
# 6 -0.057088 -0.275418 -0.018627 0.130755 0.023999 0.298408
#
#
# Mechanical properties :
#
#
# Convention : Reuss Voigt Hill
#
# Bulk Modulus (GPa) = 2.06162 25.89636 13.97899
# Shear Modulus (GPa) = 6.58699 36.73410 21.66055
#
# Velocity S-wave (km/s) = 1.73203 4.09023 3.14085
# Velocity P-wave (km/s) = 2.22235 5.83958 4.41812
#
# Compressibility (1/GPa) = 0.48505641
#
# Stress axis : x y z
#
# Youngs Moduli (GPa) = 48.15066 3.34166 90.08674
#
# Poissons Ratio (x) = -0.19157 -0.29118
# Poissons Ratio (y) = -2.76033 -1.47818
# Poissons Ratio (z) = -0.15563 -0.05483
#
# Static dielectric constant tensor:
#      x y z
#    x 1.931390 -0.063830 -0.222640 
#    y -0.063830 1.782850 0.013120 
#    z -0.222640 0.013120 2.224340 
# 
# From -- ./inp_files/404557.got.cif
#   From: 2010.05.17/outbox.cif.g08.bks.cpg/sg2_203_cif.got.tgz:404557.got - 2010.06.03 11:33:40.
