data_PCOD9061935
_publ_section_title
;
Structure prediction by ZEFSAII (Michael W. Deem and Ramdas Pophale) SiO2 
 PCOD9061935
Probable space group: P -1
;
_chemical_formula_sum "Si O2"
_cell_formula_units_Z 14
_cell_length_a 20.298068
_cell_length_b 11.369022
_cell_length_c 4.892408
_cell_angle_alpha 98.819986
_cell_angle_beta 77.062870
_cell_angle_gamma 151.287833
_cell_volume 526.386447
_symmetry_space_group_name_H-M "P -1"
_symmetry_group_IT_number 2
_symmetry_cell_setting 'triclinic'
loop_
_space_group_symop_operation_xyz
x,y,z
-x,-y,-z
loop_
_atom_site_type_symbol
_atom_site_label
_atom_site_fract_x
_atom_site_fract_y
_atom_site_fract_z
Si Si1 0.304134 0.809702 0.568086
Si Si2 0.860776 0.350680 0.818561
Si Si3 0.209337 0.415255 0.562835
Si Si4 0.918991 0.966220 0.860495
Si Si5 0.163000 0.902567 0.911998
Si Si6 0.476332 0.344431 0.797236
Si Si7 0.563159 0.344004 0.247175
O O1 0.185862 0.685469 0.447678
O O2 0.303175 0.667383 0.460838
O O3 0.447778 0.085714 0.418958
O O4 0.246920 0.748702 0.905379
O O5 0.845162 0.185377 0.827545
O O6 0.018321 0.636862 0.819421
O O7 0.174720 0.251325 0.341656
O O8 0.288185 0.489844 0.786950
O O9 0.055472 0.232522 0.681430
O O10 0.838799 0.957451 0.038347
O O11 0.000000 0.000000 0.000000
O O12 0.317171 0.099804 0.749958
O O13 0.514775 0.303416 0.975445
O O14 0.500000 0.500000 0.000000
O O15 0.567432 0.465350 0.486281
#
# Coordination Sequence:
#
# PCOD9061935 Si02
#       7
#     2   2   2   2   2   2   2
#     4  12  23  50  68 110 142 184 243 290 355 423
#     4  11  25  43  75 106 143 181 240 296 357 413
#     4  11  27  44  74 103 144 192 236 295 352 427
#     4  11  25  49  70 106 143 187 242 291 359 423
#     4  11  23  46  74 105 142 189 234 304 349 423
#     4  12  27  47  71 107 145 188 237 288 357 426
#     4  12  26  48  71 106 143 189 238 288 356 423
#
# _framework density 26.596430000000002
#
# number of rings (size 3 to 8) (size 9 to 14) (size 15 to 20)
#    0.000    0.571    4.286    2.571    4.000    3.429 
#    7.714    2.857    0.000    0.000    0.000    0.000 
#    0.000    0.000    0.000    0.000    0.000    0.000 
#
# Total GULP energy -78379.834293 kJ/mol
# GULP energy per Si atom -5598.559592 kJ/mol
# Density = 2.653590 g / cm^3
# Si number density = 26.596430 Si / 1000 Ang^3
#
#
#
# Elastic Constant Matrix: (Units=GPa)
#
#
# Indices 1 2 3 4 5 6 
#
# 1 142.0175 54.9708 18.8790 15.1136 7.9951 4.4245
# 2 54.9708 120.0235 29.6658 0.3421 -2.7489 18.1999
# 3 18.8790 29.6658 82.3911 3.0159 10.2539 6.6841
# 4 15.1136 0.3421 3.0159 34.9453 14.8483 -3.1132
# 5 7.9951 -2.7489 10.2539 14.8483 28.8490 -2.6789
# 6 4.4245 18.1999 6.6841 -3.1132 -2.6789 57.9149
#
#
#
# Elastic Compliance Matrix: (Units=1/GPa)
#
#
# Indices 1 2 3 4 5 6 
#
# 1 0.009104 -0.004154 -0.000377 -0.003404 -0.000993 0.000424
# 2 -0.004154 0.011552 -0.003368 0.000476 0.002948 -0.002762
# 3 -0.000377 -0.003368 0.014202 0.001497 -0.006105 -0.000754
# 4 -0.003404 0.000476 0.001497 0.038161 -0.019082 0.001107
# 5 -0.000993 0.002948 -0.006105 -0.019082 0.047305 0.001017
# 6 0.000424 -0.002762 -0.000754 0.001107 0.001017 0.018296
#
#
# Mechanical properties :
#
#
# Convention : Reuss Voigt Hill
#
# Bulk Modulus (GPa) = 52.46142 61.27370 56.86756
# Shear Modulus (GPa) = 31.10020 40.40293 35.75157
#
# Velocity S-wave (km/s) = 3.42327 3.90181 3.67034
# Velocity P-wave (km/s) = 5.94919 6.58689 6.27614
#
# Compressibility (1/GPa) = 0.01906163
#
# Stress axis : x y z
#
# Youngs Moduli (GPa) = 109.83689 86.56763 70.41152
#
# Poissons Ratio (x) = 0.35961 0.02652
# Poissons Ratio (y) = 0.45628 0.23712
# Poissons Ratio (z) = 0.04136 0.29152
#
# Static dielectric constant tensor:
#      x y z
#    x 2.076580 -0.057000 -0.045820 
#    y -0.057000 2.111930 -0.051430 
#    z -0.045820 -0.051430 2.070420 
# 
# From -- ./inp_files/118725.got.cif
#   From: 2010.05.17/outbox.cif.g08.bks.cpg/sg2_60_cif.got.tgz:118725.got - 2010.06.03 11:33:40.
