data_PCOD9061550
_publ_section_title
;
Structure prediction by ZEFSAII (Michael W. Deem and Ramdas Pophale) SiO2 
 PCOD9061550
Probable space group: P -1
;
_chemical_formula_sum "Si O2"
_cell_formula_units_Z 14
_cell_length_a 6.087250
_cell_length_b 10.775962
_cell_length_c 14.625121
_cell_angle_alpha 123.112074
_cell_angle_beta 48.069402
_cell_angle_gamma 108.804753
_cell_volume 596.403170
_symmetry_space_group_name_H-M "P -1"
_symmetry_group_IT_number 2
_symmetry_cell_setting 'triclinic'
loop_
_space_group_symop_operation_xyz
x,y,z
-x,-y,-z
loop_
_atom_site_type_symbol
_atom_site_label
_atom_site_fract_x
_atom_site_fract_y
_atom_site_fract_z
Si Si1 0.866895 0.230309 0.584279
Si Si2 0.346785 0.249864 0.174523
Si Si3 0.098296 0.937070 0.311326
Si Si4 0.656549 0.970748 0.080033
Si Si5 0.846361 0.467587 0.372600
Si Si6 0.824998 0.733673 0.171607
Si Si7 0.891198 0.430344 0.128606
O O1 0.988428 0.168955 0.624253
O O2 0.516305 0.252165 0.701580
O O3 0.002919 0.382725 0.583091
O O4 0.952699 0.098991 0.437517
O O5 0.482252 0.121914 0.152095
O O6 0.568029 0.381954 0.169422
O O7 0.019784 0.325325 0.314242
O O8 0.360330 0.165322 0.040120
O O9 0.986709 0.872846 0.221267
O O10 0.454236 0.940702 0.211580
O O11 0.000000 0.000000 0.000000
O O12 0.500000 0.500000 0.500000
O O13 0.900969 0.438379 0.237692
O O14 0.958048 0.588644 0.131930
O O15 0.891833 0.692899 0.031404
#
# Coordination Sequence:
#
# PCOD9061550 Si02
#       7
#     2   2   2   2   2   2   2
#     4  11  26  44  70 104 143 194 236 297 369 429
#     4  11  25  46  70 109 140 189 241 293 366 427
#     4  11  25  47  68 102 145 189 241 297 363 434
#     4  11  26  46  75 106 143 190 242 301 361 429
#     4  12  28  47  72 108 153 191 242 297 367 443
#     4  11  23  45  73 102 143 182 246 303 354 430
#     4  11  24  43  73 107 136 186 238 305 364 424
#
# _framework density 23.474053000000001
#
# number of rings (size 3 to 8) (size 9 to 14) (size 15 to 20)
#    0.000    0.857    4.286    1.286    8.000    2.286 
#    2.571    0.000    0.000    0.000    0.000    0.000 
#    0.000    0.000    0.000    0.000    0.000    0.000 
#
# Total GULP energy -78367.946103 kJ/mol
# GULP energy per Si atom -5597.710436 kJ/mol
# Density = 2.342062 g / cm^3
# Si number density = 23.474053 Si / 1000 Ang^3
#
#
#
# Elastic Constant Matrix: (Units=GPa)
#
#
# Indices 1 2 3 4 5 6 
#
# 1 66.0124 23.6197 55.6236 16.6177 -17.5997 7.7914
# 2 23.6197 76.4899 48.5682 17.8926 -5.4652 3.6512
# 3 55.6236 48.5682 176.7150 26.4017 -27.0354 2.7182
# 4 16.6177 17.8926 26.4017 40.1884 3.8650 -0.6460
# 5 -17.5997 -5.4652 -27.0354 3.8650 58.2190 2.1396
# 6 7.7914 3.6512 2.7182 -0.6460 2.1396 40.6390
#
#
#
# Elastic Compliance Matrix: (Units=1/GPa)
#
#
# Indices 1 2 3 4 5 6 
#
# 1 0.023591 -0.002053 -0.005106 -0.006050 0.005130 -0.004363
# 2 -0.002053 0.016912 -0.003361 -0.004463 -0.000262 -0.000958
# 3 -0.005106 -0.003361 0.008924 -0.002481 0.002431 0.000516
# 4 -0.006050 -0.004463 -0.002481 0.031580 -0.005589 0.002523
# 5 0.005130 -0.000262 0.002431 -0.005589 0.020286 -0.002280
# 6 -0.004363 -0.000958 0.000516 0.002523 -0.002280 0.025655
#
#
# Mechanical properties :
#
#
# Convention : Reuss Voigt Hill
#
# Bulk Modulus (GPa) = 35.22405 63.87113 49.54759
# Shear Modulus (GPa) = 31.75615 40.56967 36.16291
#
# Velocity S-wave (km/s) = 3.68206 4.16177 3.92924
# Velocity P-wave (km/s) = 5.75455 7.09662 6.46053
#
# Compressibility (1/GPa) = 0.02838969
#
# Stress axis : x y z
#
# Youngs Moduli (GPa) = 42.38906 59.12797 112.05636
#
# Poissons Ratio (x) = 0.12138 0.57211
# Poissons Ratio (y) = 0.08702 0.37657
# Poissons Ratio (z) = 0.21642 0.19870
#
# Static dielectric constant tensor:
#      x y z
#    x 1.916180 -0.067490 -0.000620 
#    y -0.067490 1.904900 -0.016040 
#    z -0.000620 -0.016040 1.849230 
# 
# From -- ./inp_files/68766.got.cif
#   From: 2010.05.17/outbox.cif.g08.bks.cpg/sg2_35_cif.got.tgz:68766.got - 2010.06.03 11:33:40.
