data_PCOD9061172
_publ_section_title
;
Structure prediction by ZEFSAII (Michael W. Deem and Ramdas Pophale) SiO2 
 PCOD9061172
Probable space group: P -1
;
_chemical_formula_sum "Si O2"
_cell_formula_units_Z 16
_cell_length_a 8.930376
_cell_length_b 9.144139
_cell_length_c 12.284161
_cell_angle_alpha 85.179621
_cell_angle_beta 85.353979
_cell_angle_gamma 46.477829
_cell_volume 724.434706
_symmetry_space_group_name_H-M "P -1"
_symmetry_group_IT_number 2
_symmetry_cell_setting 'triclinic'
loop_
_space_group_symop_operation_xyz
x,y,z
-x,-y,-z
loop_
_atom_site_type_symbol
_atom_site_label
_atom_site_fract_x
_atom_site_fract_y
_atom_site_fract_z
Si Si1 0.684616 0.727829 0.918783
Si Si2 0.472010 0.456670 0.125357
Si Si3 0.391067 0.165271 0.835370
Si Si4 0.636617 0.144859 0.483580
Si Si5 0.020864 0.578846 0.763069
Si Si6 0.829755 0.195476 0.270855
Si Si7 0.305566 0.805663 0.281947
Si Si8 0.200319 0.287379 0.452007
O O1 0.689238 0.566446 0.875088
O O2 0.893634 0.671274 0.877404
O O3 0.483693 0.944786 0.868557
O O4 0.653600 0.738162 0.048679
O O5 0.694642 0.255802 0.168415
O O6 0.394127 0.618686 0.212763
O O7 0.500000 0.500000 0.000000
O O8 0.182730 0.335832 0.770326
O O9 0.573020 0.131480 0.768600
O O10 0.718803 0.189722 0.378209
O O11 0.656064 0.223572 0.589246
O O12 0.403944 0.243612 0.471482
O O13 0.766325 0.904869 0.502377
O O14 0.147694 0.642751 0.729624
O O15 0.847312 0.681293 0.675223
O O16 0.062976 0.982722 0.264720
O O17 0.000000 0.500000 0.500000
#
# Coordination Sequence:
#
# PCOD9061172 Si02
#       8
#     2   2   2   2   2   2   2   2
#     4  11  24  45  70 101 141 182 241 296 356 419
#     4  12  27  48  70 108 145 185 243 303 360 426
#     4  11  23  44  74 100 136 190 237 295 354 423
#     4  11  26  47  71 109 147 189 241 295 364 429
#     4  12  23  44  70 103 136 186 237 288 359 427
#     4  12  26  44  74 105 146 190 239 296 355 435
#     4  12  24  46  74 102 148 189 237 299 360 426
#     4  11  25  45  74 103 145 187 241 301 355 433
#
# _framework density 22.086186000000001
#
# number of rings (size 3 to 8) (size 9 to 14) (size 15 to 20)
#    0.000    0.500    5.000    2.250    0.000    7.000 
#    0.000    0.000    0.000    0.000    0.000    0.000 
#    0.000    0.000    0.000    0.000    0.000    0.000 
#
# Total GULP energy -89509.069565 kJ/mol
# GULP energy per Si atom -5594.316848 kJ/mol
# Density = 2.203592 g / cm^3
# Si number density = 22.086186 Si / 1000 Ang^3
#
#
#
# Elastic Constant Matrix: (Units=GPa)
#
#
# Indices 1 2 3 4 5 6 
#
# 1 71.1637 43.7460 61.9187 -6.4694 3.6928 -15.1492
# 2 43.7460 91.6893 37.7494 -1.9340 10.0428 -20.3103
# 3 61.9187 37.7494 146.1752 -12.7323 -7.2619 -13.2049
# 4 -6.4694 -1.9340 -12.7323 36.0206 1.1808 4.4656
# 5 3.6928 10.0428 -7.2619 1.1808 23.8752 8.2499
# 6 -15.1492 -20.3103 -13.2049 4.4656 8.2499 32.9593
#
#
#
# Elastic Compliance Matrix: (Units=1/GPa)
#
#
# Indices 1 2 3 4 5 6 
#
# 1 0.029348 -0.007716 -0.010141 0.000717 -0.006562 0.006217
# 2 -0.007716 0.018450 -0.001247 -0.001755 -0.010369 0.010156
# 3 -0.010141 -0.001247 0.011747 0.002382 0.006469 -0.002665
# 4 0.000717 -0.001755 0.002382 0.029100 0.001319 -0.004071
# 5 -0.006562 -0.010369 0.006469 0.001319 0.056463 -0.021125
# 6 0.006217 0.010156 -0.002665 -0.004071 -0.021125 0.044228
#
#
# Mechanical properties :
#
#
# Convention : Reuss Voigt Hill
#
# Bulk Modulus (GPa) = 46.86699 66.20629 56.53664
# Shear Modulus (GPa) = 21.30794 29.61195 25.45994
#
# Velocity S-wave (km/s) = 3.10943 3.66559 3.39891
# Velocity P-wave (km/s) = 5.84445 6.92509 6.40759
#
# Compressibility (1/GPa) = 0.02133698
#
# Stress axis : x y z
#
# Youngs Moduli (GPa) = 34.07398 54.20196 85.13022
#
# Poissons Ratio (x) = 0.41824 0.86329
# Poissons Ratio (y) = 0.26292 0.10612
# Poissons Ratio (z) = 0.34554 0.06756
#
# Static dielectric constant tensor:
#      x y z
#    x 1.785730 0.018680 0.006390 
#    y 0.018680 1.849590 0.004640 
#    z 0.006390 0.004640 1.828390 
# 
# From -- ./inp_files/381964.got.cif
#   From: 2010.05.17/outbox.cif.g08.bks.cpg/sg2_191_cif.got.tgz:381964.got - 2010.06.03 11:33:40.
