data_PCOD9061341
_publ_section_title
;
Structure prediction by ZEFSAII (Michael W. Deem and Ramdas Pophale) SiO2 
 PCOD9061341
Probable space group: P -1
;
_chemical_formula_sum "Si O2"
_cell_formula_units_Z 16
_cell_length_a 7.545640
_cell_length_b 9.089027
_cell_length_c 15.965241
_cell_angle_alpha 48.841470
_cell_angle_beta 73.577038
_cell_angle_gamma 51.088101
_cell_volume 625.291273
_symmetry_space_group_name_H-M "P -1"
_symmetry_group_IT_number 2
_symmetry_cell_setting 'triclinic'
loop_
_space_group_symop_operation_xyz
x,y,z
-x,-y,-z
loop_
_atom_site_type_symbol
_atom_site_label
_atom_site_fract_x
_atom_site_fract_y
_atom_site_fract_z
Si Si1 0.867370 0.920128 0.990679
Si Si2 0.545199 0.014193 0.248134
Si Si3 0.647311 0.761245 0.627947
Si Si4 0.052815 0.648457 0.371724
Si Si5 0.656937 0.233799 0.622711
Si Si6 0.360747 0.343899 0.848839
Si Si7 0.004684 0.798815 0.625343
Si Si8 0.697807 0.517652 0.002082
O O1 0.640910 0.150049 0.886828
O O2 0.382628 0.229634 0.123999
O O3 0.058340 0.715680 0.977808
O O4 0.000000 0.000000 0.000000
O O5 0.824429 0.856133 0.273030
O O6 0.525195 0.799212 0.302294
O O7 0.760870 0.791847 0.097535
O O8 0.473245 0.160248 0.294611
O O9 0.714926 0.533951 0.647788
O O10 0.907556 0.683381 0.628390
O O11 0.500000 0.000000 0.500000
O O12 0.000000 0.500000 0.500000
O O13 0.128411 0.788447 0.360863
O O14 0.500000 0.500000 0.500000
O O15 0.788564 0.979667 0.647980
O O16 0.240461 0.585761 0.717464
O O17 0.300159 0.451929 0.911140
O O18 0.000000 0.000000 0.500000
O O19 0.500000 0.500000 0.000000
#
# Coordination Sequence:
#
# PCOD9061341 Si02
#       8
#     2   2   2   2   2   2   2   2
#     4  11  24  50  83 114 151 200 265 318 384 462
#     4  11  27  47  72 105 152 194 250 313 376 454
#     4  11  23  45  70 105 150 198 244 305 372 451
#     4  12  22  42  75 106 149 194 246 304 372 451
#     4  11  23  45  68 108 148 193 246 298 374 453
#     4  11  27  53  78 112 158 202 255 323 391 462
#     4  11  26  48  72 108 155 194 243 311 385 459
#     4  12  27  52  79 111 149 204 262 329 394 451
#
# _framework density 25.588076000000001
#
# number of rings (size 3 to 8) (size 9 to 14) (size 15 to 20)
#    0.000    0.750    3.750    3.375    1.750    3.000 
#    4.500    0.000    0.000    0.000    0.000    0.000 
#    0.000    0.000    0.000    0.000    0.000    0.000 
#
# Total GULP energy -89443.479465 kJ/mol
# GULP energy per Si atom -5590.217467 kJ/mol
# Density = 2.552984 g / cm^3
# Si number density = 25.588076 Si / 1000 Ang^3
#
#
#
# Elastic Constant Matrix: (Units=GPa)
#
#
# Indices 1 2 3 4 5 6 
#
# 1 103.7979 5.1670 34.4865 -13.2483 15.5344 -1.0474
# 2 5.1670 151.6991 54.1972 -24.2419 -0.0984 -30.9062
# 3 34.4865 54.1972 157.3976 -37.0782 9.8413 -10.6706
# 4 -13.2483 -24.2419 -37.0782 46.4914 -1.5325 11.9574
# 5 15.5344 -0.0984 9.8413 -1.5325 37.3496 -13.6270
# 6 -1.0474 -30.9062 -10.6706 11.9574 -13.6270 47.8481
#
#
#
# Elastic Compliance Matrix: (Units=1/GPa)
#
#
# Indices 1 2 3 4 5 6 
#
# 1 0.011214 0.000234 -0.001856 0.002174 -0.004787 -0.001924
# 2 0.000234 0.008855 -0.002591 0.001266 0.002704 0.005601
# 3 -0.001856 -0.002591 0.008996 0.005664 -0.001989 -0.001690
# 4 0.002174 0.001266 0.005664 0.028743 -0.003413 -0.006027
# 5 -0.004787 0.002704 -0.001989 -0.003413 0.033372 0.011556
# 6 -0.001924 0.005601 -0.001690 -0.006027 0.011556 0.028895
#
#
# Mechanical properties :
#
#
# Convention : Reuss Voigt Hill
#
# Bulk Modulus (GPa) = 48.45810 66.73290 57.59550
# Shear Modulus (GPa) = 36.93207 47.60742 42.26974
#
# Velocity S-wave (km/s) = 3.80324 4.31807 4.06881
# Velocity P-wave (km/s) = 6.18588 7.14124 6.68066
#
# Compressibility (1/GPa) = 0.02063638
#
# Stress axis : x y z
#
# Youngs Moduli (GPa) = 89.17613 112.93118 111.15495
#
# Poissons Ratio (x) = -0.02637 0.20635
# Poissons Ratio (y) = -0.02083 0.28805
# Poissons Ratio (z) = 0.16555 0.29266
#
# Static dielectric constant tensor:
#      x y z
#    x 1.896340 0.103040 0.023660 
#    y 0.103040 1.888690 0.015140 
#    z 0.023660 0.015140 1.975810 
# 
# From -- ./inp_files/555330.got.cif
#   From: 2010.05.17/outbox.cif.g08.bks.cpg/sg2_278_cif.got.tgz:555330.got - 2010.06.03 11:33:40.
