data_PCOD9061272
_publ_section_title
;
Structure prediction by ZEFSAII (Michael W. Deem and Ramdas Pophale) SiO2 
 PCOD9061272
Probable space group: P -1
;
_chemical_formula_sum "Si O2"
_cell_formula_units_Z 14
_cell_length_a 9.267188
_cell_length_b 6.210788
_cell_length_c 13.858692
_cell_angle_alpha 87.619019
_cell_angle_beta 99.061695
_cell_angle_gamma 125.811598
_cell_volume 637.507182
_symmetry_space_group_name_H-M "P -1"
_symmetry_group_IT_number 2
_symmetry_cell_setting 'triclinic'
loop_
_space_group_symop_operation_xyz
x,y,z
-x,-y,-z
loop_
_atom_site_type_symbol
_atom_site_label
_atom_site_fract_x
_atom_site_fract_y
_atom_site_fract_z
Si Si1 0.354659 0.948605 0.902552
Si Si2 0.926690 0.622393 0.562485
Si Si3 0.751607 0.793219 0.387809
Si Si4 0.584239 0.307698 0.244002
Si Si5 0.585383 0.515469 0.902180
Si Si6 0.559623 0.151757 0.605970
Si Si7 0.011684 0.256272 0.039392
O O1 0.311306 0.718196 0.831007
O O2 0.172303 0.899210 0.917786
O O3 0.456620 0.222418 0.850546
O O4 0.500000 0.000000 0.000000
O O5 0.824445 0.716259 0.487008
O O6 0.772549 0.389395 0.619319
O O7 0.000000 0.500000 0.500000
O O8 0.098606 0.892288 0.622385
O O9 0.714157 0.588081 0.304768
O O10 0.562801 0.743400 0.393611
O O11 0.423559 0.286449 0.170198
O O12 0.499767 0.071634 0.316015
O O13 0.779002 0.576578 0.916230
O O14 0.500000 0.500000 0.000000
O O15 0.500000 0.000000 0.500000
O O16 0.000000 0.500000 0.000000
O O17 0.000000 0.000000 0.000000
#
# Coordination Sequence:
#
# PCOD9061272 Si02
#       7
#     2   2   2   2   2   2   2
#     4  12  24  48  77 104 155 201 252 325 387 462
#     4  11  23  44  79 108 145 196 249 315 391 460
#     4  11  24  45  74 110 148 194 255 306 392 462
#     4  12  26  46  74 111 152 202 257 316 393 464
#     4  12  24  47  76 106 149 200 257 324 386 457
#     4  12  24  47  77 107 150 198 249 316 385 462
#     4  12  24  44  81 112 142 206 267 320 402 472
#
# _framework density 21.960538
#
# number of rings (size 3 to 8) (size 9 to 14) (size 15 to 20)
#    0.000    0.286    7.143    1.286    0.000    0.000 
#    0.000   14.286    0.000    0.000    0.000    0.000 
#    0.000    0.000    0.000    0.000    0.000    0.000 
#
# Total GULP energy -78064.337075 kJ/mol
# GULP energy per Si atom -5576.024077 kJ/mol
# Density = 2.191055 g / cm^3
# Si number density = 21.960538 Si / 1000 Ang^3
#
#
#
# Elastic Constant Matrix: (Units=GPa)
#
#
# Indices 1 2 3 4 5 6 
#
# 1 201.3122 62.1558 48.6997 0.3195 -19.7391 5.8649
# 2 62.1558 147.0735 35.2335 16.3533 -20.4012 7.9653
# 3 48.6997 35.2335 89.1746 6.6452 -9.8410 -9.0998
# 4 0.3195 16.3533 6.6452 42.2597 -23.6945 0.3957
# 5 -19.7391 -20.4012 -9.8410 -23.6945 27.1100 -3.2787
# 6 5.8649 7.9653 -9.0998 0.3957 -3.2787 53.8448
#
#
#
# Elastic Compliance Matrix: (Units=1/GPa)
#
#
# Indices 1 2 3 4 5 6 
#
# 1 0.006868 -0.001819 -0.002694 0.004964 0.006927 -0.000549
# 2 -0.001819 0.008734 -0.002133 -0.001166 0.003305 -0.001245
# 3 -0.002694 -0.002133 0.014037 -0.000637 0.001343 0.003068
# 4 0.004964 -0.001166 -0.000637 0.050395 0.046794 0.002003
# 5 0.006927 0.003305 0.001343 0.046794 0.086273 0.003893
# 6 -0.000549 -0.001245 0.003068 0.002003 0.003893 0.019557
#
#
# Mechanical properties :
#
#
# Convention : Reuss Voigt Hill
#
# Bulk Modulus (GPa) = 61.17045 81.08203 71.12624
# Shear Modulus (GPa) = 24.43742 44.07434 34.25588
#
# Velocity S-wave (km/s) = 3.33947 4.48479 3.95382
# Velocity P-wave (km/s) = 6.54099 7.98872 7.30083
#
# Compressibility (1/GPa) = 0.01634776
#
# Stress axis : x y z
#
# Youngs Moduli (GPa) = 145.60718 114.48943 71.24242
#
# Poissons Ratio (x) = 0.20821 0.19190
# Poissons Ratio (y) = 0.26480 0.15198
# Poissons Ratio (z) = 0.39221 0.24424
#
# Static dielectric constant tensor:
#      x y z
#    x 1.738320 -0.081680 0.022260 
#    y -0.081680 1.903960 0.003220 
#    z 0.022260 0.003220 1.881100 
# 
# From -- ./inp_files/487770.got.cif
#   From: 2010.05.17/outbox.cif.g08.bks.cpg/sg2_244_cif.got.tgz:487770.got - 2010.06.03 11:33:40.
