data_PCOD9061818
_publ_section_title
;
Structure prediction by ZEFSAII (Michael W. Deem and Ramdas Pophale) SiO2 
 PCOD9061818
Probable space group: P -1
;
_chemical_formula_sum "Si O2"
_cell_formula_units_Z 13
_cell_length_a 17.366008
_cell_length_b 11.969748
_cell_length_c 8.641247
_cell_angle_alpha 40.699850
_cell_angle_beta 140.533331
_cell_angle_gamma 147.393727
_cell_volume 583.965562
_symmetry_space_group_name_H-M "P -1"
_symmetry_group_IT_number 2
_symmetry_cell_setting 'triclinic'
loop_
_space_group_symop_operation_xyz
x,y,z
-x,-y,-z
loop_
_atom_site_type_symbol
_atom_site_label
_atom_site_fract_x
_atom_site_fract_y
_atom_site_fract_z
Si Si1 0.185778 0.846711 0.860301
Si Si2 0.376695 0.318224 0.811504
Si Si3 0.864912 0.519390 0.302481
Si Si4 0.645640 0.096671 0.233010
Si Si5 0.000000 0.000000 0.000000
Si Si6 0.827956 0.525894 0.607994
Si Si7 0.352042 0.226386 0.223104
O O1 0.219397 0.851699 0.725888
O O2 0.003587 0.718053 0.733505
O O3 0.289327 0.096340 0.813040
O O4 0.221530 0.698614 0.157576
O O5 0.275741 0.403891 0.578814
O O6 0.544080 0.532071 0.794471
O O7 0.393076 0.258854 0.072221
O O8 0.712526 0.318381 0.191891
O O9 0.833963 0.511522 0.446501
O O10 0.000000 0.500000 0.500000
O O11 0.928271 0.752891 0.092426
O O12 0.608335 0.916990 0.485234
O O13 0.500000 0.000000 0.000000
O O14 0.828492 0.900852 0.905515
#
# Coordination Sequence:
#
# PCOD9061818 Si02
#       7
#     2   2   2   2   1   2   2
#     4  11  25  43  70 107 147 188 239 294 374 420
#     4  11  25  46  70 107 146 187 242 305 353 436
#     4  12  24  47  75 102 142 190 252 286 355 440
#     4  12  27  47  70 110 147 191 236 306 362 430
#     4  12  24  44  78 104 130 194 244 298 338 434
#     4  11  23  46  71 105 140 195 239 298 358 434
#     4  11  25  47  72 106 142 194 248 288 369 424
#
# _framework density 22.261588
#
# number of rings (size 3 to 8) (size 9 to 14) (size 15 to 20)
#    0.000    0.615    4.615    2.308    2.154    0.615 
#    8.308    3.846    0.000    0.000    0.000    0.000 
#    0.000    0.000    0.000    0.000    0.000    0.000 
#
# Total GULP energy -72511.783755 kJ/mol
# GULP energy per Si atom -5577.829520 kJ/mol
# Density = 2.221092 g / cm^3
# Si number density = 22.261588 Si / 1000 Ang^3
#
#
#
# Elastic Constant Matrix: (Units=GPa)
#
#
# Indices 1 2 3 4 5 6 
#
# 1 44.0299 43.0857 20.0937 -12.2331 -1.7530 -4.3939
# 2 43.0857 241.7115 61.0906 -30.4384 -10.9442 -15.8621
# 3 20.0937 61.0906 84.4829 -17.1042 -2.4298 -3.8208
# 4 -12.2331 -30.4384 -17.1042 28.0399 -6.7490 3.1961
# 5 -1.7530 -10.9442 -2.4298 -6.7490 10.2232 -1.9996
# 6 -4.3939 -15.8621 -3.8208 3.1961 -1.9996 45.6935
#
#
#
# Elastic Compliance Matrix: (Units=1/GPa)
#
#
# Indices 1 2 3 4 5 6 
#
# 1 0.030100 -0.002948 -0.002672 0.010158 0.008331 0.001302
# 2 -0.002948 0.006793 -0.002352 0.007160 0.011301 0.001872
# 3 -0.002672 -0.002352 0.015803 0.007264 0.005573 -0.000016
# 4 0.010158 0.007160 0.007264 0.065215 0.054557 0.001896
# 5 0.008331 0.011301 0.005573 0.054557 0.150240 0.007949
# 6 0.001302 0.001872 -0.000016 0.001896 0.007949 0.022874
#
#
# Mechanical properties :
#
#
# Convention : Reuss Voigt Hill
#
# Bulk Modulus (GPa) = 27.20912 68.75160 47.98036
# Shear Modulus (GPa) = 15.66317 33.18828 24.42573
#
# Velocity S-wave (km/s) = 2.65542 3.86532 3.31602
# Velocity P-wave (km/s) = 4.65302 7.13242 6.02171
#
# Compressibility (1/GPa) = 0.03675238
#
# Stress axis : x y z
#
# Youngs Moduli (GPa) = 33.22228 147.20376 63.27887
#
# Poissons Ratio (x) = 0.43399 0.16909
# Poissons Ratio (y) = 0.09795 0.14882
# Poissons Ratio (z) = 0.08877 0.34619
#
# Static dielectric constant tensor:
#      x y z
#    x 1.814470 0.032680 0.022200 
#    y 0.032680 1.820620 0.027750 
#    z 0.022200 0.027750 1.850640 
# 
# From -- ./inp_files/181392.got.cif
#   From: 2010.05.17/outbox.cif.g08.bks.cpg/sg2_91_cif.got.tgz:181392.got - 2010.06.03 11:33:40.
