data_PCOD9061050
_publ_section_title
;
Structure prediction by ZEFSAII (Michael W. Deem and Ramdas Pophale) SiO2 
 PCOD9061050
Probable space group: P -1
;
_chemical_formula_sum "Si O2"
_cell_formula_units_Z 15
_cell_length_a 12.624593
_cell_length_b 20.983380
_cell_length_c 8.712030
_cell_angle_alpha 135.845995
_cell_angle_beta 150.226973
_cell_angle_gamma 37.887001
_cell_volume 699.782432
_symmetry_space_group_name_H-M "P -1"
_symmetry_group_IT_number 2
_symmetry_cell_setting 'triclinic'
loop_
_space_group_symop_operation_xyz
x,y,z
-x,-y,-z
loop_
_atom_site_type_symbol
_atom_site_label
_atom_site_fract_x
_atom_site_fract_y
_atom_site_fract_z
Si Si1 0.000000 0.000000 0.000000
Si Si2 0.530477 0.202982 0.892613
Si Si3 0.049811 0.589668 0.150975
Si Si4 0.496364 0.742019 0.695992
Si Si5 0.746999 0.407598 0.911305
Si Si6 0.094264 0.925390 0.341968
Si Si7 0.617687 0.369611 0.121625
Si Si8 0.044604 0.239314 0.205112
O O1 0.746916 0.103334 0.912348
O O2 0.923010 0.024464 0.758991
O O3 0.272900 0.207586 0.546676
O O4 0.576165 0.209702 0.141387
O O5 0.510693 0.305718 0.965826
O O6 0.197421 0.560816 0.129227
O O7 0.204359 0.613323 0.509645
O O8 0.785932 0.686898 0.956381
O O9 0.000000 0.500000 0.000000
O O10 0.402673 0.656515 0.409574
O O11 0.363369 0.833709 0.564697
O O12 0.591673 0.516238 0.991455
O O13 0.996663 0.327060 0.169798
O O14 0.000000 0.000000 0.500000
O O15 0.937901 0.863978 0.025034
O O16 0.793628 0.296839 0.084585
#
# Coordination Sequence:
#
# PCOD9061050 Si02
#       8
#     1   2   2   2   2   2   2   2
#     4  12  26  48  76 102 142 176 240 308 360 410
#     4  12  25  46  71 102 141 187 236 297 354 422
#     4  12  23  40  69 105 140 195 231 281 350 420
#     4  11  23  44  72 101 147 185 239 288 349 422
#     4  11  25  41  67 104 144 185 237 286 338 432
#     4  11  25  50  74 105 138 184 238 304 357 424
#     4  12  23  43  69 102 144 188 232 288 349 420
#     4  11  27  45  70 103 140 187 234 290 365 415
#
# _framework density 21.435233
#
# number of rings (size 3 to 8) (size 9 to 14) (size 15 to 20)
#    0.000    0.533    6.667    1.600    1.867    1.067 
#    2.400    0.667    0.000    0.000    0.000    0.000 
#    0.000    0.000    0.000    0.000    0.000    0.000 
#
# Total GULP energy -83617.456790 kJ/mol
# GULP energy per Si atom -5574.497119 kJ/mol
# Density = 2.138644 g / cm^3
# Si number density = 21.435233 Si / 1000 Ang^3
#
#
#
# Elastic Constant Matrix: (Units=GPa)
#
#
# Indices 1 2 3 4 5 6 
#
# 1 112.8911 35.4770 8.4482 7.5360 -29.8858 -7.5710
# 2 35.4770 90.2483 29.5248 -7.4034 -14.6722 -21.4907
# 3 8.4482 29.5248 52.3416 -0.2622 -16.3298 3.3503
# 4 7.5360 -7.4034 -0.2622 23.3523 1.7082 -5.8883
# 5 -29.8858 -14.6722 -16.3298 1.7082 29.5839 -7.8385
# 6 -7.5710 -21.4907 3.3503 -5.8883 -7.8385 32.8878
#
#
#
# Elastic Compliance Matrix: (Units=1/GPa)
#
#
# Indices 1 2 3 4 5 6 
#
# 1 0.015102 -0.004970 0.005428 -0.007006 0.016837 0.002434
# 2 -0.004970 0.023122 -0.012148 0.013175 0.003878 0.018486
# 3 0.005428 -0.012148 0.030050 -0.008287 0.014461 -0.007786
# 4 -0.007006 0.013175 -0.008287 0.053615 -0.003834 0.016526
# 5 0.016837 0.003878 0.014461 -0.003834 0.066248 0.020040
# 6 0.002434 0.018486 -0.007786 0.016526 0.020040 0.051575
#
#
# Mechanical properties :
#
#
# Convention : Reuss Voigt Hill
#
# Bulk Modulus (GPa) = 22.27464 44.70900 33.49182
# Shear Modulus (GPa) = 17.98204 29.30020 23.64112
#
# Velocity S-wave (km/s) = 2.89952 3.70120 3.32461
# Velocity P-wave (km/s) = 4.65014 6.25845 5.51325
#
# Compressibility (1/GPa) = 0.04489410
#
# Stress axis : x y z
#
# Youngs Moduli (GPa) = 66.21630 43.24944 33.27799
#
# Poissons Ratio (x) = 0.21496 -0.18063
# Poissons Ratio (y) = 0.32911 0.40424
# Poissons Ratio (z) = -0.35942 0.52537
#
# Static dielectric constant tensor:
#      x y z
#    x 1.804200 0.022910 -0.007560 
#    y 0.022910 1.787210 -0.006140 
#    z -0.007560 -0.006140 1.779770 
# 
# From -- ./inp_files/39671.got.cif
#   From: 2010.05.17/outbox.cif.g08.bks.cpg/sg2_20_cif.got.tgz:39671.got - 2010.06.03 11:33:40.
