data_PCOD9061363
_publ_section_title
;
Structure prediction by ZEFSAII (Michael W. Deem and Ramdas Pophale) SiO2 
 PCOD9061363
Probable space group: P -1
;
_chemical_formula_sum "Si O2"
_cell_formula_units_Z 16
_cell_length_a 13.116966
_cell_length_b 22.438185
_cell_length_c 7.467654
_cell_angle_alpha 73.277418
_cell_angle_beta 94.613928
_cell_angle_gamma 156.890942
_cell_volume 720.142830
_symmetry_space_group_name_H-M "P -1"
_symmetry_group_IT_number 2
_symmetry_cell_setting 'triclinic'
loop_
_space_group_symop_operation_xyz
x,y,z
-x,-y,-z
loop_
_atom_site_type_symbol
_atom_site_label
_atom_site_fract_x
_atom_site_fract_y
_atom_site_fract_z
Si Si1 0.662389 0.286074 0.119140
Si Si2 0.305762 0.153265 0.487234
Si Si3 0.790924 0.624542 0.471331
Si Si4 0.786068 0.329050 0.732420
Si Si5 0.797786 0.036161 0.200944
Si Si6 0.476899 0.421762 0.957529
Si Si7 0.729586 0.492669 0.267811
Si Si8 0.353561 0.983303 0.446701
O O1 0.486493 0.229837 0.277360
O O2 0.582993 0.169796 0.266765
O O3 0.606168 0.261596 0.921402
O O4 0.000000 0.500000 0.000000
O O5 0.466740 0.301294 0.481396
O O6 0.256068 0.066714 0.678523
O O7 0.000000 0.000000 0.500000
O O8 0.500000 0.500000 0.500000
O O9 0.824446 0.600431 0.324050
O O10 0.105329 0.836022 0.382652
O O11 0.695367 0.537726 0.720138
O O12 0.000000 0.500000 0.500000
O O13 0.005532 0.405583 0.794553
O O14 0.533089 0.140201 0.771134
O O15 0.812519 0.085826 0.339936
O O16 0.133343 0.227494 0.006488
O O17 0.583274 0.433780 0.114438
O O18 0.500000 0.500000 0.000000
O O19 0.500000 0.000000 0.500000
#
# Coordination Sequence:
#
# PCOD9061363 Si02
#       8
#     2   2   2   2   2   2   2   2
#     4  11  25  46  76 104 148 197 248 308 387 441
#     4  11  23  45  73 104 144 192 245 306 372 445
#     4  12  27  46  71 105 148 194 246 305 376 449
#     4  12  25  44  71 110 149 189 249 315 372 454
#     4  11  23  45  69 101 147 184 239 310 366 438
#     4  12  25  46  72 101 146 196 242 304 378 447
#     4  12  25  46  74 105 148 194 248 309 373 452
#     4  11  25  46  72 105 144 192 245 307 376 447
#
# _framework density 22.217815000000002
#
# number of rings (size 3 to 8) (size 9 to 14) (size 15 to 20)
#    0.000    0.500    6.250    1.500    5.250    1.000 
#    0.000    3.125    0.000    0.000    0.000    0.000 
#    0.000    0.000    0.000    0.000    0.000    0.000 
#
# Total GULP energy -89197.694717 kJ/mol
# GULP energy per Si atom -5574.855920 kJ/mol
# Density = 2.216725 g / cm^3
# Si number density = 22.217815 Si / 1000 Ang^3
#
#
#
# Elastic Constant Matrix: (Units=GPa)
#
#
# Indices 1 2 3 4 5 6 
#
# 1 87.0091 37.0648 13.2975 -10.5725 25.5067 15.5464
# 2 37.0648 148.5505 9.2304 -22.2633 0.5344 0.5417
# 3 13.2975 9.2304 85.7217 -18.9585 -0.4818 -2.3411
# 4 -10.5725 -22.2633 -18.9585 35.9745 5.4388 -8.5981
# 5 25.5067 0.5344 -0.4818 5.4388 15.3032 1.2166
# 6 15.5464 0.5417 -2.3411 -8.5981 1.2166 37.0552
#
#
#
# Elastic Compliance Matrix: (Units=1/GPa)
#
#
# Indices 1 2 3 4 5 6 
#
# 1 0.038195 -0.007150 -0.003011 0.012752 -0.067169 -0.010946
# 2 -0.007150 0.008879 0.001003 0.003169 0.010248 0.003332
# 3 -0.003011 0.001003 0.013813 0.007554 0.002433 0.003794
# 4 0.012752 0.003169 0.007554 0.044769 -0.037571 0.006703
# 5 -0.067169 0.010248 0.002433 -0.037571 0.189319 0.013251
# 6 -0.010946 0.003332 0.003794 0.006703 0.013251 0.032890
#
#
# Mechanical properties :
#
#
# Convention : Reuss Voigt Hill
#
# Bulk Modulus (GPa) = 23.49104 48.94073 36.21588
# Shear Modulus (GPa) = 13.87448 35.11249 24.49348
#
# Velocity S-wave (km/s) = 2.50166 3.97971 3.32388
# Velocity P-wave (km/s) = 4.35206 6.57213 5.57375
#
# Compressibility (1/GPa) = 0.04256943
#
# Stress axis : x y z
#
# Youngs Moduli (GPa) = 26.18133 112.61965 72.39681
#
# Poissons Ratio (x) = 0.80526 0.21801
# Poissons Ratio (y) = 0.18720 -0.07258
# Poissons Ratio (z) = 0.07884 -0.11291
#
# Static dielectric constant tensor:
#      x y z
#    x 1.801470 -0.004400 0.012270 
#    y -0.004400 2.027260 -0.026840 
#    z 0.012270 -0.026840 1.885620 
# 
# From -- ./inp_files/320103.got.cif
#   From: 2010.05.17/outbox.cif.g08.bks.cpg/sg2_161_cif.got.tgz:320103.got - 2010.06.03 11:33:40.
