data_PCOD9061253
_publ_section_title
;
Structure prediction by ZEFSAII (Michael W. Deem and Ramdas Pophale) SiO2 
 PCOD9061253
Probable space group: P -1
;
_chemical_formula_sum "Si O2"
_cell_formula_units_Z 16
_cell_length_a 15.713431
_cell_length_b 11.624533
_cell_length_c 9.315032
_cell_angle_alpha 83.419184
_cell_angle_beta 70.995727
_cell_angle_gamma 28.325873
_cell_volume 704.970303
_symmetry_space_group_name_H-M "P -1"
_symmetry_group_IT_number 2
_symmetry_cell_setting 'triclinic'
loop_
_space_group_symop_operation_xyz
x,y,z
-x,-y,-z
loop_
_atom_site_type_symbol
_atom_site_label
_atom_site_fract_x
_atom_site_fract_y
_atom_site_fract_z
Si Si1 0.447292 0.141048 0.140073
Si Si2 0.470057 0.697670 0.027477
Si Si3 0.970307 0.639544 0.386362
Si Si4 0.788915 0.254397 0.157966
Si Si5 0.508684 0.583511 0.697146
Si Si6 0.296369 0.219537 0.672928
Si Si7 0.773858 0.437910 0.411933
Si Si8 0.180005 0.979836 0.396223
O O1 0.503951 0.202880 0.052206
O O2 0.202998 0.415157 0.265719
O O3 0.604467 0.920829 0.208535
O O4 0.500000 0.000000 0.000000
O O5 0.502974 0.594134 0.872873
O O6 0.636702 0.478021 0.088371
O O7 0.262908 0.920117 0.200289
O O8 0.852208 0.711940 0.309802
O O9 0.000000 0.500000 0.500000
O O10 0.835813 0.894438 0.502813
O O11 0.706922 0.222914 0.254351
O O12 0.790834 0.338207 0.277941
O O13 0.000000 0.000000 0.000000
O O14 0.569506 0.633160 0.581001
O O15 0.674172 0.294702 0.601544
O O16 0.202618 0.456262 0.666091
O O17 0.500000 0.000000 0.500000
O O18 0.949963 0.206479 0.462506
#
# Coordination Sequence:
#
# PCOD9061253 Si02
#       8
#     2   2   2   2   2   2   2   2
#     4  12  27  49  72 107 148 187 243 299 354 427
#     4  11  24  47  68 100 144 186 227 298 360 416
#     4  12  24  47  72 108 140 192 240 295 364 419
#     4  11  24  44  67 102 142 181 236 288 355 432
#     4  11  24  44  70 102 138 185 231 290 360 417
#     4  12  26  45  75 103 145 188 241 294 357 426
#     4  12  24  43  70 105 133 183 239 289 355 423
#     4  11  23  44  76  97 146 182 229 295 355 428
#
# _framework density 22.695990999999999
#
# number of rings (size 3 to 8) (size 9 to 14) (size 15 to 20)
#    0.000    0.500    2.500    6.750    3.500    1.500 
#    9.000    0.000    0.000    0.000    0.000    0.000 
#    0.000    0.000    0.000    0.000    0.000    0.000 
#
# Total GULP energy -89446.691213 kJ/mol
# GULP energy per Si atom -5590.418201 kJ/mol
# Density = 2.264433 g / cm^3
# Si number density = 22.695991 Si / 1000 Ang^3
#
#
#
# Elastic Constant Matrix: (Units=GPa)
#
#
# Indices 1 2 3 4 5 6 
#
# 1 127.2773 32.0188 40.5783 -3.5509 20.0973 0.5908
# 2 32.0188 70.6909 21.4587 4.3922 2.1468 -5.4900
# 3 40.5783 21.4587 102.5329 -3.7247 16.4922 3.3030
# 4 -3.5509 4.3922 -3.7247 40.3118 -1.7568 1.9785
# 5 20.0973 2.1468 16.4922 -1.7568 54.7092 -4.2081
# 6 0.5908 -5.4900 3.3030 1.9785 -4.2081 39.5113
#
#
#
# Elastic Compliance Matrix: (Units=1/GPa)
#
#
# Indices 1 2 3 4 5 6 
#
# 1 0.010152 -0.003814 -0.002709 0.000977 -0.002793 -0.000802
# 2 -0.003814 0.016960 -0.002487 -0.002486 0.001630 0.002920
# 3 -0.002709 -0.002487 0.011851 0.001095 -0.002570 -0.001624
# 4 0.000977 -0.002486 0.001095 0.025353 0.000091 -0.001711
# 5 -0.002793 0.001630 -0.002570 0.000091 0.020221 0.002632
# 6 -0.000802 0.002920 -0.001624 -0.001711 0.002632 0.026229
#
#
# Mechanical properties :
#
#
# Convention : Reuss Voigt Hill
#
# Bulk Modulus (GPa) = 47.74662 54.29031 51.01846
# Shear Modulus (GPa) = 36.82820 40.66949 38.74885
#
# Velocity S-wave (km/s) = 4.03261 4.23770 4.13643
# Velocity P-wave (km/s) = 6.53955 6.92219 6.73359
#
# Compressibility (1/GPa) = 0.02094389
#
# Stress axis : x y z
#
# Youngs Moduli (GPa) = 98.50200 58.96164 84.38212
#
# Poissons Ratio (x) = 0.22489 0.22858
# Poissons Ratio (y) = 0.37570 0.20982
# Poissons Ratio (z) = 0.26683 0.14661
#
# Static dielectric constant tensor:
#      x y z
#    x 1.689890 0.152820 -0.219320 
#    y 0.152820 1.652790 0.232290 
#    z -0.219320 0.232290 1.713080 
# 
# From -- ./inp_files/307294.got.cif
#   From: 2010.05.17/outbox.cif.g08.bks.cpg/sg2_154_cif.got.tgz:307294.got - 2010.06.03 11:33:40.
