data_PCOD9061340
_publ_section_title
;
Structure prediction by ZEFSAII (Michael W. Deem and Ramdas Pophale) SiO2 
 PCOD9061340
Probable space group: P -1
;
_chemical_formula_sum "Si O2"
_cell_formula_units_Z 14
_cell_length_a 13.129060
_cell_length_b 23.264215
_cell_length_c 22.181267
_cell_angle_alpha 162.625344
_cell_angle_beta 25.890386
_cell_angle_gamma 162.624705
_cell_volume 599.390410
_symmetry_space_group_name_H-M "P -1"
_symmetry_group_IT_number 2
_symmetry_cell_setting 'triclinic'
loop_
_space_group_symop_operation_xyz
x,y,z
-x,-y,-z
loop_
_atom_site_type_symbol
_atom_site_label
_atom_site_fract_x
_atom_site_fract_y
_atom_site_fract_z
Si Si1 0.607047 0.154065 0.161900
Si Si2 0.549395 0.526138 0.428215
Si Si3 0.676492 0.113525 0.640188
Si Si4 0.822816 0.972999 0.954461
Si Si5 0.347610 0.636991 0.983257
Si Si6 0.707057 0.449208 0.870307
Si Si7 0.585442 0.607619 0.200881
O O1 0.427579 0.237222 0.362705
O O2 0.005242 0.439977 0.218968
O O3 0.500000 0.000000 0.000000
O O4 0.607452 0.004684 0.065889
O O5 0.500000 0.500000 0.500000
O O6 0.236238 0.240240 0.273092
O O7 0.906416 0.637498 0.335398
O O8 0.568294 0.164473 0.808298
O O9 0.560424 0.165585 0.695273
O O10 0.577827 0.829589 0.414063
O O11 0.648944 0.819052 0.956083
O O12 0.204888 0.286242 0.071570
O O13 0.308743 0.403094 0.800256
O O14 0.000000 0.500000 0.000000
O O15 0.500000 0.500000 0.000000
O O16 0.826284 0.638670 0.056300
#
# Coordination Sequence:
#
# PCOD9061340 Si02
#       7
#     2   2   2   2   2   2   2
#     4  12  24  41  71 105 143 190 241 294 357 436
#     4  12  24  43  74 106 147 191 244 289 363 442
#     4  11  25  46  76 108 143 193 246 301 362 437
#     4  12  26  48  70 107 147 196 236 307 364 428
#     4  11  26  49  75 103 145 194 252 300 361 435
#     4  11  23  45  68 106 151 185 230 295 369 434
#     4  11  27  45  73 107 149 188 244 310 363 428
#
# _framework density 23.357064000000001
#
# number of rings (size 3 to 8) (size 9 to 14) (size 15 to 20)
#    0.000    0.571    5.714    1.286    4.000    5.143 
#    0.000    0.000    0.000    0.000    0.000    0.000 
#    0.000    0.000    0.000    0.000    0.000    0.000 
#
# Total GULP energy -78251.451688 kJ/mol
# GULP energy per Si atom -5589.389406 kJ/mol
# Density = 2.330390 g / cm^3
# Si number density = 23.357064 Si / 1000 Ang^3
#
#
#
# Elastic Constant Matrix: (Units=GPa)
#
#
# Indices 1 2 3 4 5 6 
#
# 1 137.8506 28.1055 52.2031 9.1067 -28.6281 -14.1299
# 2 28.1055 86.3753 27.8023 5.4846 1.3203 -8.1226
# 3 52.2031 27.8023 146.3123 9.6401 -27.0159 -1.3253
# 4 9.1067 5.4846 9.6401 39.4021 -0.5165 3.7582
# 5 -28.6281 1.3203 -27.0159 -0.5165 50.8606 -2.7968
# 6 -14.1299 -8.1226 -1.3253 3.7582 -2.7968 48.9564
#
#
#
# Elastic Compliance Matrix: (Units=1/GPa)
#
#
# Indices 1 2 3 4 5 6 
#
# 1 0.009867 -0.002233 -0.002106 -0.001662 0.004631 0.002812
# 2 -0.002233 0.013226 -0.002131 -0.000973 -0.002665 0.001414
# 3 -0.002106 -0.002131 0.008709 -0.001261 0.003459 -0.000431
# 4 -0.001662 -0.000973 -0.001261 0.026454 -0.001465 -0.002790
# 5 0.004631 -0.002665 0.003459 -0.001465 0.024297 0.002489
# 6 0.002812 0.001414 -0.000431 -0.002790 0.002489 0.021817
#
#
# Mechanical properties :
#
#
# Convention : Reuss Voigt Hill
#
# Bulk Modulus (GPa) = 53.02230 65.19556 59.10893
# Shear Modulus (GPa) = 40.45353 45.33897 42.89625
#
# Velocity S-wave (km/s) = 4.16620 4.41060 4.29014
# Velocity P-wave (km/s) = 6.77444 7.34241 7.06413
#
# Compressibility (1/GPa) = 0.01885999
#
# Stress axis : x y z
#
# Youngs Moduli (GPa) = 101.34882 75.61030 114.82338
#
# Poissons Ratio (x) = 0.16888 0.24182
# Poissons Ratio (y) = 0.22636 0.24473
# Poissons Ratio (z) = 0.21344 0.16115
#
# Static dielectric constant tensor:
#      x y z
#    x 1.918830 0.047010 -0.030520 
#    y 0.047010 1.931890 0.027710 
#    z -0.030520 0.027710 1.969550 
# 
# From -- ./inp_files/596265.got.cif
#   From: 2010.05.17/outbox.cif.g08.bks.cpg/sg2_299_cif.got.tgz:596265.got - 2010.06.03 11:33:40.
