data_PCOD9061924
_publ_section_title
;
Structure prediction by ZEFSAII (Michael W. Deem and Ramdas Pophale) SiO2 
 PCOD9061924
Probable space group: P -1
;
_chemical_formula_sum "Si O2"
_cell_formula_units_Z 16
_cell_length_a 9.157570
_cell_length_b 11.548430
_cell_length_c 8.628721
_cell_angle_alpha 113.886679
_cell_angle_beta 102.968204
_cell_angle_gamma 61.650672
_cell_volume 733.721689
_symmetry_space_group_name_H-M "P -1"
_symmetry_group_IT_number 2
_symmetry_cell_setting 'triclinic'
loop_
_space_group_symop_operation_xyz
x,y,z
-x,-y,-z
loop_
_atom_site_type_symbol
_atom_site_label
_atom_site_fract_x
_atom_site_fract_y
_atom_site_fract_z
Si Si1 0.753148 0.119164 0.776377
Si Si2 0.493107 0.623207 0.953251
Si Si3 0.161496 0.363327 0.016481
Si Si4 0.930174 0.808255 0.608965
Si Si5 0.292454 0.617970 0.610309
Si Si6 0.915575 0.876768 0.279130
Si Si7 0.631068 0.173926 0.439984
Si Si8 0.736880 0.666433 0.626013
O O1 0.639651 0.147494 0.610861
O O2 0.915541 0.138931 0.771175
O O3 0.821229 0.955677 0.745626
O O4 0.644782 0.229027 0.936863
O O5 0.671404 0.624993 0.988622
O O6 0.431189 0.597877 0.758488
O O7 0.500000 0.500000 0.000000
O O8 0.173648 0.349527 0.197410
O O9 0.148383 0.229454 0.867133
O O10 0.000000 0.500000 0.000000
O O11 0.946911 0.842845 0.451809
O O12 0.838924 0.707441 0.545584
O O13 0.111142 0.729175 0.682641
O O14 0.332368 0.692299 0.513763
O O15 0.277190 0.476386 0.492924
O O16 0.774716 0.036224 0.323739
O O17 0.450096 0.211583 0.350229
#
# Coordination Sequence:
#
# PCOD9061924 Si02
#       8
#     2   2   2   2   2   2   2   2
#     4  11  24  47  74 101 139 181 227 283 341 407
#     4  12  29  44  71 104 136 183 230 283 344 407
#     4  12  29  47  68 102 142 180 226 287 348 403
#     4  11  25  45  73 105 135 184 232 275 344 406
#     4  12  24  48  70  98 141 182 234 278 336 412
#     4  11  24  46  74 100 142 180 225 284 342 407
#     4  11  23  46  73  99 137 187 230 275 340 408
#     4  12  28  43  71 102 139 183 230 288 336 408
#
# _framework density 21.806632
#
# number of rings (size 3 to 8) (size 9 to 14) (size 15 to 20)
#    0.000    0.500    3.750    3.750   10.500    3.000 
#    0.000    0.000    0.000    0.000    0.000    0.000 
#    0.000    0.000    0.000    0.000    0.000    0.000 
#
# Total GULP energy -89612.964761 kJ/mol
# GULP energy per Si atom -5600.810298 kJ/mol
# Density = 2.175700 g / cm^3
# Si number density = 21.806632 Si / 1000 Ang^3
#
#
#
# Elastic Constant Matrix: (Units=GPa)
#
#
# Indices 1 2 3 4 5 6 
#
# 1 108.5187 54.7780 19.2514 2.8664 14.2316 -10.1720
# 2 54.7780 121.8229 44.4202 10.6759 12.4441 -15.9255
# 3 19.2514 44.4202 84.6473 22.0258 20.0855 -16.4347
# 4 2.8664 10.6759 22.0258 35.2729 -2.1871 10.0975
# 5 14.2316 12.4441 20.0855 -2.1871 35.9933 1.3412
# 6 -10.1720 -15.9255 -16.4347 10.0975 1.3412 38.7083
#
#
#
# Elastic Compliance Matrix: (Units=1/GPa)
#
#
# Indices 1 2 3 4 5 6 
#
# 1 0.012427 -0.005391 0.001863 -0.001486 -0.004268 0.002374
# 2 -0.005391 0.012724 -0.004938 -0.000861 0.000364 0.001934
# 3 0.001863 -0.004938 0.025707 -0.019974 -0.015151 0.015108
# 4 -0.001486 -0.000861 -0.019974 0.048613 0.015822 -0.022454
# 5 -0.004268 0.000364 -0.015151 0.015822 0.039242 -0.012892
# 6 0.002374 0.001934 0.015108 -0.022454 -0.012892 0.039972
#
#
# Mechanical properties :
#
#
# Convention : Reuss Voigt Hill
#
# Bulk Modulus (GPa) = 29.47511 61.32090 45.39801
# Shear Modulus (GPa) = 24.16320 35.09752 29.63036
#
# Velocity S-wave (km/s) = 3.33237 4.01620 3.69016
# Velocity P-wave (km/s) = 5.32468 7.04896 6.24660
#
# Compressibility (1/GPa) = 0.03392693
#
# Stress axis : x y z
#
# Youngs Moduli (GPa) = 80.46921 78.59054 38.89955
#
# Poissons Ratio (x) = 0.42365 -0.07247
# Poissons Ratio (y) = 0.43377 0.19209
# Poissons Ratio (z) = -0.14991 0.38809
#
# Static dielectric constant tensor:
#      x y z
#    x 1.797190 -0.009610 -0.018370 
#    y -0.009610 1.792150 0.006190 
#    z -0.018370 0.006190 1.756190 
# 
# From -- ./inp_files/184936.got.cif
#   From: 2010.05.17/outbox.cif.g08.bks.cpg/sg2_93_cif.got.tgz:184936.got - 2010.06.03 11:33:40.
