data_PCOD9061829
_publ_section_title
;
Structure prediction by ZEFSAII (Michael W. Deem and Ramdas Pophale) SiO2 
 PCOD9061829
Probable space group: P -1
;
_chemical_formula_sum "Si O2"
_cell_formula_units_Z 16
_cell_length_a 10.634669
_cell_length_b 6.274385
_cell_length_c 11.702702
_cell_angle_alpha 95.642461
_cell_angle_beta 116.006193
_cell_angle_gamma 100.653540
_cell_volume 675.337885
_symmetry_space_group_name_H-M "P -1"
_symmetry_group_IT_number 2
_symmetry_cell_setting 'triclinic'
loop_
_space_group_symop_operation_xyz
x,y,z
-x,-y,-z
loop_
_atom_site_type_symbol
_atom_site_label
_atom_site_fract_x
_atom_site_fract_y
_atom_site_fract_z
Si Si1 0.575812 0.490482 0.909643
Si Si2 0.327086 0.479865 0.635970
Si Si3 0.247910 0.816691 0.135542
Si Si4 0.522462 0.097771 0.388432
Si Si5 0.135189 0.746211 0.711127
Si Si6 0.821554 0.911948 0.060094
Si Si7 0.951256 0.329477 0.750132
Si Si8 0.179996 0.999783 0.524588
O O1 0.452738 0.435246 0.762676
O O2 0.673793 0.318871 0.924831
O O3 0.500000 0.500000 0.000000
O O4 0.680760 0.732948 0.952517
O O5 0.412738 0.638557 0.579452
O O6 0.237589 0.607016 0.688149
O O7 0.213464 0.261942 0.535634
O O8 0.161704 0.662768 0.193796
O O9 0.374715 0.002644 0.256598
O O10 0.140758 0.922596 0.023942
O O11 0.656242 0.018192 0.385968
O O12 0.500000 0.000000 0.500000
O O13 0.092114 0.885158 0.595076
O O14 0.016297 0.561706 0.723854
O O15 0.207711 0.935641 0.839693
O O16 0.928186 0.773821 0.146685
O O17 0.875948 0.150409 0.615197
#
# Coordination Sequence:
#
# PCOD9061829 Si02
#       8
#     2   2   2   2   2   2   2   2
#     4  12  25  44  75 106 144 185 243 299 361 429
#     4  11  24  45  76 110 140 187 243 305 361 424
#     4  12  26  47  73 108 147 188 241 300 362 436
#     4  11  23  46  71 110 146 186 238 302 369 421
#     4  11  26  47  74 107 146 196 246 297 357 426
#     4  12  27  46  69 105 146 197 242 293 358 434
#     4  12  27  48  71 105 153 195 240 295 360 437
#     4  11  24  46  76 110 143 188 248 301 361 426
#
# _framework density 23.691842999999999
#
# number of rings (size 3 to 8) (size 9 to 14) (size 15 to 20)
#    0.000    0.500    3.750    4.500    1.750    8.500 
#    2.250    0.000    0.000    0.000    0.000    0.000 
#    0.000    0.000    0.000    0.000    0.000    0.000 
#
# Total GULP energy -89492.240582 kJ/mol
# GULP energy per Si atom -5593.265036 kJ/mol
# Density = 2.363792 g / cm^3
# Si number density = 23.691843 Si / 1000 Ang^3
#
#
#
# Elastic Constant Matrix: (Units=GPa)
#
#
# Indices 1 2 3 4 5 6 
#
# 1 75.5682 45.7661 17.9545 -13.3313 -12.7319 17.5791
# 2 45.7661 147.4112 62.6839 -9.7342 -6.3234 23.3087
# 3 17.9545 62.6839 122.8332 -14.2862 -3.5712 13.2112
# 4 -13.3313 -9.7342 -14.2862 48.9960 6.4593 -9.8573
# 5 -12.7319 -6.3234 -3.5712 6.4593 25.6875 -4.3772
# 6 17.5791 23.3087 13.2112 -9.8573 -4.3772 34.2278
#
#
#
# Elastic Compliance Matrix: (Units=1/GPa)
#
#
# Indices 1 2 3 4 5 6 
#
# 1 0.018757 -0.004913 0.000787 0.002460 0.006722 -0.005023
# 2 -0.004913 0.010659 -0.004506 -0.001123 -0.000737 -0.003414
# 3 0.000787 -0.004506 0.010676 0.002264 0.000060 -0.000797
# 4 0.002460 -0.001123 0.002264 0.022964 -0.003704 0.004767
# 5 0.006722 -0.000737 0.000060 -0.003704 0.043274 0.001494
# 6 -0.005023 -0.003414 -0.000797 0.004767 0.001494 0.035992
#
#
# Mechanical properties :
#
#
# Convention : Reuss Voigt Hill
#
# Bulk Modulus (GPa) = 43.80510 66.51352 55.15931
# Shear Modulus (GPa) = 29.90513 36.40948 33.15730
#
# Velocity S-wave (km/s) = 3.55668 3.92445 3.74508
# Velocity P-wave (km/s) = 5.94948 6.97642 6.48331
#
# Compressibility (1/GPa) = 0.02282839
#
# Stress axis : x y z
#
# Youngs Moduli (GPa) = 53.31479 93.81436 93.66419
#
# Poissons Ratio (x) = 0.46091 -0.07375
# Poissons Ratio (y) = 0.26194 0.42208
# Poissons Ratio (z) = -0.04198 0.42276
#
# Static dielectric constant tensor:
#      x y z
#    x 1.940180 -0.044110 0.020610 
#    y -0.044110 1.961400 -0.057760 
#    z 0.020610 -0.057760 1.850600 
# 
# From -- ./inp_files/410443.got.cif
#   From: 2010.05.17/outbox.cif.g08.bks.cpg/sg2_206_cif.got.tgz:410443.got - 2010.06.03 11:33:40.
