data_PCOD9061319
_publ_section_title
;
Structure prediction by ZEFSAII (Michael W. Deem and Ramdas Pophale) SiO2 
 PCOD9061319
Probable space group: P -1
;
_chemical_formula_sum "Si O2"
_cell_formula_units_Z 14
_cell_length_a 15.134136
_cell_length_b 15.518219
_cell_length_c 7.722852
_cell_angle_alpha 103.035785
_cell_angle_beta 119.186469
_cell_angle_gamma 27.445706
_cell_volume 625.631830
_symmetry_space_group_name_H-M "P -1"
_symmetry_group_IT_number 2
_symmetry_cell_setting 'triclinic'
loop_
_space_group_symop_operation_xyz
x,y,z
-x,-y,-z
loop_
_atom_site_type_symbol
_atom_site_label
_atom_site_fract_x
_atom_site_fract_y
_atom_site_fract_z
Si Si1 0.908792 0.643806 0.619621
Si Si2 0.766821 0.070252 0.826039
Si Si3 0.624823 0.645977 0.869038
Si Si4 0.476654 0.894971 0.532900
Si Si5 0.634137 0.477339 0.337357
Si Si6 0.097523 0.011308 0.693378
Si Si7 0.268237 0.608966 0.990878
O O1 0.718922 0.749930 0.622740
O O2 0.000000 0.500000 0.500000
O O3 0.735930 0.866043 0.496796
O O4 0.163740 0.473160 0.872599
O O5 0.647247 0.068021 0.717087
O O6 0.557701 0.302758 0.659203
O O7 0.859271 0.033604 0.081108
O O8 0.008527 0.867707 0.846797
O O9 0.564438 0.756290 0.699864
O O10 0.740569 0.454351 0.891515
O O11 0.358332 0.837310 0.787921
O O12 0.487416 0.502525 0.186868
O O13 0.889111 0.251951 0.571493
O O14 0.687400 0.469657 0.190116
O O15 0.000000 0.000000 0.500000
#
# Coordination Sequence:
#
# PCOD9061319 Si02
#       7
#     2   2   2   2   2   2   2
#     4  11  26  51  76 102 141 181 236 300 362 428
#     4  12  25  44  71 105 139 191 241 289 351 414
#     4  12  24  47  73 105 148 183 232 297 351 420
#     4  11  27  46  75 108 139 182 238 296 361 423
#     4  11  24  44  66  98 147 192 236 287 344 409
#     4  12  25  43  71 102 147 194 238 283 349 414
#     4  11  23  45  68 100 146 188 238 290 339 421
#
# _framework density 22.377379000000001
#
# number of rings (size 3 to 8) (size 9 to 14) (size 15 to 20)
#    0.000    0.571    4.286    3.429    2.000    2.286 
#    0.000    0.000    0.000    0.000    0.000    0.000 
#    0.000    0.000    0.000    0.000    0.000    0.000 
#
# Total GULP energy -78268.801016 kJ/mol
# GULP energy per Si atom -5590.628644 kJ/mol
# Density = 2.232645 g / cm^3
# Si number density = 22.377379 Si / 1000 Ang^3
#
#
#
# Elastic Constant Matrix: (Units=GPa)
#
#
# Indices 1 2 3 4 5 6 
#
# 1 107.3083 29.7693 55.0275 -5.0639 -2.4283 17.9020
# 2 29.7693 144.9894 71.2705 -28.6439 -11.5738 18.3278
# 3 55.0275 71.2705 128.4719 -20.6807 19.3974 3.3314
# 4 -5.0639 -28.6439 -20.6807 47.5266 3.7605 3.6209
# 5 -2.4283 -11.5738 19.3974 3.7605 37.8548 -17.2840
# 6 17.9020 18.3278 3.3314 3.6209 -17.2840 31.5886
#
#
#
# Elastic Compliance Matrix: (Units=1/GPa)
#
#
# Indices 1 2 3 4 5 6 
#
# 1 0.013533 0.001493 -0.006721 -0.000185 0.001631 -0.006913
# 2 0.001493 0.011961 -0.007187 0.004235 0.004778 -0.004899
# 3 -0.006721 -0.007187 0.017036 0.003381 -0.012061 -0.000804
# 4 -0.000185 0.004235 0.003381 0.026398 -0.007585 -0.009885
# 5 0.001631 0.004778 -0.012061 -0.007585 0.045598 0.023394
# 6 -0.006913 -0.004899 -0.000804 -0.009885 0.023394 0.052435
#
#
# Mechanical properties :
#
#
# Convention : Reuss Voigt Hill
#
# Bulk Modulus (GPa) = 56.50335 76.98932 66.74633
# Shear Modulus (GPa) = 25.29175 38.37416 31.83295
#
# Velocity S-wave (km/s) = 3.36555 4.14558 3.77576
# Velocity P-wave (km/s) = 6.35669 7.57589 6.99292
#
# Compressibility (1/GPa) = 0.01769807
#
# Stress axis : x y z
#
# Youngs Moduli (GPa) = 73.89333 83.60487 58.69861
#
# Poissons Ratio (x) = -0.12480 0.39454
# Poissons Ratio (y) = -0.11031 0.42189
# Poissons Ratio (z) = 0.49667 0.60090
#
# Static dielectric constant tensor:
#      x y z
#    x 1.824530 0.023360 -0.007890 
#    y 0.023360 1.859070 0.013010 
#    z -0.007890 0.013010 1.826840 
# 
# From -- ./inp_files/315696.got.cif
#   From: 2010.05.17/outbox.cif.g08.bks.cpg/sg2_158_cif.got.tgz:315696.got - 2010.06.03 11:33:40.
