data_PCOD9061423
_publ_section_title
;
Structure prediction by ZEFSAII (Michael W. Deem and Ramdas Pophale) SiO2 
 PCOD9061423
Probable space group: P -1
;
_chemical_formula_sum "Si O2"
_cell_formula_units_Z 14
_cell_length_a 18.957217
_cell_length_b 18.586643
_cell_length_c 9.147168
_cell_angle_alpha 41.107689
_cell_angle_beta 140.183155
_cell_angle_gamma 163.281658
_cell_volume 590.897352
_symmetry_space_group_name_H-M "P -1"
_symmetry_group_IT_number 2
_symmetry_cell_setting 'triclinic'
loop_
_space_group_symop_operation_xyz
x,y,z
-x,-y,-z
loop_
_atom_site_type_symbol
_atom_site_label
_atom_site_fract_x
_atom_site_fract_y
_atom_site_fract_z
Si Si1 0.335524 0.403450 0.098534
Si Si2 0.070409 0.299643 0.371033
Si Si3 0.701145 0.469520 0.941223
Si Si4 0.761052 0.840278 0.441350
Si Si5 0.314638 0.918078 0.737826
Si Si6 0.274000 0.757222 0.615042
Si Si7 0.443351 0.289671 0.289727
O O1 0.160992 0.337934 0.005529
O O2 0.399337 0.387833 0.367912
O O3 0.273212 0.243010 0.141150
O O4 0.506691 0.634796 0.915702
O O5 0.179441 0.413860 0.207663
O O6 0.287926 0.455066 0.589094
O O7 0.929968 0.278641 0.248303
O O8 0.863816 0.021945 0.439250
O O9 0.416924 0.260105 0.801562
O O10 0.664583 0.311732 0.149508
O O11 0.000000 0.000000 0.500000
O O12 0.260701 0.812276 0.660100
O O13 0.387526 0.110872 0.511078
O O14 0.500000 0.000000 0.000000
O O15 0.000000 0.500000 0.500000
O O16 0.500000 0.000000 0.500000
#
# Coordination Sequence:
#
# PCOD9061423 Si02
#       7
#     2   2   2   2   2   2   2
#     4  11  23  45  70 105 156 191 244 323 395 476
#     4  12  24  44  77 106 148 197 263 318 398 470
#     4  12  26  48  75 108 155 204 269 322 406 485
#     4  12  23  43  74 113 149 202 260 320 401 488
#     4  12  28  51  81 111 154 210 276 331 401 484
#     4  12  32  55  82 118 164 215 275 342 414 483
#     4  11  25  46  69 112 150 196 249 324 396 471
#
# _framework density 23.692778000000001
#
# number of rings (size 3 to 8) (size 9 to 14) (size 15 to 20)
#    0.000    0.286    4.286    3.857    8.000    1.714 
#    2.571    0.000    0.000    0.000    0.000    0.000 
#    0.000    0.000    0.000    0.000    0.000    0.000 
#
# Total GULP energy -77992.394198 kJ/mol
# GULP energy per Si atom -5570.885300 kJ/mol
# Density = 2.363885 g / cm^3
# Si number density = 23.692778 Si / 1000 Ang^3
#
#
#
# Elastic Constant Matrix: (Units=GPa)
#
#
# Indices 1 2 3 4 5 6 
#
# 1 243.6776 64.8279 87.8082 4.1595 2.1128 1.9354
# 2 64.8279 98.5537 54.7671 1.7921 7.8510 -12.1087
# 3 87.8082 54.7671 141.9471 -40.2646 3.0849 -5.4933
# 4 4.1595 1.7921 -40.2646 32.9515 -0.5136 1.7686
# 5 2.1128 7.8510 3.0849 -0.5136 52.8386 -8.5555
# 6 1.9354 -12.1087 -5.4933 1.7686 -8.5555 46.5386
#
#
#
# Elastic Compliance Matrix: (Units=1/GPa)
#
#
# Indices 1 2 3 4 5 6 
#
# 1 0.006741 -0.000954 -0.006200 -0.008324 0.000000 -0.000944
# 2 -0.000954 0.016568 -0.009057 -0.012056 -0.001450 0.003473
# 3 -0.006200 -0.009057 0.022525 0.028830 0.000487 -0.000446
# 4 -0.008324 -0.012056 0.028830 0.067392 0.000804 -0.001801
# 5 0.000000 -0.001450 0.000487 0.000804 0.019649 0.003262
# 6 -0.000944 0.003473 -0.000446 -0.001801 0.003262 0.023046
#
#
# Mechanical properties :
#
#
# Convention : Reuss Voigt Hill
#
# Bulk Modulus (GPa) = 74.55017 99.88719 87.21868
# Shear Modulus (GPa) = 25.93195 44.91742 35.42469
#
# Velocity S-wave (km/s) = 3.31193 4.35883 3.87094
# Velocity P-wave (km/s) = 6.79403 8.22091 7.54129
#
# Compressibility (1/GPa) = 0.01341378
#
# Stress axis : x y z
#
# Youngs Moduli (GPa) = 148.34125 60.35643 44.39572
#
# Poissons Ratio (x) = 0.05755 0.27526
# Poissons Ratio (y) = 0.14145 0.40207
# Poissons Ratio (z) = 0.91972 0.54662
#
# Static dielectric constant tensor:
#      x y z
#    x 2.046550 -0.003700 -0.029080 
#    y -0.003700 1.945570 -0.033410 
#    z -0.029080 -0.033410 1.899820 
# 
# From -- ./inp_files/288812.got.cif
#   From: 2010.05.17/outbox.cif.g08.bks.cpg/sg2_145_cif.got.tgz:288812.got - 2010.06.03 11:33:40.
