data_PCOD9061906
_publ_section_title
;
Structure prediction by ZEFSAII (Michael W. Deem and Ramdas Pophale) SiO2 
 PCOD9061906
Probable space group: P -1
;
_chemical_formula_sum "Si O2"
_cell_formula_units_Z 12
_cell_length_a 9.934517
_cell_length_b 10.682724
_cell_length_c 9.063271
_cell_angle_alpha 71.369815
_cell_angle_beta 50.510362
_cell_angle_gamma 45.547672
_cell_volume 515.861500
_symmetry_space_group_name_H-M "P -1"
_symmetry_group_IT_number 2
_symmetry_cell_setting 'triclinic'
loop_
_space_group_symop_operation_xyz
x,y,z
-x,-y,-z
loop_
_atom_site_type_symbol
_atom_site_label
_atom_site_fract_x
_atom_site_fract_y
_atom_site_fract_z
Si Si1 0.245080 0.434330 0.302847
Si Si2 0.636436 0.124317 0.616403
Si Si3 0.516900 0.401106 0.382296
Si Si4 0.822338 0.123084 0.766792
Si Si5 0.884841 0.282714 0.930784
Si Si6 0.636422 0.006939 0.139521
O O1 0.321560 0.498072 0.353372
O O2 0.195698 0.535736 0.146368
O O3 0.441355 0.218629 0.234721
O O4 0.000000 0.500000 0.500000
O O5 0.521629 0.253095 0.506719
O O6 0.639238 0.218373 0.722573
O O7 0.504164 0.056116 0.767162
O O8 0.917002 0.971480 0.439105
O O9 0.500000 0.500000 0.500000
O O10 0.754432 0.313952 0.160852
O O11 0.794215 0.226652 0.891822
O O12 0.782898 0.994182 0.904730
O O13 0.165852 0.120989 0.823754
#
# Coordination Sequence:
#
# PCOD9061906 Si02
#       6
#     2   2   2   2   2   2
#     4  12  27  47  75 110 146 192 246 302 367 437
#     4  11  25  44  74 109 148 189 242 305 364 433
#     4  12  26  47  72 107 149 195 244 306 365 431
#     4  11  23  46  73 106 146 194 242 297 367 434
#     4  12  25  50  76 105 147 198 246 299 367 437
#     4  12  25  48  78 108 146 192 246 299 366 438
#
# _framework density 23.262058
#
# number of rings (size 3 to 8) (size 9 to 14) (size 15 to 20)
#    0.000    0.333    3.333    5.500    2.333    3.333 
#    3.000    1.667    0.000    0.000    0.000    0.000 
#    0.000    0.000    0.000    0.000    0.000    0.000 
#
# Total GULP energy -67107.522365 kJ/mol
# GULP energy per Si atom -5592.293530 kJ/mol
# Density = 2.320911 g / cm^3
# Si number density = 23.262058 Si / 1000 Ang^3
#
#
#
# Elastic Constant Matrix: (Units=GPa)
#
#
# Indices 1 2 3 4 5 6 
#
# 1 125.6327 55.9931 67.1526 1.9006 -9.9531 -5.8560
# 2 55.9931 109.7183 39.6690 -8.3973 -6.1624 -21.9630
# 3 67.1526 39.6690 123.9018 -3.1342 -17.5283 -2.5257
# 4 1.9006 -8.3973 -3.1342 42.0892 0.1492 5.3180
# 5 -9.9531 -6.1624 -17.5283 0.1492 52.0594 -4.8766
# 6 -5.8560 -21.9630 -2.5257 5.3180 -4.8766 39.3413
#
#
#
# Elastic Compliance Matrix: (Units=1/GPa)
#
#
# Indices 1 2 3 4 5 6 
#
# 1 0.013183 -0.005041 -0.005605 -0.001897 -0.000048 -0.000962
# 2 -0.005041 0.013707 -0.001354 0.002019 0.000819 0.006643
# 3 -0.005605 -0.001354 0.011939 0.000940 0.002728 -0.000612
# 4 -0.001897 0.002019 0.000940 0.024626 -0.000106 -0.002437
# 5 -0.000048 0.000819 0.002728 -0.000106 0.020514 0.003183
# 6 -0.000962 0.006643 -0.000612 -0.002437 0.003183 0.029669
#
#
# Mechanical properties :
#
#
# Convention : Reuss Voigt Hill
#
# Bulk Modulus (GPa) = 67.43740 76.09804 71.76772
# Shear Modulus (GPa) = 35.06792 39.79385 37.43089
#
# Velocity S-wave (km/s) = 3.88689 4.14052 4.01571
# Velocity P-wave (km/s) = 7.01406 7.45942 7.24017
#
# Compressibility (1/GPa) = 0.01482857
#
# Stress axis : x y z
#
# Youngs Moduli (GPa) = 75.85716 72.95586 83.75628
#
# Poissons Ratio (x) = 0.36780 0.46946
# Poissons Ratio (y) = 0.38243 0.11338
# Poissons Ratio (z) = 0.42519 0.09876
#
# Static dielectric constant tensor:
#      x y z
#    x 1.852200 0.014700 0.012010 
#    y 0.014700 1.947790 -0.012730 
#    z 0.012010 -0.012730 1.874330 
# 
# From -- ./inp_files/175686.got.cif
#   From: 2010.05.17/outbox.cif.g08.bks.cpg/sg2_88_cif.got.tgz:175686.got - 2010.06.03 11:33:40.
