data_PCOD9061988
_publ_section_title
;
Structure prediction by ZEFSAII (Michael W. Deem and Ramdas Pophale) SiO2 
 PCOD9061988
Probable space group: P -1
;
_chemical_formula_sum "Si O2"
_cell_formula_units_Z 13
_cell_length_a 10.546545
_cell_length_b 9.293003
_cell_length_c 5.112317
_cell_angle_alpha 99.294251
_cell_angle_beta 91.783520
_cell_angle_gamma 113.163301
_cell_volume 452.134174
_symmetry_space_group_name_H-M "P -1"
_symmetry_group_IT_number 2
_symmetry_cell_setting 'triclinic'
loop_
_space_group_symop_operation_xyz
x,y,z
-x,-y,-z
loop_
_atom_site_type_symbol
_atom_site_label
_atom_site_fract_x
_atom_site_fract_y
_atom_site_fract_z
Si Si1 0.653729 0.356300 0.204722
Si Si2 0.618167 0.077133 0.748308
Si Si3 0.371438 0.228986 0.401907
Si Si4 0.207818 0.360047 0.084129
Si Si5 0.000000 0.500000 0.000000
Si Si6 0.873768 0.279834 0.470402
Si Si7 0.870102 0.956856 0.283073
O O1 0.537893 0.325006 0.413250
O O2 0.686925 0.514285 0.080857
O O3 0.806724 0.362106 0.283422
O O4 0.591136 0.191226 0.986559
O O5 0.746043 0.196271 0.631937
O O6 0.500000 0.000000 0.500000
O O7 0.657191 0.934415 0.810715
O O8 0.282031 0.146475 0.626849
O O9 0.301620 0.340667 0.316279
O O10 0.124876 0.174964 0.951232
O O11 0.100929 0.439268 0.164258
O O12 0.011868 0.631207 0.279388
O O13 0.882996 0.132783 0.271558
O O14 0.000000 0.000000 0.500000
#
# Coordination Sequence:
#
# PCOD9061988 Si02
#       7
#     2   2   2   2   1   2   2
#     4  12  26  46  77 114 153 205 246 320 381 456
#     4  11  23  46  76 115 151 195 256 307 384 455
#     4  11  27  45  75 109 154 193 251 312 383 455
#     4  12  28  47  72 111 155 199 257 308 389 446
#     4  12  26  52  72 108 150 206 260 318 368 454
#     4  11  25  48  77 108 151 198 266 307 380 451
#     4  11  26  49  74 109 145 203 250 318 374 455
#
# _framework density 28.752528999999999
#
# number of rings (size 3 to 8) (size 9 to 14) (size 15 to 20)
#    0.000    0.615    4.615    1.846    6.462    3.077 
#    0.000    0.000    0.000    0.000    0.000    0.000 
#    0.000    0.000    0.000    0.000    0.000    0.000 
#
# Total GULP energy -72554.196261 kJ/mol
# GULP energy per Si atom -5581.092020 kJ/mol
# Density = 2.868709 g / cm^3
# Si number density = 28.752529 Si / 1000 Ang^3
#
#
#
# Elastic Constant Matrix: (Units=GPa)
#
#
# Indices 1 2 3 4 5 6 
#
# 1 118.7684 49.3176 1.0308 9.5105 11.5394 -19.5624
# 2 49.3176 174.7485 46.1327 -7.1592 12.1263 -24.4342
# 3 1.0308 46.1327 114.5630 32.7984 14.4164 -15.7124
# 4 9.5105 -7.1592 32.7984 53.9561 -6.8489 12.4965
# 5 11.5394 12.1263 14.4164 -6.8489 41.4644 0.1563
# 6 -19.5624 -24.4342 -15.7124 12.4965 0.1563 38.2821
#
#
#
# Elastic Compliance Matrix: (Units=1/GPa)
#
#
# Indices 1 2 3 4 5 6 
#
# 1 0.013103 -0.003969 0.006535 -0.009972 -0.006443 0.010126
# 2 -0.003969 0.008199 -0.004940 0.005061 0.001262 -0.000479
# 3 0.006535 -0.004940 0.018865 -0.017719 -0.009912 0.013754
# 4 -0.009972 0.005061 -0.017719 0.038541 0.013903 -0.021775
# 5 -0.006443 0.001262 -0.009912 0.013903 0.031326 -0.011222
# 6 0.010126 -0.000479 0.013754 -0.021775 -0.011222 0.043790
#
#
# Mechanical properties :
#
#
# Convention : Reuss Voigt Hill
#
# Bulk Modulus (GPa) = 28.23192 66.78246 47.50719
# Shear Modulus (GPa) = 29.34630 47.51378 38.43004
#
# Velocity S-wave (km/s) = 3.19823 4.06952 3.65989
# Velocity P-wave (km/s) = 4.84546 6.73486 5.86672
#
# Compressibility (1/GPa) = 0.03542090
#
# Stress axis : x y z
#
# Youngs Moduli (GPa) = 76.31627 121.96124 53.00722
#
# Poissons Ratio (x) = 0.48402 -0.34638
# Poissons Ratio (y) = 0.30287 0.26183
# Poissons Ratio (z) = -0.49870 0.60243
#
# Static dielectric constant tensor:
#      x y z
#    x 2.167020 -0.058370 0.101270 
#    y -0.058370 2.191200 0.031600 
#    z 0.101270 0.031600 2.108130 
# 
# From -- ./inp_files/59807.got.cif
#   From: 2010.05.17/outbox.cif.g08.bks.cpg/sg2_30_cif.got.tgz:59807.got - 2010.06.03 11:33:40.
