data_PCOD9061973
_publ_section_title
;
Structure prediction by ZEFSAII (Michael W. Deem and Ramdas Pophale) SiO2 
 PCOD9061973
Probable space group: P -1
;
_chemical_formula_sum "Si O2"
_cell_formula_units_Z 16
_cell_length_a 22.347537
_cell_length_b 7.940780
_cell_length_c 6.604272
_cell_angle_alpha 99.731526
_cell_angle_beta 54.959417
_cell_angle_gamma 129.854718
_cell_volume 698.756858
_symmetry_space_group_name_H-M "P -1"
_symmetry_group_IT_number 2
_symmetry_cell_setting 'triclinic'
loop_
_space_group_symop_operation_xyz
x,y,z
-x,-y,-z
loop_
_atom_site_type_symbol
_atom_site_label
_atom_site_fract_x
_atom_site_fract_y
_atom_site_fract_z
Si Si1 0.478982 0.236106 0.571078
Si Si2 0.220915 0.588342 0.546456
Si Si3 0.727251 0.991812 0.251506
Si Si4 0.867263 0.119044 0.662370
Si Si5 0.422740 0.991329 0.024768
Si Si6 0.034060 0.441017 0.724475
Si Si7 0.741768 0.727922 0.517179
Si Si8 0.542042 0.438921 0.107842
O O1 0.381192 0.109878 0.603938
O O2 0.561628 0.360461 0.261778
O O3 0.488200 0.425679 0.717502
O O4 0.456481 0.056319 0.741009
O O5 0.310937 0.763708 0.247905
O O6 0.112202 0.417710 0.627026
O O7 0.245980 0.454157 0.589344
O O8 0.217655 0.754867 0.719848
O O9 0.737937 0.851868 0.359859
O O10 0.769048 0.009557 0.955112
O O11 0.907743 0.336615 0.490306
O O12 0.946247 0.223454 0.713359
O O13 0.832374 0.921653 0.529995
O O14 0.451377 0.220199 0.110344
O O15 0.500000 0.000000 0.000000
O O16 0.000000 0.500000 0.000000
O O17 0.639930 0.585262 0.812259
#
# Coordination Sequence:
#
# PCOD9061973 Si02
#       8
#     2   2   2   2   2   2   2   2
#     4  11  25  40  71  97 134 202 241 281 366 415
#     4  12  25  46  72 104 143 191 232 297 362 414
#     4  12  24  48  71 104 146 187 238 299 350 432
#     4  11  23  46  76 103 139 185 230 297 360 424
#     4  12  25  45  63 100 148 180 234 298 345 418
#     4  11  23  47  80 104 141 184 237 299 362 427
#     4  12  26  45  69 106 148 184 242 299 352 421
#     4  11  24  40  66  98 136 186 245 288 343 425
#
# _framework density 22.897807
#
# number of rings (size 3 to 8) (size 9 to 14) (size 15 to 20)
#    0.000    0.500    6.250    1.875    3.500    1.000 
#    6.750    2.500    0.000    0.000    0.000    0.000 
#    0.000    0.000    0.000    0.000    0.000    0.000 
#
# Total GULP energy -89364.090723 kJ/mol
# GULP energy per Si atom -5585.255670 kJ/mol
# Density = 2.284569 g / cm^3
# Si number density = 22.897807 Si / 1000 Ang^3
#
#
#
# Elastic Constant Matrix: (Units=GPa)
#
#
# Indices 1 2 3 4 5 6 
#
# 1 115.2276 25.1230 34.8044 -0.7294 18.8374 -3.5379
# 2 25.1230 64.9322 3.8715 -2.1433 10.5717 -6.5503
# 3 34.8044 3.8715 111.6358 -5.1908 28.3745 -10.8763
# 4 -0.7294 -2.1433 -5.1908 22.2088 1.0984 -0.7619
# 5 18.8374 10.5717 28.3745 1.0984 38.8075 -9.9101
# 6 -3.5379 -6.5503 -10.8763 -0.7619 -9.9101 43.4199
#
#
#
# Elastic Compliance Matrix: (Units=1/GPa)
#
#
# Indices 1 2 3 4 5 6 
#
# 1 0.010659 -0.003681 -0.002696 -0.000547 -0.002421 -0.000924
# 2 -0.003681 0.017626 0.001828 0.002268 -0.003914 0.001963
# 3 -0.002696 0.001828 0.011977 0.003314 -0.007693 0.001358
# 4 -0.000547 0.002268 0.003314 0.046228 -0.003811 0.001069
# 5 -0.002421 -0.003914 -0.007693 -0.003811 0.035076 0.005224
# 6 -0.000924 0.001963 0.001358 0.001069 0.005224 0.024803
#
#
# Mechanical properties :
#
#
# Convention : Reuss Voigt Hill
#
# Bulk Modulus (GPa) = 32.08736 46.59926 39.34331
# Shear Modulus (GPa) = 30.14698 36.08703 33.11701
#
# Velocity S-wave (km/s) = 3.63242 3.97420 3.80715
# Velocity P-wave (km/s) = 5.62462 6.43849 6.04527
#
# Compressibility (1/GPa) = 0.03116492
#
# Stress axis : x y z
#
# Youngs Moduli (GPa) = 93.81661 56.73445 83.49659
#
# Poissons Ratio (x) = 0.20881 0.22508
# Poissons Ratio (y) = 0.34529 -0.15262
# Poissons Ratio (z) = 0.25290 -0.10370
#
# Static dielectric constant tensor:
#      x y z
#    x 1.933210 -0.013400 0.015510 
#    y -0.013400 2.018570 -0.017740 
#    z 0.015510 -0.017740 1.910670 
# 
# From -- ./inp_files/122583.got.cif
#   From: 2010.05.17/outbox.cif.g08.bks.cpg/sg2_62_cif.got.tgz:122583.got - 2010.06.03 11:33:40.
