data_PCOD9061446
_publ_section_title
;
Structure prediction by ZEFSAII (Michael W. Deem and Ramdas Pophale) SiO2 
 PCOD9061446
Probable space group: P -1
;
_chemical_formula_sum "Si O2"
_cell_formula_units_Z 15
_cell_length_a 12.188944
_cell_length_b 7.709563
_cell_length_c 8.965097
_cell_angle_alpha 78.125963
_cell_angle_beta 129.638388
_cell_angle_gamma 98.582567
_cell_volume 634.706259
_symmetry_space_group_name_H-M "P -1"
_symmetry_group_IT_number 2
_symmetry_cell_setting 'triclinic'
loop_
_space_group_symop_operation_xyz
x,y,z
-x,-y,-z
loop_
_atom_site_type_symbol
_atom_site_label
_atom_site_fract_x
_atom_site_fract_y
_atom_site_fract_z
Si Si1 0.261607 0.087409 0.907557
Si Si2 0.370576 0.314493 0.728502
Si Si3 0.841667 0.426395 0.343997
Si Si4 0.052583 0.929859 0.398081
Si Si5 0.467203 0.199058 0.288178
Si Si6 0.309609 0.103021 0.451349
Si Si7 0.500000 0.500000 0.500000
Si Si8 0.316647 0.674665 0.058295
O O1 0.300475 0.128820 0.761004
O O2 0.098572 0.128541 0.794171
O O3 0.375018 0.223019 0.057248
O O4 0.286536 0.884459 0.008255
O O5 0.270123 0.459317 0.682796
O O6 0.365883 0.287927 0.546824
O O7 0.535334 0.331464 0.904836
O O8 0.846218 0.230740 0.449815
O O9 0.000000 0.500000 0.500000
O O10 0.802791 0.411359 0.138031
O O11 0.146671 0.065537 0.357875
O O12 0.000000 0.000000 0.500000
O O13 0.344390 0.119671 0.305846
O O14 0.527787 0.363636 0.403965
O O15 0.583120 0.051570 0.382961
O O16 0.356977 0.582296 0.264365
#
# Coordination Sequence:
#
# PCOD9061446 Si02
#       8
#     2   2   2   2   2   2   1   2
#     4  12  24  45  74 105 143 188 245 293 361 438
#     4  12  23  43  71 111 139 184 246 308 358 416
#     4  12  25  43  69 112 150 182 232 309 372 420
#     4  12  24  43  72 106 147 193 236 293 366 440
#     4  11  25  45  69 100 141 190 237 302 351 428
#     4  11  23  45  70  98 144 191 243 290 355 437
#     4  12  26  46  68 106 144 184 240 298 368 422
#     4  12  25  43  73 104 144 194 242 300 359 428
#
# _framework density 23.63298
#
# number of rings (size 3 to 8) (size 9 to 14) (size 15 to 20)
#    0.000    0.267    6.667    2.400    3.733    0.533 
#    0.000    0.000    0.000    3.200    0.000    0.000 
#    0.000    0.000    0.000    0.000    0.000    0.000 
#
# Total GULP energy -83654.029614 kJ/mol
# GULP energy per Si atom -5576.935308 kJ/mol
# Density = 2.357919 g / cm^3
# Si number density = 23.632980 Si / 1000 Ang^3
#
#
#
# Elastic Constant Matrix: (Units=GPa)
#
#
# Indices 1 2 3 4 5 6 
#
# 1 107.6858 14.1665 24.6679 12.4221 8.2317 -2.9287
# 2 14.1665 128.9331 47.6297 -0.9761 1.3644 -37.2903
# 3 24.6679 47.6297 137.3790 9.8370 2.2220 -7.6264
# 4 12.4221 -0.9761 9.8370 54.4655 -1.0725 7.8795
# 5 8.2317 1.3644 2.2220 -1.0725 15.5980 4.5180
# 6 -2.9287 -37.2903 -7.6264 7.8795 4.5180 41.2280
#
#
#
# Elastic Compliance Matrix: (Units=1/GPa)
#
#
# Indices 1 2 3 4 5 6 
#
# 1 0.010410 -0.000137 -0.001472 -0.002436 -0.005860 0.001451
# 2 -0.000137 0.012286 -0.003507 -0.000782 -0.003747 0.011014
# 3 -0.001472 -0.003507 0.008753 -0.001092 0.000187 -0.001469
# 4 -0.002436 -0.000782 -0.001092 0.019966 0.004442 -0.005385
# 5 -0.005860 -0.003747 0.000187 0.004442 0.071415 -0.012446
# 6 0.001451 0.011014 -0.001469 -0.005385 -0.012446 0.036442
#
#
# Mechanical properties :
#
#
# Convention : Reuss Voigt Hill
#
# Bulk Modulus (GPa) = 47.13131 60.76959 53.95045
# Shear Modulus (GPa) = 28.31667 41.42722 34.87195
#
# Velocity S-wave (km/s) = 3.46524 4.19136 3.84547
# Velocity P-wave (km/s) = 5.99973 7.01377 6.52648
#
# Compressibility (1/GPa) = 0.02121732
#
# Stress axis : x y z
#
# Youngs Moduli (GPa) = 96.06235 81.39536 114.24809
#
# Poissons Ratio (x) = 0.01112 0.16818
# Poissons Ratio (y) = 0.01313 0.40066
# Poissons Ratio (z) = 0.14141 0.28544
#
# Static dielectric constant tensor:
#      x y z
#    x 1.708440 -0.082070 0.019290 
#    y -0.082070 1.800010 0.039360 
#    z 0.019290 0.039360 1.905950 
# 
# From -- ./inp_files/238782.got.cif
#   From: 2010.05.17/outbox.cif.g08.bks.cpg/sg2_120_cif.got.tgz:238782.got - 2010.06.03 11:33:40.
