data_PCOD9061714
_publ_section_title
;
Structure prediction by ZEFSAII (Michael W. Deem and Ramdas Pophale) SiO2 
 PCOD9061714
Probable space group: P -1
;
_chemical_formula_sum "Si O2"
_cell_formula_units_Z 11
_cell_length_a 8.933128
_cell_length_b 8.279464
_cell_length_c 11.698762
_cell_angle_alpha 129.362121
_cell_angle_beta 38.626633
_cell_angle_gamma 131.723551
_cell_volume 390.819414
_symmetry_space_group_name_H-M "P -1"
_symmetry_group_IT_number 2
_symmetry_cell_setting 'triclinic'
loop_
_space_group_symop_operation_xyz
x,y,z
-x,-y,-z
loop_
_atom_site_type_symbol
_atom_site_label
_atom_site_fract_x
_atom_site_fract_y
_atom_site_fract_z
Si Si1 0.265255 0.230192 0.399226
Si Si2 0.543096 0.335361 0.637192
Si Si3 0.747008 0.147661 0.070091
Si Si4 0.906575 0.372129 0.830759
Si Si5 0.500000 0.500000 0.000000
Si Si6 0.054437 0.889324 0.697463
O O1 0.459032 0.478667 0.367885
O O2 0.454001 0.098122 0.255536
O O3 0.082775 0.248976 0.615717
O O4 0.097766 0.170991 0.356969
O O5 0.806288 0.286257 0.439227
O O6 0.295697 0.118629 0.662758
O O7 0.524884 0.422700 0.813777
O O8 0.929019 0.368199 0.123786
O O9 0.780494 0.232532 0.956470
O O10 0.845503 0.937018 0.928012
O O11 0.703863 0.389185 0.869446
#
# Coordination Sequence:
#
# PCOD9061714 Si02
#       6
#     2   2   2   2   1   2
#     4  12  24  45  73  98 137 187 226 274 348 407
#     4  11  24  45  71 101 140 179 229 286 334 406
#     4  11  23  46  66 103 143 175 226 287 337 406
#     4  11  24  42  75  99 137 186 228 276 344 407
#     4  12  20  46  72 100 134 190 224 278 344 398
#     4  11  24  42  70 104 138 175 231 285 337 402
#
# _framework density 28.145989
#
# number of rings (size 3 to 8) (size 9 to 14) (size 15 to 20)
#    0.000    0.727    5.455    2.727    0.000    0.727 
#    0.000    7.273    0.000    0.000    0.000    0.000 
#    0.000    0.000    0.000    0.000    0.000    0.000 
#
# Total GULP energy -61601.087805 kJ/mol
# GULP energy per Si atom -5600.098891 kJ/mol
# Density = 2.808193 g / cm^3
# Si number density = 28.145989 Si / 1000 Ang^3
#
#
#
# Elastic Constant Matrix: (Units=GPa)
#
#
# Indices 1 2 3 4 5 6 
#
# 1 105.4194 27.7373 38.9537 -5.4370 -27.5735 0.3411
# 2 27.7373 67.3637 36.2176 7.6336 -0.7233 19.4944
# 3 38.9537 36.2176 221.2907 6.5738 -49.4180 -10.4782
# 4 -5.4370 7.6336 6.5738 41.9060 -10.6052 -6.3699
# 5 -27.5735 -0.7233 -49.4180 -10.6052 62.4246 -3.2599
# 6 0.3411 19.4944 -10.4782 -6.3699 -3.2599 26.7459
#
#
#
# Elastic Compliance Matrix: (Units=1/GPa)
#
#
# Indices 1 2 3 4 5 6 
#
# 1 0.014671 -0.011114 0.001708 0.007870 0.009648 0.011633
# 2 -0.011114 0.035891 -0.008658 -0.015989 -0.015899 -0.035156
# 3 0.001708 -0.008658 0.007886 0.004383 0.008238 0.011426
# 4 0.007870 -0.015989 0.004383 0.034097 0.013758 0.023068
# 5 0.009648 -0.015899 0.008238 0.013758 0.030086 0.021637
# 6 0.011633 -0.035156 0.011426 0.023068 0.021637 0.075472
#
#
# Mechanical properties :
#
#
# Convention : Reuss Voigt Hill
#
# Bulk Modulus (GPa) = 44.80270 66.65455 55.72863
# Shear Modulus (GPa) = 20.68944 45.62633 33.15788
#
# Velocity S-wave (km/s) = 2.71417 4.03061 3.43602
# Velocity P-wave (km/s) = 5.07689 6.73752 5.96527
#
# Compressibility (1/GPa) = 0.02232008
#
# Stress axis : x y z
#
# Youngs Moduli (GPa) = 68.16317 27.86247 126.80935
#
# Poissons Ratio (x) = 0.30965 -0.21659
# Poissons Ratio (y) = 0.75754 1.09791
# Poissons Ratio (z) = -0.11642 0.24123
#
# Static dielectric constant tensor:
#      x y z
#    x 2.025090 0.014810 0.018770 
#    y 0.014810 2.190030 0.009850 
#    z 0.018770 0.009850 2.206390 
# 
# From -- ./inp_files/151854.got.cif
#   From: 2010.05.17/outbox.cif.g08.bks.cpg/sg2_76_cif.got.tgz:151854.got - 2010.06.03 11:33:40.
