data_PCOD9061403
_publ_section_title
;
Structure prediction by ZEFSAII (Michael W. Deem and Ramdas Pophale) SiO2 
 PCOD9061403
Probable space group: P -1
;
_chemical_formula_sum "Si O2"
_cell_formula_units_Z 16
_cell_length_a 15.144675
_cell_length_b 9.562215
_cell_length_c 11.267046
_cell_angle_alpha 109.369004
_cell_angle_beta 63.889819
_cell_angle_gamma 54.621401
_cell_volume 715.128899
_symmetry_space_group_name_H-M "P -1"
_symmetry_group_IT_number 2
_symmetry_cell_setting 'triclinic'
loop_
_space_group_symop_operation_xyz
x,y,z
-x,-y,-z
loop_
_atom_site_type_symbol
_atom_site_label
_atom_site_fract_x
_atom_site_fract_y
_atom_site_fract_z
Si Si1 0.525483 0.945339 0.610759
Si Si2 0.116252 0.234520 0.082321
Si Si3 0.175634 0.652528 0.663464
Si Si4 0.701094 0.183039 0.343535
Si Si5 0.128064 0.694610 0.442813
Si Si6 0.338347 0.171999 0.044267
Si Si7 0.274145 0.788296 0.240201
Si Si8 0.214610 0.110188 0.553304
O O1 0.646629 0.638509 0.452106
O O2 0.646116 0.934634 0.564775
O O3 0.500000 0.000000 0.500000
O O4 0.391689 0.117322 0.856631
O O5 0.994284 0.243583 0.183159
O O6 0.981872 0.547080 0.214274
O O7 0.245078 0.127670 0.085250
O O8 0.234962 0.028431 0.842049
O O9 0.162008 0.846681 0.743950
O O10 0.229699 0.549681 0.466906
O O11 0.500000 0.500000 0.500000
O O12 0.717124 0.085117 0.435285
O O13 0.218141 0.723087 0.338537
O O14 0.179188 0.495142 0.269160
O O15 0.901311 0.000292 0.689884
O O16 0.500000 0.000000 0.000000
O O17 0.224346 0.999907 0.399810
O O18 0.500000 0.500000 0.000000
#
# Coordination Sequence:
#
# PCOD9061403 Si02
#       8
#     2   2   2   2   2   2   2   2
#     4  11  24  44  70 109 147 194 250 307 377 455
#     4  11  26  44  71 106 144 200 245 311 384 451
#     4  11  24  45  70 105 151 191 251 312 369 455
#     4  12  25  45  72 105 146 195 256 310 375 453
#     4  11  24  45  71 110 151 192 253 313 383 450
#     4  12  24  44  75 108 151 193 250 316 377 453
#     4  11  24  45  72 106 147 196 247 313 385 457
#     4  11  23  45  70 100 145 192 249 308 380 453
#
# _framework density 22.373588000000002
#
# number of rings (size 3 to 8) (size 9 to 14) (size 15 to 20)
#    0.000    0.750    3.750    3.750    0.000    4.500 
#    0.000    5.000    0.000    0.000    0.000    0.000 
#    0.000    0.000    0.000    0.000    0.000    0.000 
#
# Total GULP energy -89108.741859 kJ/mol
# GULP energy per Si atom -5569.296366 kJ/mol
# Density = 2.232267 g / cm^3
# Si number density = 22.373588 Si / 1000 Ang^3
#
#
#
# Elastic Constant Matrix: (Units=GPa)
#
#
# Indices 1 2 3 4 5 6 
#
# 1 133.4052 3.9585 48.0325 3.4809 -4.4074 21.6866
# 2 3.9585 82.1456 29.3043 2.1375 -10.1543 -3.9034
# 3 48.0325 29.3043 105.7409 15.8287 -7.7278 -8.4783
# 4 3.4809 2.1375 15.8287 18.7789 -0.7681 6.7295
# 5 -4.4074 -10.1543 -7.7278 -0.7681 46.3112 -0.6260
# 6 21.6866 -3.9034 -8.4783 6.7295 -0.6260 34.3079
#
#
#
# Elastic Compliance Matrix: (Units=1/GPa)
#
#
# Indices 1 2 3 4 5 6 
#
# 1 0.011851 0.001533 -0.007895 0.008185 0.000135 -0.010871
# 2 0.001533 0.014027 -0.004901 0.002736 0.002434 -0.001076
# 3 -0.007895 -0.004901 0.018115 -0.017643 0.001072 0.012390
# 4 0.008185 0.002736 -0.017643 0.074837 -0.000647 -0.023914
# 5 0.000135 0.002434 0.001072 -0.000647 0.022321 0.000991
# 6 -0.010871 -0.001076 0.012390 -0.023914 0.000991 0.043668
#
#
# Mechanical properties :
#
#
# Convention : Reuss Voigt Hill
#
# Bulk Modulus (GPa) = 46.58809 53.76472 50.17641
# Shear Modulus (GPa) = 23.30988 35.87937 29.59462
#
# Velocity S-wave (km/s) = 3.23127 4.00890 3.64091
# Velocity P-wave (km/s) = 5.89826 6.74618 6.33642
#
# Compressibility (1/GPa) = 0.02146471
#
# Stress axis : x y z
#
# Youngs Moduli (GPa) = 84.37956 71.29240 55.20421
#
# Poissons Ratio (x) = -0.10926 0.43584
# Poissons Ratio (y) = -0.12931 0.27058
# Poissons Ratio (z) = 0.66618 0.34943
#
# Static dielectric constant tensor:
#      x y z
#    x 3.266500 -2.149040 1.423700 
#    y -2.149040 4.985620 -2.207990 
#    z 1.423700 -2.207990 3.454440 
# 
# From -- ./inp_files/447814.got.cif
#   From: 2010.05.17/outbox.cif.g08.bks.cpg/sg2_224_cif.got.tgz:447814.got - 2010.06.03 11:33:40.
