data_PCOD9061722
_publ_section_title
;
Structure prediction by ZEFSAII (Michael W. Deem and Ramdas Pophale) SiO2 
 PCOD9061722
Probable space group: P -1
;
_chemical_formula_sum "Si O2"
_cell_formula_units_Z 12
_cell_length_a 15.611418
_cell_length_b 18.341181
_cell_length_c 12.375472
_cell_angle_alpha 152.052802
_cell_angle_beta 154.064606
_cell_angle_gamma 21.246927
_cell_volume 538.276031
_symmetry_space_group_name_H-M "P -1"
_symmetry_group_IT_number 2
_symmetry_cell_setting 'triclinic'
loop_
_space_group_symop_operation_xyz
x,y,z
-x,-y,-z
loop_
_atom_site_type_symbol
_atom_site_label
_atom_site_fract_x
_atom_site_fract_y
_atom_site_fract_z
Si Si1 0.367889 0.216788 0.382425
Si Si2 0.734112 0.026640 0.940293
Si Si3 0.196583 0.034952 0.293818
Si Si4 0.841975 0.610059 0.219921
Si Si5 0.811021 0.080705 0.550598
Si Si6 0.212954 0.653341 0.317057
O O1 0.535569 0.173076 0.410297
O O2 0.076129 0.439457 0.341871
O O3 0.330584 0.051792 0.136064
O O4 0.541871 0.171920 0.624410
O O5 0.460187 0.263457 0.921281
O O6 0.769753 0.915084 0.723421
O O7 0.995153 0.976074 0.204781
O O8 0.125783 0.220332 0.531503
O O9 0.000000 0.000000 0.000000
O O10 0.869416 0.479000 0.978695
O O11 0.768754 0.249133 0.642676
O O12 0.981026 0.858986 0.391682
O O13 0.500000 0.500000 0.500000
#
# Coordination Sequence:
#
# PCOD9061722 Si02
#       6
#     2   2   2   2   2   2
#     4  11  24  44  68 107 136 178 229 276 340 409
#     4  11  23  46  67 101 142 177 224 286 335 403
#     4  11  25  44  71 100 142 181 222 283 341 404
#     4  11  24  42  70 101 132 182 229 277 340 402
#     4  11  24  44  73  97 140 181 223 284 345 395
#     4  11  24  46  71 100 137 179 231 285 337 407
#
# _framework density 22.293392999999998
#
# number of rings (size 3 to 8) (size 9 to 14) (size 15 to 20)
#    0.000    1.000    5.000    2.000    0.000    8.000 
#    0.000    4.167    0.000    0.000    0.000    0.000 
#    0.000    0.000    0.000    0.000    0.000    0.000 
#
# Total GULP energy -66916.081717 kJ/mol
# GULP energy per Si atom -5576.340143 kJ/mol
# Density = 2.224265 g / cm^3
# Si number density = 22.293393 Si / 1000 Ang^3
#
#
#
# Elastic Constant Matrix: (Units=GPa)
#
#
# Indices 1 2 3 4 5 6 
#
# 1 86.6463 17.6612 15.2630 -0.0191 3.4466 0.9615
# 2 17.6612 150.2289 48.3775 -21.6882 -4.7421 18.1401
# 3 15.2630 48.3775 139.1557 -6.3695 -1.8542 12.6162
# 4 -0.0191 -21.6882 -6.3695 37.6745 0.6857 -7.0569
# 5 3.4466 -4.7421 -1.8542 0.6857 20.1748 -10.7190
# 6 0.9615 18.1401 12.6162 -7.0569 -10.7190 21.3884
#
#
#
# Elastic Compliance Matrix: (Units=1/GPa)
#
#
# Indices 1 2 3 4 5 6 
#
# 1 0.012077 -0.001278 -0.000905 -0.000947 -0.002739 -0.000610
# 2 -0.001278 0.008654 -0.002244 0.003649 -0.000823 -0.005167
# 3 -0.000905 -0.002244 0.008384 -0.000607 -0.001748 -0.004078
# 4 -0.000947 0.003649 -0.000607 0.030302 0.005198 0.009909
# 5 -0.002739 -0.000823 -0.001748 0.005198 0.070052 0.038675
# 6 -0.000610 -0.005167 -0.004078 0.009909 0.038675 0.076222
#
#
# Mechanical properties :
#
#
# Convention : Reuss Voigt Hill
#
# Bulk Modulus (GPa) = 49.35423 59.84826 54.60125
# Shear Modulus (GPa) = 22.59394 35.49614 29.04504
#
# Velocity S-wave (km/s) = 3.18698 3.99460 3.61342
# Velocity P-wave (km/s) = 5.97737 6.94117 6.47722
#
# Compressibility (1/GPa) = 0.02026169
#
# Stress axis : x y z
#
# Youngs Moduli (GPa) = 82.80529 115.55220 119.27186
#
# Poissons Ratio (x) = 0.14765 0.10792
# Poissons Ratio (y) = 0.10581 0.26763
# Poissons Ratio (z) = 0.07493 0.25929
#
# Static dielectric constant tensor:
#      x y z
#    x 1.914350 -0.010370 0.029400 
#    y -0.010370 1.868310 0.013440 
#    z 0.029400 0.013440 1.830590 
# 
# From -- ./inp_files/457027.got.cif
#   From: 2010.05.17/outbox.cif.g08.bks.cpg/sg2_229_cif.got.tgz:457027.got - 2010.06.03 11:33:40.
