data_PCOD9061267
_publ_section_title
;
Structure prediction by ZEFSAII (Michael W. Deem and Ramdas Pophale) SiO2 
 PCOD9061267
Probable space group: P -1
;
_chemical_formula_sum "Si O2"
_cell_formula_units_Z 15
_cell_length_a 14.486595
_cell_length_b 11.062362
_cell_length_c 9.760396
_cell_angle_alpha 128.396252
_cell_angle_beta 127.157085
_cell_angle_gamma 29.941441
_cell_volume 603.139591
_symmetry_space_group_name_H-M "P -1"
_symmetry_group_IT_number 2
_symmetry_cell_setting 'triclinic'
loop_
_space_group_symop_operation_xyz
x,y,z
-x,-y,-z
loop_
_atom_site_type_symbol
_atom_site_label
_atom_site_fract_x
_atom_site_fract_y
_atom_site_fract_z
Si Si1 0.104994 0.089417 0.051370
Si Si2 0.477514 0.293891 0.961430
Si Si3 0.302902 0.790215 0.272150
Si Si4 0.883852 0.078010 0.317144
Si Si5 0.500000 0.000000 0.000000
Si Si6 0.715488 0.042388 0.351277
Si Si7 0.959133 0.515531 0.634386
Si Si8 0.351820 0.382016 0.614687
O O1 0.024029 0.344426 0.169024
O O2 0.321060 0.872610 0.041097
O O3 0.123976 0.006746 0.165105
O O4 0.011038 0.095506 0.846167
O O5 0.350361 0.385379 0.779926
O O6 0.482335 0.143617 0.959562
O O7 0.393467 0.537095 0.123809
O O8 0.438187 0.797623 0.369237
O O9 0.299056 0.807158 0.444041
O O10 0.768261 0.347153 0.355869
O O11 0.758426 0.072847 0.264729
O O12 0.000000 0.000000 0.500000
O O13 0.449648 0.906392 0.782868
O O14 0.894539 0.757587 0.363509
O O15 0.749988 0.663881 0.562515
O O16 0.000000 0.500000 0.500000
#
# Coordination Sequence:
#
# PCOD9061267 Si02
#       8
#     2   2   2   2   1   2   2   2
#     4  11  23  47  75  99 145 191 243 294 354 435
#     4  11  23  45  73 108 139 191 240 297 358 430
#     4  11  23  46  80 103 141 191 251 299 347 431
#     4  12  24  49  72 108 147 190 245 297 360 428
#     4  12  26  46  70 108 156 176 242 302 372 416
#     4  12  27  47  70 111 148 188 241 305 358 425
#     4  12  26  47  69 107 147 188 243 296 365 432
#     4  11  23  44  78 101 140 192 244 292 361 433
#
# _framework density 24.869864
#
# number of rings (size 3 to 8) (size 9 to 14) (size 15 to 20)
#    0.000    0.533    6.667    1.600    1.867    3.733 
#    7.200    2.000    0.000    0.000    0.000    0.000 
#    0.000    0.000    0.000    0.000    0.000    0.000 
#
# Total GULP energy -83718.602317 kJ/mol
# GULP energy per Si atom -5581.240154 kJ/mol
# Density = 2.481326 g / cm^3
# Si number density = 24.869864 Si / 1000 Ang^3
#
#
#
# Elastic Constant Matrix: (Units=GPa)
#
#
# Indices 1 2 3 4 5 6 
#
# 1 96.0414 8.7918 16.1564 -8.4682 -5.4583 30.7663
# 2 8.7918 45.0195 -1.1814 -13.1640 -13.4733 22.7881
# 3 16.1564 -1.1814 151.3509 -21.4815 -6.5696 5.6610
# 4 -8.4682 -13.1640 -21.4815 46.9816 8.8167 -7.9471
# 5 -5.4583 -13.4733 -6.5696 8.8167 43.4234 -8.4704
# 6 30.7663 22.7881 5.6610 -7.9471 -8.4704 43.7035
#
#
#
# Elastic Compliance Matrix: (Units=1/GPa)
#
#
# Indices 1 2 3 4 5 6 
#
# 1 0.013951 0.003309 -0.000878 0.001103 0.000242 -0.011186
# 2 0.003309 0.034799 0.001861 0.006892 0.006547 -0.018194
# 3 -0.000878 0.001861 0.007258 0.003451 0.000764 -0.000517
# 4 0.001103 0.006892 0.003451 0.025342 -0.002481 -0.000690
# 5 0.000242 0.006547 0.000764 -0.002481 0.025882 0.000883
# 6 -0.011186 -0.018194 -0.000517 -0.000690 0.000883 0.040355
#
#
# Mechanical properties :
#
#
# Convention : Reuss Voigt Hill
#
# Bulk Modulus (GPa) = 15.48150 37.77169 26.62659
# Shear Modulus (GPa) = 31.14627 44.73139 37.93883
#
# Velocity S-wave (km/s) = 3.54272 4.24561 3.90999
# Velocity P-wave (km/s) = 4.79302 6.26533 5.57796
#
# Compressibility (1/GPa) = 0.06459322
#
# Stress axis : x y z
#
# Youngs Moduli (GPa) = 71.67824 28.73637 137.78472
#
# Poissons Ratio (x) = -0.09510 0.12098
# Poissons Ratio (y) = -0.23721 -0.25645
# Poissons Ratio (z) = 0.06293 -0.05348
#
# Static dielectric constant tensor:
#      x y z
#    x 2.044950 -0.103700 0.061560 
#    y -0.103700 1.937930 -0.056680 
#    z 0.061560 -0.056680 2.019610 
# 
# From -- ./inp_files/244107.got.cif
#   From: 2010.05.17/outbox.cif.g08.bks.cpg/sg2_123_cif.got.tgz:244107.got - 2010.06.03 11:33:40.
