data_PCOD9061887
_publ_section_title
;
Structure prediction by ZEFSAII (Michael W. Deem and Ramdas Pophale) SiO2 
 PCOD9061887
Probable space group: P -1
;
_chemical_formula_sum "Si O2"
_cell_formula_units_Z 14
_cell_length_a 11.707161
_cell_length_b 5.876989
_cell_length_c 12.553456
_cell_angle_alpha 73.203921
_cell_angle_beta 98.958333
_cell_angle_gamma 136.666996
_cell_volume 565.473269
_symmetry_space_group_name_H-M "P -1"
_symmetry_group_IT_number 2
_symmetry_cell_setting 'triclinic'
loop_
_space_group_symop_operation_xyz
x,y,z
-x,-y,-z
loop_
_atom_site_type_symbol
_atom_site_label
_atom_site_fract_x
_atom_site_fract_y
_atom_site_fract_z
Si Si1 0.343694 0.868747 0.758395
Si Si2 0.078362 0.669221 0.874323
Si Si3 0.975010 0.918139 0.679558
Si Si4 0.811189 0.963715 0.814263
Si Si5 0.588418 0.368387 0.018237
Si Si6 0.669355 0.184786 0.664437
Si Si7 0.829941 0.387530 0.456853
O O1 0.271998 0.928764 0.834442
O O2 0.228180 0.748228 0.654795
O O3 0.528462 0.147375 0.696218
O O4 0.344713 0.622280 0.858406
O O5 0.032300 0.858135 0.798863
O O6 0.976879 0.323978 0.837903
O O7 0.000000 0.500000 0.000000
O O8 0.856384 0.942432 0.707133
O O9 0.854499 0.569500 0.645293
O O10 0.122299 0.261177 0.592001
O O11 0.738441 0.654017 0.920878
O O12 0.678945 0.977476 0.774117
O O13 0.500000 0.500000 0.000000
O O14 0.500000 0.000000 0.000000
O O15 0.673624 0.117483 0.550574
O O16 0.000000 0.500000 0.500000
#
# Coordination Sequence:
#
# PCOD9061887 Si02
#       7
#     2   2   2   2   2   2   2
#     4  12  26  47  75 115 151 192 262 318 393 460
#     4  11  26  44  73 109 149 196 258 320 390 473
#     4  11  23  46  73 101 147 204 252 311 391 464
#     4  11  23  47  74 103 151 199 254 314 395 470
#     4  12  28  48  77 114 159 202 253 338 408 471
#     4  11  24  46  73 108 147 196 252 316 385 456
#     4  12  24  48  75 106 154 202 255 314 381 469
#
# _framework density 24.758020999999999
#
# number of rings (size 3 to 8) (size 9 to 14) (size 15 to 20)
#    0.000    0.571    4.286    3.429    6.000    1.143 
#    2.571    1.429    0.000    0.000    0.000    0.000 
#    0.000    0.000    0.000    0.000    0.000    0.000 
#
# Total GULP energy -78066.671893 kJ/mol
# GULP energy per Si atom -5576.190850 kJ/mol
# Density = 2.470167 g / cm^3
# Si number density = 24.758021 Si / 1000 Ang^3
#
#
#
# Elastic Constant Matrix: (Units=GPa)
#
#
# Indices 1 2 3 4 5 6 
#
# 1 125.5199 0.0449 18.3210 5.7181 -10.1038 10.3401
# 2 0.0449 63.4374 13.2979 -8.1046 3.0519 -8.5378
# 3 18.3210 13.2979 140.4532 -9.2758 -12.0466 13.1986
# 4 5.7181 -8.1046 -9.2758 39.3996 6.0333 -3.3991
# 5 -10.1038 3.0519 -12.0466 6.0333 50.8612 -6.3550
# 6 10.3401 -8.5378 13.1986 -3.3991 -6.3550 27.0560
#
#
#
# Elastic Compliance Matrix: (Units=1/GPa)
#
#
# Indices 1 2 3 4 5 6 
#
# 1 0.008533 -0.000565 -0.000792 -0.002014 0.001409 -0.002975
# 2 -0.000565 0.017732 -0.002110 0.004036 -0.001274 0.007049
# 3 -0.000792 -0.002110 0.007958 0.001033 0.001254 -0.003821
# 4 -0.002014 0.004036 0.001033 0.027595 -0.003138 0.004269
# 5 0.001409 -0.001274 0.001254 -0.003138 0.021062 0.003001
# 6 -0.002975 0.007049 -0.003821 0.004269 0.003001 0.043427
#
#
# Mechanical properties :
#
#
# Convention : Reuss Voigt Hill
#
# Bulk Modulus (GPa) = 36.64738 43.63755 40.14246
# Shear Modulus (GPa) = 35.12776 43.31313 39.22045
#
# Velocity S-wave (km/s) = 3.77084 4.18719 3.98446
# Velocity P-wave (km/s) = 5.81320 6.40630 6.11694
#
# Compressibility (1/GPa) = 0.02728708
#
# Stress axis : x y z
#
# Youngs Moduli (GPa) = 117.19367 56.39559 125.66381
#
# Poissons Ratio (x) = 0.03189 0.09954
# Poissons Ratio (y) = 0.06626 0.26517
# Poissons Ratio (z) = 0.09283 0.11901
#
# Static dielectric constant tensor:
#      x y z
#    x 2.108700 -0.017260 -0.091590 
#    y -0.017260 2.000720 0.069030 
#    z -0.091590 0.069030 2.052100 
# 
# From -- ./inp_files/410097.got.cif
#   From: 2010.05.17/outbox.cif.g08.bks.cpg/sg2_206_cif.got.tgz:410097.got - 2010.06.03 11:33:40.
