data_PCOD9061317
_publ_section_title
;
Structure prediction by ZEFSAII (Michael W. Deem and Ramdas Pophale) SiO2 
 PCOD9061317
Probable space group: P -1
;
_chemical_formula_sum "Si O2"
_cell_formula_units_Z 14
_cell_length_a 15.365586
_cell_length_b 7.279016
_cell_length_c 14.283890
_cell_angle_alpha 105.600800
_cell_angle_beta 26.888230
_cell_angle_gamma 91.157677
_cell_volume 600.940710
_symmetry_space_group_name_H-M "P -1"
_symmetry_group_IT_number 2
_symmetry_cell_setting 'triclinic'
loop_
_space_group_symop_operation_xyz
x,y,z
-x,-y,-z
loop_
_atom_site_type_symbol
_atom_site_label
_atom_site_fract_x
_atom_site_fract_y
_atom_site_fract_z
Si Si1 0.922624 0.257505 0.930035
Si Si2 0.074564 0.667933 0.414135
Si Si3 0.389655 0.335872 0.927345
Si Si4 0.560844 0.467979 0.596609
Si Si5 0.166043 0.004023 0.474294
Si Si6 0.957497 0.643694 0.872706
Si Si7 0.277057 0.984324 0.713833
O O1 0.017789 0.142830 0.723029
O O2 0.903764 0.497081 0.974645
O O3 0.105286 0.117254 0.812806
O O4 0.665740 0.320044 0.190833
O O5 0.000000 0.500000 0.500000
O O6 0.896561 0.843273 0.535801
O O7 0.116974 0.807303 0.470293
O O8 0.297301 0.525356 0.119560
O O9 0.498906 0.389433 0.741485
O O10 0.576890 0.107837 0.759482
O O11 0.177045 0.331856 0.089005
O O12 0.778009 0.484799 0.409760
O O13 0.641874 0.270672 0.416666
O O14 0.859194 0.883557 0.045801
O O15 0.500000 0.000000 0.500000
#
# Coordination Sequence:
#
# PCOD9061317 Si02
#       7
#     2   2   2   2   2   2   2
#     4  11  23  45  67  99 140 182 226 289 349 407
#     4  11  26  46  73 107 138 180 241 287 355 430
#     4  11  23  46  71  98 144 180 224 296 346 413
#     4  11  24  43  68  96 140 182 229 290 336 412
#     4  11  23  47  72 102 145 183 227 296 360 407
#     4  11  24  43  68 103 136 183 234 280 348 414
#     4  12  22  44  69  97 144 183 226 289 344 406
#
# _framework density 23.296807000000001
#
# number of rings (size 3 to 8) (size 9 to 14) (size 15 to 20)
#    0.000    0.857    7.143    1.286    2.000    1.143 
#    7.714    0.000    0.000    0.000    0.000    0.000 
#    0.000    0.000    0.000    0.000    0.000    0.000 
#
# Total GULP energy -78391.868412 kJ/mol
# GULP energy per Si atom -5599.419172 kJ/mol
# Density = 2.324378 g / cm^3
# Si number density = 23.296807 Si / 1000 Ang^3
#
#
#
# Elastic Constant Matrix: (Units=GPa)
#
#
# Indices 1 2 3 4 5 6 
#
# 1 121.5256 34.3036 49.7815 7.7128 -22.9215 5.9536
# 2 34.3036 80.7212 26.6492 6.8161 -8.8298 2.5751
# 3 49.7815 26.6492 133.2651 4.3077 -40.1295 -1.7329
# 4 7.7128 6.8161 4.3077 41.0271 9.0982 -6.4165
# 5 -22.9215 -8.8298 -40.1295 9.0982 63.1390 9.1029
# 6 5.9536 2.5751 -1.7329 -6.4165 9.1029 24.8232
#
#
#
# Elastic Compliance Matrix: (Units=1/GPa)
#
#
# Indices 1 2 3 4 5 6 
#
# 1 0.011123 -0.003190 -0.002608 -0.002603 0.002924 -0.004264
# 2 -0.003190 0.014512 -0.001550 -0.001968 0.000386 -0.001499
# 3 -0.002608 -0.001550 0.010657 -0.001898 0.006053 -0.001180
# 4 -0.002603 -0.001968 -0.001898 0.028962 -0.008214 0.011194
# 5 0.002924 0.000386 0.006053 -0.008214 0.023584 -0.011090
# 6 -0.004264 -0.001499 -0.001180 0.011194 -0.011090 0.048341
#
#
# Mechanical properties :
#
#
# Convention : Reuss Voigt Hill
#
# Bulk Modulus (GPa) = 46.30531 61.88672 54.09602
# Shear Modulus (GPa) = 31.43202 40.78303 36.10752
#
# Velocity S-wave (km/s) = 3.67713 4.18854 3.94114
# Velocity P-wave (km/s) = 6.16018 7.07205 6.63181
#
# Compressibility (1/GPa) = 0.02159579
#
# Stress axis : x y z
#
# Youngs Moduli (GPa) = 89.90247 68.90844 93.83691
#
# Poissons Ratio (x) = 0.21984 0.24472
# Poissons Ratio (y) = 0.28682 0.14543
# Poissons Ratio (z) = 0.23446 0.10680
#
# Static dielectric constant tensor:
#      x y z
#    x 1.862050 -0.007340 -0.007600 
#    y -0.007340 1.905240 -0.021160 
#    z -0.007600 -0.021160 1.860000 
# 
# From -- ./inp_files/529948.got.cif
#   From: 2010.05.17/outbox.cif.g08.bks.cpg/sg2_265_cif.got.tgz:529948.got - 2010.06.03 11:33:40.
