data_PCOD9061673
_publ_section_title
;
Structure prediction by ZEFSAII (Michael W. Deem and Ramdas Pophale) SiO2 
 PCOD9061673
Probable space group: P -1
;
_chemical_formula_sum "Si O2"
_cell_formula_units_Z 13
_cell_length_a 14.594632
_cell_length_b 13.328254
_cell_length_c 7.984585
_cell_angle_alpha 45.491374
_cell_angle_beta 119.914848
_cell_angle_gamma 149.090582
_cell_volume 546.134608
_symmetry_space_group_name_H-M "P -1"
_symmetry_group_IT_number 2
_symmetry_cell_setting 'triclinic'
loop_
_space_group_symop_operation_xyz
x,y,z
-x,-y,-z
loop_
_atom_site_type_symbol
_atom_site_label
_atom_site_fract_x
_atom_site_fract_y
_atom_site_fract_z
Si Si1 0.928410 0.312670 0.017282
Si Si2 0.213400 0.144065 0.186288
Si Si3 0.771338 0.546625 0.024923
Si Si4 0.385128 0.050232 0.361274
Si Si5 0.465610 0.098910 0.743409
Si Si6 0.820110 0.642742 0.332295
Si Si7 0.000000 0.500000 0.500000
O O1 0.921166 0.387931 0.748769
O O2 0.078861 0.355164 0.074732
O O3 0.000000 0.500000 0.000000
O O4 0.724451 0.038304 0.205284
O O5 0.211283 0.232285 0.907686
O O6 0.359885 0.182326 0.254600
O O7 0.236217 0.292428 0.168118
O O8 0.012793 0.852262 0.358718
O O9 0.564549 0.261169 0.160451
O O10 0.839979 0.582137 0.240231
O O11 0.436666 0.027686 0.605736
O O12 0.198403 0.786037 0.424055
O O13 0.647145 0.394866 0.563902
O O14 0.500000 0.000000 0.000000
#
# Coordination Sequence:
#
# PCOD9061673 Si02
#       7
#     2   2   2   2   2   2   1
#     4  12  27  47  69 109 156 200 257 313 380 459
#     4   9  18  40  80 110 147 199 260 313 374 464
#     4   9  21  41  72 108 142 196 253 307 381 451
#     4  11  23  45  76 115 151 202 259 312 386 458
#     4  11  26  44  70 109 161 202 248 320 382 451
#     4   8  19  40  73 107 149 197 256 307 389 445
#     4  12  28  44  78 102 156 208 252 306 394 452
#
# _framework density 23.803654999999999
#
# number of rings (size 3 to 8) (size 9 to 14) (size 15 to 20)
#    0.923    0.923    1.538    1.385    6.462    1.846 
#    0.000    1.538    0.000    0.000    0.000    1.077 
#    0.000    0.000    0.000    0.000    0.000    0.000 
#
# Total GULP energy -72519.024678 kJ/mol
# GULP energy per Si atom -5578.386514 kJ/mol
# Density = 2.374948 g / cm^3
# Si number density = 23.803655 Si / 1000 Ang^3
#
#
#
# Elastic Constant Matrix: (Units=GPa)
#
#
# Indices 1 2 3 4 5 6 
#
# 1 160.8819 43.0578 33.8587 -34.7709 9.5770 11.0308
# 2 43.0578 132.7438 50.2667 -45.7215 -4.5693 6.2239
# 3 33.8587 50.2667 93.7245 -32.8177 -9.9525 1.9651
# 4 -34.7709 -45.7215 -32.8177 62.2474 15.2877 -16.5564
# 5 9.5770 -4.5693 -9.9525 15.2877 26.6673 -5.3313
# 6 11.0308 6.2239 1.9651 -16.5564 -5.3313 33.5730
#
#
#
# Elastic Compliance Matrix: (Units=1/GPa)
#
#
# Indices 1 2 3 4 5 6 
#
# 1 0.008186 -0.000633 -0.001724 0.004448 -0.006503 -0.001311
# 2 -0.000633 0.011475 -0.003754 0.007214 -0.003069 0.001371
# 3 -0.001724 -0.003754 0.015082 0.004081 0.003866 0.003006
# 4 0.004448 0.007214 0.004081 0.032602 -0.015410 0.010593
# 5 -0.006503 -0.003069 0.003866 -0.015410 0.050154 0.002844
# 6 -0.001311 0.001371 0.003006 0.010593 0.002844 0.035462
#
#
# Mechanical properties :
#
#
# Convention : Reuss Voigt Hill
#
# Bulk Modulus (GPa) = 44.40186 71.30183 57.85184
# Shear Modulus (GPa) = 28.95340 41.84201 35.39771
#
# Velocity S-wave (km/s) = 3.49139 4.19716 3.86044
# Velocity P-wave (km/s) = 5.91160 7.31487 6.65035
#
# Compressibility (1/GPa) = 0.02252158
#
# Stress axis : x y z
#
# Youngs Moduli (GPa) = 122.15720 87.14454 66.30286
#
# Poissons Ratio (x) = 0.05518 0.11427
# Poissons Ratio (y) = 0.07735 0.24892
# Poissons Ratio (z) = 0.21054 0.32717
#
# Static dielectric constant tensor:
#      x y z
#    x 0.357430 -0.430830 -0.812330 
#    y -0.430830 1.777130 -0.208260 
#    z -0.812330 -0.208260 1.447830 
# 
# From -- ./inp_files/355089.got.cif
#   From: 2010.05.17/outbox.cif.g08.bks.cpg/sg2_178_cif.got.tgz:355089.got - 2010.06.03 11:33:40.
