data_PCOD9061177
_publ_section_title
;
Structure prediction by ZEFSAII (Michael W. Deem and Ramdas Pophale) SiO2 
 PCOD9061177
Probable space group: P -1
;
_chemical_formula_sum "Si O2"
_cell_formula_units_Z 16
_cell_length_a 18.110200
_cell_length_b 13.671076
_cell_length_c 7.855296
_cell_angle_alpha 118.698656
_cell_angle_beta 131.887583
_cell_angle_gamma 27.480828
_cell_volume 631.525266
_symmetry_space_group_name_H-M "P -1"
_symmetry_group_IT_number 2
_symmetry_cell_setting 'triclinic'
loop_
_space_group_symop_operation_xyz
x,y,z
-x,-y,-z
loop_
_atom_site_type_symbol
_atom_site_label
_atom_site_fract_x
_atom_site_fract_y
_atom_site_fract_z
Si Si1 0.200552 0.993153 0.679294
Si Si2 0.738730 0.461394 0.433305
Si Si3 0.327405 0.432930 0.203880
Si Si4 0.417114 0.953324 0.208463
Si Si5 0.170966 0.927622 0.199968
Si Si6 0.443234 0.483572 0.110860
Si Si7 0.082709 0.254646 0.218491
Si Si8 0.406693 0.028776 0.720949
O O1 0.974670 0.245128 0.585401
O O2 0.172746 0.235124 0.500000
O O3 0.336442 0.963681 0.927378
O O4 0.323396 0.771036 0.768519
O O5 0.726456 0.452317 0.608520
O O6 0.592708 0.707394 0.360539
O O7 0.666696 0.439742 0.168849
O O8 0.511802 0.175885 0.322483
O O9 0.367703 0.472643 0.137553
O O10 0.153517 0.512145 0.963662
O O11 0.220115 0.156846 0.190990
O O12 0.506687 0.981822 0.308112
O O13 0.115635 0.088686 0.139240
O O14 0.367591 0.675672 0.221772
O O15 0.806649 0.044296 0.554944
O O16 0.000000 0.000000 0.000000
O O17 0.500000 0.000000 0.000000
#
# Coordination Sequence:
#
# PCOD9061177 Si02
#       8
#     2   2   2   2   2   2   2   2
#     4  11  23  44  74 101 140 193 238 295 362 420
#     4  11  23  45  73 105 148 186 243 300 356 434
#     4  12  25  45  76 107 145 190 243 294 362 439
#     4  11  25  46  71 104 145 183 238 302 358 429
#     4  12  23  45  74 101 147 194 238 297 362 427
#     4  11  25  47  71 106 147 194 241 299 356 434
#     4  12  25  45  71 107 143 185 242 294 362 431
#     4  12  27  47  74 105 143 191 241 296 366 435
#
# _framework density 25.335488000000002
#
# number of rings (size 3 to 8) (size 9 to 14) (size 15 to 20)
#    0.000    0.500    5.000    3.750    0.000    2.000 
#    2.250    3.125    0.000    0.000    0.000    0.000 
#    0.000    0.000    0.000    0.000    0.000    0.000 
#
# Total GULP energy -89535.370860 kJ/mol
# GULP energy per Si atom -5595.960679 kJ/mol
# Density = 2.527782 g / cm^3
# Si number density = 25.335488 Si / 1000 Ang^3
#
#
#
# Elastic Constant Matrix: (Units=GPa)
#
#
# Indices 1 2 3 4 5 6 
#
# 1 109.2341 0.1371 50.0207 7.7440 -1.8134 5.7184
# 2 0.1371 77.5988 30.9835 0.9031 1.0665 -5.9841
# 3 50.0207 30.9835 178.9710 2.8146 13.2555 -23.3167
# 4 7.7440 0.9031 2.8146 59.7353 -12.4628 0.8252
# 5 -1.8134 1.0665 13.2555 -12.4628 38.8038 3.2234
# 6 5.7184 -5.9841 -23.3167 0.8252 3.2234 22.9630
#
#
#
# Elastic Compliance Matrix: (Units=1/GPa)
#
#
# Indices 1 2 3 4 5 6 
#
# 1 0.011797 0.001231 -0.004692 -0.000690 0.002539 -0.007713
# 2 0.001231 0.014012 -0.002742 -0.000140 0.000523 0.000492
# 3 -0.004692 -0.002742 0.009049 -0.000827 -0.004355 0.010283
# 4 -0.000690 -0.000140 -0.000827 0.018215 0.006290 -0.002242
# 5 0.002539 0.000523 -0.004355 0.006290 0.030162 -0.009378
# 6 -0.007713 0.000492 0.010283 -0.002242 -0.009378 0.057436
#
#
# Mechanical properties :
#
#
# Convention : Reuss Voigt Hill
#
# Bulk Modulus (GPa) = 44.54239 58.67626 51.60932
# Shear Modulus (GPa) = 31.14087 43.27791 37.20939
#
# Velocity S-wave (km/s) = 3.50971 4.13751 3.83648
# Velocity P-wave (km/s) = 5.83466 6.78494 6.32766
#
# Compressibility (1/GPa) = 0.02245053
#
# Stress axis : x y z
#
# Youngs Moduli (GPa) = 84.76964 71.36774 110.50972
#
# Poissons Ratio (x) = -0.08785 0.51854
# Poissons Ratio (y) = -0.10435 0.30305
# Poissons Ratio (z) = 0.39776 0.19571
#
# Static dielectric constant tensor:
#      x y z
#    x 2.045810 -0.056790 -0.012290 
#    y -0.056790 2.013670 0.006890 
#    z -0.012290 0.006890 2.027580 
# 
# From -- ./inp_files/335721.got.cif
#   From: 2010.05.17/outbox.cif.g08.bks.cpg/sg2_168_cif.got.tgz:335721.got - 2010.06.03 11:33:40.
