data_PCOD9061255
_publ_section_title
;
Structure prediction by ZEFSAII (Michael W. Deem and Ramdas Pophale) SiO2 
 PCOD9061255
Probable space group: P -1
;
_chemical_formula_sum "Si O2"
_cell_formula_units_Z 16
_cell_length_a 15.713348
_cell_length_b 8.951832
_cell_length_c 9.319514
_cell_angle_alpha 81.256266
_cell_angle_beta 89.340738
_cell_angle_gamma 143.231395
_cell_volume 755.636999
_symmetry_space_group_name_H-M "P -1"
_symmetry_group_IT_number 2
_symmetry_cell_setting 'triclinic'
loop_
_space_group_symop_operation_xyz
x,y,z
-x,-y,-z
loop_
_atom_site_type_symbol
_atom_site_label
_atom_site_fract_x
_atom_site_fract_y
_atom_site_fract_z
Si Si1 0.870350 0.879125 0.927916
Si Si2 0.609186 0.301860 0.066275
Si Si3 0.140354 0.260403 0.376368
Si Si4 0.450976 0.065934 0.389223
Si Si5 0.559393 0.421858 0.546030
Si Si6 0.613417 0.979722 0.139718
Si Si7 0.869392 0.392355 0.608161
Si Si8 0.119936 0.753762 0.064399
O O1 0.873415 0.808073 0.779711
O O2 0.894080 0.092868 0.906484
O O3 0.717940 0.597975 0.037432
O O4 0.000000 0.000000 0.000000
O O5 0.483156 0.098110 0.216553
O O6 0.688276 0.253890 0.091574
O O7 0.529468 0.206719 0.929896
O O8 0.284924 0.383684 0.413648
O O9 0.141166 0.441091 0.387492
O O10 0.000000 0.000000 0.500000
O O11 0.559727 0.349515 0.400322
O O12 0.500000 0.000000 0.500000
O O13 0.281599 0.860704 0.434927
O O14 0.500000 0.500000 0.500000
O O15 0.442967 0.164898 0.687045
O O16 0.727991 0.035149 0.055631
O O17 0.872244 0.327687 0.776403
O O18 0.000000 0.500000 0.500000
O O19 0.000000 0.500000 0.000000
#
# Coordination Sequence:
#
# PCOD9061255 Si02
#       8
#     2   2   2   2   2   2   2   2
#     4  12  28  47  73 105 144 194 244 303 373 437
#     4  11  23  44  77 100 142 187 243 298 365 432
#     4  12  27  50  72 106 152 192 247 307 369 438
#     4  12  25  47  73 108 145 195 245 298 371 439
#     4  12  29  45  75 109 152 194 248 302 368 439
#     4  11  23  46  72 104 141 190 239 302 361 432
#     4  12  27  48  75 107 148 196 246 306 369 442
#     4  12  28  47  73 106 144 190 246 304 372 443
#
# _framework density 21.174188999999998
#
# number of rings (size 3 to 8) (size 9 to 14) (size 15 to 20)
#    0.000    0.250    5.000    3.000    8.750    1.500 
#    0.000    0.000    0.000    0.000    0.000    0.000 
#    0.000    0.000    0.000    0.000    0.000    0.000 
#
# Total GULP energy -89275.658721 kJ/mol
# GULP energy per Si atom -5579.728670 kJ/mol
# Density = 2.112600 g / cm^3
# Si number density = 21.174189 Si / 1000 Ang^3
#
#
#
# Elastic Constant Matrix: (Units=GPa)
#
#
# Indices 1 2 3 4 5 6 
#
# 1 126.4841 44.3330 48.4740 8.4246 13.3346 2.1324
# 2 44.3330 110.5942 44.2078 13.2991 17.5805 5.6362
# 3 48.4740 44.2078 117.6487 5.6012 4.6442 13.9404
# 4 8.4246 13.2991 5.6012 38.8699 -1.1925 2.0091
# 5 13.3346 17.5805 4.6442 -1.1925 44.7173 -7.2600
# 6 2.1324 5.6362 13.9404 2.0091 -7.2600 42.6890
#
#
#
# Elastic Compliance Matrix: (Units=1/GPa)
#
#
# Indices 1 2 3 4 5 6 
#
# 1 0.010248 -0.002449 -0.003264 -0.000997 -0.001677 0.000639
# 2 -0.002449 0.012406 -0.003215 -0.003323 -0.004064 -0.001000
# 3 -0.003264 -0.003215 0.011375 0.000343 0.000571 -0.003046
# 4 -0.000997 -0.003323 0.000343 0.027125 0.002206 -0.000525
# 5 -0.001677 -0.004064 0.000571 0.002206 0.025210 0.004617
# 6 0.000639 -0.001000 -0.003046 -0.000525 0.004617 0.025330
#
#
# Mechanical properties :
#
#
# Convention : Reuss Voigt Hill
#
# Bulk Modulus (GPa) = 61.83767 69.86185 65.84976
# Shear Modulus (GPa) = 37.05298 39.76938 38.41118
#
# Velocity S-wave (km/s) = 4.18773 4.33852 4.26380
# Velocity P-wave (km/s) = 7.25607 7.62644 7.44356
#
# Compressibility (1/GPa) = 0.01617137
#
# Stress axis : x y z
#
# Youngs Moduli (GPa) = 97.57992 80.60744 87.91208
#
# Poissons Ratio (x) = 0.19744 0.28695
# Poissons Ratio (y) = 0.23901 0.28266
# Poissons Ratio (z) = 0.31851 0.25917
#
# Static dielectric constant tensor:
#      x y z
#    x 1.861740 -0.042940 -0.030140 
#    y -0.042940 1.798950 -0.013730 
#    z -0.030140 -0.013730 1.739050 
# 
# From -- ./inp_files/297939.got.cif
#   From: 2010.05.17/outbox.cif.g08.bks.cpg/sg2_149_cif.got.tgz:297939.got - 2010.06.03 11:33:40.
