data_PCOD9061059
_publ_section_title
;
Structure prediction by ZEFSAII (Michael W. Deem and Ramdas Pophale) SiO2 
 PCOD9061059
Probable space group: P -1
;
_chemical_formula_sum "Si O2"
_cell_formula_units_Z 16
_cell_length_a 8.866858
_cell_length_b 13.098191
_cell_length_c 17.952813
_cell_angle_alpha 155.258647
_cell_angle_beta 65.124746
_cell_angle_gamma 126.114133
_cell_volume 663.186041
_symmetry_space_group_name_H-M "P -1"
_symmetry_group_IT_number 2
_symmetry_cell_setting 'triclinic'
loop_
_space_group_symop_operation_xyz
x,y,z
-x,-y,-z
loop_
_atom_site_type_symbol
_atom_site_label
_atom_site_fract_x
_atom_site_fract_y
_atom_site_fract_z
Si Si1 0.892383 0.209017 0.497422
Si Si2 0.221963 0.650002 0.525098
Si Si3 0.586888 0.841869 0.068485
Si Si4 0.233472 0.648560 0.117586
Si Si5 0.604228 0.736749 0.741296
Si Si6 0.525005 0.258027 0.717565
Si Si7 0.230382 0.744961 0.841614
Si Si8 0.854631 0.026392 0.748112
O O1 0.800365 0.341587 0.552230
O O2 0.011776 0.453114 0.696406
O O3 0.711215 0.876901 0.318898
O O4 0.065831 0.185562 0.410169
O O5 0.340842 0.500853 0.418762
O O6 0.000000 0.500000 0.500000
O O7 0.316930 0.965103 0.750055
O O8 0.357596 0.689721 0.042394
O O9 0.690158 0.068396 0.128765
O O10 0.621166 0.581229 0.879982
O O11 0.362010 0.708063 0.205340
O O12 0.181122 0.889472 0.270584
O O13 0.030021 0.331338 0.949684
O O14 0.389688 0.653925 0.758795
O O15 0.655128 0.851808 0.722487
O O16 0.748632 0.023951 0.950255
O O17 0.500000 0.000000 0.500000
#
# Coordination Sequence:
#
# PCOD9061059 Si02
#       8
#     2   2   2   2   2   2   2   2
#     4  12  25  44  67 108 136 188 243 293 355 433
#     4  12  24  40  72 104 134 184 246 294 346 419
#     4  12  23  45  71 100 140 185 236 290 348 424
#     4  11  24  43  72 101 136 192 238 291 349 429
#     4  11  26  46  69 104 150 188 235 301 362 420
#     4  12  29  47  70 105 149 187 231 300 371 426
#     4  11  27  44  70 106 147 188 235 295 369 426
#     4  11  23  44  72 103 139 190 245 288 346 429
#
# _framework density 24.125959999999999
#
# number of rings (size 3 to 8) (size 9 to 14) (size 15 to 20)
#    0.000    0.500    6.250    1.125    5.250    1.500 
#    2.250    0.625    0.000    0.000    0.000    0.000 
#    0.000    0.000    0.000    0.000    0.000    0.000 
#
# Total GULP energy -89238.558807 kJ/mol
# GULP energy per Si atom -5577.409925 kJ/mol
# Density = 2.407105 g / cm^3
# Si number density = 24.125960 Si / 1000 Ang^3
#
#
#
# Elastic Constant Matrix: (Units=GPa)
#
#
# Indices 1 2 3 4 5 6 
#
# 1 67.1283 5.3662 63.0644 8.7220 2.0588 -11.3236
# 2 5.3662 33.9332 0.9822 4.3536 -9.9170 7.2563
# 3 63.0644 0.9822 130.0810 10.8971 0.3484 -7.0886
# 4 8.7220 4.3536 10.8971 31.7328 6.5460 -0.9198
# 5 2.0588 -9.9170 0.3484 6.5460 44.6525 7.1784
# 6 -11.3236 7.2563 -7.0886 -0.9198 7.1784 22.3564
#
#
#
# Elastic Compliance Matrix: (Units=1/GPa)
#
#
# Indices 1 2 3 4 5 6 
#
# 1 0.032840 -0.010210 -0.014826 -0.000728 -0.006333 0.017250
# 2 -0.010210 0.040808 0.004054 -0.007746 0.014175 -0.022002
# 3 -0.014826 0.004054 0.014748 -0.002232 0.002613 -0.005080
# 4 -0.000728 -0.007746 -0.002232 0.035287 -0.007705 0.005364
# 5 -0.006333 0.014175 0.002613 -0.007705 0.029648 -0.016817
# 6 0.017250 -0.022002 -0.005080 0.005364 -0.016817 0.064618
#
#
# Mechanical properties :
#
#
# Convention : Reuss Voigt Hill
#
# Bulk Modulus (GPa) = 21.53717 41.10758 31.32238
# Shear Modulus (GPa) = 18.15592 30.53033 24.34312
#
# Velocity S-wave (km/s) = 2.74623 3.56118 3.17992
# Velocity P-wave (km/s) = 4.35914 5.82967 5.14719
#
# Compressibility (1/GPa) = 0.04643135
#
# Stress axis : x y z
#
# Youngs Moduli (GPa) = 30.45029 24.50476 67.80608
#
# Poissons Ratio (x) = 0.25020 1.00531
# Poissons Ratio (y) = 0.31091 -0.27488
# Poissons Ratio (z) = 0.45146 -0.09934
#
# Static dielectric constant tensor:
#      x y z
#    x 2.253110 0.363030 0.034220 
#    y 0.363030 2.488630 0.097670 
#    z 0.034220 0.097670 1.950930 
# 
# From -- ./inp_files/186737.got.cif
#   From: 2010.05.17/outbox.cif.g08.bks.cpg/sg2_94_cif.got.tgz:186737.got - 2010.06.03 11:33:40.
