data_PCOD9061334
_publ_section_title
;
Structure prediction by ZEFSAII (Michael W. Deem and Ramdas Pophale) SiO2 
 PCOD9061334
Probable space group: P -1
;
_chemical_formula_sum "Si O2"
_cell_formula_units_Z 16
_cell_length_a 8.787823
_cell_length_b 19.297544
_cell_length_c 11.587436
_cell_angle_alpha 135.365059
_cell_angle_beta 75.243361
_cell_angle_gamma 138.554275
_cell_volume 731.575580
_symmetry_space_group_name_H-M "P -1"
_symmetry_group_IT_number 2
_symmetry_cell_setting 'triclinic'
loop_
_space_group_symop_operation_xyz
x,y,z
-x,-y,-z
loop_
_atom_site_type_symbol
_atom_site_label
_atom_site_fract_x
_atom_site_fract_y
_atom_site_fract_z
Si Si1 0.256123 0.465672 0.693198
Si Si2 0.842124 0.520837 0.019448
Si Si3 0.238363 0.229692 0.401129
Si Si4 0.613526 0.836367 0.029198
Si Si5 0.673409 0.296525 0.305596
Si Si6 0.375924 0.832382 0.612880
Si Si7 0.588846 0.103993 0.723019
Si Si8 0.715245 0.830666 0.429382
O O1 0.210327 0.445706 0.815085
O O2 0.277347 0.365138 0.528316
O O3 0.962715 0.360055 0.575610
O O4 0.527507 0.677048 0.865495
O O5 0.071155 0.701375 0.113250
O O6 0.543706 0.347577 0.808145
O O7 0.000000 0.500000 0.000000
O O8 0.489382 0.294645 0.378845
O O9 0.225055 0.205782 0.513705
O O10 0.941759 0.032215 0.173956
O O11 0.539422 0.853799 0.183710
O O12 0.412475 0.771269 0.888571
O O13 0.594067 0.167549 0.256684
O O14 0.000000 0.500000 0.500000
O O15 0.578446 0.858578 0.542463
O O16 0.462482 0.977931 0.705607
O O17 0.500000 0.000000 0.500000
O O18 0.000000 0.000000 0.500000
#
# Coordination Sequence:
#
# PCOD9061334 Si02
#       8
#     2   2   2   2   2   2   2   2
#     4  12  23  43  74 108 139 193 247 294 367 439
#     4  12  22  40  71 102 143 196 238 283 370 442
#     4  11  27  47  68 108 147 182 248 306 362 432
#     4  12  24  46  77 102 144 196 240 300 374 424
#     4  11  26  50  75 102 146 190 248 310 356 432
#     4  11  23  45  68 105 143 188 237 302 359 426
#     4  12  23  40  75 110 144 184 247 295 360 443
#     4  11  25  43  66 103 152 188 236 305 360 434
#
# _framework density 21.870604
#
# number of rings (size 3 to 8) (size 9 to 14) (size 15 to 20)
#    0.000    0.500    6.250    1.125    5.250    1.500 
#    4.500    0.000    0.000    0.000    0.000    0.000 
#    0.000    0.000    0.000    0.000    0.000    0.000 
#
# Total GULP energy -89480.254630 kJ/mol
# GULP energy per Si atom -5592.515914 kJ/mol
# Density = 2.182083 g / cm^3
# Si number density = 21.870604 Si / 1000 Ang^3
#
#
#
# Elastic Constant Matrix: (Units=GPa)
#
#
# Indices 1 2 3 4 5 6 
#
# 1 59.5757 24.3671 56.8761 14.0677 0.1045 -5.1752
# 2 24.3671 80.0700 58.6895 14.8960 -4.5688 2.0857
# 3 56.8761 58.6895 131.5327 28.3483 5.3763 12.1514
# 4 14.0677 14.8960 28.3483 42.2477 -3.6299 2.5613
# 5 0.1045 -4.5688 5.3763 -3.6299 39.1544 9.5503
# 6 -5.1752 2.0857 12.1514 2.5613 9.5503 31.3477
#
#
#
# Elastic Compliance Matrix: (Units=1/GPa)
#
#
# Indices 1 2 3 4 5 6 
#
# 1 0.032077 0.001278 -0.015083 -0.001777 -0.000824 0.011453
# 2 0.001278 0.019109 -0.009171 -0.000851 0.003004 0.001649
# 3 -0.015083 -0.009171 0.020166 -0.004937 -0.002150 -0.008639
# 4 -0.001777 -0.000851 -0.004937 0.028292 0.003631 -0.001741
# 5 -0.000824 0.003004 -0.002150 0.003631 0.028601 -0.008513
# 6 0.011453 0.001649 -0.008639 -0.001741 -0.008513 0.039766
#
#
# Mechanical properties :
#
#
# Convention : Reuss Voigt Hill
#
# Bulk Modulus (GPa) = 39.36538 61.22711 50.29624
# Shear Modulus (GPa) = 22.47913 31.29969 26.88941
#
# Velocity S-wave (km/s) = 3.20945 3.78713 3.51019
# Velocity P-wave (km/s) = 5.63670 6.86870 6.28297
#
# Compressibility (1/GPa) = 0.02540303
#
# Stress axis : x y z
#
# Youngs Moduli (GPa) = 31.17458 52.33178 49.58727
#
# Poissons Ratio (x) = -0.06690 0.74790
# Poissons Ratio (y) = -0.03986 0.45475
# Poissons Ratio (z) = 0.47019 0.47992
#
# Static dielectric constant tensor:
#      x y z
#    x 1.839890 -0.034730 -0.017120 
#    y -0.034730 1.807180 0.002120 
#    z -0.017120 0.002120 1.800600 
# 
# From -- ./inp_files/405571.got.cif
#   From: 2010.05.17/outbox.cif.g08.bks.cpg/sg2_203_cif.got.tgz:405571.got - 2010.06.03 11:33:40.
