data_PCOD9061294
_publ_section_title
;
Structure prediction by ZEFSAII (Michael W. Deem and Ramdas Pophale) SiO2 
 PCOD9061294
Probable space group: P -1
;
_chemical_formula_sum "Si O2"
_cell_formula_units_Z 14
_cell_length_a 14.638373
_cell_length_b 14.384791
_cell_length_c 6.602298
_cell_angle_alpha 99.219106
_cell_angle_beta 108.523660
_cell_angle_gamma 27.421374
_cell_volume 582.991234
_symmetry_space_group_name_H-M "P -1"
_symmetry_group_IT_number 2
_symmetry_cell_setting 'triclinic'
loop_
_space_group_symop_operation_xyz
x,y,z
-x,-y,-z
loop_
_atom_site_type_symbol
_atom_site_label
_atom_site_fract_x
_atom_site_fract_y
_atom_site_fract_z
Si Si1 0.754608 0.877178 0.583813
Si Si2 0.218069 0.905114 0.982153
Si Si3 0.629935 0.638010 0.098971
Si Si4 0.980698 0.823562 0.418584
Si Si5 0.077314 0.574033 0.088598
Si Si6 0.201391 0.710060 0.901872
Si Si7 0.753795 0.670207 0.519406
O O1 0.835800 0.888744 0.495312
O O2 0.787818 0.742576 0.470281
O O3 0.498566 0.109399 0.517717
O O4 0.892175 0.750107 0.848688
O O5 0.299783 0.727058 0.006205
O O6 0.139176 0.990757 0.727599
O O7 0.397703 0.828058 0.098509
O O8 0.025513 0.086593 0.067685
O O9 0.683175 0.485154 0.014453
O O10 0.769695 0.567622 0.343675
O O11 0.696230 0.635312 0.944705
O O12 0.066675 0.676724 0.257442
O O13 0.156462 0.722934 0.641812
O O14 0.090045 0.480952 0.231812
#
# Coordination Sequence:
#
# PCOD9061294 Si02
#       7
#     2   2   2   2   2   2   2
#     4  11  25  44  68 100 136 178 225 279 334 401
#     4  11  25  42  72  96 134 176 222 285 335 399
#     4  12  23  44  66 100 135 175 222 278 333 405
#     4  12  21  44  66  95 135 175 218 279 337 391
#     4  12  23  42  68  96 140 175 223 273 339 394
#     4  11  23  45  66 100 133 173 227 277 339 399
#     4  11  25  43  68 100 136 177 228 275 335 402
#
# _framework density 24.014082999999999
#
# number of rings (size 3 to 8) (size 9 to 14) (size 15 to 20)
#    0.000    0.571    4.286    3.857    0.000    3.429 
#    0.000    4.286    0.000    0.000    0.000    0.000 
#    0.000    0.000    0.000    0.000    0.000    0.000 
#
# Total GULP energy -78140.978136 kJ/mol
# GULP energy per Si atom -5581.498438 kJ/mol
# Density = 2.395943 g / cm^3
# Si number density = 24.014083 Si / 1000 Ang^3
#
#
#
# Elastic Constant Matrix: (Units=GPa)
#
#
# Indices 1 2 3 4 5 6 
#
# 1 69.9839 23.3792 23.5725 18.2226 -6.5269 -6.8683
# 2 23.3792 76.8431 7.6378 10.5640 -8.0526 0.2035
# 3 23.5725 7.6378 101.5510 1.8475 -13.4417 -14.2306
# 4 18.2226 10.5640 1.8475 24.3607 -1.3434 0.8117
# 5 -6.5269 -8.0526 -13.4417 -1.3434 30.4801 -7.0923
# 6 -6.8683 0.2035 -14.2306 0.8117 -7.0923 42.8372
#
#
#
# Elastic Compliance Matrix: (Units=1/GPa)
#
#
# Indices 1 2 3 4 5 6 
#
# 1 0.020801 -0.003913 -0.003667 -0.013574 0.001833 0.002696
# 2 -0.003913 0.014970 0.000244 -0.003413 0.003063 -0.000046
# 3 -0.003667 0.000244 0.011996 0.001896 0.005652 0.004296
# 4 -0.013574 -0.003413 0.001896 0.052559 -0.001293 -0.002740
# 5 0.001833 0.003063 0.005652 -0.001293 0.038434 0.008545
# 6 0.002696 -0.000046 0.004296 -0.002740 0.008545 0.026670
#
#
# Mechanical properties :
#
#
# Convention : Reuss Voigt Hill
#
# Bulk Modulus (GPa) = 30.21678 39.72854 34.97266
# Shear Modulus (GPa) = 26.15946 32.45485 29.30715
#
# Velocity S-wave (km/s) = 3.30409 3.68025 3.49723
# Velocity P-wave (km/s) = 5.21213 5.88547 5.55901
#
# Compressibility (1/GPa) = 0.03309419
#
# Stress axis : x y z
#
# Youngs Moduli (GPa) = 48.07398 66.79933 83.36261
#
# Poissons Ratio (x) = 0.26141 0.30568
# Poissons Ratio (y) = 0.18813 -0.02031
# Poissons Ratio (z) = 0.17628 -0.01627
#
# Static dielectric constant tensor:
#      x y z
#    x 1.923540 -0.025530 0.020740 
#    y -0.025530 2.029170 -0.035090 
#    z 0.020740 -0.035090 1.898910 
# 
# From -- ./inp_files/39595.got.cif
#   From: 2010.05.17/outbox.cif.g08.bks.cpg/sg2_20_cif.got.tgz:39595.got - 2010.06.03 11:33:40.
