data_PCOD9061560
_publ_section_title
;
Structure prediction by ZEFSAII (Michael W. Deem and Ramdas Pophale) SiO2 
 PCOD9061560
Probable space group: P -1
;
_chemical_formula_sum "Si O2"
_cell_formula_units_Z 14
_cell_length_a 17.630131
_cell_length_b 11.359884
_cell_length_c 9.563789
_cell_angle_alpha 125.746097
_cell_angle_beta 100.944108
_cell_angle_gamma 33.363884
_cell_volume 636.380567
_symmetry_space_group_name_H-M "P -1"
_symmetry_group_IT_number 2
_symmetry_cell_setting 'triclinic'
loop_
_space_group_symop_operation_xyz
x,y,z
-x,-y,-z
loop_
_atom_site_type_symbol
_atom_site_label
_atom_site_fract_x
_atom_site_fract_y
_atom_site_fract_z
Si Si1 0.269163 0.270671 0.616745
Si Si2 0.438836 0.484996 0.858936
Si Si3 0.638304 0.369310 0.373657
Si Si4 0.039868 0.590372 0.021858
Si Si5 0.786251 0.364694 0.978372
Si Si6 0.200578 0.605571 0.573770
Si Si7 0.286313 0.378410 0.144163
O O1 0.108761 0.479737 0.808025
O O2 0.325443 0.313907 0.762808
O O3 0.227605 0.425463 0.564385
O O4 0.404728 0.905292 0.381972
O O5 0.382127 0.647871 0.804349
O O6 0.266980 0.691819 0.006174
O O7 0.500000 0.500000 0.000000
O O8 0.500000 0.500000 0.500000
O O9 0.635821 0.551118 0.482672
O O10 0.841085 0.004230 0.254758
O O11 0.194108 0.403379 0.043755
O O12 0.000000 0.500000 0.000000
O O13 0.735366 0.455529 0.860747
O O14 0.005427 0.011616 0.830569
O O15 0.180109 0.585472 0.394717
O O16 0.500000 0.000000 0.000000
#
# Coordination Sequence:
#
# PCOD9061560 Si02
#       7
#     2   2   2   2   2   2   2
#     4  11  23  47  74 105 140 196 246 296 363 445
#     4  12  28  45  72 109 147 190 249 310 369 437
#     4  12  27  45  74 106 150 195 242 304 379 433
#     4  11  26  48  73 107 152 195 243 302 378 440
#     4  11  23  45  73 103 144 189 246 296 364 441
#     4  12  24  45  77 106 144 194 252 303 358 446
#     4  11  26  42  72 110 142 190 250 303 355 433
#
# _framework density 21.999414000000002
#
# number of rings (size 3 to 8) (size 9 to 14) (size 15 to 20)
#    0.000    0.571    4.286    3.857    8.000    2.286 
#    0.000    2.143    0.000    0.000    0.000    0.000 
#    0.000    0.000    0.000    0.000    0.000    0.000 
#
# Total GULP energy -78146.233393 kJ/mol
# GULP energy per Si atom -5581.873814 kJ/mol
# Density = 2.194934 g / cm^3
# Si number density = 21.999414 Si / 1000 Ang^3
#
#
#
# Elastic Constant Matrix: (Units=GPa)
#
#
# Indices 1 2 3 4 5 6 
#
# 1 176.6207 46.9630 46.2754 -12.9275 -35.9511 2.4248
# 2 46.9630 121.8121 43.7733 -15.9397 -10.2445 5.2931
# 3 46.2754 43.7733 95.3740 -11.6514 -6.4692 -2.8086
# 4 -12.9275 -15.9397 -11.6514 50.9974 8.2828 -12.1925
# 5 -35.9511 -10.2445 -6.4692 8.2828 41.2047 -7.8077
# 6 2.4248 5.2931 -2.8086 -12.1925 -7.8077 42.1291
#
#
#
# Elastic Compliance Matrix: (Units=1/GPa)
#
#
# Indices 1 2 3 4 5 6 
#
# 1 0.008098 -0.001635 -0.002717 0.000069 0.006362 0.000757
# 2 -0.001635 0.010492 -0.003834 0.001751 0.000046 -0.000964
# 3 -0.002717 -0.003834 0.013770 0.001903 -0.001186 0.001887
# 4 0.000069 0.001751 0.001903 0.022445 -0.002596 0.005917
# 5 0.006362 0.000046 -0.001186 -0.002596 0.031029 0.004548
# 6 0.000757 -0.000964 0.001887 0.005917 0.004548 0.026495
#
#
# Mechanical properties :
#
#
# Convention : Reuss Voigt Hill
#
# Bulk Modulus (GPa) = 62.53792 74.20332 68.37062
# Shear Modulus (GPa) = 37.30522 43.98591 40.64557
#
# Velocity S-wave (km/s) = 4.12240 4.47633 4.30301
# Velocity P-wave (km/s) = 7.15176 7.77944 7.47219
#
# Compressibility (1/GPa) = 0.01599030
#
# Stress axis : x y z
#
# Youngs Moduli (GPa) = 123.48851 95.30937 72.62024
#
# Poissons Ratio (x) = 0.15580 0.19728
# Poissons Ratio (y) = 0.20186 0.27841
# Poissons Ratio (z) = 0.33547 0.36539
#
# Static dielectric constant tensor:
#      x y z
#    x 1.863620 0.038970 0.007860 
#    y 0.038970 1.830320 0.039500 
#    z 0.007860 0.039500 1.876070 
# 
# From -- ./inp_files/333788.got.cif
#   From: 2010.05.17/outbox.cif.g08.bks.cpg/sg2_167_cif.got.tgz:333788.got - 2010.06.03 11:33:40.
