data_PCOD9061569
_publ_section_title
;
Structure prediction by ZEFSAII (Michael W. Deem and Ramdas Pophale) SiO2 
 PCOD9061569
Probable space group: P -1
;
_chemical_formula_sum "Si O2"
_cell_formula_units_Z 14
_cell_length_a 10.164831
_cell_length_b 23.327957
_cell_length_c 12.285432
_cell_angle_alpha 151.576110
_cell_angle_beta 124.425839
_cell_angle_gamma 34.217715
_cell_volume 620.991399
_symmetry_space_group_name_H-M "P -1"
_symmetry_group_IT_number 2
_symmetry_cell_setting 'triclinic'
loop_
_space_group_symop_operation_xyz
x,y,z
-x,-y,-z
loop_
_atom_site_type_symbol
_atom_site_label
_atom_site_fract_x
_atom_site_fract_y
_atom_site_fract_z
Si Si1 0.745278 0.306052 0.206831
Si Si2 0.174275 0.140478 0.302342
Si Si3 0.261382 0.973548 0.294169
Si Si4 0.363154 0.193837 0.190400
Si Si5 0.044883 0.457678 0.078867
Si Si6 0.219368 0.538735 0.705565
Si Si7 0.177487 0.641601 0.092349
O O1 0.500000 0.500000 0.500000
O O2 0.672834 0.424469 0.260689
O O3 0.031458 0.161531 0.168466
O O4 0.743360 0.166704 0.951883
O O5 0.054642 0.352215 0.598448
O O6 0.125819 0.116818 0.359759
O O7 0.515932 0.904303 0.038871
O O8 0.607065 0.790180 0.156343
O O9 0.060524 0.137018 0.576080
O O10 0.417548 0.297109 0.425291
O O11 0.022799 0.374610 0.335853
O O12 0.500000 0.000000 0.000000
O O13 0.000000 0.500000 0.000000
O O14 0.841648 0.479752 0.066745
O O15 0.094823 0.676500 0.986036
O O16 0.500000 0.500000 0.000000
#
# Coordination Sequence:
#
# PCOD9061569 Si02
#       7
#     2   2   2   2   2   2   2
#     4  12  26  46  75 109 146 193 251 312 371 443
#     4  12  25  46  81 106 144 193 255 311 375 443
#     4  12  28  50  76 110 151 202 251 309 376 453
#     4  11  23  45  73 107 142 192 241 309 379 441
#     4  12  27  51  78 109 151 200 260 300 376 461
#     4  11  27  46  69 107 154 187 248 308 378 442
#     4  12  30  49  76 110 155 199 248 313 375 448
#
# _framework density 22.544594
#
# number of rings (size 3 to 8) (size 9 to 14) (size 15 to 20)
#    0.000    0.286    4.286    3.429   10.000    1.714 
#    0.000    0.000    0.000    0.000    0.000    0.000 
#    0.000    0.000    0.000    0.000    0.000    0.000 
#
# Total GULP energy -78201.644604 kJ/mol
# GULP energy per Si atom -5585.831757 kJ/mol
# Density = 2.249328 g / cm^3
# Si number density = 22.544594 Si / 1000 Ang^3
#
#
#
# Elastic Constant Matrix: (Units=GPa)
#
#
# Indices 1 2 3 4 5 6 
#
# 1 172.7024 43.4420 70.4061 -10.0842 10.2669 18.5920
# 2 43.4420 63.0536 9.9755 -7.4655 7.6117 6.8296
# 3 70.4061 9.9755 165.0110 -17.9791 6.5225 7.8694
# 4 -10.0842 -7.4655 -17.9791 31.9545 5.4336 -11.2101
# 5 10.2669 7.6117 6.5225 5.4336 47.3985 -4.7431
# 6 18.5920 6.8296 7.8694 -11.2101 -4.7431 48.9756
#
#
#
# Elastic Compliance Matrix: (Units=1/GPa)
#
#
# Indices 1 2 3 4 5 6 
#
# 1 0.008725 -0.005267 -0.003384 -0.001088 -0.000689 -0.002350
# 2 -0.005267 0.020123 0.001630 0.004315 -0.002845 -0.000357
# 3 -0.003384 0.001630 0.007866 0.004138 -0.001021 0.000641
# 4 -0.001088 0.004315 0.004138 0.037637 -0.004609 0.007315
# 5 -0.000689 -0.002845 -0.001021 -0.004609 0.022568 0.001953
# 6 -0.002350 -0.000357 0.000641 0.007315 0.001953 0.023120
#
#
# Mechanical properties :
#
#
# Convention : Reuss Voigt Hill
#
# Bulk Modulus (GPa) = 44.10338 72.04600 58.07469
# Shear Modulus (GPa) = 35.30108 44.12861 39.71484
#
# Velocity S-wave (km/s) = 3.96135 4.42904 4.20171
# Velocity P-wave (km/s) = 6.36618 7.62769 7.02531
#
# Compressibility (1/GPa) = 0.02267400
#
# Stress axis : x y z
#
# Youngs Moduli (GPa) = 114.61353 49.69315 127.13051
#
# Poissons Ratio (x) = 0.26174 0.43016
# Poissons Ratio (y) = 0.60368 -0.20728
# Poissons Ratio (z) = 0.38780 -0.08102
#
# Static dielectric constant tensor:
#      x y z
#    x 8.189870 -8.151000 -4.799040 
#    y -8.151000 12.376260 6.283680 
#    z -4.799040 6.283680 5.566050 
# 
# From -- ./inp_files/69663.got.cif
#   From: 2010.05.17/outbox.cif.g08.bks.cpg/sg2_35_cif.got.tgz:69663.got - 2010.06.03 11:33:40.
