data_PCOD9061232
_publ_section_title
;
Structure prediction by ZEFSAII (Michael W. Deem and Ramdas Pophale) SiO2 
 PCOD9061232
Probable space group: P -1
;
_chemical_formula_sum "Si O2"
_cell_formula_units_Z 16
_cell_length_a 8.689225
_cell_length_b 15.733116
_cell_length_c 9.691807
_cell_angle_alpha 142.601518
_cell_angle_beta 104.025368
_cell_angle_gamma 84.862805
_cell_volume 768.709163
_symmetry_space_group_name_H-M "P -1"
_symmetry_group_IT_number 2
_symmetry_cell_setting 'triclinic'
loop_
_space_group_symop_operation_xyz
x,y,z
-x,-y,-z
loop_
_atom_site_type_symbol
_atom_site_label
_atom_site_fract_x
_atom_site_fract_y
_atom_site_fract_z
Si Si1 0.047270 0.855684 0.267727
Si Si2 0.092843 0.353820 0.246386
Si Si3 0.058017 0.352159 0.787833
Si Si4 0.429001 0.400905 0.480798
Si Si5 0.434792 0.408700 0.000667
Si Si6 0.903088 0.336621 0.450460
Si Si7 0.401097 0.863123 0.225927
Si Si8 0.435276 0.862869 0.901653
O O1 0.217648 0.860406 0.233540
O O2 0.047013 0.760191 0.280007
O O3 0.000000 0.000000 0.500000
O O4 0.913942 0.775378 0.027535
O O5 0.240555 0.400433 0.443003
O O6 0.096378 0.493739 0.334183
O O7 0.948987 0.313706 0.271945
O O8 0.244951 0.355401 0.869177
O O9 0.023028 0.314613 0.571363
O O10 0.000000 0.500000 0.000000
O O11 0.500000 0.500000 0.500000
O O12 0.442814 0.242944 0.241011
O O13 0.529708 0.471290 0.720114
O O14 0.529159 0.279480 0.895971
O O15 0.500000 0.500000 0.000000
O O16 0.735959 0.230542 0.302667
O O17 0.500000 0.000000 0.500000
O O18 0.422307 0.883223 0.090457
O O19 0.500000 0.000000 0.000000
#
# Coordination Sequence:
#
# PCOD9061232 Si02
#       8
#     2   2   2   2   2   2   2   2
#     4  12  27  47  72 103 147 191 244 300 372 440
#     4  11  23  44  76 103 139 189 246 301 365 426
#     4  12  24  42  72 108 144 185 240 298 361 435
#     4  12  23  44  74 105 144 187 245 301 360 439
#     4  12  26  45  73 112 147 189 247 302 367 438
#     4  11  23  45  73 105 141 188 244 302 359 431
#     4  12  28  50  72 102 152 198 241 304 375 443
#     4  12  28  48  74 108 150 194 243 303 374 440
#
# _framework density 20.814112999999999
#
# number of rings (size 3 to 8) (size 9 to 14) (size 15 to 20)
#    0.000    0.250    5.000    3.750    7.000    0.000 
#    2.250    1.250    0.000    0.000    0.000    0.000 
#    0.000    0.000    0.000    0.000    0.000    0.000 
#
# Total GULP energy -89331.099001 kJ/mol
# GULP energy per Si atom -5583.193688 kJ/mol
# Density = 2.076674 g / cm^3
# Si number density = 20.814113 Si / 1000 Ang^3
#
#
#
# Elastic Constant Matrix: (Units=GPa)
#
#
# Indices 1 2 3 4 5 6 
#
# 1 91.6246 49.4164 21.6665 -6.3226 5.3659 5.0651
# 2 49.4164 166.5450 68.2783 2.1169 -10.6872 21.2796
# 3 21.6665 68.2783 134.6648 -17.7303 -8.0746 1.9531
# 4 -6.3226 2.1169 -17.7303 45.5874 -9.0517 1.2873
# 5 5.3659 -10.6872 -8.0746 -9.0517 37.9315 0.0648
# 6 5.0651 21.2796 1.9531 1.2873 0.0648 34.1328
#
#
#
# Elastic Compliance Matrix: (Units=1/GPa)
#
#
# Indices 1 2 3 4 5 6 
#
# 1 0.013443 -0.004275 0.000031 0.001514 -0.002740 0.000617
# 2 -0.004275 0.009912 -0.004444 -0.002253 0.001923 -0.005210
# 3 0.000031 -0.004444 0.010373 0.004594 0.002045 0.001995
# 4 0.001514 -0.002253 0.004594 0.025261 0.006157 -0.000048
# 5 -0.002740 0.001923 0.002045 0.006157 0.029199 -0.001197
# 6 0.000617 -0.005210 0.001995 -0.000048 -0.001197 0.032344
#
#
# Mechanical properties :
#
#
# Convention : Reuss Voigt Hill
#
# Bulk Modulus (GPa) = 61.15469 74.61742 67.88606
# Shear Modulus (GPa) = 34.87730 40.42855 37.65293
#
# Velocity S-wave (km/s) = 4.09792 4.41201 4.25786
# Velocity P-wave (km/s) = 7.19970 7.86649 7.54047
#
# Compressibility (1/GPa) = 0.01635198
#
# Stress axis : x y z
#
# Youngs Moduli (GPa) = 74.38562 100.88361 96.40866
#
# Poissons Ratio (x) = 0.43132 -0.00297
# Poissons Ratio (y) = 0.31803 0.42841
# Poissons Ratio (z) = -0.00229 0.44829
#
# Static dielectric constant tensor:
#      x y z
#    x 1.822800 0.072090 0.029140 
#    y 0.072090 1.707870 -0.032750 
#    z 0.029140 -0.032750 1.673370 
# 
# From -- ./inp_files/209482.got.cif
#   From: 2010.05.17/outbox.cif.g08.bks.cpg/sg2_105_cif.got.tgz:209482.got - 2010.06.03 11:33:40.
