data_PCOD9061916
_publ_section_title
;
Structure prediction by ZEFSAII (Michael W. Deem and Ramdas Pophale) SiO2 
 PCOD9061916
Probable space group: P -1
;
_chemical_formula_sum "Si O2"
_cell_formula_units_Z 14
_cell_length_a 12.234763
_cell_length_b 5.663372
_cell_length_c 8.396919
_cell_angle_alpha 88.264104
_cell_angle_beta 87.347087
_cell_angle_gamma 84.605846
_cell_volume 578.428380
_symmetry_space_group_name_H-M "P -1"
_symmetry_group_IT_number 2
_symmetry_cell_setting 'triclinic'
loop_
_space_group_symop_operation_xyz
x,y,z
-x,-y,-z
loop_
_atom_site_type_symbol
_atom_site_label
_atom_site_fract_x
_atom_site_fract_y
_atom_site_fract_z
Si Si1 0.567836 0.186560 0.898070
Si Si2 0.866690 0.412380 0.180905
Si Si3 0.505483 0.743197 0.587791
Si Si4 0.729302 0.827083 0.712899
Si Si5 0.894824 0.412678 0.821313
Si Si6 0.875876 0.113424 0.507132
Si Si7 0.627961 0.485558 0.174226
O O1 0.470397 0.312919 0.796352
O O2 0.670787 0.048619 0.808944
O O3 0.613093 0.388242 0.999852
O O4 0.500000 0.000000 0.000000
O O5 0.859760 0.239964 0.335831
O O6 0.748242 0.562563 0.189444
O O7 0.976284 0.544072 0.193999
O O8 0.876453 0.306108 0.001448
O O9 0.500000 0.500000 0.500000
O O10 0.622741 0.703730 0.669315
O O11 0.401485 0.735380 0.712126
O O12 0.500000 0.000000 0.500000
O O13 0.818290 0.661542 0.809542
O O14 0.791927 0.919438 0.554069
O O15 0.867528 0.278500 0.663410
O O16 0.000000 0.000000 0.500000
#
# Coordination Sequence:
#
# PCOD9061916 Si02
#       7
#     2   2   2   2   2   2   2
#     4  11  23  46  73 112 152 208 261 323 408 468
#     4  11  25  50  76 112 154 203 259 330 395 483
#     4  12  28  46  72 113 156 210 267 329 402 482
#     4  12  26  48  79 109 159 204 260 334 399 484
#     4  11  27  50  77 113 155 203 262 332 406 472
#     4  12  27  50  77 113 153 206 262 326 406 473
#     4  11  25  44  74 108 157 202 263 330 394 484
#
# _framework density 24.203512
#
# number of rings (size 3 to 8) (size 9 to 14) (size 15 to 20)
#    0.000    0.571    2.857    3.857    8.000    0.571 
#    7.714    0.000    0.000    0.000    0.000    0.000 
#    0.000    0.000    0.000    0.000    0.000    0.000 
#
# Total GULP energy -78269.644305 kJ/mol
# GULP energy per Si atom -5590.688879 kJ/mol
# Density = 2.414842 g / cm^3
# Si number density = 24.203512 Si / 1000 Ang^3
#
#
#
# Elastic Constant Matrix: (Units=GPa)
#
#
# Indices 1 2 3 4 5 6 
#
# 1 189.6582 35.1059 38.4490 -8.5795 -5.9760 -13.4000
# 2 35.1059 82.8753 54.4899 1.9526 3.2408 -15.7139
# 3 38.4490 54.4899 161.3604 -25.4802 -12.0601 2.3099
# 4 -8.5795 1.9526 -25.4802 43.7284 4.8705 -6.5865
# 5 -5.9760 3.2408 -12.0601 4.8705 41.0918 -4.5600
# 6 -13.4000 -15.7139 2.3099 -6.5865 -4.5600 40.7990
#
#
#
# Elastic Compliance Matrix: (Units=1/GPa)
#
#
# Indices 1 2 3 4 5 6 
#
# 1 0.005922 -0.001920 -0.000551 0.001054 0.000893 0.001507
# 2 -0.001920 0.018645 -0.006741 -0.003944 -0.002594 0.006006
# 3 -0.000551 -0.006741 0.009640 0.005207 0.002418 -0.002212
# 4 0.001054 -0.003944 0.005207 0.026799 -0.000877 0.002761
# 5 0.000893 -0.002594 0.002418 -0.000877 0.025693 0.001887
# 6 0.001507 0.006006 -0.002212 0.002761 0.001887 0.028100
#
#
# Mechanical properties :
#
#
# Convention : Reuss Voigt Hill
#
# Bulk Modulus (GPa) = 63.36507 76.66483 70.01495
# Shear Modulus (GPa) = 36.10471 45.51379 40.80925
#
# Velocity S-wave (km/s) = 3.86646 4.34113 4.11065
# Velocity P-wave (km/s) = 6.79482 7.54129 7.17777
#
# Compressibility (1/GPa) = 0.01578156
#
# Stress axis : x y z
#
# Youngs Moduli (GPa) = 168.85942 53.63270 103.73664
#
# Poissons Ratio (x) = 0.10300 0.05715
# Poissons Ratio (y) = 0.32429 0.69933
# Poissons Ratio (z) = 0.09304 0.36156
#
# Static dielectric constant tensor:
#      x y z
#    x 1.898400 -0.005060 0.057120 
#    y -0.005060 1.958820 -0.023810 
#    z 0.057120 -0.023810 2.040680 
# 
# From -- ./inp_files/72093.got.cif
#   From: 2010.05.17/outbox.cif.g08.bks.cpg/sg2_37_cif.got.tgz:72093.got - 2010.06.03 11:33:40.
