data_PCOD9061455
_publ_section_title
;
Structure prediction by ZEFSAII (Michael W. Deem and Ramdas Pophale) SiO2 
 PCOD9061455
Probable space group: P -1
;
_chemical_formula_sum "Si O2"
_cell_formula_units_Z 15
_cell_length_a 14.608228
_cell_length_b 17.487400
_cell_length_c 12.174184
_cell_angle_alpha 152.712390
_cell_angle_beta 48.991397
_cell_angle_gamma 149.801154
_cell_volume 627.036894
_symmetry_space_group_name_H-M "P -1"
_symmetry_group_IT_number 2
_symmetry_cell_setting 'triclinic'
loop_
_space_group_symop_operation_xyz
x,y,z
-x,-y,-z
loop_
_atom_site_type_symbol
_atom_site_label
_atom_site_fract_x
_atom_site_fract_y
_atom_site_fract_z
Si Si1 0.230843 0.328437 0.597620
Si Si2 0.598883 0.820427 0.777589
Si Si3 0.232353 0.832160 0.498387
Si Si4 0.124176 0.806719 0.316074
Si Si5 0.500000 0.500000 0.000000
Si Si6 0.457455 0.653026 0.436261
Si Si7 0.136513 0.576126 0.588576
Si Si8 0.321268 0.555622 0.050671
O O1 0.444124 0.635333 0.766769
O O2 0.234782 0.143519 0.317432
O O3 0.036144 0.222748 0.582310
O O4 0.237651 0.357915 0.761217
O O5 0.453384 0.633468 0.545839
O O6 0.724216 0.130482 0.084718
O O7 0.249046 0.928568 0.486867
O O8 0.201292 0.597164 0.215821
O O9 0.034320 0.685487 0.527106
O O10 0.450468 0.117642 0.746521
O O11 0.301498 0.029227 0.371006
O O12 0.000000 0.500000 0.000000
O O13 0.574306 0.538032 0.862646
O O14 0.658549 0.535210 0.973924
O O15 0.299952 0.619803 0.480996
O O16 0.000000 0.500000 0.500000
#
# Coordination Sequence:
#
# PCOD9061455 Si02
#       8
#     2   2   2   2   1   2   2   2
#     4  11  24  43  71 100 142 187 234 288 352 416
#     4  11  25  46  69 103 142 187 230 295 351 416
#     4  11  24  43  72 100 135 188 236 284 346 420
#     4  12  23  40  68 102 136 182 231 285 344 415
#     4  12  24  46  72 106 138 186 222 300 352 406
#     4  12  26  46  69 101 144 181 236 288 351 417
#     4  12  26  45  70 101 138 185 236 292 347 420
#     4  11  23  45  71 100 142 180 239 286 348 418
#
# _framework density 23.922039000000002
#
# number of rings (size 3 to 8) (size 9 to 14) (size 15 to 20)
#    0.000    0.533    4.000    4.400    1.867    2.667 
#    0.000    0.667    0.000    0.000    0.000    0.000 
#    0.000    0.000    0.000    0.000    0.000    0.000 
#
# Total GULP energy -83730.073593 kJ/mol
# GULP energy per Si atom -5582.004906 kJ/mol
# Density = 2.386759 g / cm^3
# Si number density = 23.922039 Si / 1000 Ang^3
#
#
#
# Elastic Constant Matrix: (Units=GPa)
#
#
# Indices 1 2 3 4 5 6 
#
# 1 126.9180 18.8402 2.5328 -27.0296 7.3634 21.2783
# 2 18.8402 82.1842 26.2001 -13.5786 -9.1573 23.7886
# 3 2.5328 26.2001 77.4570 -16.5960 7.9590 12.1929
# 4 -27.0296 -13.5786 -16.5960 33.3786 -3.3554 -3.5147
# 5 7.3634 -9.1573 7.9590 -3.3554 29.0843 -19.6884
# 6 21.2783 23.7886 12.1929 -3.5147 -19.6884 55.5064
#
#
#
# Elastic Compliance Matrix: (Units=1/GPa)
#
#
# Indices 1 2 3 4 5 6 
#
# 1 0.011641 -0.001254 0.004004 0.009336 -0.008176 -0.007113
# 2 -0.001254 0.015995 -0.004578 0.003305 0.004600 -0.003527
# 3 0.004004 -0.004578 0.018465 0.008678 -0.011307 -0.007090
# 4 0.009336 0.003305 0.008678 0.042434 -0.002178 -0.004987
# 5 -0.008176 0.004600 -0.011307 -0.002178 0.056744 0.023636
# 6 -0.007113 -0.003527 -0.007090 -0.004987 0.023636 0.031880
#
#
# Mechanical properties :
#
#
# Convention : Reuss Voigt Hill
#
# Bulk Modulus (GPa) = 23.56143 42.41169 32.98656
# Shear Modulus (GPa) = 25.64569 39.52627 32.58598
#
# Velocity S-wave (km/s) = 3.27777 4.06925 3.69477
# Velocity P-wave (km/s) = 4.91891 6.31237 5.65870
#
# Compressibility (1/GPa) = 0.04244225
#
# Stress axis : x y z
#
# Youngs Moduli (GPa) = 85.90650 62.52098 54.15586
#
# Poissons Ratio (x) = 0.07843 -0.21683
# Poissons Ratio (y) = 0.10777 0.24795
# Poissons Ratio (z) = -0.34395 0.28625
#
# Static dielectric constant tensor:
#      x y z
#    x 1.966040 -0.019760 -0.021140 
#    y -0.019760 1.853070 0.030440 
#    z -0.021140 0.030440 1.996060 
# 
# From -- ./inp_files/217692.got.cif
#   From: 2010.05.17/outbox.cif.g08.bks.cpg/sg2_109_cif.got.tgz:217692.got - 2010.06.03 11:33:40.
