data_PCOD9061425
_publ_section_title
;
Structure prediction by ZEFSAII (Michael W. Deem and Ramdas Pophale) SiO2 
 PCOD9061425
Probable space group: P -1
;
_chemical_formula_sum "Si O2"
_cell_formula_units_Z 12
_cell_length_a 11.817900
_cell_length_b 13.746553
_cell_length_c 6.448995
_cell_angle_alpha 115.963492
_cell_angle_beta 110.720610
_cell_angle_gamma 31.390724
_cell_volume 490.183784
_symmetry_space_group_name_H-M "P -1"
_symmetry_group_IT_number 2
_symmetry_cell_setting 'triclinic'
loop_
_space_group_symop_operation_xyz
x,y,z
-x,-y,-z
loop_
_atom_site_type_symbol
_atom_site_label
_atom_site_fract_x
_atom_site_fract_y
_atom_site_fract_z
Si Si1 0.645462 0.936567 0.768855
Si Si2 0.550009 0.705035 0.201598
Si Si3 0.560252 0.573604 0.687176
Si Si4 0.193573 0.942086 0.543982
Si Si5 0.206045 0.181868 0.785485
Si Si6 0.091506 0.569015 0.491376
O O1 0.523841 0.140720 0.847038
O O2 0.556927 0.994512 0.338012
O O3 0.730470 0.838239 0.959009
O O4 0.874037 0.774650 0.648480
O O5 0.347370 0.818906 0.323254
O O6 0.751924 0.591888 0.376037
O O7 0.614133 0.560244 0.949217
O O8 0.500000 0.500000 0.500000
O O9 0.351995 0.800522 0.705754
O O10 0.746612 0.471172 0.555474
O O11 0.124313 0.118569 0.674681
O O12 0.000000 0.000000 0.500000
O O13 0.032917 0.387554 0.750487
#
# Coordination Sequence:
#
# PCOD9061425 Si02
#       6
#     2   2   2   2   2   2
#     4  11  24  45  74 100 145 183 235 280 350 415
#     4  11  25  45  71 107 135 187 230 285 350 415
#     4  11  25  45  66 101 146 178 234 290 342 412
#     4  11  24  42  72 102 137 181 234 284 347 413
#     4  11  23  45  70 106 140 184 230 292 340 410
#     4  11  24  43  70 103 140 181 233 284 348 407
#
# _framework density 24.480613999999999
#
# number of rings (size 3 to 8) (size 9 to 14) (size 15 to 20)
#    0.000    1.000    3.333    2.500    0.000    5.333 
#    3.000    2.500    0.000    0.000    0.000    0.000 
#    0.000    0.000    0.000    0.000    0.000    0.000 
#
# Total GULP energy -66911.234318 kJ/mol
# GULP energy per Si atom -5575.936193 kJ/mol
# Density = 2.442489 g / cm^3
# Si number density = 24.480614 Si / 1000 Ang^3
#
#
#
# Elastic Constant Matrix: (Units=GPa)
#
#
# Indices 1 2 3 4 5 6 
#
# 1 120.9051 56.9267 31.5830 -10.0342 0.0508 -27.2144
# 2 56.9267 160.0098 43.1726 -41.9222 4.7794 -13.8254
# 3 31.5830 43.1726 86.6889 -29.0320 0.3258 5.1128
# 4 -10.0342 -41.9222 -29.0320 44.8229 3.4682 -5.5928
# 5 0.0508 4.7794 0.3258 3.4682 25.1183 5.7592
# 6 -27.2144 -13.8254 5.1128 -5.5928 5.7592 43.0797
#
#
#
# Elastic Compliance Matrix: (Units=1/GPa)
#
#
# Indices 1 2 3 4 5 6 
#
# 1 0.012195 -0.003124 -0.003895 -0.001779 -0.000746 0.007032
# 2 -0.003124 0.010440 -0.001230 0.008974 -0.003940 0.003215
# 3 -0.003895 -0.001230 0.016552 0.008255 -0.000261 -0.003713
# 4 -0.001779 0.008974 0.008255 0.037148 -0.008484 0.006733
# 5 -0.000746 -0.003940 -0.000261 -0.008484 0.043721 -0.008651
# 6 0.007032 0.003215 -0.003713 0.006733 -0.008651 0.031158
#
#
# Mechanical properties :
#
#
# Convention : Reuss Voigt Hill
#
# Bulk Modulus (GPa) = 44.07731 70.10762 57.09246
# Shear Modulus (GPa) = 28.52668 38.33228 33.42948
#
# Velocity S-wave (km/s) = 3.41732 3.96134 3.69934
# Velocity P-wave (km/s) = 5.79783 7.04437 6.45128
#
# Compressibility (1/GPa) = 0.02268741
#
# Stress axis : x y z
#
# Youngs Moduli (GPa) = 82.00243 95.78984 60.41620
#
# Poissons Ratio (x) = 0.29924 0.23532
# Poissons Ratio (y) = 0.25617 0.07434
# Poissons Ratio (z) = 0.31940 0.11787
#
# Static dielectric constant tensor:
#      x y z
#    x 2.005330 0.114930 0.020530 
#    y 0.114930 2.099000 0.095170 
#    z 0.020530 0.095170 2.186850 
# 
# From -- ./inp_files/112265.got.cif
#   From: 2010.05.17/outbox.cif.g08.bks.cpg/sg2_57_cif.got.tgz:112265.got - 2010.06.03 11:33:40.
