data_PCOD9061936
_publ_section_title
;
Structure prediction by ZEFSAII (Michael W. Deem and Ramdas Pophale) SiO2 
 PCOD9061936
Probable space group: P -1
;
_chemical_formula_sum "Si O2"
_cell_formula_units_Z 16
_cell_length_a 11.305199
_cell_length_b 8.847616
_cell_length_c 8.744679
_cell_angle_alpha 123.160305
_cell_angle_beta 92.247601
_cell_angle_gamma 89.180449
_cell_volume 731.641185
_symmetry_space_group_name_H-M "P -1"
_symmetry_group_IT_number 2
_symmetry_cell_setting 'triclinic'
loop_
_space_group_symop_operation_xyz
x,y,z
-x,-y,-z
loop_
_atom_site_type_symbol
_atom_site_label
_atom_site_fract_x
_atom_site_fract_y
_atom_site_fract_z
Si Si1 0.874819 0.097955 0.568666
Si Si2 0.781636 0.521323 0.267854
Si Si3 0.293845 0.170118 0.753686
Si Si4 0.211111 0.860677 0.078791
Si Si5 0.197239 0.232310 0.104502
Si Si6 0.963083 0.446280 0.638878
Si Si7 0.387071 0.369493 0.409379
Si Si8 0.471303 0.979020 0.169635
O O1 0.857422 0.158837 0.776564
O O2 0.877289 0.274895 0.559211
O O3 0.767319 0.963465 0.445240
O O4 0.000000 0.000000 0.500000
O O5 0.703982 0.626540 0.197858
O O6 0.912295 0.607020 0.309657
O O7 0.715786 0.562399 0.445504
O O8 0.804303 0.310942 0.126053
O O9 0.419849 0.102717 0.779855
O O10 0.212102 0.167891 0.898043
O O11 0.180099 0.054138 0.109445
O O12 0.351972 0.864417 0.116034
O O13 0.318141 0.332213 0.225544
O O14 0.095210 0.377759 0.194652
O O15 0.000000 0.500000 0.500000
O O16 0.500000 0.500000 0.500000
O O17 0.438228 0.173714 0.343429
O O18 0.500000 0.000000 0.000000
#
# Coordination Sequence:
#
# PCOD9061936 Si02
#       8
#     2   2   2   2   2   2   2   2
#     4  12  27  47  71 102 148 186 241 301 354 420
#     4  12  27  46  71 105 145 186 239 298 358 424
#     4  12  26  46  74 106 143 188 233 297 361 416
#     4  11  26  48  71 104 145 188 240 294 358 427
#     4  11  25  44  73 104 141 185 241 291 356 430
#     4  12  26  46  72 102 143 187 244 294 356 428
#     4  11  24  44  72 104 142 183 236 295 357 428
#     4  11  23  46  74 105 145 183 238 293 354 433
#
# _framework density 21.868642000000001
#
# number of rings (size 3 to 8) (size 9 to 14) (size 15 to 20)
#    0.000    0.500    5.000    3.750    5.250    4.000 
#    0.000    0.000    0.000    0.000    0.000    0.000 
#    0.000    0.000    0.000    0.000    0.000    0.000 
#
# Total GULP energy -89477.486621 kJ/mol
# GULP energy per Si atom -5592.342914 kJ/mol
# Density = 2.181887 g / cm^3
# Si number density = 21.868642 Si / 1000 Ang^3
#
#
#
# Elastic Constant Matrix: (Units=GPa)
#
#
# Indices 1 2 3 4 5 6 
#
# 1 86.5090 5.0470 8.9115 17.0356 -13.9018 -16.8745
# 2 5.0470 68.7987 17.7419 17.9745 -0.4952 -5.9746
# 3 8.9115 17.7419 80.9365 11.3754 -20.2234 -2.2026
# 4 17.0356 17.9745 11.3754 31.4022 1.8514 1.3287
# 5 -13.9018 -0.4952 -20.2234 1.8514 38.1586 4.1416
# 6 -16.8745 -5.9746 -2.2026 1.3287 4.1416 41.5474
#
#
#
# Elastic Compliance Matrix: (Units=1/GPa)
#
#
# Indices 1 2 3 4 5 6 
#
# 1 0.015666 0.001963 0.001038 -0.010630 0.006101 0.006432
# 2 0.001963 0.018177 -0.002698 -0.010625 -0.000359 0.003644
# 3 0.001038 -0.002698 0.015820 -0.005285 0.008968 0.000148
# 4 -0.010630 -0.010625 -0.005285 0.046386 -0.008326 -0.006779
# 5 0.006101 -0.000359 0.008968 -0.008326 0.033601 -0.000181
# 6 0.006432 0.003644 0.000148 -0.006779 -0.000181 0.027448
#
#
# Mechanical properties :
#
#
# Convention : Reuss Voigt Hill
#
# Bulk Modulus (GPa) = 19.89269 33.29389 26.59329
# Shear Modulus (GPa) = 28.86047 35.85790 32.35919
#
# Velocity S-wave (km/s) = 3.63674 4.05371 3.85087
# Velocity P-wave (km/s) = 5.17210 6.09652 5.65324
#
# Compressibility (1/GPa) = 0.05026973
#
# Stress axis : x y z
#
# Youngs Moduli (GPa) = 63.83068 55.01599 63.21113
#
# Poissons Ratio (x) = -0.10798 -0.06564
# Poissons Ratio (y) = -0.12528 0.17053
# Poissons Ratio (z) = -0.06628 0.14842
#
# Static dielectric constant tensor:
#      x y z
#    x 1.839580 -0.000720 0.054750 
#    y -0.000720 1.800090 -0.001270 
#    z 0.054750 -0.001270 1.814460 
# 
# From -- ./inp_files/242562.got.cif
#   From: 2010.05.17/outbox.cif.g08.bks.cpg/sg2_122_cif.got.tgz:242562.got - 2010.06.03 11:33:40.
