data_PCOD9061046
_publ_section_title
;
Structure prediction by ZEFSAII (Michael W. Deem and Ramdas Pophale) SiO2 
 PCOD9061046
Probable space group: P -1
;
_chemical_formula_sum "Si O2"
_cell_formula_units_Z 16
_cell_length_a 6.183714
_cell_length_b 8.958323
_cell_length_c 20.356621
_cell_angle_alpha 130.705229
_cell_angle_beta 118.820932
_cell_angle_gamma 65.658897
_cell_volume 740.806896
_symmetry_space_group_name_H-M "P -1"
_symmetry_group_IT_number 2
_symmetry_cell_setting 'triclinic'
loop_
_space_group_symop_operation_xyz
x,y,z
-x,-y,-z
loop_
_atom_site_type_symbol
_atom_site_label
_atom_site_fract_x
_atom_site_fract_y
_atom_site_fract_z
Si Si1 0.495520 0.786023 0.680248
Si Si2 0.757867 0.047293 0.580407
Si Si3 0.104249 0.543824 0.327548
Si Si4 0.340650 0.462224 0.840064
Si Si5 0.693146 0.078618 0.994001
Si Si6 0.104159 0.631644 0.498220
Si Si7 0.757380 0.140978 0.762446
Si Si8 0.706777 0.891759 0.167442
O O1 0.670945 0.629614 0.705322
O O2 0.377303 0.669416 0.571954
O O3 0.636802 0.958491 0.721923
O O4 0.286127 0.914860 0.730381
O O5 0.822457 0.239230 0.607885
O O6 0.758951 0.104514 0.673914
O O7 0.500000 0.000000 0.500000
O O8 0.951881 0.852277 0.538519
O O9 0.066234 0.524123 0.393730
O O10 0.869380 0.534151 0.245116
O O11 0.329023 0.686193 0.926826
O O12 0.596552 0.354149 0.814790
O O13 0.297074 0.306686 0.846701
O O14 0.535461 0.061910 0.899654
O O15 0.500000 0.000000 0.000000
O O16 0.000000 0.000000 0.000000
O O17 0.000000 0.500000 0.500000
O O18 0.024445 0.138303 0.835200
#
# Coordination Sequence:
#
# PCOD9061046 Si02
#       8
#     2   2   2   2   2   2   2   2
#     4  11  24  43  67 100 142 185 246 299 366 443
#     4  12  22  40  64 100 141 183 244 299 359 433
#     4  12  24  41  66 101 140 185 242 301 362 434
#     4  11  26  47  73 108 144 189 244 299 373 446
#     4  12  31  51  81 117 151 193 246 311 378 450
#     4  12  24  41  63  97 140 196 242 300 367 434
#     4  11  23  44  72 101 138 194 235 298 375 433
#     4  11  25  49  77 102 147 188 241 303 373 448
#
# _framework density 21.59807
#
# number of rings (size 3 to 8) (size 9 to 14) (size 15 to 20)
#    0.000    0.500    2.500    5.625    7.000    1.500 
#    0.000    0.000    0.000    0.000    0.000    0.000 
#    0.000    0.000    0.000    0.000    0.000    0.000 
#
# Total GULP energy -89318.335582 kJ/mol
# GULP energy per Si atom -5582.395974 kJ/mol
# Density = 2.154891 g / cm^3
# Si number density = 21.598070 Si / 1000 Ang^3
#
#
#
# Elastic Constant Matrix: (Units=GPa)
#
#
# Indices 1 2 3 4 5 6 
#
# 1 72.3216 41.7933 22.3541 -1.7524 9.7330 -22.3863
# 2 41.7933 125.8391 29.1604 9.0081 5.9564 -20.2449
# 3 22.3541 29.1604 102.2076 -0.0573 12.2159 -15.7258
# 4 -1.7524 9.0081 -0.0573 52.5935 -11.9280 3.0292
# 5 9.7330 5.9564 12.2159 -11.9280 22.8140 -6.3016
# 6 -22.3863 -20.2449 -15.7258 3.0292 -6.3016 45.6398
#
#
#
# Elastic Compliance Matrix: (Units=1/GPa)
#
#
# Indices 1 2 3 4 5 6 
#
# 1 0.019722 -0.005005 -0.001363 0.000112 -0.004566 0.006346
# 2 -0.005005 0.010420 -0.001569 -0.002141 -0.000391 0.001715
# 3 -0.001363 -0.001569 0.011442 -0.001043 -0.005146 0.001937
# 4 0.000112 -0.002141 -0.001043 0.022260 0.012427 -0.001016
# 5 -0.004566 -0.000391 -0.005146 0.012427 0.055883 0.002705
# 6 0.006346 0.001715 0.001937 -0.001016 0.002705 0.026892
#
#
# Mechanical properties :
#
#
# Convention : Reuss Voigt Hill
#
# Bulk Modulus (GPa) = 38.89551 54.10931 46.50241
# Shear Modulus (GPa) = 29.22877 38.01351 33.62114
#
# Velocity S-wave (km/s) = 3.68272 4.19984 3.94975
# Velocity P-wave (km/s) = 6.01092 6.97319 6.50986
#
# Compressibility (1/GPa) = 0.02570991
#
# Stress axis : x y z
#
# Youngs Moduli (GPa) = 50.70367 95.96844 87.39550
#
# Poissons Ratio (x) = 0.48034 0.11915
# Poissons Ratio (y) = 0.25378 0.13712
# Poissons Ratio (z) = 0.06913 0.15057
#
# Static dielectric constant tensor:
#      x y z
#    x 1.869150 -0.000630 -0.047430 
#    y -0.000630 1.731050 -0.006950 
#    z -0.047430 -0.006950 1.722540 
# 
# From -- ./inp_files/37330.got.cif
#   From: 2010.05.17/outbox.cif.g08.bks.cpg/sg2_19_cif.got.tgz:37330.got - 2010.06.03 11:33:40.
