data_PCOD9061660
_publ_section_title
;
Structure prediction by ZEFSAII (Michael W. Deem and Ramdas Pophale) SiO2 
 PCOD9061660
Probable space group: P -1
;
_chemical_formula_sum "Si O2"
_cell_formula_units_Z 14
_cell_length_a 8.546638
_cell_length_b 8.193801
_cell_length_c 11.536100
_cell_angle_alpha 99.798651
_cell_angle_beta 83.091823
_cell_angle_gamma 129.621897
_cell_volume 613.123925
_symmetry_space_group_name_H-M "P -1"
_symmetry_group_IT_number 2
_symmetry_cell_setting 'triclinic'
loop_
_space_group_symop_operation_xyz
x,y,z
-x,-y,-z
loop_
_atom_site_type_symbol
_atom_site_label
_atom_site_fract_x
_atom_site_fract_y
_atom_site_fract_z
Si Si1 0.078686 0.506880 0.620692
Si Si2 0.046243 0.952099 0.365618
Si Si3 0.506171 0.358109 0.386121
Si Si4 0.555714 0.193114 0.942620
Si Si5 0.117585 0.409733 0.149556
Si Si6 0.814719 0.949932 0.165260
Si Si7 0.535089 0.488073 0.146116
O O1 0.322071 0.661407 0.603369
O O2 0.000000 0.500000 0.500000
O O3 0.008262 0.277927 0.643599
O O4 0.994502 0.582075 0.729856
O O5 0.928713 0.980095 0.279530
O O6 0.287246 0.136307 0.352547
O O7 0.000000 0.000000 0.500000
O O8 0.500000 0.500000 0.500000
O O9 0.579373 0.482353 0.273911
O O10 0.791534 0.380138 0.910854
O O11 0.402788 0.097567 0.833486
O O12 0.506429 0.309893 0.049294
O O13 0.500000 0.000000 0.000000
O O14 0.328786 0.456748 0.163535
O O15 0.962433 0.159993 0.099683
O O16 0.731543 0.714788 0.107606
#
# Coordination Sequence:
#
# PCOD9061660 Si02
#       7
#     2   2   2   2   2   2   2
#     4  12  27  44  72 113 151 192 251 310 380 446
#     4  12  24  45  76 108 144 204 248 305 383 449
#     4  12  24  45  75 104 147 186 248 308 367 446
#     4  11  29  48  73 112 153 195 259 314 371 442
#     4  11  25  45  74 107 148 194 250 305 381 439
#     4  11  23  45  76 104 147 192 253 299 380 441
#     4  11  24  48  74 106 145 196 246 308 373 447
#
# _framework density 22.833884000000001
#
# number of rings (size 3 to 8) (size 9 to 14) (size 15 to 20)
#    0.000    0.571    4.286    3.429    4.000    5.714 
#    0.000    0.000    0.000    0.000    0.000    0.000 
#    0.000    0.000    0.000    0.000    0.000    0.000 
#
# Total GULP energy -78093.909468 kJ/mol
# GULP energy per Si atom -5578.136391 kJ/mol
# Density = 2.278191 g / cm^3
# Si number density = 22.833884 Si / 1000 Ang^3
#
#
#
# Elastic Constant Matrix: (Units=GPa)
#
#
# Indices 1 2 3 4 5 6 
#
# 1 106.5627 59.7694 57.0765 7.8076 -3.6727 15.9086
# 2 59.7694 198.7669 29.5465 -14.1239 10.2700 13.5070
# 3 57.0765 29.5465 109.8799 -4.2678 -3.2303 -3.0254
# 4 7.8076 -14.1239 -4.2678 34.5315 -2.0509 -0.5782
# 5 -3.6727 10.2700 -3.2303 -2.0509 44.4372 -1.4010
# 6 15.9086 13.5070 -3.0254 -0.5782 -1.4010 38.8306
#
#
#
# Elastic Compliance Matrix: (Units=1/GPa)
#
#
# Indices 1 2 3 4 5 6 
#
# 1 0.017848 -0.004203 -0.008549 -0.006844 0.001302 -0.006571
# 2 -0.004203 0.006603 0.000483 0.003601 -0.001689 -0.000545
# 3 -0.008549 0.000483 0.013703 0.003929 0.000500 0.004479
# 4 -0.006844 0.003601 0.003929 0.032532 0.000463 0.002358
# 5 0.001302 -0.001689 0.000500 0.000463 0.023089 0.000933
# 6 -0.006571 -0.000545 0.004479 0.002358 0.000933 0.029052
#
#
# Mechanical properties :
#
#
# Convention : Reuss Voigt Hill
#
# Bulk Modulus (GPa) = 73.44967 78.66605 76.05786
# Shear Modulus (GPa) = 32.91535 41.48098 37.19816
#
# Velocity S-wave (km/s) = 3.80085 4.26683 4.04056
# Velocity P-wave (km/s) = 7.17626 7.66816 7.42628
#
# Compressibility (1/GPa) = 0.01361477
#
# Stress axis : x y z
#
# Youngs Moduli (GPa) = 56.02829 151.43871 72.97916
#
# Poissons Ratio (x) = 0.63652 0.62393
# Poissons Ratio (y) = 0.23550 -0.03524
# Poissons Ratio (z) = 0.47901 -0.07313
#
# Static dielectric constant tensor:
#      x y z
#    x 1.914100 0.008050 0.024610 
#    y 0.008050 2.059090 -0.071490 
#    z 0.024610 -0.071490 1.854720 
# 
# From -- ./inp_files/379520.got.cif
#   From: 2010.05.17/outbox.cif.g08.bks.cpg/sg2_190_cif.got.tgz:379520.got - 2010.06.03 11:33:40.
