data_PCOD9061849
_publ_section_title
;
Structure prediction by ZEFSAII (Michael W. Deem and Ramdas Pophale) SiO2 
 PCOD9061849
Probable space group: P -1
;
_chemical_formula_sum "Si O2"
_cell_formula_units_Z 14
_cell_length_a 17.362838
_cell_length_b 6.449776
_cell_length_c 8.888671
_cell_angle_alpha 78.349155
_cell_angle_beta 67.451377
_cell_angle_gamma 38.697540
_cell_volume 566.539877
_symmetry_space_group_name_H-M "P -1"
_symmetry_group_IT_number 2
_symmetry_cell_setting 'triclinic'
loop_
_space_group_symop_operation_xyz
x,y,z
-x,-y,-z
loop_
_atom_site_type_symbol
_atom_site_label
_atom_site_fract_x
_atom_site_fract_y
_atom_site_fract_z
Si Si1 0.122358 0.511288 0.129587
Si Si2 0.689560 0.933866 0.533146
Si Si3 0.445705 0.232413 0.856862
Si Si4 0.251741 0.379457 0.766752
Si Si5 0.348832 0.720608 0.073809
Si Si6 0.864989 0.986810 0.411188
Si Si7 0.170673 0.724386 0.322604
O O1 0.129297 0.717011 0.191180
O O2 0.989176 0.665846 0.266443
O O3 0.248159 0.109868 0.122909
O O4 0.134487 0.528115 0.940660
O O5 0.689356 0.894579 0.360803
O O6 0.751220 0.038491 0.503244
O O7 0.790127 0.564632 0.579447
O O8 0.555801 0.135720 0.690255
O O9 0.368504 0.218646 0.814839
O O10 0.344425 0.615620 0.930238
O O11 0.500000 0.000000 0.000000
O O12 0.198203 0.689584 0.674595
O O13 0.299840 0.620743 0.226049
O O14 0.500000 0.500000 0.000000
O O15 0.914739 0.969968 0.540360
#
# Coordination Sequence:
#
# PCOD9061849 Si02
#       7
#     2   2   2   2   2   2   2
#     4  12  26  46  73 107 143 194 246 295 358 427
#     4  11  25  46  73 106 147 186 241 299 360 432
#     4  12  23  49  75 103 144 184 243 296 363 426
#     4  11  26  46  72 104 145 193 235 302 362 427
#     4  12  25  41  75 107 141 180 242 302 357 418
#     4  11  27  47  70 105 148 194 242 291 360 433
#     4  11  23  46  72 104 143 188 241 303 355 416
#
# _framework density 24.711413
#
# number of rings (size 3 to 8) (size 9 to 14) (size 15 to 20)
#    0.000    0.571    2.857    4.714    2.000    5.714 
#    0.000    0.000    0.000    0.000    0.000    0.000 
#    0.000    0.000    0.000    0.000    0.000    0.000 
#
# Total GULP energy -78300.135745 kJ/mol
# GULP energy per Si atom -5592.866839 kJ/mol
# Density = 2.465517 g / cm^3
# Si number density = 24.711413 Si / 1000 Ang^3
#
#
#
# Elastic Constant Matrix: (Units=GPa)
#
#
# Indices 1 2 3 4 5 6 
#
# 1 55.2970 12.5893 27.8031 16.8003 31.6394 6.4947
# 2 12.5893 79.0321 39.5691 6.7254 2.1568 5.7823
# 3 27.8031 39.5691 169.6160 33.5560 18.4962 14.9769
# 4 16.8003 6.7254 33.5560 48.1566 2.7448 -2.2940
# 5 31.6394 2.1568 18.4962 2.7448 36.6946 10.1672
# 6 6.4947 5.7823 14.9769 -2.2940 10.1672 31.8280
#
#
#
# Elastic Compliance Matrix: (Units=1/GPa)
#
#
# Indices 1 2 3 4 5 6 
#
# 1 0.044359 -0.005351 0.000365 -0.012676 -0.037993 0.002971
# 2 -0.005351 0.015060 -0.003466 0.001763 0.005828 -0.001748
# 3 0.000365 -0.003466 0.008290 -0.005372 -0.003131 -0.002733
# 4 -0.012676 0.001763 -0.005372 0.028255 0.010453 0.003491
# 5 -0.037993 0.005828 -0.003131 0.010453 0.063624 -0.011404
# 6 0.002971 -0.001748 -0.002733 0.003491 -0.011404 0.036310
#
#
# Mechanical properties :
#
#
# Convention : Reuss Voigt Hill
#
# Bulk Modulus (GPa) = 19.68303 51.54091 35.61197
# Shear Modulus (GPa) = 21.76406 38.26809 30.01608
#
# Velocity S-wave (km/s) = 2.97093 3.93949 3.48898
# Velocity P-wave (km/s) = 4.44421 6.44944 5.53833
#
# Compressibility (1/GPa) = 0.05080519
#
# Stress axis : x y z
#
# Youngs Moduli (GPa) = 22.54321 66.40271 120.63057
#
# Poissons Ratio (x) = 0.35532 -0.04408
# Poissons Ratio (y) = 0.12063 0.41813
# Poissons Ratio (z) = -0.00824 0.23016
#
# Static dielectric constant tensor:
#      x y z
#    x 1.988210 -0.003950 0.029780 
#    y -0.003950 1.965480 0.031070 
#    z 0.029780 0.031070 2.028700 
# 
# From -- ./inp_files/306112.got.cif
#   From: 2010.05.17/outbox.cif.g08.bks.cpg/sg2_154_cif.got.tgz:306112.got - 2010.06.03 11:33:40.
