data_PCOD9061198
_publ_section_title
;
Structure prediction by ZEFSAII (Michael W. Deem and Ramdas Pophale) SiO2 
 PCOD9061198
Probable space group: P -1
;
_chemical_formula_sum "Si O2"
_cell_formula_units_Z 14
_cell_length_a 8.743368
_cell_length_b 23.662371
_cell_length_c 8.387542
_cell_angle_alpha 139.012302
_cell_angle_beta 130.866932
_cell_angle_gamma 30.160646
_cell_volume 571.839576
_symmetry_space_group_name_H-M "P -1"
_symmetry_group_IT_number 2
_symmetry_cell_setting 'triclinic'
loop_
_space_group_symop_operation_xyz
x,y,z
-x,-y,-z
loop_
_atom_site_type_symbol
_atom_site_label
_atom_site_fract_x
_atom_site_fract_y
_atom_site_fract_z
Si Si1 0.895614 0.964654 0.225004
Si Si2 0.794447 0.528525 0.067463
Si Si3 0.906276 0.741743 0.177466
Si Si4 0.506895 0.652105 0.468194
Si Si5 0.256584 0.179090 0.117317
Si Si6 0.304199 0.573231 0.678281
Si Si7 0.296591 0.868479 0.012632
O O1 0.600802 0.092934 0.202075
O O2 0.781191 0.911413 0.104721
O O3 0.000000 0.000000 0.500000
O O4 0.164519 0.864578 0.070284
O O5 0.698087 0.604914 0.333583
O O6 0.466887 0.602251 0.936398
O O7 0.000000 0.500000 0.000000
O O8 0.965361 0.386536 0.933486
O O9 0.155228 0.734963 0.372573
O O10 0.890904 0.741586 0.976567
O O11 0.544252 0.861344 0.222604
O O12 0.657072 0.524329 0.394705
O O13 0.471590 0.744116 0.756984
O O14 0.029662 0.295284 0.333165
O O15 0.500000 0.500000 0.500000
O O16 0.000000 0.000000 0.000000
#
# Coordination Sequence:
#
# PCOD9061198 Si02
#       7
#     2   2   2   2   2   2   2
#     4  11  28  48  74 110 146 197 258 310 360 445
#     4  11  25  45  74 116 145 193 247 310 383 446
#     4  11  24  46  76 104 150 194 243 302 386 442
#     4  11  25  49  73 107 157 191 243 316 373 450
#     4  11  23  48  76 103 153 198 243 305 383 441
#     4  11  23  44  74 109 149 194 244 304 384 451
#     4  12  28  46  71 111 142 199 256 298 371 444
#
# _framework density 24.482392000000001
#
# number of rings (size 3 to 8) (size 9 to 14) (size 15 to 20)
#    0.000    0.857    4.286    1.714    6.000    6.857 
#    0.000    0.000    0.000    0.000    0.000    0.000 
#    0.000    0.000    0.000    0.000    0.000    0.000 
#
# Total GULP energy -78261.649640 kJ/mol
# GULP energy per Si atom -5590.117831 kJ/mol
# Density = 2.442667 g / cm^3
# Si number density = 24.482392 Si / 1000 Ang^3
#
#
#
# Elastic Constant Matrix: (Units=GPa)
#
#
# Indices 1 2 3 4 5 6 
#
# 1 152.5311 40.0846 58.9815 -6.9035 -6.0191 -15.5502
# 2 40.0846 106.9291 18.7164 -10.8434 14.8928 -25.1139
# 3 58.9815 18.7164 107.5877 -11.3672 -6.0552 -7.0049
# 4 -6.9035 -10.8434 -11.3672 33.0900 -10.0503 6.6831
# 5 -6.0191 14.8928 -6.0552 -10.0503 38.0181 -5.7818
# 6 -15.5502 -25.1139 -7.0049 6.6831 -5.7818 51.2608
#
#
#
# Elastic Compliance Matrix: (Units=1/GPa)
#
#
# Indices 1 2 3 4 5 6 
#
# 1 0.009135 -0.002684 -0.004372 -0.000107 0.001939 0.001092
# 2 -0.002684 0.012204 -0.000493 0.001053 -0.004326 0.004472
# 3 -0.004372 -0.000493 0.012326 0.003940 0.002488 -0.000116
# 4 -0.000107 0.001053 0.003940 0.035176 0.009111 -0.002537
# 5 0.001939 -0.004326 0.002488 0.009111 0.031284 0.001150
# 6 0.001092 0.004472 -0.000116 -0.002537 0.001150 0.022475
#
#
# Mechanical properties :
#
#
# Convention : Reuss Voigt Hill
#
# Bulk Modulus (GPa) = 53.85740 66.95698 60.40719
# Shear Modulus (GPa) = 34.74950 41.09146 37.92048
#
# Velocity S-wave (km/s) = 3.77154 4.10128 3.93986
# Velocity P-wave (km/s) = 6.40407 7.05945 6.73973
#
# Compressibility (1/GPa) = 0.01856755
#
# Stress axis : x y z
#
# Youngs Moduli (GPa) = 109.47033 81.94100 81.12882
#
# Poissons Ratio (x) = 0.21990 0.35471
# Poissons Ratio (y) = 0.29378 0.03998
# Poissons Ratio (z) = 0.47862 0.04038
#
# Static dielectric constant tensor:
#      x y z
#    x 2.134370 -0.081600 -0.089390 
#    y -0.081600 2.022880 0.070200 
#    z -0.089390 0.070200 2.059290 
# 
# From -- ./inp_files/226697.got.cif
#   From: 2010.05.17/outbox.cif.g08.bks.cpg/sg2_114_cif.got.tgz:226697.got - 2010.06.03 11:33:40.
