data_PCOD9061428
_publ_section_title
;
Structure prediction by ZEFSAII (Michael W. Deem and Ramdas Pophale) SiO2 
 PCOD9061428
Probable space group: P -1
;
_chemical_formula_sum "Si O2"
_cell_formula_units_Z 14
_cell_length_a 5.371767
_cell_length_b 5.207572
_cell_length_c 20.020814
_cell_angle_alpha 84.865172
_cell_angle_beta 72.664406
_cell_angle_gamma 92.558556
_cell_volume 530.973992
_symmetry_space_group_name_H-M "P -1"
_symmetry_group_IT_number 2
_symmetry_cell_setting 'triclinic'
loop_
_space_group_symop_operation_xyz
x,y,z
-x,-y,-z
loop_
_atom_site_type_symbol
_atom_site_label
_atom_site_fract_x
_atom_site_fract_y
_atom_site_fract_z
Si Si1 0.018859 0.228846 0.727819
Si Si2 0.369806 0.769928 0.697815
Si Si3 0.052447 0.612257 0.137561
Si Si4 0.258145 0.850074 0.987267
Si Si5 0.483277 0.670688 0.836928
Si Si6 0.324773 0.739879 0.505092
Si Si7 0.178679 0.508599 0.385559
O O1 0.191922 0.499814 0.718206
O O2 0.917295 0.163516 0.812905
O O3 0.821553 0.318109 0.685282
O O4 0.197507 0.009350 0.692195
O O5 0.486358 0.812792 0.762382
O O6 0.601373 0.694323 0.633199
O O7 0.233712 0.411470 0.163484
O O8 0.742377 0.563282 0.151313
O O9 0.176489 0.629516 0.053214
O O10 0.355332 0.800833 0.906856
O O11 0.500000 0.000000 0.000000
O O12 0.000000 0.000000 0.000000
O O13 0.500000 0.500000 0.500000
O O14 0.210531 0.708184 0.439973
O O15 0.088362 0.667114 0.576320
O O16 0.500000 0.000000 0.500000
#
# Coordination Sequence:
#
# PCOD9061428 Si02
#       7
#     2   2   2   2   2   2   2
#     4  11  26  47  75 114 158 206 265 330 402 483
#     4  11  26  47  75 114 158 206 265 330 402 483
#     4  11  23  45  70 106 151 211 272 336 403 481
#     4  12  24  40  68 104 150 212 271 335 404 473
#     4  11  23  45  70 106 151 211 272 336 403 481
#     4  11  28  51  83 118 159 203 266 323 403 494
#     4  11  26  52  82 117 160 212 260 333 408 494
#
# _framework density 26.366641999999999
#
# number of rings (size 3 to 8) (size 9 to 14) (size 15 to 20)
#    0.000    0.857    1.429    4.286    0.000   12.571 
#    0.000    2.143    0.000    0.000    0.000    0.000 
#    0.000    0.000    0.000    0.000    0.000    0.000 
#
# Total GULP energy -78392.847609 kJ/mol
# GULP energy per Si atom -5599.489115 kJ/mol
# Density = 2.630663 g / cm^3
# Si number density = 26.366642 Si / 1000 Ang^3
#
#
#
# Elastic Constant Matrix: (Units=GPa)
#
#
# Indices 1 2 3 4 5 6 
#
# 1 100.0878 60.4642 19.7771 2.9331 -11.8211 -11.0935
# 2 60.4642 152.0611 35.5198 12.5817 -6.3179 -2.6499
# 3 19.7771 35.5198 143.9253 21.5825 -0.0960 10.8931
# 4 2.9331 12.5817 21.5825 39.6460 -3.4333 -8.9227
# 5 -11.8211 -6.3179 -0.0960 -3.4333 68.0730 7.3918
# 6 -11.0935 -2.6499 10.8931 -8.9227 7.3918 48.5177
#
#
#
# Elastic Compliance Matrix: (Units=1/GPa)
#
#
# Indices 1 2 3 4 5 6 
#
# 1 0.013939 -0.005321 -0.001180 0.002190 0.001676 0.003309
# 2 -0.005321 0.009112 -0.001145 -0.002070 -0.000094 -0.000828
# 3 -0.001180 -0.001145 0.008343 -0.004797 -0.000210 -0.003056
# 4 0.002190 -0.002070 -0.004797 0.029948 0.000950 0.006828
# 5 0.001676 -0.000094 -0.000210 0.000950 0.015207 -0.001717
# 6 0.003309 -0.000828 -0.003056 0.006828 -0.001717 0.023526
#
#
# Mechanical properties :
#
#
# Convention : Reuss Voigt Hill
#
# Bulk Modulus (GPa) = 62.09747 69.73292 65.91519
# Shear Modulus (GPa) = 41.41314 49.93490 45.67402
#
# Velocity S-wave (km/s) = 3.96746 4.35658 4.16656
# Velocity P-wave (km/s) = 6.67760 7.19800 6.94268
#
# Compressibility (1/GPa) = 0.01610372
#
# Stress axis : x y z
#
# Youngs Moduli (GPa) = 71.73914 109.74086 119.85801
#
# Poissons Ratio (x) = 0.58393 0.14142
# Poissons Ratio (y) = 0.38172 0.13721
# Poissons Ratio (z) = 0.08465 0.12563
#
# Static dielectric constant tensor:
#      x y z
#    x 1.992720 0.085950 0.025320 
#    y 0.085950 2.082480 -0.083900 
#    z 0.025320 -0.083900 2.248920 
# 
# From -- ./inp_files/580725.got.cif
#   From: 2010.05.17/outbox.cif.g08.bks.cpg/sg2_291_cif.got.tgz:580725.got - 2010.06.03 11:33:40.
