data_PCOD9061399
_publ_section_title
;
Structure prediction by ZEFSAII (Michael W. Deem and Ramdas Pophale) SiO2 
 PCOD9061399
Probable space group: P -1
;
_chemical_formula_sum "Si O2"
_cell_formula_units_Z 16
_cell_length_a 8.331538
_cell_length_b 14.704804
_cell_length_c 8.948284
_cell_angle_alpha 139.593210
_cell_angle_beta 111.811728
_cell_angle_gamma 77.655147
_cell_volume 655.382961
_symmetry_space_group_name_H-M "P -1"
_symmetry_group_IT_number 2
_symmetry_cell_setting 'triclinic'
loop_
_space_group_symop_operation_xyz
x,y,z
-x,-y,-z
loop_
_atom_site_type_symbol
_atom_site_label
_atom_site_fract_x
_atom_site_fract_y
_atom_site_fract_z
Si Si1 0.158036 0.619702 0.836746
Si Si2 0.989186 0.394857 0.723668
Si Si3 0.170714 0.131748 0.396182
Si Si4 0.598002 0.961097 0.136927
Si Si5 0.532461 0.329750 0.189155
Si Si6 0.438899 0.778427 0.353698
Si Si7 0.598330 0.417869 0.637538
Si Si8 0.079039 0.152168 0.041586
O O1 0.297827 0.714757 0.107383
O O2 0.997402 0.704929 0.849729
O O3 0.089412 0.480268 0.729802
O O4 0.276131 0.602354 0.710788
O O5 0.066848 0.247828 0.585154
O O6 0.783022 0.367649 0.599121
O O7 0.000000 0.500000 0.000000
O O8 0.369787 0.155822 0.547572
O O9 0.152288 0.157954 0.243584
O O10 0.079269 0.973564 0.184596
O O11 0.633375 0.100288 0.421416
O O12 0.771382 0.894837 0.070592
O O13 0.500000 0.000000 0.000000
O O14 0.481368 0.838192 0.032596
O O15 0.487214 0.362126 0.385807
O O16 0.403805 0.413833 0.151461
O O17 0.467125 0.650875 0.317335
#
# Coordination Sequence:
#
# PCOD9061399 Si02
#       8
#     2   2   2   2   2   2   2   2
#     4  12  28  45  68 107 145 179 233 294 350 407
#     4  12  26  44  68  99 140 190 229 284 348 417
#     4  11  25  44  75 102 141 185 238 287 348 414
#     4  12  23  44  75 101 136 184 233 281 352 419
#     4  11  25  42  72 103 136 179 235 291 337 421
#     4  12  25  45  71 104 141 189 226 288 354 416
#     4  11  23  45  70 100 138 185 234 279 350 415
#     4  11  25  46  72 108 138 182 234 295 345 414
#
# _framework density 24.413207
#
# number of rings (size 3 to 8) (size 9 to 14) (size 15 to 20)
#    0.000    0.500    3.750    3.750    3.500    7.500 
#    0.000    0.000    0.000    0.000    0.000    0.000 
#    0.000    0.000    0.000    0.000    0.000    0.000 
#
# Total GULP energy -89649.780513 kJ/mol
# GULP energy per Si atom -5603.111282 kJ/mol
# Density = 2.435764 g / cm^3
# Si number density = 24.413207 Si / 1000 Ang^3
#
#
#
# Elastic Constant Matrix: (Units=GPa)
#
#
# Indices 1 2 3 4 5 6 
#
# 1 110.4196 5.1052 -0.0380 5.1325 0.5057 -12.9946
# 2 5.1052 72.6872 8.0441 16.6379 -1.8928 9.4464
# 3 -0.0380 8.0441 97.5936 2.9613 -0.6980 -4.3727
# 4 5.1325 16.6379 2.9613 25.9081 -2.1564 1.6688
# 5 0.5057 -1.8928 -0.6980 -2.1564 43.5484 9.6545
# 6 -12.9946 9.4464 -4.3727 1.6688 9.6545 38.6964
#
#
#
# Elastic Compliance Matrix: (Units=1/GPa)
#
#
# Indices 1 2 3 4 5 6 
#
# 1 0.009630 -0.000833 0.000288 -0.001741 -0.001075 0.003813
# 2 -0.000833 0.016884 -0.001273 -0.010149 0.001197 -0.004406
# 3 0.000288 -0.001273 0.010442 -0.000566 -0.000293 0.001685
# 4 -0.001741 -0.010149 -0.000566 0.045730 0.001975 -0.000636
# 5 -0.001075 0.001197 -0.000293 0.001975 0.024655 -0.006923
# 6 0.003813 -0.004406 0.001685 -0.000636 -0.006923 0.030143
#
#
# Mechanical properties :
#
#
# Convention : Reuss Voigt Hill
#
# Bulk Modulus (GPa) = 30.01216 34.10254 32.05735
# Shear Modulus (GPa) = 32.84576 39.46987 36.15781
#
# Velocity S-wave (km/s) = 3.67196 4.02524 3.85265
# Velocity P-wave (km/s) = 5.50435 5.96679 5.74023
#
# Compressibility (1/GPa) = 0.03331983
#
# Stress axis : x y z
#
# Youngs Moduli (GPa) = 103.84716 59.22844 95.76541
#
# Poissons Ratio (x) = 0.04936 -0.02762
# Poissons Ratio (y) = 0.08654 0.12190
# Poissons Ratio (z) = -0.02995 0.07539
#
# Static dielectric constant tensor:
#      x y z
#    x 1.963030 0.018860 0.045720 
#    y 0.018860 1.962640 -0.011520 
#    z 0.045720 -0.011520 1.989640 
# 
# From -- ./inp_files/209572.got.cif
#   From: 2010.05.17/outbox.cif.g08.bks.cpg/sg2_105_cif.got.tgz:209572.got - 2010.06.03 11:33:40.
