data_PCOD9061931
_publ_section_title
;
Structure prediction by ZEFSAII (Michael W. Deem and Ramdas Pophale) SiO2 
 PCOD9061931
Probable space group: P -1
;
_chemical_formula_sum "Si O2"
_cell_formula_units_Z 16
_cell_length_a 8.448436
_cell_length_b 8.444233
_cell_length_c 13.621378
_cell_angle_alpha 102.827220
_cell_angle_beta 68.461699
_cell_angle_gamma 137.372479
_cell_volume 610.360934
_symmetry_space_group_name_H-M "P -1"
_symmetry_group_IT_number 2
_symmetry_cell_setting 'triclinic'
loop_
_space_group_symop_operation_xyz
x,y,z
-x,-y,-z
loop_
_atom_site_type_symbol
_atom_site_label
_atom_site_fract_x
_atom_site_fract_y
_atom_site_fract_z
Si Si1 0.843609 0.271992 0.203728
Si Si2 0.257218 0.561523 0.303160
Si Si3 0.951878 0.045406 0.696576
Si Si4 0.759705 0.944453 0.032254
Si Si5 0.514274 0.663209 0.445724
Si Si6 0.541213 0.595510 0.864893
Si Si7 0.380702 0.025467 0.374700
Si Si8 0.994555 0.661042 0.117495
O O1 0.598449 0.204065 0.271259
O O2 0.004149 0.478005 0.114435
O O3 0.994858 0.365615 0.282729
O O4 0.755387 0.042941 0.147417
O O5 0.300516 0.509501 0.392161
O O6 0.426154 0.574098 0.189407
O O7 0.314560 0.790393 0.345181
O O8 0.223847 0.162051 0.645332
O O9 0.970753 0.232805 0.770184
O O10 0.761183 0.816642 0.776228
O O11 0.841355 0.010873 0.611258
O O12 0.803755 0.121494 0.968288
O O13 0.587287 0.706081 0.976048
O O14 0.000000 0.000000 0.000000
O O15 0.500000 0.500000 0.500000
O O16 0.515753 0.832250 0.528424
O O17 0.271267 0.464704 0.876703
#
# Coordination Sequence:
#
# PCOD9061931 Si02
#       8
#     2   2   2   2   2   2   2   2
#     4  12  26  49  70 107 154 186 240 302 362 424
#     4  12  27  45  74 104 149 188 234 307 362 417
#     4  11  23  48  74 103 141 188 244 295 356 436
#     4  11  26  43  73 112 143 191 248 294 351 435
#     4  12  27  50  77 106 142 194 244 296 363 436
#     4  11  24  46  74 103 142 196 238 296 360 428
#     4  12  27  46  73 109 144 189 239 302 362 426
#     4  11  23  46  74 103 147 191 245 288 366 428
#
# _framework density 26.213996999999999
#
# number of rings (size 3 to 8) (size 9 to 14) (size 15 to 20)
#    0.000    0.500    5.000    2.625    3.500    2.500 
#    0.000    0.000    0.000    0.000    0.000    0.000 
#    0.000    0.000    0.000    0.000    0.000    0.000 
#
# Total GULP energy -89547.888725 kJ/mol
# GULP energy per Si atom -5596.743045 kJ/mol
# Density = 2.615433 g / cm^3
# Si number density = 26.213997 Si / 1000 Ang^3
#
#
#
# Elastic Constant Matrix: (Units=GPa)
#
#
# Indices 1 2 3 4 5 6 
#
# 1 92.1269 38.7871 26.5630 13.9516 14.4496 0.5514
# 2 38.7871 164.3505 53.3820 28.9943 12.3365 -31.4094
# 3 26.5630 53.3820 128.6094 48.4438 0.9096 -10.6376
# 4 13.9516 28.9943 48.4438 55.0282 0.9005 -3.0281
# 5 14.4496 12.3365 0.9096 0.9005 47.5366 9.6666
# 6 0.5514 -31.4094 -10.6376 -3.0281 9.6666 43.4415
#
#
#
# Elastic Compliance Matrix: (Units=1/GPa)
#
#
# Indices 1 2 3 4 5 6 
#
# 1 0.012927 -0.002585 -0.001473 -0.000671 -0.002850 -0.001807
# 2 -0.002585 0.009181 -0.001921 -0.002075 -0.002883 0.006697
# 3 -0.001473 -0.001921 0.012581 -0.009653 0.000710 0.000880
# 4 -0.000671 -0.002075 -0.009653 0.027805 0.000828 -0.002102
# 5 -0.002850 -0.002883 0.000710 0.000828 0.024081 -0.007175
# 6 -0.001807 0.006697 0.000880 -0.002102 -0.007175 0.029550
#
#
# Mechanical properties :
#
#
# Convention : Reuss Voigt Hill
#
# Bulk Modulus (GPa) = 43.99403 69.17234 56.58319
# Shear Modulus (GPa) = 36.85659 46.95823 41.90741
#
# Velocity S-wave (km/s) = 3.75372 4.23702 4.00267
# Velocity P-wave (km/s) = 5.96710 7.09798 6.55696
#
# Compressibility (1/GPa) = 0.02273036
#
# Stress axis : x y z
#
# Youngs Moduli (GPa) = 77.35527 108.92051 79.48568
#
# Poissons Ratio (x) = 0.28159 0.11712
# Poissons Ratio (y) = 0.19998 0.15267
# Poissons Ratio (z) = 0.11398 0.20921
#
# Static dielectric constant tensor:
#      x y z
#    x 1.999810 -0.050860 0.029690 
#    y -0.050860 2.086590 -0.048380 
#    z 0.029690 -0.048380 2.084670 
# 
# From -- ./inp_files/207484.got.cif
#   From: 2010.05.17/outbox.cif.g08.bks.cpg/sg2_104_cif.got.tgz:207484.got - 2010.06.03 11:33:40.
