data_PCOD9061163
_publ_section_title
;
Structure prediction by ZEFSAII (Michael W. Deem and Ramdas Pophale) SiO2 
 PCOD9061163
Probable space group: P -1
;
_chemical_formula_sum "Si O2"
_cell_formula_units_Z 14
_cell_length_a 6.442113
_cell_length_b 11.976510
_cell_length_c 19.886241
_cell_angle_alpha 158.404746
_cell_angle_beta 116.527206
_cell_angle_gamma 65.441039
_cell_volume 505.246464
_symmetry_space_group_name_H-M "P -1"
_symmetry_group_IT_number 2
_symmetry_cell_setting 'triclinic'
loop_
_space_group_symop_operation_xyz
x,y,z
-x,-y,-z
loop_
_atom_site_type_symbol
_atom_site_label
_atom_site_fract_x
_atom_site_fract_y
_atom_site_fract_z
Si Si1 0.799657 0.221042 0.069548
Si Si2 0.258154 0.865586 0.271633
Si Si3 0.366881 0.842729 0.757821
Si Si4 0.968234 0.414481 0.588039
Si Si5 0.675942 0.805762 0.659858
Si Si6 0.093961 0.373431 0.072427
Si Si7 0.255325 0.841953 0.461088
O O1 0.818223 0.468513 0.269130
O O2 0.870995 0.343456 0.074025
O O3 0.575691 0.015213 0.921332
O O4 0.000000 0.000000 0.000000
O O5 0.288496 0.895325 0.212580
O O6 0.514231 0.949102 0.386545
O O7 0.070700 0.125047 0.404754
O O8 0.142093 0.574236 0.125439
O O9 0.444843 0.868996 0.705734
O O10 0.329794 0.482625 0.554287
O O11 0.161815 0.041087 0.869872
O O12 0.846418 0.659335 0.659368
O O13 0.780361 0.304459 0.553324
O O14 0.263359 0.563167 0.253906
O O15 0.000000 0.000000 0.500000
#
# Coordination Sequence:
#
# PCOD9061163 Si02
#       7
#     2   2   2   2   2   2   2
#     4  11  25  45  75 111 145 186 251 322 364 431
#     4  12  26  45  77 108 153 201 245 303 376 453
#     4  11  25  49  72 108 151 190 259 303 373 435
#     4  11  24  47  76 109 149 196 254 301 371 450
#     4  11  26  49  75 106 151 210 244 300 371 450
#     4  11  27  43  74 112 141 194 247 312 376 433
#     4  11  23  44  73 112 154 190 248 311 380 440
#
# _framework density 27.709247999999999
#
# number of rings (size 3 to 8) (size 9 to 14) (size 15 to 20)
#    0.000    0.857    2.857    3.429    8.000    2.286 
#    0.000    5.000    0.000    0.000    0.000    0.000 
#    0.000    0.000    0.000    0.000    0.000    0.000 
#
# Total GULP energy -78267.298623 kJ/mol
# GULP energy per Si atom -5590.521330 kJ/mol
# Density = 2.764618 g / cm^3
# Si number density = 27.709248 Si / 1000 Ang^3
#
#
#
# Elastic Constant Matrix: (Units=GPa)
#
#
# Indices 1 2 3 4 5 6 
#
# 1 109.4900 73.9553 34.7723 21.1508 13.4368 11.7148
# 2 73.9553 152.9072 36.2363 -2.2075 17.0936 17.2607
# 3 34.7723 36.2363 92.8191 -11.9630 -5.5610 10.6752
# 4 21.1508 -2.2075 -11.9630 47.7024 8.8246 15.6163
# 5 13.4368 17.0936 -5.5610 8.8246 61.7319 11.1930
# 6 11.7148 17.2607 10.6752 15.6163 11.1930 54.7896
#
#
#
# Elastic Compliance Matrix: (Units=1/GPa)
#
#
# Indices 1 2 3 4 5 6 
#
# 1 0.017927 -0.007708 -0.005453 -0.010376 -0.001298 0.002880
# 2 -0.007708 0.010960 -0.000520 0.005010 -0.001612 -0.002802
# 3 -0.005453 -0.000520 0.014502 0.006883 0.002368 -0.003941
# 4 -0.010376 0.005010 0.006883 0.030768 -0.001236 -0.009218
# 5 -0.001298 -0.001612 0.002368 -0.001236 0.017857 -0.002972
# 6 0.002880 -0.002802 -0.003941 -0.009218 -0.002972 0.022521
#
#
# Mechanical properties :
#
#
# Convention : Reuss Voigt Hill
#
# Bulk Modulus (GPa) = 62.39445 71.68267 67.03856
# Shear Modulus (GPa) = 33.95863 46.86161 40.41012
#
# Velocity S-wave (km/s) = 3.50456 4.11687 3.82299
# Velocity P-wave (km/s) = 6.24038 6.96591 6.61310
#
# Compressibility (1/GPa) = 0.01602707
#
# Stress axis : x y z
#
# Youngs Moduli (GPa) = 55.78202 91.24032 68.95826
#
# Poissons Ratio (x) = 0.70329 0.37602
# Poissons Ratio (y) = 0.42998 0.03584
# Poissons Ratio (z) = 0.30417 0.04742
#
# Static dielectric constant tensor:
#      x y z
#    x 2.322450 -0.097250 0.136600 
#    y -0.097250 2.248720 -0.090610 
#    z 0.136600 -0.090610 2.302110 
# 
# From -- ./inp_files/604666.got.cif
#   From: 2010.05.17/outbox.cif.g08.bks.cpg/sg2_303_cif.got.tgz:604666.got - 2010.06.03 11:33:40.
