data_PCOD9061555
_publ_section_title
;
Structure prediction by ZEFSAII (Michael W. Deem and Ramdas Pophale) SiO2 
 PCOD9061555
Probable space group: P -1
;
_chemical_formula_sum "Si O2"
_cell_formula_units_Z 10
_cell_length_a 8.755922
_cell_length_b 7.247514
_cell_length_c 12.817757
_cell_angle_alpha 98.756742
_cell_angle_beta 123.784765
_cell_angle_gamma 124.346727
_cell_volume 409.742981
_symmetry_space_group_name_H-M "P -1"
_symmetry_group_IT_number 2
_symmetry_cell_setting 'triclinic'
loop_
_space_group_symop_operation_xyz
x,y,z
-x,-y,-z
loop_
_atom_site_type_symbol
_atom_site_label
_atom_site_fract_x
_atom_site_fract_y
_atom_site_fract_z
Si Si1 0.273780 0.203505 0.961697
Si Si2 0.675490 0.362721 0.315353
Si Si3 0.188303 0.234773 0.420594
Si Si4 0.898625 0.255767 0.867005
Si Si5 0.839253 0.227612 0.615890
O O1 0.055157 0.180125 0.931604
O O2 0.500000 0.500000 0.000000
O O3 0.461187 0.252624 0.127153
O O4 0.068416 0.924658 0.776703
O O5 0.773561 0.612216 0.448487
O O6 0.972952 0.528304 0.383945
O O7 0.454531 0.055928 0.272646
O O8 0.500000 0.500000 0.500000
O O9 0.142574 0.981190 0.411267
O O10 0.992365 0.392075 0.798682
O O11 0.000000 0.500000 0.000000
O O12 0.500000 0.000000 0.500000
#
# Coordination Sequence:
#
# PCOD9061555 Si02
#       5
#     2   2   2   2   2
#     4  11  23  45  73 103 135 178 237 283 341 419
#     4  12  24  48  74  98 140 192 226 290 350 402
#     4  11  23  45  73 103 135 178 237 283 341 419
#     4  11  26  45  66 105 140 178 234 285 348 412
#     4  11  26  45  66 105 140 178 234 285 348 412
#
# _framework density 24.405540999999999
#
# number of rings (size 3 to 8) (size 9 to 14) (size 15 to 20)
#    0.000    0.800    8.000    1.200    2.800    1.600 
#    3.600    0.000    0.000    0.000    0.000    0.000 
#    0.000    0.000    0.000    0.000    0.000    0.000 
#
# Total GULP energy -55920.536064 kJ/mol
# GULP energy per Si atom -5592.053606 kJ/mol
# Density = 2.434999 g / cm^3
# Si number density = 24.405541 Si / 1000 Ang^3
#
#
#
# Elastic Constant Matrix: (Units=GPa)
#
#
# Indices 1 2 3 4 5 6 
#
# 1 112.6938 45.4455 66.1546 8.6983 -12.6318 38.3076
# 2 45.4455 130.1974 29.2175 -0.6726 -15.4255 48.4776
# 3 66.1546 29.2175 176.6401 9.5594 -21.0747 16.1444
# 4 8.6983 -0.6726 9.5594 38.9400 1.6714 2.1330
# 5 -12.6318 -15.4255 -21.0747 1.6714 64.5771 4.6465
# 6 38.3076 48.4776 16.1444 2.1330 4.6465 50.8973
#
#
#
# Elastic Compliance Matrix: (Units=1/GPa)
#
#
# Indices 1 2 3 4 5 6 
#
# 1 0.015412 -0.000451 -0.004424 -0.001918 0.002224 -0.009889
# 2 -0.000451 0.012931 -0.000464 0.000948 0.003703 -0.012208
# 3 -0.004424 -0.000464 0.007496 -0.000992 0.001402 0.001307
# 4 -0.001918 0.000948 -0.000992 0.026426 -0.001146 -0.000147
# 5 0.002224 0.003703 0.001402 -0.001146 0.017812 -0.007224
# 6 -0.009889 -0.012208 0.001307 -0.000147 -0.007224 0.038969
#
#
# Mechanical properties :
#
#
# Convention : Reuss Voigt Hill
#
# Bulk Modulus (GPa) = 39.74336 77.90738 58.82537
# Shear Modulus (GPa) = 36.20280 49.46381 42.83330
#
# Velocity S-wave (km/s) = 3.85565 4.50682 4.19389
# Velocity P-wave (km/s) = 6.01176 7.68591 6.89980
#
# Compressibility (1/GPa) = 0.02516143
#
# Stress axis : x y z
#
# Youngs Moduli (GPa) = 64.88615 77.33277 133.39838
#
# Poissons Ratio (x) = 0.03486 0.59019
# Poissons Ratio (y) = 0.02925 0.06187
# Poissons Ratio (z) = 0.28708 0.03587
#
# Static dielectric constant tensor:
#      x y z
#    x 1.943030 -0.005150 0.086170 
#    y -0.005150 1.843780 -0.028350 
#    z 0.086170 -0.028350 2.021020 
# 
# From -- ./inp_files/144095.got.cif
#   From: 2010.05.17/outbox.cif.g08.bks.cpg/sg2_73_cif.got.tgz:144095.got - 2010.06.03 11:33:40.
