data_PCOD9061134
_publ_section_title
;
Structure prediction by ZEFSAII (Michael W. Deem and Ramdas Pophale) SiO2 
 PCOD9061134
Probable space group: P -1
;
_chemical_formula_sum "Si O2"
_cell_formula_units_Z 16
_cell_length_a 6.675276
_cell_length_b 9.354264
_cell_length_c 12.728320
_cell_angle_alpha 91.304338
_cell_angle_beta 85.151459
_cell_angle_gamma 106.137226
_cell_volume 760.737763
_symmetry_space_group_name_H-M "P -1"
_symmetry_group_IT_number 2
_symmetry_cell_setting 'triclinic'
loop_
_space_group_symop_operation_xyz
x,y,z
-x,-y,-z
loop_
_atom_site_type_symbol
_atom_site_label
_atom_site_fract_x
_atom_site_fract_y
_atom_site_fract_z
Si Si1 0.080217 0.644863 0.677353
Si Si2 0.845213 0.425554 0.099613
Si Si3 0.744612 0.363385 0.643861
Si Si4 0.063645 0.851299 0.235870
Si Si5 0.481601 0.658130 0.546731
Si Si6 0.378199 0.835727 0.036967
Si Si7 0.620606 0.673381 0.178051
Si Si8 0.907841 0.894239 0.601632
O O1 0.036632 0.603508 0.801033
O O2 0.312302 0.632400 0.646113
O O3 0.908861 0.521342 0.618160
O O4 0.058521 0.802017 0.641523
O O5 0.707722 0.538697 0.132721
O O6 0.710720 0.267552 0.059842
O O7 0.000000 0.500000 0.000000
O O8 0.876234 0.267405 0.693053
O O9 0.631267 0.284216 0.544172
O O10 0.563144 0.381115 0.730001
O O11 0.191712 0.848063 0.123464
O O12 0.817613 0.794553 0.222416
O O13 0.129809 0.004676 0.298728
O O14 0.500000 0.500000 0.500000
O O15 0.696830 0.773414 0.571440
O O16 0.523798 0.753141 0.092661
O O17 0.500000 0.000000 0.000000
O O18 0.000000 0.000000 0.500000
#
# Coordination Sequence:
#
# PCOD9061134 Si02
#       8
#     2   2   2   2   2   2   2   2
#     4  12  27  44  75 107 142 184 243 292 344 431
#     4  12  24  48  72 104 139 188 243 291 349 413
#     4  11  23  44  73 103 139 181 237 292 347 423
#     4  11  25  45  68 102 142 184 236 287 357 420
#     4  12  26  45  74 105 141 185 234 291 353 420
#     4  11  27  43  68 104 142 183 234 296 355 417
#     4  11  23  45  74  99 140 190 232 293 354 419
#     4  12  29  46  71 108 146 188 230 291 361 423
#
# _framework density 21.032214
#
# number of rings (size 3 to 8) (size 9 to 14) (size 15 to 20)
#    0.000    0.500    3.750    3.750    5.250    4.500 
#    0.000    0.000    0.000    0.000    0.000    0.000 
#    0.000    0.000    0.000    0.000    0.000    0.000 
#
# Total GULP energy -89527.580516 kJ/mol
# GULP energy per Si atom -5595.473782 kJ/mol
# Density = 2.098434 g / cm^3
# Si number density = 21.032214 Si / 1000 Ang^3
#
#
#
# Elastic Constant Matrix: (Units=GPa)
#
#
# Indices 1 2 3 4 5 6 
#
# 1 94.5930 35.6484 30.0747 3.9486 5.4211 9.8753
# 2 35.6484 125.9741 32.5264 17.6075 -3.8410 8.3336
# 3 30.0747 32.5264 93.0385 6.5205 8.9009 -2.5203
# 4 3.9486 17.6075 6.5205 44.4167 5.8536 8.6800
# 5 5.4211 -3.8410 8.9009 5.8536 22.5349 6.9889
# 6 9.8753 8.3336 -2.5203 8.6800 6.9889 40.3805
#
#
#
# Elastic Compliance Matrix: (Units=1/GPa)
#
#
# Indices 1 2 3 4 5 6 
#
# 1 0.013017 -0.002914 -0.003173 0.001240 -0.001852 -0.002726
# 2 -0.002914 0.010310 -0.002935 -0.003743 0.005110 -0.001678
# 3 -0.003173 -0.002935 0.013493 -0.000399 -0.006001 0.003348
# 4 0.001240 -0.003743 -0.000399 0.025537 -0.006179 -0.003976
# 5 -0.001852 0.005110 -0.006001 -0.006179 0.052370 -0.008712
# 6 -0.002726 -0.001678 0.003348 -0.003976 -0.008712 0.028349
#
#
# Mechanical properties :
#
#
# Convention : Reuss Voigt Hill
#
# Bulk Modulus (GPa) = 53.25490 56.67830 54.96660
# Shear Modulus (GPa) = 29.87244 35.82349 32.84797
#
# Velocity S-wave (km/s) = 3.77280 4.13154 3.95624
# Velocity P-wave (km/s) = 6.65990 7.05453 6.86005
#
# Compressibility (1/GPa) = 0.01877762
#
# Stress axis : x y z
#
# Youngs Moduli (GPa) = 76.81973 96.98897 74.11485
#
# Poissons Ratio (x) = 0.28263 0.23515
# Poissons Ratio (y) = 0.22385 0.21750
# Poissons Ratio (z) = 0.24373 0.28463
#
# Static dielectric constant tensor:
#      x y z
#    x 1.758460 -0.011560 0.006760 
#    y -0.011560 1.760190 -0.004760 
#    z 0.006760 -0.004760 1.791950 
# 
# From -- ./inp_files/139384.got.cif
#   From: 2010.05.17/outbox.cif.g08.bks.cpg/sg2_70_cif.got.tgz:139384.got - 2010.06.03 11:33:40.
