data_PCOD9061168
_publ_section_title
;
Structure prediction by ZEFSAII (Michael W. Deem and Ramdas Pophale) SiO2 
 PCOD9061168
Probable space group: P -1
;
_chemical_formula_sum "Si O2"
_cell_formula_units_Z 12
_cell_length_a 14.456659
_cell_length_b 8.438844
_cell_length_c 14.908079
_cell_angle_alpha 33.967114
_cell_angle_beta 28.170788
_cell_angle_gamma 42.380885
_cell_volume 479.535829
_symmetry_space_group_name_H-M "P -1"
_symmetry_group_IT_number 2
_symmetry_cell_setting 'triclinic'
loop_
_space_group_symop_operation_xyz
x,y,z
-x,-y,-z
loop_
_atom_site_type_symbol
_atom_site_label
_atom_site_fract_x
_atom_site_fract_y
_atom_site_fract_z
Si Si1 0.532621 0.500140 0.078179
Si Si2 0.609949 0.098677 0.769648
Si Si3 0.754760 0.624121 0.150903
Si Si4 0.133483 0.908020 0.011841
Si Si5 0.909332 0.409542 0.526472
Si Si6 0.070278 0.767680 0.682750
O O1 0.652344 0.220840 0.137139
O O2 0.326045 0.542491 0.286184
O O3 0.500000 0.500000 0.000000
O O4 0.660596 0.779983 0.844357
O O5 0.448086 0.260740 0.770963
O O6 0.809793 0.263838 0.498468
O O7 0.500000 0.000000 0.000000
O O8 0.769306 0.328058 0.332559
O O9 0.827901 0.864493 0.047391
O O10 0.892262 0.592345 0.959477
O O11 0.013945 0.639034 0.270789
O O12 0.000000 0.000000 0.000000
O O13 0.000000 0.500000 0.500000
O O14 0.968771 0.078625 0.622118
#
# Coordination Sequence:
#
# PCOD9061168 Si02
#       6
#     2   2   2   2   2   2
#     4  12  22  44  75  99 138 185 238 283 344 428
#     4  12  25  43  71 109 138 186 240 292 355 423
#     4  11  25  46  69 105 145 186 235 291 360 416
#     4  12  27  45  72 107 141 183 241 296 348 417
#     4  12  21  44  75 101 133 195 232 279 358 423
#     4  11  23  44  73  99 145 188 228 290 360 422
#
# _framework density 25.024198999999999
#
# number of rings (size 3 to 8) (size 9 to 14) (size 15 to 20)
#    0.000    0.333    8.333    0.500    0.000    5.333 
#    0.000    0.000    0.000    0.000    0.000    0.000 
#    0.000    0.000    0.000    0.000    0.000    0.000 
#
# Total GULP energy -66893.781066 kJ/mol
# GULP energy per Si atom -5574.481756 kJ/mol
# Density = 2.496724 g / cm^3
# Si number density = 25.024199 Si / 1000 Ang^3
#
#
#
# Elastic Constant Matrix: (Units=GPa)
#
#
# Indices 1 2 3 4 5 6 
#
# 1 97.0546 45.7937 32.0139 -2.5510 15.4143 -32.4098
# 2 45.7937 168.7759 58.5468 20.7973 13.9884 -49.1764
# 3 32.0139 58.5468 133.7321 37.7211 31.0748 -13.1109
# 4 -2.5510 20.7973 37.7211 47.6907 -6.3126 6.1632
# 5 15.4143 13.9884 31.0748 -6.3126 52.9952 -12.8348
# 6 -32.4098 -49.1764 -13.1109 6.1632 -12.8348 48.3602
#
#
#
# Elastic Compliance Matrix: (Units=1/GPa)
#
#
# Indices 1 2 3 4 5 6 
#
# 1 0.014314 -0.001003 -0.002982 0.002597 -0.000043 0.007422
# 2 -0.001003 0.010316 -0.002477 -0.003742 0.000968 0.009880
# 3 -0.002982 -0.002477 0.014335 -0.011366 -0.008593 -0.001463
# 4 0.002597 -0.003742 -0.011366 0.033857 0.009232 -0.007010
# 5 -0.000043 0.000968 -0.008593 0.009232 0.025806 0.004299
# 6 0.007422 0.009880 -0.001463 -0.007010 0.004299 0.037337
#
#
# Mechanical properties :
#
#
# Convention : Reuss Voigt Hill
#
# Bulk Modulus (GPa) = 38.40262 74.69683 56.54972
# Shear Modulus (GPa) = 31.73184 47.35644 39.54414
#
# Velocity S-wave (km/s) = 3.56483 4.35492 3.97953
# Velocity P-wave (km/s) = 5.68538 7.42979 6.61533
#
# Compressibility (1/GPa) = 0.02603989
#
# Stress axis : x y z
#
# Youngs Moduli (GPa) = 69.86126 96.93552 69.75840
#
# Poissons Ratio (x) = 0.09725 0.20805
# Poissons Ratio (y) = 0.07009 0.17280
# Poissons Ratio (z) = 0.20835 0.24012
#
# Static dielectric constant tensor:
#      x y z
#    x 2.103800 0.022390 -0.089360 
#    y 0.022390 2.026830 0.061100 
#    z -0.089360 0.061100 1.900490 
# 
# From -- ./inp_files/529216.got.cif
#   From: 2010.05.17/outbox.cif.g08.bks.cpg/sg2_265_cif.got.tgz:529216.got - 2010.06.03 11:33:40.
