data_PCOD9061667
_publ_section_title
;
Structure prediction by ZEFSAII (Michael W. Deem and Ramdas Pophale) SiO2 
 PCOD9061667
Probable space group: P -1
;
_chemical_formula_sum "Si O2"
_cell_formula_units_Z 16
_cell_length_a 9.080483
_cell_length_b 8.974065
_cell_length_c 15.231134
_cell_angle_alpha 99.341648
_cell_angle_beta 132.117255
_cell_angle_gamma 110.332249
_cell_volume 710.289805
_symmetry_space_group_name_H-M "P -1"
_symmetry_group_IT_number 2
_symmetry_cell_setting 'triclinic'
loop_
_space_group_symop_operation_xyz
x,y,z
-x,-y,-z
loop_
_atom_site_type_symbol
_atom_site_label
_atom_site_fract_x
_atom_site_fract_y
_atom_site_fract_z
Si Si1 0.724321 0.719094 0.633601
Si Si2 0.009080 0.709015 0.429844
Si Si3 0.375955 0.629450 0.643260
Si Si4 0.765231 0.002771 0.910989
Si Si5 0.136176 0.680856 0.140852
Si Si6 0.593460 0.908042 0.462753
Si Si7 0.761222 0.542445 0.127277
Si Si8 0.774845 0.190558 0.106102
O O1 0.500000 0.500000 0.500000
O O2 0.622290 0.720729 0.689123
O O3 0.720267 0.851746 0.575048
O O4 0.991250 0.759938 0.739110
O O5 0.785800 0.586763 0.402186
O O6 0.877960 0.644831 0.276339
O O7 0.181920 0.642966 0.512564
O O8 0.210458 0.939369 0.518510
O O9 0.500961 0.784589 0.788063
O O10 0.741861 0.114553 0.835653
O O11 0.826199 0.140308 0.028671
O O12 0.000000 0.000000 0.000000
O O13 0.354241 0.720412 0.297264
O O14 0.931632 0.655295 0.121831
O O15 0.000000 0.500000 0.000000
O O16 0.500000 0.000000 0.500000
O O17 0.755340 0.359317 0.110584
O O18 0.500000 0.500000 0.000000
O O19 0.500000 0.000000 0.000000
#
# Coordination Sequence:
#
# PCOD9061667 Si02
#       8
#     2   2   2   2   2   2   2   2
#     4  12  26  47  76 106 152 200 251 311 384 450
#     4  11  24  44  75 109 145 193 262 309 374 451
#     4  11  23  45  76 109 148 199 245 316 376 451
#     4  12  25  43  74 106 146 197 243 300 380 452
#     4  12  25  47  74 110 151 193 251 314 378 451
#     4  12  23  46  79 109 146 199 255 305 378 460
#     4  12  28  47  74 103 150 199 249 314 382 446
#     4  12  28  47  71 110 149 195 257 312 376 462
#
# _framework density 22.526018000000001
#
# number of rings (size 3 to 8) (size 9 to 14) (size 15 to 20)
#    0.000    0.250    6.250    2.250    5.250    1.000 
#    0.000    0.625    0.000    0.000    0.000    0.000 
#    0.000    0.000    0.000    0.000    0.000    0.000 
#
# Total GULP energy -89371.641591 kJ/mol
# GULP energy per Si atom -5585.727599 kJ/mol
# Density = 2.247475 g / cm^3
# Si number density = 22.526018 Si / 1000 Ang^3
#
#
#
# Elastic Constant Matrix: (Units=GPa)
#
#
# Indices 1 2 3 4 5 6 
#
# 1 64.4064 33.2037 42.1164 -16.8923 25.5722 1.4101
# 2 33.2037 100.3791 22.7380 -1.5890 19.6277 7.0812
# 3 42.1164 22.7380 157.4040 -6.3627 21.0121 -14.3174
# 4 -16.8923 -1.5890 -6.3627 33.2090 -1.7999 9.0419
# 5 25.5722 19.6277 21.0121 -1.7999 41.6681 -1.1027
# 6 1.4101 7.0812 -14.3174 9.0419 -1.1027 40.0658
#
#
#
# Elastic Compliance Matrix: (Units=1/GPa)
#
#
# Indices 1 2 3 4 5 6 
#
# 1 0.032006 -0.005973 -0.005832 0.015811 -0.013367 -0.006091
# 2 -0.005973 0.012497 -0.000136 -0.002148 -0.002288 -0.001626
# 3 -0.005832 -0.000136 0.008242 -0.002432 -0.000520 0.003709
# 4 0.015811 -0.002148 -0.002432 0.040052 -0.006007 -0.010250
# 5 -0.013367 -0.002288 -0.000520 -0.006007 0.033361 0.002963
# 6 -0.006091 -0.001626 0.003709 -0.010250 0.002963 0.029181
#
#
# Mechanical properties :
#
#
# Convention : Reuss Voigt Hill
#
# Bulk Modulus (GPa) = 34.64566 57.58952 46.11759
# Shear Modulus (GPa) = 26.47729 37.93067 32.20398
#
# Velocity S-wave (km/s) = 3.43214 4.10794 3.78515
# Velocity P-wave (km/s) = 5.57851 6.93697 6.29449
#
# Compressibility (1/GPa) = 0.02886365
#
# Stress axis : x y z
#
# Youngs Moduli (GPa) = 31.24374 80.02019 121.33568
#
# Poissons Ratio (x) = 0.47792 0.70759
# Poissons Ratio (y) = 0.18660 0.01655
# Poissons Ratio (z) = 0.18220 0.01091
#
# Static dielectric constant tensor:
#      x y z
#    x 1.959340 0.030390 -0.113460 
#    y 0.030390 1.813260 -0.024150 
#    z -0.113460 -0.024150 1.941540 
# 
# From -- ./inp_files/495310.got.cif
#   From: 2010.05.17/outbox.cif.g08.bks.cpg/sg2_248_cif.got.tgz:495310.got - 2010.06.03 11:33:40.
