data_PCOD9061249
_publ_section_title
;
Structure prediction by ZEFSAII (Michael W. Deem and Ramdas Pophale) SiO2 
 PCOD9061249
Probable space group: P -1
;
_chemical_formula_sum "Si O2"
_cell_formula_units_Z 15
_cell_length_a 7.653980
_cell_length_b 11.190106
_cell_length_c 18.128065
_cell_angle_alpha 28.611069
_cell_angle_beta 57.775669
_cell_angle_gamma 76.179095
_cell_volume 518.589534
_symmetry_space_group_name_H-M "P -1"
_symmetry_group_IT_number 2
_symmetry_cell_setting 'triclinic'
loop_
_space_group_symop_operation_xyz
x,y,z
-x,-y,-z
loop_
_atom_site_type_symbol
_atom_site_label
_atom_site_fract_x
_atom_site_fract_y
_atom_site_fract_z
Si Si1 0.487666 0.607307 0.691028
Si Si2 0.004437 0.480342 0.903491
Si Si3 0.901782 0.214670 0.905996
Si Si4 0.779555 0.400043 0.508386
Si Si5 0.331887 0.169870 0.628481
Si Si6 0.500000 0.500000 0.000000
Si Si7 0.944000 0.978549 0.609486
Si Si8 0.601122 0.871369 0.926629
O O1 0.304800 0.683429 0.731443
O O2 0.498627 0.663152 0.571251
O O3 0.782566 0.789461 0.544910
O O4 0.360844 0.264207 0.934783
O O5 0.863288 0.651029 0.843914
O O6 0.966336 0.366186 0.889800
O O7 0.868456 0.188629 0.144007
O O8 0.032123 0.460320 0.678395
O O9 0.608875 0.064915 0.042790
O O10 0.000000 0.000000 0.000000
O O11 0.503445 0.226324 0.629388
O O12 0.802162 0.668748 0.403819
O O13 0.809412 0.177983 0.672381
O O14 0.495705 0.391245 0.970366
O O15 0.340588 0.127207 0.263163
O O16 0.000000 0.000000 0.500000
#
# Coordination Sequence:
#
# PCOD9061249 Si02
#       8
#     2   2   2   2   2   1   2   2
#     4  12  29  47  73 115 157 197 252 323 384 447
#     4  12  25  47  71 113 154 197 250 320 382 452
#     4  12  22  46  79 110 145 205 261 307 370 461
#     4  11  23  44  76 109 146 206 251 310 367 458
#     4  11  24  44  74 110 150 196 255 307 385 441
#     4  12  26  48  78 106 144 196 260 300 374 462
#     4  12  27  50  77 108 147 202 256 312 384 457
#     4  12  28  47  75 114 152 201 261 312 379 459
#
# _framework density 28.924609
#
# number of rings (size 3 to 8) (size 9 to 14) (size 15 to 20)
#    0.000    0.267    6.667    1.200    5.600    2.133 
#    2.400    1.333    0.000    0.000    0.000    0.000 
#    0.000    0.000    0.000    0.000    0.000    0.000 
#
# Total GULP energy -83926.903459 kJ/mol
# GULP energy per Si atom -5595.126897 kJ/mol
# Density = 2.885878 g / cm^3
# Si number density = 28.924609 Si / 1000 Ang^3
#
#
#
# Elastic Constant Matrix: (Units=GPa)
#
#
# Indices 1 2 3 4 5 6 
#
# 1 136.5346 33.8412 53.0168 -2.2992 7.7532 -6.2105
# 2 33.8412 106.3214 20.3315 11.9195 12.0562 -22.9252
# 3 53.0168 20.3315 194.8315 30.2562 28.3665 18.0469
# 4 -2.2992 11.9195 30.2562 59.9576 1.1148 14.4921
# 5 7.7532 12.0562 28.3665 1.1148 61.5297 4.6512
# 6 -6.2105 -22.9252 18.0469 14.4921 4.6512 33.9830
#
#
#
# Elastic Compliance Matrix: (Units=1/GPa)
#
#
# Indices 1 2 3 4 5 6 
#
# 1 0.008999 -0.002588 -0.002607 0.002088 0.000513 0.000323
# 2 -0.002588 0.013827 -0.000578 -0.005366 -0.002915 0.011849
# 3 -0.002607 -0.000578 0.006971 -0.002714 -0.002491 -0.003070
# 4 0.002088 -0.005366 -0.002714 0.021926 0.002511 -0.011491
# 5 0.000513 -0.002915 -0.002491 0.002511 0.018172 -0.004108
# 6 0.000323 0.011849 -0.003070 -0.011491 -0.004108 0.044572
#
#
# Mechanical properties :
#
#
# Convention : Reuss Voigt Hill
#
# Bulk Modulus (GPa) = 54.79929 72.45184 63.62556
# Shear Modulus (GPa) = 37.85061 53.12726 45.48893
#
# Velocity S-wave (km/s) = 3.62138 4.29038 3.97000
# Velocity P-wave (km/s) = 6.03925 7.04600 6.56196
#
# Compressibility (1/GPa) = 0.01824841
#
# Stress axis : x y z
#
# Youngs Moduli (GPa) = 111.12493 72.32237 143.44970
#
# Poissons Ratio (x) = 0.18720 0.37404
# Poissons Ratio (y) = 0.28763 0.08298
# Poissons Ratio (z) = 0.28975 0.04183
#
# Static dielectric constant tensor:
#      x y z
#    x 2.687630 -0.263530 -0.357400 
#    y -0.263530 2.572970 -0.017780 
#    z -0.357400 -0.017780 2.659400 
# 
# From -- ./inp_files/588839.got.cif
#   From: 2010.05.17/outbox.cif.g08.bks.cpg/sg2_295_cif.got.tgz:588839.got - 2010.06.03 11:33:40.
