data_PCOD9061204
_publ_section_title
;
Structure prediction by ZEFSAII (Michael W. Deem and Ramdas Pophale) SiO2 
 PCOD9061204
Probable space group: P -1
;
_chemical_formula_sum "Si O2"
_cell_formula_units_Z 16
_cell_length_a 12.384012
_cell_length_b 21.687458
_cell_length_c 17.950397
_cell_angle_alpha 19.674633
_cell_angle_beta 154.099653
_cell_angle_gamma 150.917570
_cell_volume 697.058777
_symmetry_space_group_name_H-M "P -1"
_symmetry_group_IT_number 2
_symmetry_cell_setting 'triclinic'
loop_
_space_group_symop_operation_xyz
x,y,z
-x,-y,-z
loop_
_atom_site_type_symbol
_atom_site_label
_atom_site_fract_x
_atom_site_fract_y
_atom_site_fract_z
Si Si1 0.855479 0.911872 0.897897
Si Si2 0.363300 0.728291 0.064311
Si Si3 0.111252 0.635469 0.158727
Si Si4 0.728169 0.578712 0.105463
Si Si5 0.658268 0.679011 0.524241
Si Si6 0.283081 0.093608 0.548560
Si Si7 0.721992 0.198333 0.607853
Si Si8 0.090639 0.223545 0.575974
O O1 0.737185 0.035515 0.743288
O O2 0.679501 0.726381 0.969045
O O3 0.937749 0.052708 0.720151
O O4 0.093742 0.841356 0.165277
O O5 0.160859 0.737715 0.993943
O O6 0.290284 0.531371 0.202301
O O7 0.628746 0.739199 0.257343
O O8 0.399325 0.905249 0.833616
O O9 0.386308 0.660336 0.338279
O O10 0.006863 0.419776 0.317960
O O11 0.937095 0.688734 0.054078
O O12 0.820484 0.401467 0.401894
O O13 0.500000 0.500000 0.000000
O O14 0.645358 0.773602 0.487259
O O15 0.862898 0.793579 0.464029
O O16 0.434243 0.200674 0.451765
O O17 0.000000 0.000000 0.500000
#
# Coordination Sequence:
#
# PCOD9061204 Si02
#       8
#     2   2   2   2   2   2   2   2
#     4  11  23  44  74  92 130 178 220 279 314 384
#     4   9  20  38  62  93 123 155 205 263 320 368
#     4   9  19  39  65  93 126 154 211 268 313 381
#     4  12  27  42  64  99 134 174 216 270 333 393
#     4   9  21  38  66  94 123 163 211 271 313 369
#     4  12  26  40  61  93 130 168 211 256 319 397
#     4  11  26  47  64  98 132 176 226 260 326 396
#     4   9  17  39  68  99 116 156 219 271 317 362
#
# _framework density 22.953588
#
# number of rings (size 3 to 8) (size 9 to 14) (size 15 to 20)
#    0.000    1.750    2.500    2.625    3.500    3.000 
#    4.500    0.000    0.000    0.000    0.000    0.000 
#    0.000    0.000    0.000    0.000    0.000    0.000 
#
# Total GULP energy -89290.655612 kJ/mol
# GULP energy per Si atom -5580.665976 kJ/mol
# Density = 2.290135 g / cm^3
# Si number density = 22.953588 Si / 1000 Ang^3
#
#
#
# Elastic Constant Matrix: (Units=GPa)
#
#
# Indices 1 2 3 4 5 6 
#
# 1 103.8580 21.4140 9.4960 -20.2498 13.3114 -4.8399
# 2 21.4140 86.8890 31.9940 -10.4567 -0.7550 -0.5644
# 3 9.4960 31.9940 78.1003 -10.9776 -27.5057 -1.2937
# 4 -20.2498 -10.4567 -10.9776 26.0025 -3.9657 18.1657
# 5 13.3114 -0.7550 -27.5057 -3.9657 37.3518 -13.7123
# 6 -4.8399 -0.5644 -1.2937 18.1657 -13.7123 29.5383
#
#
#
# Elastic Compliance Matrix: (Units=1/GPa)
#
#
# Indices 1 2 3 4 5 6 
#
# 1 0.014000 -0.000523 -0.002853 0.017020 -0.010058 -0.012977
# 2 -0.000523 0.015283 -0.008073 0.006548 -0.007578 -0.007692
# 3 -0.002853 -0.008073 0.025004 0.001341 0.023241 0.010438
# 4 0.017020 0.006548 0.001341 0.098303 -0.018819 -0.066219
# 5 -0.010058 -0.007578 0.023241 -0.018819 0.059409 0.038377
# 6 -0.012977 -0.007692 0.010438 -0.066219 0.038377 0.090578
#
#
# Mechanical properties :
#
#
# Convention : Reuss Voigt Hill
#
# Bulk Modulus (GPa) = 31.85785 43.85060 37.85422
# Shear Modulus (GPa) = 14.88369 32.30805 23.59587
#
# Velocity S-wave (km/s) = 2.54918 3.75579 3.20969
# Velocity P-wave (km/s) = 4.75119 6.16063 5.50124
#
# Compressibility (1/GPa) = 0.03138944
#
# Stress axis : x y z
#
# Youngs Moduli (GPa) = 71.42808 65.43332 39.99300
#
# Poissons Ratio (x) = 0.03425 0.11408
# Poissons Ratio (y) = 0.03738 0.32286
# Poissons Ratio (z) = 0.20376 0.52824
#
# Static dielectric constant tensor:
#      x y z
#    x 1.854120 0.022410 0.019180 
#    y 0.022410 1.854960 0.051270 
#    z 0.019180 0.051270 1.931050 
# 
# From -- ./inp_files/346510.got.cif
#   From: 2010.05.17/outbox.cif.g08.bks.cpg/sg2_174_cif.got.tgz:346510.got - 2010.06.03 11:33:40.
