data_PCOD9061975
_publ_section_title
;
Structure prediction by ZEFSAII (Michael W. Deem and Ramdas Pophale) SiO2 
 PCOD9061975
Probable space group: P -1
;
_chemical_formula_sum "Si O2"
_cell_formula_units_Z 14
_cell_length_a 8.589103
_cell_length_b 12.990364
_cell_length_c 16.836140
_cell_angle_alpha 24.586962
_cell_angle_beta 45.929801
_cell_angle_gamma 54.955303
_cell_volume 550.799689
_symmetry_space_group_name_H-M "P -1"
_symmetry_group_IT_number 2
_symmetry_cell_setting 'triclinic'
loop_
_space_group_symop_operation_xyz
x,y,z
-x,-y,-z
loop_
_atom_site_type_symbol
_atom_site_label
_atom_site_fract_x
_atom_site_fract_y
_atom_site_fract_z
Si Si1 0.835932 0.712366 0.575512
Si Si2 0.757890 0.549371 0.151521
Si Si3 0.824742 0.093757 0.555922
Si Si4 0.735884 0.234118 0.221638
Si Si5 0.375356 0.755800 0.915303
Si Si6 0.929653 0.859578 0.206332
Si Si7 0.293198 0.609463 0.310935
O O1 0.070508 0.839094 0.442183
O O2 0.800487 0.584143 0.592210
O O3 0.705729 0.941687 0.460071
O O4 0.751616 0.481732 0.825979
O O5 0.766193 0.339909 0.362913
O O6 0.705990 0.400285 0.191558
O O7 0.554655 0.681359 0.154203
O O8 0.005768 0.697788 0.945970
O O9 0.607728 0.878019 0.785711
O O10 0.000000 0.000000 0.500000
O O11 0.605227 0.298512 0.146125
O O12 0.224881 0.969075 0.820056
O O13 0.781421 0.574067 0.458424
O O14 0.154270 0.828733 0.193899
O O15 0.000000 0.000000 0.000000
#
# Coordination Sequence:
#
# PCOD9061975 Si02
#       7
#     2   2   2   2   2   2   2
#     4  12  25  43  71 107 143 190 239 284 360 428
#     4  11  24  47  71 108 154 188 234 300 354 435
#     4  12  26  44  69 110 148 187 242 290 357 437
#     4  11  25  45  72 108 150 190 235 286 367 436
#     4  12  26  47  74 104 149 190 236 304 355 421
#     4  11  23  46  76 104 136 191 245 297 362 417
#     4  11  25  44  76 104 142 190 241 299 357 421
#
# _framework density 25.417587000000001
#
# number of rings (size 3 to 8) (size 9 to 14) (size 15 to 20)
#    0.000    0.571    7.143    0.000    4.000    1.714 
#    0.000    1.429    9.429    0.000    0.000    0.000 
#    0.000    0.000    0.000    0.000    0.000    0.000 
#
# Total GULP energy -78465.832390 kJ/mol
# GULP energy per Si atom -5604.702314 kJ/mol
# Density = 2.535974 g / cm^3
# Si number density = 25.417587 Si / 1000 Ang^3
#
#
#
# Elastic Constant Matrix: (Units=GPa)
#
#
# Indices 1 2 3 4 5 6 
#
# 1 127.0321 5.7513 42.4423 -6.4546 -9.1371 -1.3423
# 2 5.7513 83.9305 -2.0822 4.4578 -16.0901 -38.6135
# 3 42.4423 -2.0822 132.1430 -4.0925 9.9758 -10.7851
# 4 -6.4546 4.4578 -4.0925 37.3023 -8.1314 -0.2029
# 5 -9.1371 -16.0901 9.9758 -8.1314 59.0269 0.7232
# 6 -1.3423 -38.6135 -10.7851 -0.2029 0.7232 48.6950
#
#
#
# Elastic Compliance Matrix: (Units=1/GPa)
#
#
# Indices 1 2 3 4 5 6 
#
# 1 0.009192 -0.001018 -0.003164 0.001781 0.001941 -0.001276
# 2 -0.001018 0.020678 0.001606 -0.001330 0.004820 0.016647
# 3 -0.003164 0.001606 0.008990 -0.000089 -0.001623 0.003201
# 4 0.001781 -0.001330 -0.000089 0.028091 0.003810 -0.000965
# 5 0.001941 0.004820 -0.001623 0.003810 0.019315 0.003246
# 6 -0.001276 0.016647 0.003201 -0.000965 0.003246 0.034359
#
#
# Mechanical properties :
#
#
# Convention : Reuss Voigt Hill
#
# Bulk Modulus (GPa) = 29.66551 48.36984 39.01768
# Shear Modulus (GPa) = 36.49344 48.80445 42.64895
#
# Velocity S-wave (km/s) = 3.79325 4.38665 4.10070
# Velocity P-wave (km/s) = 5.55712 6.68793 6.14857
#
# Compressibility (1/GPa) = 0.03370918
#
# Stress axis : x y z
#
# Youngs Moduli (GPa) = 108.79262 48.36099 111.23386
#
# Poissons Ratio (x) = 0.04922 0.35192
# Poissons Ratio (y) = 0.11073 -0.17868
# Poissons Ratio (z) = 0.34420 -0.07769
#
# Static dielectric constant tensor:
#      x y z
#    x 2.031880 0.012710 -0.029570 
#    y 0.012710 2.079710 0.035640 
#    z -0.029570 0.035640 2.063960 
# 
# From -- ./inp_files/590835.got.cif
#   From: 2010.05.17/outbox.cif.g08.bks.cpg/sg2_296_cif.got.tgz:590835.got - 2010.06.03 11:33:40.
