data_PCOD9061171
_publ_section_title
;
Structure prediction by ZEFSAII (Michael W. Deem and Ramdas Pophale) SiO2 
 PCOD9061171
Probable space group: P -1
;
_chemical_formula_sum "Si O2"
_cell_formula_units_Z 16
_cell_length_a 8.645264
_cell_length_b 10.093359
_cell_length_c 14.459220
_cell_angle_alpha 132.421431
_cell_angle_beta 92.230857
_cell_angle_gamma 115.294644
_cell_volume 733.991835
_symmetry_space_group_name_H-M "P -1"
_symmetry_group_IT_number 2
_symmetry_cell_setting 'triclinic'
loop_
_space_group_symop_operation_xyz
x,y,z
-x,-y,-z
loop_
_atom_site_type_symbol
_atom_site_label
_atom_site_fract_x
_atom_site_fract_y
_atom_site_fract_z
Si Si1 0.131610 0.431485 0.935582
Si Si2 0.876615 0.491011 0.691796
Si Si3 0.322337 0.799714 0.779650
Si Si4 0.681688 0.494606 0.509892
Si Si5 0.557449 0.303907 0.081256
Si Si6 0.360575 0.549323 0.176074
Si Si7 0.064743 0.043296 0.370193
Si Si8 0.259305 0.016146 0.535152
O O1 0.230751 0.535234 0.887258
O O2 0.306790 0.532670 0.060359
O O3 0.002416 0.160414 0.796415
O O4 0.000000 0.500000 0.000000
O O5 0.736688 0.485608 0.610971
O O6 0.836061 0.560337 0.820421
O O7 0.817877 0.241430 0.584978
O O8 0.095556 0.659634 0.736701
O O9 0.347067 0.710610 0.643218
O O10 0.417862 0.746714 0.837716
O O11 0.428994 0.066366 0.911517
O O12 0.500000 0.500000 0.500000
O O13 0.856153 0.727215 0.572838
O O14 0.455051 0.422746 0.133660
O O15 0.520314 0.804049 0.338423
O O16 0.878607 0.968365 0.391764
O O17 0.224311 0.076062 0.461073
#
# Coordination Sequence:
#
# PCOD9061171 Si02
#       8
#     2   2   2   2   2   2   2   2
#     4  12  27  44  70 101 139 177 229 279 338 403
#     4  12  26  44  71 100 138 178 229 279 338 403
#     4  11  25  45  69  98 139 178 221 278 340 405
#     4  12  27  44  70 101 139 177 229 279 338 403
#     4  11  25  45  69  98 139 178 221 278 340 405
#     4  12  26  44  71 100 138 178 229 279 338 403
#     4  11  24  44  73 102 135 178 227 284 339 397
#     4  11  23  44  74 100 136 176 228 287 337 396
#
# _framework density 21.798608000000002
#
# number of rings (size 3 to 8) (size 9 to 14) (size 15 to 20)
#    0.000    0.500    2.500    5.625    5.250    0.500 
#    0.000    0.000    0.000    0.000    0.000    0.000 
#    0.000    0.000    0.000    0.000    0.000    0.000 
#
# Total GULP energy -89632.481287 kJ/mol
# GULP energy per Si atom -5602.030080 kJ/mol
# Density = 2.174899 g / cm^3
# Si number density = 21.798608 Si / 1000 Ang^3
#
#
#
# Elastic Constant Matrix: (Units=GPa)
#
#
# Indices 1 2 3 4 5 6 
#
# 1 86.5040 -14.2963 2.0619 8.3178 -11.4678 -0.5235
# 2 -14.2963 53.1907 3.3403 -3.2251 -4.5221 -12.4232
# 3 2.0619 3.3403 75.0460 6.1922 -0.5791 -3.9305
# 4 8.3178 -3.2251 6.1922 30.5768 -2.7938 -2.5920
# 5 -11.4678 -4.5221 -0.5791 -2.7938 32.4502 -2.7459
# 6 -0.5235 -12.4232 -3.9305 -2.5920 -2.7459 29.7008
#
#
#
# Elastic Compliance Matrix: (Units=1/GPa)
#
#
# Indices 1 2 3 4 5 6 
#
# 1 0.013242 0.004419 -0.000198 -0.002416 0.005281 0.002333
# 2 0.004419 0.023151 -0.000792 0.002825 0.005901 0.010449
# 3 -0.000198 -0.000792 0.013652 -0.002696 -0.000065 0.001231
# 4 -0.002416 0.002825 -0.002696 0.034811 0.002834 0.004082
# 5 0.005281 0.005901 -0.000065 0.002834 0.034253 0.005967
# 6 0.002333 0.010449 0.001231 0.004082 0.005967 0.039151
#
#
# Mechanical properties :
#
#
# Convention : Reuss Voigt Hill
#
# Bulk Modulus (GPa) = 17.57407 21.88362 19.72884
# Shear Modulus (GPa) = 29.34779 33.45455 31.40117
#
# Velocity S-wave (km/s) = 3.67320 3.92179 3.79953
# Velocity P-wave (km/s) = 5.10582 5.52884 5.32153
#
# Compressibility (1/GPa) = 0.05690200
#
# Stress axis : x y z
#
# Youngs Moduli (GPa) = 75.51897 43.19445 73.24792
#
# Poissons Ratio (x) = -0.19087 0.01452
# Poissons Ratio (y) = -0.33371 0.05803
# Poissons Ratio (z) = 0.01497 0.03422
#
# Static dielectric constant tensor:
#      x y z
#    x 1.788280 0.023550 0.038480 
#    y 0.023550 1.766900 -0.002570 
#    z 0.038480 -0.002570 1.780410 
# 
# From -- ./inp_files/495742.got.cif
#   From: 2010.05.17/outbox.cif.g08.bks.cpg/sg2_248_cif.got.tgz:495742.got - 2010.06.03 11:33:40.
