data_PCOD9061710
_publ_section_title
;
Structure prediction by ZEFSAII (Michael W. Deem and Ramdas Pophale) SiO2 
 PCOD9061710
Probable space group: P -1
;
_chemical_formula_sum "Si O2"
_cell_formula_units_Z 16
_cell_length_a 6.941073
_cell_length_b 5.556916
_cell_length_c 23.783870
_cell_angle_alpha 77.503859
_cell_angle_beta 128.789679
_cell_angle_gamma 93.364385
_cell_volume 694.533035
_symmetry_space_group_name_H-M "P -1"
_symmetry_group_IT_number 2
_symmetry_cell_setting 'triclinic'
loop_
_space_group_symop_operation_xyz
x,y,z
-x,-y,-z
loop_
_atom_site_type_symbol
_atom_site_label
_atom_site_fract_x
_atom_site_fract_y
_atom_site_fract_z
Si Si1 0.480267 0.530102 0.428402
Si Si2 0.852477 0.860271 0.934404
Si Si3 0.961731 0.542238 0.181560
Si Si4 0.467661 0.614748 0.724229
Si Si5 0.785016 0.503997 0.037687
Si Si6 0.647375 0.162282 0.192846
Si Si7 0.922304 0.712881 0.290213
Si Si8 0.286301 0.952094 0.573858
O O1 0.500000 0.500000 0.500000
O O2 0.604418 0.781531 0.422982
O O3 0.191155 0.585153 0.358355
O O4 0.591898 0.275495 0.431666
O O5 0.038042 0.751935 0.925070
O O6 0.581014 0.987499 0.861226
O O7 0.778635 0.627211 0.969001
O O8 0.000000 0.000000 0.000000
O O9 0.255631 0.465646 0.242601
O O10 0.902753 0.650084 0.103209
O O11 0.887040 0.690926 0.217107
O O12 0.788961 0.315429 0.166061
O O13 0.277895 0.406139 0.701991
O O14 0.487733 0.674507 0.790804
O O15 0.344542 0.838787 0.652236
O O16 0.500000 0.500000 0.000000
O O17 0.872222 0.004592 0.274203
O O18 0.000000 0.000000 0.500000
#
# Coordination Sequence:
#
# PCOD9061710 Si02
#       8
#     2   2   2   2   2   2   2   2
#     4  12  27  49  76 111 155 191 244 303 359 432
#     4  11  26  41  63  99 130 177 236 291 360 426
#     4  11  23  46  65  97 135 184 231 288 360 429
#     4  11  25  45  70 100 140 185 238 287 359 429
#     4  11  24  44  66  88 137 177 228 294 357 427
#     4  11  25  42  66  98 138 181 231 300 354 430
#     4  11  27  42  72 103 141 180 236 295 359 424
#     4  12  27  48  78 110 151 197 245 296 365 432
#
# _framework density 23.03706
#
# number of rings (size 3 to 8) (size 9 to 14) (size 15 to 20)
#    0.000    0.750    3.750    2.250    8.750    2.500 
#    0.000    0.000    0.000    0.000    0.000    0.000 
#    0.000    0.000    0.000    0.000    0.000    0.000 
#
# Total GULP energy -89291.978038 kJ/mol
# GULP energy per Si atom -5580.748627 kJ/mol
# Density = 2.298463 g / cm^3
# Si number density = 23.037060 Si / 1000 Ang^3
#
#
#
# Elastic Constant Matrix: (Units=GPa)
#
#
# Indices 1 2 3 4 5 6 
#
# 1 152.5835 34.9954 37.9532 -2.0877 21.0466 -15.4446
# 2 34.9954 62.3450 -0.2529 -2.4548 9.4697 -5.4209
# 3 37.9532 -0.2529 95.6632 -3.7336 11.1736 -10.5303
# 4 -2.0877 -2.4548 -3.7336 32.9496 -3.1941 0.7234
# 5 21.0466 9.4697 11.1736 -3.1941 62.2606 -3.6707
# 6 -15.4446 -5.4209 -10.5303 0.7234 -3.6707 34.1900
#
#
#
# Elastic Compliance Matrix: (Units=1/GPa)
#
#
# Indices 1 2 3 4 5 6 
#
# 1 0.008797 -0.004532 -0.003091 -0.000335 -0.001621 0.002137
# 2 -0.004532 0.019012 0.002244 0.001195 -0.001615 0.001460
# 3 -0.003091 0.002244 0.012159 0.001170 -0.001269 0.002544
# 4 -0.000335 0.001195 0.001170 0.030677 0.001289 -0.000112
# 5 -0.001621 -0.001615 -0.001269 0.001289 0.017175 0.000438
# 6 0.002137 0.001460 0.002544 -0.000112 0.000438 0.031278
#
#
# Mechanical properties :
#
#
# Convention : Reuss Voigt Hill
#
# Bulk Modulus (GPa) = 34.23258 50.66478 42.44868
# Shear Modulus (GPa) = 35.81865 41.73977 38.77921
#
# Velocity S-wave (km/s) = 3.94741 4.26120 4.10730
# Velocity P-wave (km/s) = 5.97228 6.80081 6.39996
#
# Compressibility (1/GPa) = 0.02921193
#
# Stress axis : x y z
#
# Youngs Moduli (GPa) = 113.67230 52.59849 82.24133
#
# Poissons Ratio (x) = 0.23836 0.25418
# Poissons Ratio (y) = 0.51513 -0.18456
# Poissons Ratio (z) = 0.35133 -0.11804
#
# Static dielectric constant tensor:
#      x y z
#    x 1.871900 0.011760 -0.003260 
#    y 0.011760 1.941050 -0.001540 
#    z -0.003260 -0.001540 1.891770 
# 
# From -- ./inp_files/10745.got.cif
#   From: 2010.05.17/outbox.cif.g08.bks.cpg/sg2_6_cif.got.tgz:10745.got - 2010.06.03 11:33:40.
