data_PCOD9061359
_publ_section_title
;
Structure prediction by ZEFSAII (Michael W. Deem and Ramdas Pophale) SiO2 
 PCOD9061359
Probable space group: P -1
;
_chemical_formula_sum "Si O2"
_cell_formula_units_Z 15
_cell_length_a 6.751109
_cell_length_b 7.792063
_cell_length_c 18.475172
_cell_angle_alpha 52.812094
_cell_angle_beta 105.611848
_cell_angle_gamma 119.661207
_cell_volume 672.175719
_symmetry_space_group_name_H-M "P -1"
_symmetry_group_IT_number 2
_symmetry_cell_setting 'triclinic'
loop_
_space_group_symop_operation_xyz
x,y,z
-x,-y,-z
loop_
_atom_site_type_symbol
_atom_site_label
_atom_site_fract_x
_atom_site_fract_y
_atom_site_fract_z
Si Si1 0.427668 0.019999 0.364103
Si Si2 0.285517 0.756716 0.802884
Si Si3 0.023677 0.565220 0.370059
Si Si4 0.199230 0.963524 0.491130
Si Si5 0.500000 0.500000 0.000000
Si Si6 0.067196 0.015571 0.086021
Si Si7 0.183095 0.571388 0.226943
Si Si8 0.695331 0.791736 0.225996
O O1 0.242325 0.782159 0.369243
O O2 0.290831 0.098915 0.389986
O O3 0.573043 0.198247 0.269916
O O4 0.602185 0.973006 0.446007
O O5 0.017892 0.606400 0.797962
O O6 0.320945 0.012838 0.771676
O O7 0.368623 0.615760 0.903396
O O8 0.109325 0.496521 0.321257
O O9 0.903492 0.319663 0.464371
O O10 0.832572 0.657519 0.309654
O O11 0.000000 0.000000 0.500000
O O12 0.254328 0.278670 0.054043
O O13 0.174936 0.828490 0.155380
O O14 0.845882 0.929349 0.136746
O O15 0.000000 0.000000 0.000000
O O16 0.438795 0.617968 0.222723
#
# Coordination Sequence:
#
# PCOD9061359 Si02
#       8
#     2   2   2   2   1   2   2   2
#     4  11  25  48  72 108 154 181 242 303 350 438
#     4  12  24  47  72 106 145 195 237 305 361 422
#     4  11  24  46  73 106 144 190 234 296 357 431
#     4  11  27  47  74 113 141 192 242 288 369 431
#     4  12  24  46  76 102 150 178 250 300 352 430
#     4  11  24  45  66 101 141 185 239 305 353 421
#     4  11  23  45  69 101 143 189 244 290 359 425
#     4  11  26  44  73 104 142 193 242 286 373 428
#
# _framework density 22.315591000000001
#
# number of rings (size 3 to 8) (size 9 to 14) (size 15 to 20)
#    0.000    0.800    5.333    1.200    1.867    5.867 
#    0.000    0.000    2.933    0.000    0.000    0.000 
#    0.000    0.000    0.000    0.000    0.000    0.000 
#
# Total GULP energy -83684.129425 kJ/mol
# GULP energy per Si atom -5578.941962 kJ/mol
# Density = 2.226480 g / cm^3
# Si number density = 22.315591 Si / 1000 Ang^3
#
#
#
# Elastic Constant Matrix: (Units=GPa)
#
#
# Indices 1 2 3 4 5 6 
#
# 1 147.4509 72.9849 42.9957 -2.6119 -9.8065 26.9410
# 2 72.9849 101.8271 41.6967 0.3001 9.5977 41.1189
# 3 42.9957 41.6967 84.9257 -27.5538 -12.9320 1.0111
# 4 -2.6119 0.3001 -27.5538 31.2068 11.1244 -5.1896
# 5 -9.8065 9.5977 -12.9320 11.1244 22.0873 5.3897
# 6 26.9410 41.1189 1.0111 -5.1896 5.3897 49.2713
#
#
#
# Elastic Compliance Matrix: (Units=1/GPa)
#
#
# Indices 1 2 3 4 5 6 
#
# 1 0.012503 -0.008731 -0.001862 -0.004577 0.010848 -0.001180
# 2 -0.008731 0.037723 -0.022706 -0.019328 -0.017393 -0.026375
# 3 -0.001862 -0.022706 0.035182 0.031751 0.008358 0.021675
# 4 -0.004577 -0.019328 0.031751 0.070570 -0.017248 0.027300
# 5 0.010848 -0.017393 0.008358 -0.017248 0.071530 -0.001229
# 6 -0.001180 -0.026375 0.021675 0.027300 -0.001229 0.045517
#
#
# Mechanical properties :
#
#
# Convention : Reuss Voigt Hill
#
# Bulk Modulus (GPa) = 53.16506 72.17316 62.66911
# Shear Modulus (GPa) = 14.45529 32.28151 23.36840
#
# Velocity S-wave (km/s) = 2.54789 3.80753 3.23952
# Velocity P-wave (km/s) = 5.70364 7.19319 6.49128
#
# Compressibility (1/GPa) = 0.01880935
#
# Stress axis : x y z
#
# Youngs Moduli (GPa) = 79.98260 26.50874 28.42351
#
# Poissons Ratio (x) = 0.23146 0.05292
# Poissons Ratio (y) = 0.69836 0.64539
# Poissons Ratio (z) = 0.14892 0.60191
#
# Static dielectric constant tensor:
#      x y z
#    x 1.867100 -0.007420 -0.018730 
#    y -0.007420 1.832710 -0.006250 
#    z -0.018730 -0.006250 1.862570 
# 
# From -- ./inp_files/547812.got.cif
#   From: 2010.05.17/outbox.cif.g08.bks.cpg/sg2_274_cif.got.tgz:547812.got - 2010.06.03 11:33:40.
