data_PCOD9061450
_publ_section_title
;
Structure prediction by ZEFSAII (Michael W. Deem and Ramdas Pophale) SiO2 
 PCOD9061450
Probable space group: P -1
;
_chemical_formula_sum "Si O2"
_cell_formula_units_Z 16
_cell_length_a 15.456344
_cell_length_b 24.743235
_cell_length_c 9.585141
_cell_angle_alpha 50.045160
_cell_angle_beta 149.467404
_cell_angle_gamma 150.903785
_cell_volume 810.028729
_symmetry_space_group_name_H-M "P -1"
_symmetry_group_IT_number 2
_symmetry_cell_setting 'triclinic'
loop_
_space_group_symop_operation_xyz
x,y,z
-x,-y,-z
loop_
_atom_site_type_symbol
_atom_site_label
_atom_site_fract_x
_atom_site_fract_y
_atom_site_fract_z
Si Si1 0.302591 0.982766 0.651337
Si Si2 0.329960 0.501939 0.173982
Si Si3 0.274302 0.751718 0.838466
Si Si4 0.299959 0.233791 0.651781
Si Si5 0.753801 0.112729 0.564274
Si Si6 0.723139 0.744961 0.732133
Si Si7 0.566193 0.503176 0.244889
Si Si8 0.359359 0.762604 0.257825
O O1 0.243246 0.925311 0.516550
O O2 0.981120 0.880559 0.451076
O O3 0.473600 0.115175 0.638205
O O4 0.500000 0.000000 0.000000
O O5 0.500000 0.500000 0.500000
O O6 0.501238 0.632358 0.238141
O O7 0.398612 0.503195 0.108529
O O8 0.975564 0.372249 0.931321
O O9 0.323161 0.833422 0.669554
O O10 0.918715 0.622408 0.560845
O O11 0.466070 0.750436 0.059730
O O12 0.352331 0.789962 0.044775
O O13 0.170826 0.202708 0.366410
O O14 0.500000 0.000000 0.500000
O O15 0.048857 0.199774 0.921465
O O16 0.530862 0.609054 0.669267
O O17 0.545784 0.753557 0.523582
O O18 0.500000 0.500000 0.000000
#
# Coordination Sequence:
#
# PCOD9061450 Si02
#       8
#     2   2   2   2   2   2   2   2
#     4  12  25  45  71  99 136 177 229 270 331 401
#     4  12  22  42  72 100 131 174 233 269 328 399
#     4  11  23  45  70  99 135 174 224 274 335 397
#     4  11  25  44  73 101 130 177 228 279 322 398
#     4  12  27  44  67  96 139 180 219 270 343 398
#     4  11  25  44  68  98 138 171 221 277 341 387
#     4  12  24  42  68  99 136 176 215 275 342 394
#     4  11  25  43  71 102 130 176 228 281 322 396
#
# _framework density 19.752386999999999
#
# number of rings (size 3 to 8) (size 9 to 14) (size 15 to 20)
#    0.000    0.500    5.000    3.000    3.500    3.500 
#    2.250    1.250    0.000    0.000    0.000    0.000 
#    0.000    0.000    0.000    0.000    0.000    0.000 
#
# Total GULP energy -89346.277487 kJ/mol
# GULP energy per Si atom -5584.142343 kJ/mol
# Density = 1.970743 g / cm^3
# Si number density = 19.752387 Si / 1000 Ang^3
#
#
#
# Elastic Constant Matrix: (Units=GPa)
#
#
# Indices 1 2 3 4 5 6 
#
# 1 160.9142 6.9560 104.9547 30.9421 -10.9124 0.4604
# 2 6.9560 104.3387 -21.9376 -23.6001 8.2773 -9.2991
# 3 104.9547 -21.9376 199.6534 49.4511 -17.3715 -4.0050
# 4 30.9421 -23.6001 49.4511 65.6812 2.3888 1.1878
# 5 -10.9124 8.2773 -17.3715 2.3888 31.7658 2.1267
# 6 0.4604 -9.2991 -4.0050 1.1878 2.1267 38.0446
#
#
#
# Elastic Compliance Matrix: (Units=1/GPa)
#
#
# Indices 1 2 3 4 5 6 
#
# 1 0.010016 -0.002370 -0.004948 -0.001879 0.001578 -0.001251
# 2 -0.002370 0.011567 0.001138 0.004497 -0.003748 0.003045
# 3 -0.004948 0.001138 0.009090 -0.004243 0.003210 0.001248
# 4 -0.001879 0.004497 -0.004243 0.021124 -0.005749 0.000337
# 5 0.001578 -0.003748 0.003210 -0.005749 0.035347 -0.002394
# 6 -0.001251 0.003045 0.001248 0.000337 -0.002394 0.027299
#
#
# Mechanical properties :
#
#
# Convention : Reuss Voigt Hill
#
# Bulk Modulus (GPa) = 54.60409 71.65027 63.12718
# Shear Modulus (GPa) = 37.61971 52.09386 44.85679
#
# Velocity S-wave (km/s) = 4.36887 5.14108 4.77062
# Velocity P-wave (km/s) = 7.29065 8.46132 7.89771
#
# Compressibility (1/GPa) = 0.01831365
#
# Stress axis : x y z
#
# Youngs Moduli (GPa) = 99.83785 86.45027 110.00801
#
# Poissons Ratio (x) = 0.20487 0.54433
# Poissons Ratio (y) = 0.23660 -0.12517
# Poissons Ratio (z) = 0.49401 -0.09837
#
# Static dielectric constant tensor:
#      x y z
#    x 1.694130 -0.001440 -0.004800 
#    y -0.001440 1.668100 -0.042340 
#    z -0.004800 -0.042340 1.580120 
# 
# From -- ./inp_files/215826.got.cif
#   From: 2010.05.17/outbox.cif.g08.bks.cpg/sg2_108_cif.got.tgz:215826.got - 2010.06.03 11:33:40.
