data_PCOD9061716
_publ_section_title
;
Structure prediction by ZEFSAII (Michael W. Deem and Ramdas Pophale) SiO2 
 PCOD9061716
Probable space group: P -1
;
_chemical_formula_sum "Si O2"
_cell_formula_units_Z 16
_cell_length_a 10.576421
_cell_length_b 13.094647
_cell_length_c 11.176204
_cell_angle_alpha 95.887632
_cell_angle_beta 117.033655
_cell_angle_gamma 35.343818
_cell_volume 681.044435
_symmetry_space_group_name_H-M "P -1"
_symmetry_group_IT_number 2
_symmetry_cell_setting 'triclinic'
loop_
_space_group_symop_operation_xyz
x,y,z
-x,-y,-z
loop_
_atom_site_type_symbol
_atom_site_label
_atom_site_fract_x
_atom_site_fract_y
_atom_site_fract_z
Si Si1 0.899780 0.181523 0.488365
Si Si2 0.815681 0.905158 0.162742
Si Si3 0.195208 0.883781 0.957177
Si Si4 0.330011 0.306815 0.108852
Si Si5 0.318790 0.456432 0.324218
Si Si6 0.127391 0.084505 0.319513
Si Si7 0.196354 0.521943 0.858281
Si Si8 0.201744 0.377490 0.454153
O O1 0.557266 0.389954 0.385263
O O2 0.015750 0.154598 0.658062
O O3 0.022618 0.162647 0.421970
O O4 0.000000 0.000000 0.500000
O O5 0.009365 0.690408 0.179236
O O6 0.788970 0.007965 0.062981
O O7 0.499617 0.102372 0.107827
O O8 0.030426 0.920829 0.790284
O O9 0.506891 0.648107 0.103777
O O10 0.000000 0.000000 0.000000
O O11 0.421768 0.291449 0.274812
O O12 0.339501 0.394830 0.028987
O O13 0.000000 0.500000 0.000000
O O14 0.268009 0.448834 0.436443
O O15 0.989240 0.259806 0.199505
O O16 0.472097 0.870018 0.424814
O O17 0.993253 0.562025 0.719013
O O18 0.000000 0.500000 0.500000
#
# Coordination Sequence:
#
# PCOD9061716 Si02
#       8
#     2   2   2   2   2   2   2   2
#     4  12  21  44  72  97 135 173 230 286 334 400
#     4  11  25  41  69 103 130 175 228 281 340 395
#     4  11  24  44  64  99 140 170 225 285 332 408
#     4  11  23  46  66  93 139 177 230 276 324 412
#     4  12  25  44  73 102 134 181 227 285 346 400
#     4  12  25  44  74  97 135 188 223 278 353 402
#     4  11  26  43  68 101 134 181 224 274 349 405
#     4  12  26  46  65 102 144 174 227 284 339 419
#
# _framework density 23.493328000000002
#
# number of rings (size 3 to 8) (size 9 to 14) (size 15 to 20)
#    0.000    0.500    5.000    2.625    5.250    1.500 
#    0.000    0.000    0.000    0.000    0.000    0.000 
#    0.000    0.000    0.000    0.000    0.000    0.000 
#
# Total GULP energy -89283.548284 kJ/mol
# GULP energy per Si atom -5580.221768 kJ/mol
# Density = 2.343986 g / cm^3
# Si number density = 23.493328 Si / 1000 Ang^3
#
#
#
# Elastic Constant Matrix: (Units=GPa)
#
#
# Indices 1 2 3 4 5 6 
#
# 1 54.0100 36.2700 11.8478 -14.7372 -1.7006 -33.8455
# 2 36.2700 118.4840 30.9706 -45.5079 1.5298 -27.5363
# 3 11.8478 30.9706 85.5746 -29.6932 20.4511 -20.9138
# 4 -14.7372 -45.5079 -29.6932 46.5120 -6.6526 10.9176
# 5 -1.7006 1.5298 20.4511 -6.6526 48.4502 -12.8945
# 6 -33.8455 -27.5363 -20.9138 10.9176 -12.8945 38.7490
#
#
#
# Elastic Compliance Matrix: (Units=1/GPa)
#
#
# Indices 1 2 3 4 5 6 
#
# 1 0.052845 -0.003661 0.005056 0.006876 0.013805 0.048941
# 2 -0.003661 0.015963 0.000140 0.013691 0.002578 0.005222
# 3 0.005056 0.000140 0.017723 0.010216 -0.003208 0.010136
# 4 0.006876 0.013691 0.010216 0.041628 0.004110 0.010888
# 5 0.013805 0.002578 -0.003208 0.004110 0.028405 0.020453
# 6 0.048941 0.005222 0.010136 0.010888 0.020453 0.081475
#
#
# Mechanical properties :
#
#
# Convention : Reuss Voigt Hill
#
# Bulk Modulus (GPa) = 11.16059 46.24948 28.70503
# Shear Modulus (GPa) = 18.87972 38.67427 28.77700
#
# Velocity S-wave (km/s) = 2.83790 4.06172 3.50366
# Velocity P-wave (km/s) = 3.93688 6.45954 5.34905
#
# Compressibility (1/GPa) = 0.08960102
#
# Stress axis : x y z
#
# Youngs Moduli (GPa) = 18.92343 62.64590 56.42233
#
# Poissons Ratio (x) = 0.22937 -0.28528
# Poissons Ratio (y) = 0.06929 -0.00792
# Poissons Ratio (z) = -0.09568 -0.00879
#
# Static dielectric constant tensor:
#      x y z
#    x 1.807670 0.070540 0.148130 
#    y 0.070540 1.877800 -0.146660 
#    z 0.148130 -0.146660 1.973440 
# 
# From -- ./inp_files/434140.got.cif
#   From: 2010.05.17/outbox.cif.g08.bks.cpg/sg2_218_cif.got.tgz:434140.got - 2010.06.03 11:33:40.
