data_PCOD9061754
_publ_section_title
;
Structure prediction by ZEFSAII (Michael W. Deem and Ramdas Pophale) SiO2 
 PCOD9061754
Probable space group: P -1
;
_chemical_formula_sum "Si O2"
_cell_formula_units_Z 16
_cell_length_a 10.199593
_cell_length_b 12.041392
_cell_length_c 11.112689
_cell_angle_alpha 62.840485
_cell_angle_beta 115.560841
_cell_angle_gamma 143.139054
_cell_volume 722.820350
_symmetry_space_group_name_H-M "P -1"
_symmetry_group_IT_number 2
_symmetry_cell_setting 'triclinic'
loop_
_space_group_symop_operation_xyz
x,y,z
-x,-y,-z
loop_
_atom_site_type_symbol
_atom_site_label
_atom_site_fract_x
_atom_site_fract_y
_atom_site_fract_z
Si Si1 0.902038 0.197234 0.059549
Si Si2 0.737306 0.627498 0.089005
Si Si3 0.334400 0.900481 0.599682
Si Si4 0.899430 0.501629 0.339886
Si Si5 0.250597 0.480301 0.248268
Si Si6 0.068775 0.171290 0.508262
Si Si7 0.672707 0.203404 0.778030
Si Si8 0.719653 0.803256 0.185806
O O1 0.024415 0.335784 0.154174
O O2 0.095737 0.297639 0.989368
O O3 0.787645 0.990409 0.139349
O O4 0.724065 0.172703 0.940385
O O5 0.738674 0.516605 0.245633
O O6 0.810179 0.799134 0.103200
O O7 0.500000 0.500000 0.000000
O O8 0.223455 0.693740 0.674459
O O9 0.140040 0.876021 0.518865
O O10 0.500000 0.000000 0.500000
O O11 0.463022 0.024408 0.709537
O O12 0.000000 0.500000 0.500000
O O13 0.120587 0.696981 0.272314
O O14 0.224820 0.346978 0.391920
O O15 0.302528 0.633417 0.274669
O O16 0.457540 0.613169 0.175722
O O17 0.189929 0.213539 0.656691
O O18 0.000000 0.000000 0.500000
#
# Coordination Sequence:
#
# PCOD9061754 Si02
#       8
#     2   2   2   2   2   2   2   2
#     4  11  26  47  70 104 145 190 242 300 367 441
#     4  11  25  45  72 106 143 192 244 307 369 439
#     4  12  26  44  74 108 143 194 245 298 369 437
#     4  11  23  46  69 101 146 189 241 303 362 432
#     4  12  25  48  72 105 142 192 242 297 375 438
#     4  12  26  48  74 110 148 187 244 309 368 444
#     4  11  26  43  72 101 143 186 243 296 361 436
#     4  12  26  45  75 103 146 190 241 298 374 437
#
# _framework density 22.135514000000001
#
# number of rings (size 3 to 8) (size 9 to 14) (size 15 to 20)
#    0.000    0.500    5.000    2.625    3.500    2.500 
#    0.000    0.000    0.000    0.000    0.000    0.000 
#    0.000    0.000    0.000    0.000    0.000    0.000 
#
# Total GULP energy -89398.571297 kJ/mol
# GULP energy per Si atom -5587.410706 kJ/mol
# Density = 2.208513 g / cm^3
# Si number density = 22.135514 Si / 1000 Ang^3
#
#
#
# Elastic Constant Matrix: (Units=GPa)
#
#
# Indices 1 2 3 4 5 6 
#
# 1 44.3114 14.3830 -11.4595 -9.6691 8.7901 -1.8537
# 2 14.3830 158.2668 55.7249 10.8077 16.7903 -18.6989
# 3 -11.4595 55.7249 100.2789 6.0985 22.8867 3.4439
# 4 -9.6691 10.8077 6.0985 34.2502 -8.7738 -9.4415
# 5 8.7901 16.7903 22.8867 -8.7738 35.5393 -3.5900
# 6 -1.8537 -18.6989 3.4439 -9.4415 -3.5900 39.1497
#
#
#
# Elastic Compliance Matrix: (Units=1/GPa)
#
#
# Indices 1 2 3 4 5 6 
#
# 1 0.029110 -0.004988 0.007691 0.005988 -0.008420 -0.001009
# 2 -0.004988 0.009477 -0.005999 -0.001971 0.000577 0.004395
# 3 0.007691 -0.005999 0.017284 -0.003660 -0.011706 -0.005978
# 4 0.005988 -0.001971 -0.003660 0.038031 0.012202 0.009955
# 5 -0.008420 0.000577 -0.011706 0.012202 0.041270 0.007634
# 6 -0.001009 0.004395 -0.005978 0.009955 0.007634 0.031221
#
#
# Mechanical properties :
#
#
# Convention : Reuss Voigt Hill
#
# Bulk Modulus (GPa) = 20.29306 46.68377 33.48841
# Shear Modulus (GPa) = 26.39752 38.06842 32.23297
#
# Velocity S-wave (km/s) = 3.45707 4.15153 3.82011
# Velocity P-wave (km/s) = 5.01225 6.64199 5.88382
#
# Compressibility (1/GPa) = 0.04927793
#
# Stress axis : x y z
#
# Youngs Moduli (GPa) = 34.35233 105.52259 57.85595
#
# Poissons Ratio (x) = 0.52636 -0.44495
# Poissons Ratio (y) = 0.17135 0.34708
# Poissons Ratio (z) = -0.26419 0.63304
#
# Static dielectric constant tensor:
#      x y z
#    x 1.913370 0.018530 -0.011000 
#    y 0.018530 1.765700 -0.001110 
#    z -0.011000 -0.001110 1.845190 
# 
# From -- ./inp_files/427854.got.cif
#   From: 2010.05.17/outbox.cif.g08.bks.cpg/sg2_214_cif.got.tgz:427854.got - 2010.06.03 11:33:40.
