data_PCOD9061443
_publ_section_title
;
Structure prediction by ZEFSAII (Michael W. Deem and Ramdas Pophale) SiO2 
 PCOD9061443
Probable space group: P -1
;
_chemical_formula_sum "Si O2"
_cell_formula_units_Z 16
_cell_length_a 11.564490
_cell_length_b 24.235765
_cell_length_c 8.575938
_cell_angle_alpha 27.021632
_cell_angle_beta 137.689480
_cell_angle_gamma 143.579163
_cell_volume 646.054617
_symmetry_space_group_name_H-M "P -1"
_symmetry_group_IT_number 2
_symmetry_cell_setting 'triclinic'
loop_
_space_group_symop_operation_xyz
x,y,z
-x,-y,-z
loop_
_atom_site_type_symbol
_atom_site_label
_atom_site_fract_x
_atom_site_fract_y
_atom_site_fract_z
Si Si1 0.029093 0.908555 0.396667
Si Si2 0.586597 0.375429 0.640516
Si Si3 0.225322 0.833224 0.214917
Si Si4 0.776395 0.601317 0.828208
Si Si5 0.293384 0.680255 0.398915
Si Si6 0.119693 0.416577 0.361769
Si Si7 0.606802 0.850329 0.718040
Si Si8 0.267797 0.134662 0.510850
O O1 0.952939 0.754086 0.647523
O O2 0.895868 0.885334 0.477016
O O3 0.252130 0.002411 0.434971
O O4 0.000000 0.000000 0.000000
O O5 0.424758 0.398877 0.328804
O O6 0.696759 0.318871 0.779381
O O7 0.741932 0.514344 0.527770
O O8 0.470835 0.263717 0.938821
O O9 0.199560 0.754932 0.221132
O O10 0.418048 0.844532 0.461696
O O11 0.041981 0.737862 0.377265
O O12 0.250089 0.984101 0.848783
O O13 0.760494 0.568479 0.711672
O O14 0.796658 0.479736 0.239288
O O15 0.521114 0.761743 0.471140
O O16 0.000000 0.500000 0.000000
O O17 0.725882 0.819532 0.778043
#
# Coordination Sequence:
#
# PCOD9061443 Si02
#       8
#     2   2   2   2   2   2   2   2
#     4  12  24  45  70 106 139 178 233 286 336 407
#     4  12  25  44  75 100 138 183 228 288 343 403
#     4  11  25  48  71  99 142 185 224 283 340 416
#     4  12  25  47  72 102 142 177 229 291 340 405
#     4  11  23  46  72 103 141 175 233 284 344 402
#     4  12  24  47  68 102 139 182 228 279 343 414
#     4  11  23  45  70  98 139 186 229 274 346 407
#     4  11  24  47  71  99 144 180 231 282 341 408
#
# _framework density 24.765708
#
# number of rings (size 3 to 8) (size 9 to 14) (size 15 to 20)
#    0.000    0.500    5.000    4.125    0.000    1.500 
#    4.500    3.750    0.000    0.000    0.000    0.000 
#    0.000    0.000    0.000    0.000    0.000    0.000 
#
# Total GULP energy -89702.521666 kJ/mol
# GULP energy per Si atom -5606.407604 kJ/mol
# Density = 2.470934 g / cm^3
# Si number density = 24.765708 Si / 1000 Ang^3
#
#
#
# Elastic Constant Matrix: (Units=GPa)
#
#
# Indices 1 2 3 4 5 6 
#
# 1 103.4970 10.2617 43.2220 6.0783 -10.8345 -20.4214
# 2 10.2617 114.0586 31.1617 -21.1457 -2.5614 -0.7474
# 3 43.2220 31.1617 116.9593 -21.5291 -11.5314 -4.2059
# 4 6.0783 -21.1457 -21.5291 39.6771 1.1996 -2.9610
# 5 -10.8345 -2.5614 -11.5314 1.1996 48.5520 -3.9669
# 6 -20.4214 -0.7474 -4.2059 -2.9610 -3.9669 50.2053
#
#
#
# Elastic Compliance Matrix: (Units=1/GPa)
#
#
# Indices 1 2 3 4 5 6 
#
# 1 0.013435 -0.000592 -0.005326 -0.004966 0.002224 0.004893
# 2 -0.000592 0.010119 -0.001639 0.004600 -0.000098 0.000036
# 3 -0.005326 -0.001639 0.012269 0.006507 0.001424 -0.000667
# 4 -0.004966 0.004600 0.006507 0.031984 -0.000071 0.000474
# 5 0.002224 -0.000098 0.001424 -0.000071 0.021651 0.002729
# 6 0.004893 0.000036 -0.000667 0.000474 0.002729 0.022097
#
#
# Mechanical properties :
#
#
# Convention : Reuss Voigt Hill
#
# Bulk Modulus (GPa) = 48.28779 55.97843 52.13311
# Shear Modulus (GPa) = 37.43314 44.34484 40.88899
#
# Velocity S-wave (km/s) = 3.89201 4.23611 4.06770
# Velocity P-wave (km/s) = 6.30374 6.82484 6.56946
#
# Compressibility (1/GPa) = 0.02070917
#
# Stress axis : x y z
#
# Youngs Moduli (GPa) = 74.43313 98.82069 81.50664
#
# Poissons Ratio (x) = 0.05853 0.43409
# Poissons Ratio (y) = 0.04408 0.13358
# Poissons Ratio (z) = 0.39642 0.16195
#
# Static dielectric constant tensor:
#      x y z
#    x 1.972810 -0.004060 0.010280 
#    y -0.004060 1.932160 0.051930 
#    z 0.010280 0.051930 1.990760 
# 
# From -- ./inp_files/284579.got.cif
#   From: 2010.05.17/outbox.cif.g08.bks.cpg/sg2_143_cif.got.tgz:284579.got - 2010.06.03 11:33:40.
