data_PCOD9061581
_publ_section_title
;
Structure prediction by ZEFSAII (Michael W. Deem and Ramdas Pophale) SiO2 
 PCOD9061581
Probable space group: P -1
;
_chemical_formula_sum "Si O2"
_cell_formula_units_Z 14
_cell_length_a 10.864863
_cell_length_b 12.703702
_cell_length_c 6.941220
_cell_angle_alpha 129.510562
_cell_angle_beta 121.589219
_cell_angle_gamma 78.580507
_cell_volume 616.140335
_symmetry_space_group_name_H-M "P -1"
_symmetry_group_IT_number 2
_symmetry_cell_setting 'triclinic'
loop_
_space_group_symop_operation_xyz
x,y,z
-x,-y,-z
loop_
_atom_site_type_symbol
_atom_site_label
_atom_site_fract_x
_atom_site_fract_y
_atom_site_fract_z
Si Si1 0.956200 0.058550 0.830548
Si Si2 0.537505 0.777204 0.750049
Si Si3 0.178177 0.727158 0.868467
Si Si4 0.947180 0.600949 0.227075
Si Si5 0.631892 0.441703 0.934015
Si Si6 0.838959 0.837965 0.215347
Si Si7 0.415458 0.959746 0.182533
O O1 0.089774 0.075350 0.808996
O O2 0.821737 0.950088 0.495560
O O3 0.920602 0.212046 0.987495
O O4 0.000000 0.000000 0.000000
O O5 0.432987 0.647501 0.411150
O O6 0.576708 0.897916 0.761461
O O7 0.687864 0.741188 0.910028
O O8 0.475998 0.852862 0.966211
O O9 0.068565 0.625791 0.523085
O O10 0.304650 0.659603 0.985038
O O11 0.254547 0.870524 0.994378
O O12 0.943555 0.746293 0.289267
O O13 0.782215 0.548248 0.116983
O O14 0.000000 0.500000 0.000000
O O15 0.500000 0.500000 0.000000
O O16 0.500000 0.000000 0.500000
#
# Coordination Sequence:
#
# PCOD9061581 Si02
#       7
#     2   2   2   2   2   2   2
#     4  11  23  45  73 113 144 182 240 314 384 436
#     4  11  26  44  72 107 147 184 246 304 378 445
#     4  12  25  47  78 103 149 191 251 312 374 441
#     4  12  28  49  73 106 153 203 255 306 367 452
#     4  12  30  48  74 107 152 209 258 303 371 456
#     4  11  26  42  74 107 145 186 241 303 378 441
#     4  11  23  45  75 109 142 186 238 313 390 440
#
# _framework density 22.722097999999999
#
# number of rings (size 3 to 8) (size 9 to 14) (size 15 to 20)
#    0.000    0.571    2.857    3.857   10.000    1.714 
#    0.000    0.000    0.000    0.000    0.000    0.000 
#    0.000    0.000    0.000    0.000    0.000    0.000 
#
# Total GULP energy -78276.155471 kJ/mol
# GULP energy per Si atom -5591.153962 kJ/mol
# Density = 2.267038 g / cm^3
# Si number density = 22.722098 Si / 1000 Ang^3
#
#
#
# Elastic Constant Matrix: (Units=GPa)
#
#
# Indices 1 2 3 4 5 6 
#
# 1 86.5288 24.7706 56.1265 -7.3799 1.6679 -4.1620
# 2 24.7706 70.0248 27.0898 -9.7603 -13.2177 -12.2227
# 3 56.1265 27.0898 197.4301 -1.1502 7.3003 -17.3755
# 4 -7.3799 -9.7603 -1.1502 34.4862 -1.3771 3.8407
# 5 1.6679 -13.2177 7.3003 -1.3771 40.8491 4.2715
# 6 -4.1620 -12.2227 -17.3755 3.8407 4.2715 49.2433
#
#
#
# Elastic Compliance Matrix: (Units=1/GPa)
#
#
# Indices 1 2 3 4 5 6 
#
# 1 0.015365 -0.004047 -0.003862 0.002099 -0.001057 -0.001141
# 2 -0.004047 0.018507 -0.001339 0.004252 0.006232 0.002907
# 3 -0.003862 -0.001339 0.006569 -0.001266 -0.001691 0.001905
# 4 0.002099 0.004252 -0.001266 0.030925 0.002754 -0.001865
# 5 -0.001057 0.006232 -0.001691 0.002754 0.027114 -0.001706
# 6 -0.001141 0.002907 0.001905 -0.001865 -0.001706 0.021898
#
#
# Mechanical properties :
#
#
# Convention : Reuss Voigt Hill
#
# Bulk Modulus (GPa) = 45.56710 63.32861 54.44785
# Shear Modulus (GPa) = 34.20255 41.31550 37.75903
#
# Velocity S-wave (km/s) = 3.88397 4.26877 4.08091
# Velocity P-wave (km/s) = 6.34123 7.22690 6.79850
#
# Compressibility (1/GPa) = 0.02194566
#
# Stress axis : x y z
#
# Youngs Moduli (GPa) = 65.08361 54.03471 152.22092
#
# Poissons Ratio (x) = 0.21869 0.58784
# Poissons Ratio (y) = 0.26341 0.20376
# Poissons Ratio (z) = 0.25134 0.07233
#
# Static dielectric constant tensor:
#      x y z
#    x 2.002070 -0.002950 -0.010280 
#    y -0.002950 1.832080 0.025290 
#    z -0.010280 0.025290 1.870370 
# 
# From -- ./inp_files/72473.got.cif
#   From: 2010.05.17/outbox.cif.g08.bks.cpg/sg2_37_cif.got.tgz:72473.got - 2010.06.03 11:33:40.
