data_PCOD9061851
_publ_section_title
;
Structure prediction by ZEFSAII (Michael W. Deem and Ramdas Pophale) SiO2 
 PCOD9061851
Probable space group: P -1
;
_chemical_formula_sum "Si O2"
_cell_formula_units_Z 16
_cell_length_a 11.626424
_cell_length_b 18.191810
_cell_length_c 21.375203
_cell_angle_alpha 19.367251
_cell_angle_beta 30.909803
_cell_angle_gamma 40.696705
_cell_volume 734.463320
_symmetry_space_group_name_H-M "P -1"
_symmetry_group_IT_number 2
_symmetry_cell_setting 'triclinic'
loop_
_space_group_symop_operation_xyz
x,y,z
-x,-y,-z
loop_
_atom_site_type_symbol
_atom_site_label
_atom_site_fract_x
_atom_site_fract_y
_atom_site_fract_z
Si Si1 0.923670 0.643297 0.593744
Si Si2 0.251476 0.965664 0.396273
Si Si3 0.032736 0.459546 0.943619
Si Si4 0.756217 0.284083 0.729732
Si Si5 0.686041 0.162409 0.124253
Si Si6 0.571593 0.267314 0.233042
Si Si7 0.086960 0.184140 0.755122
Si Si8 0.252429 0.045425 0.188163
O O1 0.660356 0.657382 0.708753
O O2 0.066493 0.742680 0.385109
O O3 0.891753 0.371499 0.830663
O O4 0.076483 0.793852 0.456792
O O5 0.212044 0.691499 0.644951
O O6 0.449036 0.103260 0.241836
O O7 0.312426 0.051731 0.228385
O O8 0.000000 0.000000 0.500000
O O9 0.788767 0.408644 0.060706
O O10 0.000000 0.500000 0.000000
O O11 0.121611 0.234219 0.079979
O O12 0.757709 0.553336 0.511605
O O13 0.864877 0.227101 0.789487
O O14 0.495383 0.113832 0.982590
O O15 0.642957 0.259408 0.133811
O O16 0.771169 0.934291 0.263538
O O17 0.500000 0.000000 0.500000
O O18 0.000000 0.000000 0.000000
#
# Coordination Sequence:
#
# PCOD9061851 Si02
#       8
#     2   2   2   2   2   2   2   2
#     4  12  25  47  69 103 147 184 238 292 358 429
#     4  12  24  44  70 104 144 182 235 295 356 420
#     4  12  25  45  74 104 145 187 234 295 359 424
#     4  11  26  45  74  99 143 189 239 294 349 424
#     4  12  25  45  76 103 143 188 237 300 357 423
#     4  12  24  44  71 107 142 186 234 293 360 425
#     4  11  23  46  72 105 136 187 244 291 351 420
#     4  12  26  46  69 105 142 187 239 289 359 423
#
# _framework density 21.784614999999999
#
# number of rings (size 3 to 8) (size 9 to 14) (size 15 to 20)
#    0.000    0.250    3.750    6.000    1.750    0.000 
#    0.000    0.625    0.000    0.000    0.000    0.000 
#    0.000    0.000    0.000    0.000    0.000    0.000 
#
# Total GULP energy -89534.243738 kJ/mol
# GULP energy per Si atom -5595.890234 kJ/mol
# Density = 2.173503 g / cm^3
# Si number density = 21.784615 Si / 1000 Ang^3
#
#
#
# Elastic Constant Matrix: (Units=GPa)
#
#
# Indices 1 2 3 4 5 6 
#
# 1 136.3559 39.0140 54.4316 10.6379 -19.5236 8.2081
# 2 39.0140 103.1020 26.3197 9.2676 -3.3686 0.3035
# 3 54.4316 26.3197 101.0491 5.7422 -10.8020 -5.2028
# 4 10.6379 9.2676 5.7422 41.6698 0.9547 4.6181
# 5 -19.5236 -3.3686 -10.8020 0.9547 48.2025 -0.5047
# 6 8.2081 0.3035 -5.2028 4.6181 -0.5047 26.9050
#
#
#
# Elastic Compliance Matrix: (Units=1/GPa)
#
#
# Indices 1 2 3 4 5 6 
#
# 1 0.010833 -0.002618 -0.004966 -0.001128 0.003072 -0.003984
# 2 -0.002618 0.011187 -0.001433 -0.001684 -0.000559 0.000674
# 3 -0.004966 -0.001433 0.013304 -0.000739 0.000929 0.004248
# 4 -0.001128 -0.001684 -0.000739 0.025250 -0.001284 -0.004138
# 5 0.003072 -0.000559 0.000929 -0.001284 0.022184 -0.000115
# 6 -0.003984 0.000674 0.004248 -0.004138 -0.000115 0.039905
#
#
# Mechanical properties :
#
#
# Convention : Reuss Voigt Hill
#
# Bulk Modulus (GPa) = 57.83615 64.44861 61.14238
# Shear Modulus (GPa) = 34.13882 38.07159 36.10521
#
# Velocity S-wave (km/s) = 3.96296 4.18501 4.07550
# Velocity P-wave (km/s) = 6.89542 7.28018 7.09041
#
# Compressibility (1/GPa) = 0.01729022
#
# Stress axis : x y z
#
# Youngs Moduli (GPa) = 92.31096 89.39189 75.16267
#
# Poissons Ratio (x) = 0.23403 0.37326
# Poissons Ratio (y) = 0.24167 0.10770
# Poissons Ratio (z) = 0.45842 0.12809
#
# Static dielectric constant tensor:
#      x y z
#    x 1.746760 0.003600 0.004490 
#    y 0.003600 1.826780 -0.007200 
#    z 0.004490 -0.007200 1.779600 
# 
# From -- ./inp_files/405654.got.cif
#   From: 2010.05.17/outbox.cif.g08.bks.cpg/sg2_203_cif.got.tgz:405654.got - 2010.06.03 11:33:40.
