data_PCOD9061157
_publ_section_title
;
Structure prediction by ZEFSAII (Michael W. Deem and Ramdas Pophale) SiO2 
 PCOD9061157
Probable space group: P -1
;
_chemical_formula_sum "Si O2"
_cell_formula_units_Z 14
_cell_length_a 13.940117
_cell_length_b 5.494621
_cell_length_c 9.457608
_cell_angle_alpha 95.390674
_cell_angle_beta 84.741714
_cell_angle_gamma 132.691519
_cell_volume 529.711875
_symmetry_space_group_name_H-M "P -1"
_symmetry_group_IT_number 2
_symmetry_cell_setting 'triclinic'
loop_
_space_group_symop_operation_xyz
x,y,z
-x,-y,-z
loop_
_atom_site_type_symbol
_atom_site_label
_atom_site_fract_x
_atom_site_fract_y
_atom_site_fract_z
Si Si1 0.162672 0.603096 0.341923
Si Si2 0.670643 0.270211 0.910091
Si Si3 0.355707 0.334222 0.461563
Si Si4 0.681220 0.811092 0.081634
Si Si5 0.523904 0.879525 0.270511
Si Si6 0.946117 0.454769 0.164994
Si Si7 0.801542 0.560124 0.370143
O O1 0.213025 0.510751 0.207545
O O2 0.140339 0.443062 0.489316
O O3 0.043362 0.535292 0.279067
O O4 0.281606 0.998011 0.369233
O O5 0.687265 0.048292 0.982034
O O6 0.531915 0.039311 0.836405
O O7 0.677050 0.535335 0.006784
O O8 0.500000 0.500000 0.500000
O O9 0.403290 0.643625 0.378475
O O10 0.248354 0.252435 0.580111
O O11 0.814923 0.071565 0.161940
O O12 0.556923 0.674894 0.184731
O O13 0.659932 0.194523 0.335310
O O14 0.895759 0.638598 0.233338
O O15 0.000000 0.500000 0.000000
#
# Coordination Sequence:
#
# PCOD9061157 Si02
#       7
#     2   2   2   2   2   2   2
#     4  12  25  46  72 105 149 197 250 306 378 445
#     4  12  24  45  76 109 154 198 248 311 387 448
#     4  12  24  44  75 109 151 196 247 314 382 463
#     4  11  27  48  72 113 151 203 250 316 380 447
#     4  11  23  44  73 109 151 192 253 311 385 459
#     4  11  26  51  73 104 147 197 263 312 368 449
#     4  11  25  47  71 106 145 199 247 312 383 448
#
# _framework density 26.429462000000001
#
# number of rings (size 3 to 8) (size 9 to 14) (size 15 to 20)
#    0.000    0.571    4.286    3.429    0.000    4.571 
#    2.571    0.000    0.000    0.000    0.000    0.000 
#    0.000    0.000    0.000    0.000    0.000    0.000 
#
# Total GULP energy -78367.004531 kJ/mol
# GULP energy per Si atom -5597.643181 kJ/mol
# Density = 2.636931 g / cm^3
# Si number density = 26.429462 Si / 1000 Ang^3
#
#
#
# Elastic Constant Matrix: (Units=GPa)
#
#
# Indices 1 2 3 4 5 6 
#
# 1 185.6290 44.3886 69.5354 6.9230 13.0580 14.7152
# 2 44.3886 62.1763 37.0663 4.3917 13.2113 -0.3746
# 3 69.5354 37.0663 160.6986 -5.2267 -23.4256 -0.4718
# 4 6.9230 4.3917 -5.2267 39.4174 -4.2796 -6.3789
# 5 13.0580 13.2113 -23.4256 -4.2796 72.1433 1.6083
# 6 14.7152 -0.3746 -0.4718 -6.3789 1.6083 31.7112
#
#
#
# Elastic Compliance Matrix: (Units=1/GPa)
#
#
# Indices 1 2 3 4 5 6 
#
# 1 0.007825 -0.003287 -0.002979 -0.002261 -0.001825 -0.004077
# 2 -0.003287 0.022509 -0.004621 -0.002883 -0.005230 0.001408
# 3 -0.002979 -0.004621 0.009348 0.003073 0.004562 0.001854
# 4 -0.002261 -0.002883 0.003073 0.027922 0.003446 0.006503
# 5 -0.001825 -0.005230 0.004562 0.003446 0.016820 0.000693
# 6 -0.004077 0.001408 0.001854 0.006503 0.000693 0.034743
#
#
# Mechanical properties :
#
#
# Convention : Reuss Voigt Hill
#
# Bulk Modulus (GPa) = 55.84705 78.94272 67.39488
# Shear Modulus (GPa) = 34.03411 45.82196 39.92803
#
# Velocity S-wave (km/s) = 3.59239 4.16834 3.89104
# Velocity P-wave (km/s) = 6.19544 7.28703 6.76330
#
# Compressibility (1/GPa) = 0.01790605
#
# Stress axis : x y z
#
# Youngs Moduli (GPa) = 127.79473 44.42739 106.97139
#
# Poissons Ratio (x) = 0.14605 0.31869
# Poissons Ratio (y) = 0.42012 0.49435
# Poissons Ratio (z) = 0.38073 0.20531
#
# Static dielectric constant tensor:
#      x y z
#    x 2.144590 -0.082690 0.065240 
#    y -0.082690 2.054630 -0.064410 
#    z 0.065240 -0.064410 2.300880 
# 
# From -- ./inp_files/408733.got.cif
#   From: 2010.05.17/outbox.cif.g08.bks.cpg/sg2_205_cif.got.tgz:408733.got - 2010.06.03 11:33:40.
