data_PCOD9061641
_publ_section_title
;
Structure prediction by ZEFSAII (Michael W. Deem and Ramdas Pophale) SiO2 
 PCOD9061641
Probable space group: P -1
;
_chemical_formula_sum "Si O2"
_cell_formula_units_Z 14
_cell_length_a 8.697318
_cell_length_b 9.196483
_cell_length_c 9.454702
_cell_angle_alpha 84.264610
_cell_angle_beta 61.273261
_cell_angle_gamma 92.417552
_cell_volume 656.300259
_symmetry_space_group_name_H-M "P -1"
_symmetry_group_IT_number 2
_symmetry_cell_setting 'triclinic'
loop_
_space_group_symop_operation_xyz
x,y,z
-x,-y,-z
loop_
_atom_site_type_symbol
_atom_site_label
_atom_site_fract_x
_atom_site_fract_y
_atom_site_fract_z
Si Si1 0.166504 0.438256 0.858025
Si Si2 0.842798 0.149019 0.496188
Si Si3 0.355207 0.920161 0.672314
Si Si4 0.179548 0.523592 0.512612
Si Si5 0.492348 0.362990 0.254651
Si Si6 0.231598 0.130020 0.257550
Si Si7 0.821584 0.902366 0.047217
O O1 0.155767 0.480555 0.692583
O O2 0.344960 0.512465 0.848067
O O3 0.165043 0.263547 0.891181
O O4 0.000000 0.500000 0.000000
O O5 0.814524 0.098578 0.351461
O O6 0.764783 0.302017 0.538082
O O7 0.054904 0.176340 0.408906
O O8 0.754913 0.022744 0.650181
O O9 0.414175 0.761408 0.692120
O O10 0.500000 0.000000 0.500000
O O11 0.324703 0.017149 0.812023
O O12 0.337052 0.435639 0.395661
O O13 0.000000 0.500000 0.500000
O O14 0.387992 0.261179 0.192045
O O15 0.208361 0.098645 0.106325
O O16 0.000000 0.000000 0.000000
#
# Coordination Sequence:
#
# PCOD9061641 Si02
#       7
#     2   2   2   2   2   2   2
#     4  12  28  48  72 108 149 193 236 300 367 424
#     4  11  23  45  75 106 145 186 243 297 359 423
#     4  12  24  45  72 106 142 189 237 299 356 431
#     4  12  26  46  77 107 140 188 242 299 364 427
#     4  12  26  46  74 106 147 187 247 292 358 436
#     4  11  25  46  73 109 142 191 243 301 351 431
#     4  12  27  47  74 102 144 192 241 292 366 425
#
# _framework density 21.331700000000001
#
# number of rings (size 3 to 8) (size 9 to 14) (size 15 to 20)
#    0.000    0.286    5.714    3.000    4.000    1.143 
#    0.000    0.000    0.000    0.000    0.000    0.000 
#    0.000    0.000    0.000    0.000    0.000    0.000 
#
# Total GULP energy -78205.792624 kJ/mol
# GULP energy per Si atom -5586.128045 kJ/mol
# Density = 2.128315 g / cm^3
# Si number density = 21.331700 Si / 1000 Ang^3
#
#
#
# Elastic Constant Matrix: (Units=GPa)
#
#
# Indices 1 2 3 4 5 6 
#
# 1 129.3453 57.5504 64.9083 2.5457 -2.4856 22.2848
# 2 57.5504 194.0308 78.8182 -6.1295 3.5099 -5.8035
# 3 64.9083 78.8182 114.8755 22.7962 4.0091 -4.1763
# 4 2.5457 -6.1295 22.7962 24.0576 -1.6550 -1.3932
# 5 -2.4856 3.5099 4.0091 -1.6550 44.5099 -0.4957
# 6 22.2848 -5.8035 -4.1763 -1.3932 -0.4957 52.7165
#
#
#
# Elastic Compliance Matrix: (Units=1/GPa)
#
#
# Indices 1 2 3 4 5 6 
#
# 1 0.013320 -0.000333 -0.008917 0.006718 0.001754 -0.006180
# 2 -0.000333 0.008677 -0.007647 0.009560 0.000350 0.000746
# 3 -0.008917 -0.007647 0.023934 -0.023641 -0.002883 0.004172
# 4 0.006718 0.009560 -0.023641 0.065872 0.004179 -0.001880
# 5 0.001754 0.000350 -0.002883 0.004179 0.022946 -0.000605
# 6 -0.006180 0.000746 0.004172 -0.001880 -0.000605 0.021939
#
#
# Mechanical properties :
#
#
# Convention : Reuss Voigt Hill
#
# Bulk Modulus (GPa) = 82.39468 93.42282 87.90875
# Shear Modulus (GPa) = 25.70321 40.05512 32.87916
#
# Velocity S-wave (km/s) = 3.47498 4.33798 3.93024
# Velocity P-wave (km/s) = 7.40337 8.30549 7.86737
#
# Compressibility (1/GPa) = 0.01213671
#
# Stress axis : x y z
#
# Youngs Moduli (GPa) = 75.07311 115.24561 41.78141
#
# Poissons Ratio (x) = 0.03838 0.37256
# Poissons Ratio (y) = 0.02500 0.31952
# Poissons Ratio (z) = 0.66942 0.88134
#
# Static dielectric constant tensor:
#      x y z
#    x 1.874090 0.037800 -0.023860 
#    y 0.037800 1.711280 -0.013600 
#    z -0.023860 -0.013600 1.747180 
# 
# From -- ./inp_files/157893.got.cif
#   From: 2010.05.17/outbox.cif.g08.bks.cpg/sg2_79_cif.got.tgz:157893.got - 2010.06.03 11:33:40.
