data_PCOD9061740
_publ_section_title
;
Structure prediction by ZEFSAII (Michael W. Deem and Ramdas Pophale) SiO2 
 PCOD9061740
Probable space group: P -1
;
_chemical_formula_sum "Si O2"
_cell_formula_units_Z 14
_cell_length_a 9.092110
_cell_length_b 5.357496
_cell_length_c 22.360211
_cell_angle_alpha 111.679579
_cell_angle_beta 141.274983
_cell_angle_gamma 56.729812
_cell_volume 566.111733
_symmetry_space_group_name_H-M "P -1"
_symmetry_group_IT_number 2
_symmetry_cell_setting 'triclinic'
loop_
_space_group_symop_operation_xyz
x,y,z
-x,-y,-z
loop_
_atom_site_type_symbol
_atom_site_label
_atom_site_fract_x
_atom_site_fract_y
_atom_site_fract_z
Si Si1 0.776254 0.751787 0.990914
Si Si2 0.175139 0.453295 0.680081
Si Si3 0.004375 0.447661 0.832717
Si Si4 0.194634 0.948854 0.334898
Si Si5 0.664130 0.423089 0.484046
Si Si6 0.437553 0.049313 0.310173
Si Si7 0.446954 0.396657 0.887233
O O1 0.561474 0.629748 0.926922
O O2 0.659236 0.067909 0.947611
O O3 0.000000 0.500000 0.000000
O O4 0.904440 0.744662 0.095376
O O5 0.307961 0.367573 0.779488
O O6 0.992842 0.811549 0.656066
O O7 0.960482 0.335960 0.586792
O O8 0.401774 0.294447 0.689016
O O9 0.735650 0.752168 0.782357
O O10 0.240065 0.503207 0.885648
O O11 0.931217 0.265089 0.743578
O O12 0.221338 0.109493 0.297925
O O13 0.500590 0.745920 0.429230
O O14 0.500000 0.500000 0.500000
O O15 0.622932 0.183720 0.408933
#
# Coordination Sequence:
#
# PCOD9061740 Si02
#       7
#     2   2   2   2   2   2   2
#     4  12  28  47  76 113 149 193 255 313 375 452
#     4  12  24  45  73 103 148 188 251 303 370 441
#     4  11  25  48  73 103 153 190 248 306 375 448
#     4  11  24  46  70 105 143 195 242 306 372 439
#     4  11  23  46  68 101 146 192 241 306 371 441
#     4  11  25  44  71 106 141 193 245 304 369 444
#     4  12  26  47  74 111 145 205 245 307 382 446
#
# _framework density 24.730098000000002
#
# number of rings (size 3 to 8) (size 9 to 14) (size 15 to 20)
#    0.000    0.571    2.857    4.714    4.000    0.571 
#   10.286    0.000    0.000    0.000    0.000    0.000 
#    0.000    0.000    0.000    0.000    0.000    0.000 
#
# Total GULP energy -78357.041285 kJ/mol
# GULP energy per Si atom -5596.931520 kJ/mol
# Density = 2.467381 g / cm^3
# Si number density = 24.730098 Si / 1000 Ang^3
#
#
#
# Elastic Constant Matrix: (Units=GPa)
#
#
# Indices 1 2 3 4 5 6 
#
# 1 35.1855 19.2871 2.5406 15.9354 3.0188 -13.7966
# 2 19.2871 103.5901 10.1760 10.0205 -2.5659 -19.2009
# 3 2.5406 10.1760 102.1903 -3.6015 -0.8980 -1.7642
# 4 15.9354 10.0205 -3.6015 22.4955 8.0981 -8.7915
# 5 3.0188 -2.5659 -0.8980 8.0981 30.4156 2.6487
# 6 -13.7966 -19.2009 -1.7642 -8.7915 2.6487 45.6816
#
#
#
# Elastic Compliance Matrix: (Units=1/GPa)
#
#
# Indices 1 2 3 4 5 6 
#
# 1 0.046722 -0.004431 -0.001639 -0.029744 0.002309 0.006327
# 2 -0.004431 0.011309 -0.001001 -0.001411 0.001477 0.003020
# 3 -0.001639 -0.001001 0.010047 0.003490 -0.000570 0.000177
# 4 -0.029744 -0.001411 0.003490 0.075465 -0.017688 0.006108
# 5 0.002309 0.001477 -0.000570 -0.017688 0.037841 -0.004302
# 6 0.006327 0.003020 0.000177 0.006108 -0.004302 0.026502
#
#
# Mechanical properties :
#
#
# Convention : Reuss Voigt Hill
#
# Bulk Modulus (GPa) = 18.54017 33.88593 26.21305
# Shear Modulus (GPa) = 20.83279 33.64934 27.24107
#
# Velocity S-wave (km/s) = 2.90557 3.69272 3.32254
# Velocity P-wave (km/s) = 4.33241 5.64921 5.03405
#
# Compressibility (1/GPa) = 0.05393694
#
# Stress axis : x y z
#
# Youngs Moduli (GPa) = 21.40341 88.42176 99.53126
#
# Poissons Ratio (x) = 0.39178 0.16314
# Poissons Ratio (y) = 0.09483 0.09960
# Poissons Ratio (z) = 0.03508 0.08848
#
# Static dielectric constant tensor:
#      x y z
#    x 1.939890 0.057150 -0.026260 
#    y 0.057150 2.064640 -0.139820 
#    z -0.026260 -0.139820 2.141940 
# 
# From -- ./inp_files/553661.got.cif
#   From: 2010.05.17/outbox.cif.g08.bks.cpg/sg2_277_cif.got.tgz:553661.got - 2010.06.03 11:33:40.
