data_PCOD9061554
_publ_section_title
;
Structure prediction by ZEFSAII (Michael W. Deem and Ramdas Pophale) SiO2 
 PCOD9061554
Probable space group: P -1
;
_chemical_formula_sum "Si O2"
_cell_formula_units_Z 14
_cell_length_a 14.123632
_cell_length_b 11.661582
_cell_length_c 17.204721
_cell_angle_alpha 43.024331
_cell_angle_beta 25.138346
_cell_angle_gamma 30.041170
_cell_volume 583.900133
_symmetry_space_group_name_H-M "P -1"
_symmetry_group_IT_number 2
_symmetry_cell_setting 'triclinic'
loop_
_space_group_symop_operation_xyz
x,y,z
-x,-y,-z
loop_
_atom_site_type_symbol
_atom_site_label
_atom_site_fract_x
_atom_site_fract_y
_atom_site_fract_z
Si Si1 0.780326 0.380278 0.514474
Si Si2 0.328331 0.176243 0.611899
Si Si3 0.271913 0.981132 0.472782
Si Si4 0.361044 0.134892 0.116169
Si Si5 0.230753 0.762785 0.997242
Si Si6 0.352611 0.321085 0.794031
Si Si7 0.306196 0.740316 0.130800
O O1 0.651437 0.633098 0.502110
O O2 0.535433 0.362268 0.689283
O O3 0.021342 0.199904 0.492756
O O4 0.000208 0.283635 0.322791
O O5 0.975091 0.298286 0.809399
O O6 0.500000 0.000000 0.500000
O O7 0.491035 0.036533 0.641576
O O8 0.027354 0.043838 0.688552
O O9 0.499275 0.738193 0.373758
O O10 0.540213 0.926569 0.148382
O O11 0.446883 0.279426 0.995592
O O12 0.500000 0.000000 0.000000
O O13 0.288239 0.796506 0.025223
O O14 0.559844 0.522277 0.836116
O O15 0.000000 0.000000 0.000000
O O16 0.000000 0.500000 0.000000
#
# Coordination Sequence:
#
# PCOD9061554 Si02
#       7
#     2   2   2   2   2   2   2
#     4  11  26  49  71 106 150 189 245 302 371 438
#     4  12  27  47  71 109 146 196 249 298 361 436
#     4  11  26  45  76 104 150 191 242 301 372 430
#     4  11  23  45  73 102 149 187 241 297 372 438
#     4  11  27  46  74 108 148 191 251 299 358 435
#     4  11  27  46  75 110 142 192 246 307 374 437
#     4  11  24  47  73 108 148 197 237 302 371 431
#
# _framework density 23.976703000000001
#
# number of rings (size 3 to 8) (size 9 to 14) (size 15 to 20)
#    0.000    0.857    2.857    3.429   10.000    2.286 
#    0.000    0.000    0.000    0.000    0.000    0.000 
#    0.000    0.000    0.000    0.000    0.000    0.000 
#
# Total GULP energy -78147.371509 kJ/mol
# GULP energy per Si atom -5581.955108 kJ/mol
# Density = 2.392213 g / cm^3
# Si number density = 23.976703 Si / 1000 Ang^3
#
#
#
# Elastic Constant Matrix: (Units=GPa)
#
#
# Indices 1 2 3 4 5 6 
#
# 1 158.1046 43.5705 54.5714 14.0987 9.3589 11.6547
# 2 43.5705 100.4717 28.4190 29.2901 18.7382 1.0453
# 3 54.5714 28.4190 134.5495 37.0983 4.5642 17.3327
# 4 14.0987 29.2901 37.0983 32.3938 5.4450 0.7074
# 5 9.3589 18.7382 4.5642 5.4450 36.9217 9.3379
# 6 11.6547 1.0453 17.3327 0.7074 9.3379 42.0663
#
#
#
# Elastic Compliance Matrix: (Units=1/GPa)
#
#
# Indices 1 2 3 4 5 6 
#
# 1 0.008278 -0.003657 -0.003522 0.003783 -0.000168 -0.000778
# 2 -0.003657 0.016252 0.002099 -0.014568 -0.005752 0.001266
# 3 -0.003522 0.002099 0.013319 -0.015801 0.001693 -0.004674
# 4 0.003783 -0.014568 -0.015801 0.060694 -0.001884 0.005222
# 5 -0.000168 -0.005752 0.001693 -0.001884 0.032034 -0.007587
# 6 -0.000778 0.001266 -0.004674 0.005222 -0.007587 0.027478
#
#
# Mechanical properties :
#
#
# Convention : Reuss Voigt Hill
#
# Bulk Modulus (GPa) = 36.11561 71.80530 53.96045
# Shear Modulus (GPa) = 28.17788 40.04736 34.11262
#
# Velocity S-wave (km/s) = 3.43187 4.09132 3.77601
# Velocity P-wave (km/s) = 5.54969 7.23405 6.44711
#
# Compressibility (1/GPa) = 0.02768886
#
# Stress axis : x y z
#
# Youngs Moduli (GPa) = 120.79553 61.53194 75.08267
#
# Poissons Ratio (x) = 0.22502 0.26446
# Poissons Ratio (y) = 0.44175 -0.15762
# Poissons Ratio (z) = 0.42548 -0.12918
#
# Static dielectric constant tensor:
#      x y z
#    x 2.083390 -0.238290 0.148290 
#    y -0.238290 2.138560 -0.080690 
#    z 0.148290 -0.080690 1.983380 
# 
# From -- ./inp_files/573404.got.cif
#   From: 2010.05.17/outbox.cif.g08.bks.cpg/sg2_287_cif.got.tgz:573404.got - 2010.06.03 11:33:40.
