data_PCOD9061992
_publ_section_title
;
Structure prediction by ZEFSAII (Michael W. Deem and Ramdas Pophale) SiO2 
 PCOD9061992
Probable space group: P -1
;
_chemical_formula_sum "Si O2"
_cell_formula_units_Z 16
_cell_length_a 18.997814
_cell_length_b 11.104933
_cell_length_c 15.720271
_cell_angle_alpha 146.592985
_cell_angle_beta 22.374709
_cell_angle_gamma 135.055474
_cell_volume 661.739820
_symmetry_space_group_name_H-M "P -1"
_symmetry_group_IT_number 2
_symmetry_cell_setting 'triclinic'
loop_
_space_group_symop_operation_xyz
x,y,z
-x,-y,-z
loop_
_atom_site_type_symbol
_atom_site_label
_atom_site_fract_x
_atom_site_fract_y
_atom_site_fract_z
Si Si1 0.163618 0.634945 0.223614
Si Si2 0.886915 0.558821 0.015210
Si Si3 0.267448 0.174341 0.204856
Si Si4 0.424761 0.764653 0.219149
Si Si5 0.532388 0.734922 0.626046
Si Si6 0.999969 0.018161 0.907745
Si Si7 0.644669 0.836080 0.174848
Si Si8 0.789806 0.858061 0.548900
O O1 0.933778 0.673706 0.520518
O O2 0.196224 0.886880 0.336812
O O3 0.189389 0.538925 0.041144
O O4 0.287921 0.428647 0.022908
O O5 0.706744 0.734510 0.367885
O O6 0.020741 0.716240 0.932036
O O7 0.008175 0.345605 0.811400
O O8 0.238694 0.166847 0.333117
O O9 0.465154 0.223319 0.985100
O O10 0.321508 0.915572 0.959341
O O11 0.196751 0.864395 0.551190
O O12 0.531703 0.868614 0.232483
O O13 0.500000 0.500000 0.000000
O O14 0.500000 0.500000 0.500000
O O15 0.620895 0.786108 0.646691
O O16 0.828628 0.926164 0.014264
O O17 0.000000 0.000000 0.000000
O O18 0.500000 0.000000 0.500000
#
# Coordination Sequence:
#
# PCOD9061992 Si02
#       8
#     2   2   2   2   2   2   2   2
#     4  11  24  48  77 108 153 197 253 309 380 459
#     4  11  23  46  77 105 151 196 250 315 370 451
#     4  11  25  47  70 110 152 197 244 311 382 450
#     4  12  28  47  75 113 151 196 258 314 378 452
#     4  12  25  45  71 111 150 191 256 306 370 455
#     4  12  24  50  75 112 153 197 257 314 380 451
#     4  12  27  48  83 113 147 205 256 315 388 448
#     4  11  26  46  74 110 149 206 245 310 386 445
#
# _framework density 24.178685999999999
#
# number of rings (size 3 to 8) (size 9 to 14) (size 15 to 20)
#    0.000    0.500    3.750    4.500    3.500    4.000 
#    2.250    0.000    0.000    0.000    0.000    0.000 
#    0.000    0.000    0.000    0.000    0.000    0.000 
#
# Total GULP energy -89479.518569 kJ/mol
# GULP energy per Si atom -5592.469911 kJ/mol
# Density = 2.412365 g / cm^3
# Si number density = 24.178686 Si / 1000 Ang^3
#
#
#
# Elastic Constant Matrix: (Units=GPa)
#
#
# Indices 1 2 3 4 5 6 
#
# 1 62.1224 34.6421 33.4834 -3.2033 -13.4527 4.8003
# 2 34.6421 157.2244 38.8920 1.1911 -9.8704 6.2282
# 3 33.4834 38.8920 165.7010 -4.3261 -5.9542 -7.4420
# 4 -3.2033 1.1911 -4.3261 53.1853 -2.1928 -3.6742
# 5 -13.4527 -9.8704 -5.9542 -2.1928 38.2483 -0.5843
# 6 4.8003 6.2282 -7.4420 -3.6742 -0.5843 35.0564
#
#
#
# Elastic Compliance Matrix: (Units=1/GPa)
#
#
# Indices 1 2 3 4 5 6 
#
# 1 0.021438 -0.003389 -0.003413 0.001147 0.006157 -0.002835
# 2 -0.003389 0.007464 -0.001114 -0.000520 0.000513 -0.001144
# 3 -0.003413 -0.001114 0.007088 0.000536 -0.000320 0.002221
# 4 0.001147 -0.000520 0.000536 0.019131 0.001482 0.002079
# 5 0.006157 0.000513 -0.000320 0.001482 0.028472 -0.000372
# 6 -0.002835 -0.001144 0.002221 0.002079 -0.000372 0.029800
#
#
# Mechanical properties :
#
#
# Convention : Reuss Voigt Hill
#
# Bulk Modulus (GPa) = 49.60450 66.56475 58.08463
# Shear Modulus (GPa) = 36.77958 43.83335 40.30647
#
# Velocity S-wave (km/s) = 3.90443 4.26243 4.08735
# Velocity P-wave (km/s) = 6.39425 7.19823 6.80812
#
# Compressibility (1/GPa) = 0.02015946
#
# Stress axis : x y z
#
# Youngs Moduli (GPa) = 46.64576 133.97518 141.07984
#
# Poissons Ratio (x) = 0.45408 0.48146
# Poissons Ratio (y) = 0.15810 0.15710
# Poissons Ratio (z) = 0.15919 0.14919
#
# Static dielectric constant tensor:
#      x y z
#    x 1.952090 -0.079770 0.034190 
#    y -0.079770 2.447050 -0.104260 
#    z 0.034190 -0.104260 2.087550 
# 
# From -- ./inp_files/578012.got.cif
#   From: 2010.05.17/outbox.cif.g08.bks.cpg/sg2_290_cif.got.tgz:578012.got - 2010.06.03 11:33:40.
