data_PCOD9061033
_publ_section_title
;
Structure prediction by ZEFSAII (Michael W. Deem and Ramdas Pophale) SiO2 
 PCOD9061033
Probable space group: P -1
;
_chemical_formula_sum "Si O2"
_cell_formula_units_Z 16
_cell_length_a 7.502309
_cell_length_b 11.238509
_cell_length_c 16.620180
_cell_angle_alpha 140.813044
_cell_angle_beta 78.252113
_cell_angle_gamma 78.071495
_cell_volume 700.417803
_symmetry_space_group_name_H-M "P -1"
_symmetry_group_IT_number 2
_symmetry_cell_setting 'triclinic'
loop_
_space_group_symop_operation_xyz
x,y,z
-x,-y,-z
loop_
_atom_site_type_symbol
_atom_site_label
_atom_site_fract_x
_atom_site_fract_y
_atom_site_fract_z
Si Si1 0.812377 0.032779 0.476251
Si Si2 0.868300 0.172206 0.257241
Si Si3 0.653257 0.896833 0.568562
Si Si4 0.760614 0.793496 0.852243
Si Si5 0.830318 0.700194 0.181306
Si Si6 0.570916 0.513211 0.336742
Si Si7 0.927330 0.382378 0.508245
Si Si8 0.940095 0.308156 0.078541
O O1 0.678714 0.980544 0.523737
O O2 0.902844 0.844519 0.297682
O O3 0.657198 0.287715 0.583791
O O4 0.000000 0.000000 0.500000
O O5 0.637654 0.347657 0.321041
O O6 0.076594 0.161866 0.190238
O O7 0.839418 0.268779 0.400123
O O8 0.938383 0.913024 0.106861
O O9 0.656780 0.669922 0.437994
O O10 0.856169 0.821230 0.569405
O O11 0.410823 0.105902 0.733097
O O12 0.774254 0.589565 0.694530
O O13 0.882154 0.713805 0.886139
O O14 0.500000 0.000000 0.000000
O O15 0.812177 0.550824 0.172127
O O16 0.000000 0.500000 0.000000
O O17 0.746600 0.323908 0.156221
O O18 0.000000 0.500000 0.500000
#
# Coordination Sequence:
#
# PCOD9061033 Si02
#       8
#     2   2   2   2   2   2   2   2
#     4  11  23  42  68  93 120 164 221 264 308 379
#     4  10  22  38  66  91 127 169 204 250 322 381
#     4  11  19  42  71  85 124 171 209 254 317 384
#     4  10  20  37  63  94 125 159 213 261 305 366
#     4  11  24  42  66  92 124 168 211 266 323 373
#     4  10  17  40  68  89 117 171 210 246 316 382
#     4  10  19  38  62  92 120 160 207 248 311 368
#     4  11  20  43  60  90 128 168 210 250 319 382
#
# _framework density 22.843508
#
# number of rings (size 3 to 8) (size 9 to 14) (size 15 to 20)
#    0.000    1.500    6.250    2.250    0.000    3.000 
#   11.250    1.875    0.000    0.000    0.000    0.000 
#    0.000    0.000    0.000    0.000    0.000    0.000 
#
# Total GULP energy -89404.390550 kJ/mol
# GULP energy per Si atom -5587.774409 kJ/mol
# Density = 2.279152 g / cm^3
# Si number density = 22.843508 Si / 1000 Ang^3
#
#
#
# Elastic Constant Matrix: (Units=GPa)
#
#
# Indices 1 2 3 4 5 6 
#
# 1 59.4909 33.5374 44.7528 5.2199 -4.6899 -33.0591
# 2 33.5374 109.9519 54.1472 10.7168 2.0374 -36.6066
# 3 44.7528 54.1472 215.3171 6.8196 -0.3631 -38.0780
# 4 5.2199 10.7168 6.8196 40.1109 -1.6288 0.2814
# 5 -4.6899 2.0374 -0.3631 -1.6288 39.7862 4.1689
# 6 -33.0591 -36.6066 -38.0780 0.2814 4.1689 54.0513
#
#
#
# Elastic Compliance Matrix: (Units=1/GPa)
#
#
# Indices 1 2 3 4 5 6 
#
# 1 0.028145 -0.002553 -0.002753 -0.002529 0.001914 0.013411
# 2 -0.002553 0.013077 -0.001540 -0.003017 -0.001775 0.006363
# 3 -0.002753 -0.001540 0.005865 -0.000252 -0.000353 0.001433
# 4 -0.002529 -0.003017 -0.000252 0.026192 0.001346 -0.004007
# 5 0.001914 -0.001775 -0.000353 0.001346 0.025741 -0.002272
# 6 0.013411 0.006363 0.001433 -0.004007 -0.002272 0.032219
#
#
# Mechanical properties :
#
#
# Convention : Reuss Voigt Hill
#
# Bulk Modulus (GPa) = 29.94472 72.18164 51.06318
# Shear Modulus (GPa) = 32.03869 43.61117 37.82493
#
# Velocity S-wave (km/s) = 3.74910 4.37410 4.07360
# Velocity P-wave (km/s) = 5.64607 7.56156 6.67290
#
# Compressibility (1/GPa) = 0.03339487
#
# Stress axis : x y z
#
# Youngs Moduli (GPa) = 35.53066 76.46776 170.51378
#
# Poissons Ratio (x) = 0.19522 0.46937
# Poissons Ratio (y) = 0.09071 0.26263
# Poissons Ratio (z) = 0.09780 0.11778
#
# Static dielectric constant tensor:
#      x y z
#    x 1.970460 0.067070 -0.038100 
#    y 0.067070 1.853570 -0.033100 
#    z -0.038100 -0.033100 1.825660 
# 
# From -- ./inp_files/561425.got.cif
#   From: 2010.05.17/outbox.cif.g08.bks.cpg/sg2_281_cif.got.tgz:561425.got - 2010.06.03 11:33:40.
