data_PCOD9061625
_publ_section_title
;
Structure prediction by ZEFSAII (Michael W. Deem and Ramdas Pophale) SiO2 
 PCOD9061625
Probable space group: P -1
;
_chemical_formula_sum "Si O2"
_cell_formula_units_Z 14
_cell_length_a 8.493222
_cell_length_b 18.974367
_cell_length_c 9.906942
_cell_angle_alpha 152.146748
_cell_angle_beta 114.465215
_cell_angle_gamma 57.739423
_cell_volume 623.984283
_symmetry_space_group_name_H-M "P -1"
_symmetry_group_IT_number 2
_symmetry_cell_setting 'triclinic'
loop_
_space_group_symop_operation_xyz
x,y,z
-x,-y,-z
loop_
_atom_site_type_symbol
_atom_site_label
_atom_site_fract_x
_atom_site_fract_y
_atom_site_fract_z
Si Si1 0.570314 0.107367 0.303008
Si Si2 0.331396 0.992222 0.520749
Si Si3 0.725861 0.464206 0.636725
Si Si4 0.298169 0.670470 0.865314
Si Si5 0.931439 0.690353 0.157419
Si Si6 0.331140 0.478120 0.825901
Si Si7 0.104287 0.856037 0.687400
O O1 0.402544 0.284625 0.524520
O O2 0.771719 0.100148 0.306592
O O3 0.596825 0.059500 0.389244
O O4 0.500000 0.000000 0.000000
O O5 0.169942 0.174535 0.764606
O O6 0.500000 0.000000 0.500000
O O7 0.254795 0.858345 0.207514
O O8 0.515594 0.598390 0.772680
O O9 0.807398 0.380264 0.379158
O O10 0.744222 0.306224 0.462309
O O11 0.827229 0.567384 0.921479
O O12 0.299138 0.565270 0.817980
O O13 0.947046 0.798594 0.471713
O O14 0.141919 0.574345 0.000429
O O15 0.500000 0.500000 0.000000
O O16 0.000000 0.000000 0.000000
#
# Coordination Sequence:
#
# PCOD9061625 Si02
#       7
#     2   2   2   2   2   2   2
#     4  12  30  48  76 110 154 197 249 310 381 442
#     4  12  27  47  76 111 151 196 248 314 377 443
#     4  11  25  42  73 109 141 199 244 306 367 456
#     4  11  23  45  74  99 153 189 249 302 382 431
#     4  12  27  45  77 108 148 195 259 297 382 442
#     4  12  24  51  74 102 148 197 246 316 366 443
#     4  12  27  47  73 108 152 193 250 309 374 444
#
# _framework density 22.436464000000001
#
# number of rings (size 3 to 8) (size 9 to 14) (size 15 to 20)
#    0.000    0.286    5.714    1.286    8.000    4.000 
#    0.000    0.000    0.000    0.000    0.000    0.000 
#    0.000    0.000    0.000    0.000    0.000    0.000 
#
# Total GULP energy -78290.062558 kJ/mol
# GULP energy per Si atom -5592.147326 kJ/mol
# Density = 2.238540 g / cm^3
# Si number density = 22.436464 Si / 1000 Ang^3
#
#
#
# Elastic Constant Matrix: (Units=GPa)
#
#
# Indices 1 2 3 4 5 6 
#
# 1 67.8385 27.5316 47.1323 -2.1400 -6.6996 -1.0578
# 2 27.5316 89.7860 46.7006 8.3205 -0.7178 31.4511
# 3 47.1323 46.7006 187.1547 5.7352 10.8611 8.3831
# 4 -2.1400 8.3205 5.7352 54.2262 -7.6767 -8.0384
# 5 -6.6996 -0.7178 10.8611 -7.6767 27.9027 -1.1667
# 6 -1.0578 31.4511 8.3831 -8.0384 -1.1667 37.3025
#
#
#
# Elastic Compliance Matrix: (Units=1/GPa)
#
#
# Indices 1 2 3 4 5 6 
#
# 1 0.022771 -0.008620 -0.004748 0.005557 0.009060 0.010461
# 2 -0.008620 0.022754 -0.002164 -0.007146 -0.003469 -0.020591
# 3 -0.004748 -0.002164 0.007396 -0.001327 -0.004457 -0.000397
# 4 0.005557 -0.007146 -0.001327 0.022820 0.008433 0.011662
# 5 0.009060 -0.003469 -0.004457 0.008433 0.042286 0.007323
# 6 0.010461 -0.020591 -0.000397 0.011662 0.007323 0.047297
#
#
# Mechanical properties :
#
#
# Convention : Reuss Voigt Hill
#
# Bulk Modulus (GPa) = 45.75349 65.27869 55.51609
# Shear Modulus (GPa) = 24.54888 38.78060 31.66474
#
# Velocity S-wave (km/s) = 3.31138 4.16199 3.76081
# Velocity P-wave (km/s) = 5.92090 7.22871 6.60724
#
# Compressibility (1/GPa) = 0.02185626
#
# Stress axis : x y z
#
# Youngs Moduli (GPa) = 43.91465 43.94868 135.20497
#
# Poissons Ratio (x) = 0.37883 0.64202
# Poissons Ratio (y) = 0.37853 0.29263
# Poissons Ratio (z) = 0.20853 0.09512
#
# Static dielectric constant tensor:
#      x y z
#    x 1.828230 0.010520 -0.028230 
#    y 0.010520 1.836280 -0.056500 
#    z -0.028230 -0.056500 1.770210 
# 
# From -- ./inp_files/216366.got.cif
#   From: 2010.05.17/outbox.cif.g08.bks.cpg/sg2_109_cif.got.tgz:216366.got - 2010.06.03 11:33:40.
