data_PCOD9061886
_publ_section_title
;
Structure prediction by ZEFSAII (Michael W. Deem and Ramdas Pophale) SiO2 
 PCOD9061886
Probable space group: P -1
;
_chemical_formula_sum "Si O2"
_cell_formula_units_Z 16
_cell_length_a 9.762149
_cell_length_b 10.323686
_cell_length_c 16.676266
_cell_angle_alpha 114.732375
_cell_angle_beta 28.251109
_cell_angle_gamma 112.691509
_cell_volume 721.965132
_symmetry_space_group_name_H-M "P -1"
_symmetry_group_IT_number 2
_symmetry_cell_setting 'triclinic'
loop_
_space_group_symop_operation_xyz
x,y,z
-x,-y,-z
loop_
_atom_site_type_symbol
_atom_site_label
_atom_site_fract_x
_atom_site_fract_y
_atom_site_fract_z
Si Si1 0.857707 0.945222 0.642529
Si Si2 0.893181 0.449867 0.127744
Si Si3 0.080440 0.585502 0.224933
Si Si4 0.543659 0.816036 0.061548
Si Si5 0.584341 0.721733 0.610429
Si Si6 0.152449 0.727611 0.686639
Si Si7 0.593610 0.121754 0.546661
Si Si8 0.827353 0.858389 0.086278
O O1 0.641099 0.823423 0.684037
O O2 0.122103 0.904298 0.552790
O O3 0.667872 0.058276 0.817857
O O4 0.000000 0.000000 0.500000
O O5 0.557762 0.422996 0.316107
O O6 0.012960 0.561351 0.160242
O O7 0.000000 0.500000 0.000000
O O8 0.003925 0.288487 0.039788
O O9 0.396179 0.660263 0.084279
O O10 0.880088 0.692218 0.404248
O O11 0.984715 0.430927 0.269683
O O12 0.576374 0.832887 0.144265
O O13 0.868482 0.823952 0.860964
O O14 0.373285 0.764863 0.656322
O O15 0.319289 0.746728 0.522374
O O16 0.322384 0.130453 0.748039
O O17 0.500000 0.000000 0.500000
O O18 0.000000 0.000000 0.000000
#
# Coordination Sequence:
#
# PCOD9061886 Si02
#       8
#     2   2   2   2   2   2   2   2
#     4  12  24  44  71 103 137 184 241 291 358 420
#     4  11  26  42  71 108 142 186 242 297 355 426
#     4  11  24  44  74  98 146 189 233 287 362 428
#     4  12  24  44  75 100 142 191 236 289 359 434
#     4  11  23  46  73 101 144 190 231 290 358 429
#     4  11  25  44  70 107 141 187 235 289 359 426
#     4  12  28  44  71 105 142 181 242 298 357 429
#     4  12  25  45  72 102 143 193 237 293 359 433
#
# _framework density 22.161735
#
# number of rings (size 3 to 8) (size 9 to 14) (size 15 to 20)
#    0.000    0.500    5.000    4.125    3.500    1.500 
#    0.000    1.250    0.000    0.000    0.000    0.000 
#    0.000    0.000    0.000    0.000    0.000    0.000 
#
# Total GULP energy -89306.665327 kJ/mol
# GULP energy per Si atom -5581.666583 kJ/mol
# Density = 2.211129 g / cm^3
# Si number density = 22.161735 Si / 1000 Ang^3
#
#
#
# Elastic Constant Matrix: (Units=GPa)
#
#
# Indices 1 2 3 4 5 6 
#
# 1 93.3817 38.5056 17.3177 -22.0147 5.5066 14.5058
# 2 38.5056 66.9447 8.7731 -1.0625 -5.5586 19.7450
# 3 17.3177 8.7731 106.2559 -4.8161 11.0277 -5.3063
# 4 -22.0147 -1.0625 -4.8161 41.5564 -5.3359 -2.7000
# 5 5.5066 -5.5586 11.0277 -5.3359 48.0952 -5.3746
# 6 14.5058 19.7450 -5.3063 -2.7000 -5.3746 46.3695
#
#
#
# Elastic Compliance Matrix: (Units=1/GPa)
#
#
# Indices 1 2 3 4 5 6 
#
# 1 0.017086 -0.009270 -0.001510 0.008310 -0.001906 -0.001307
# 2 -0.009270 0.022581 -0.001178 -0.004569 0.002674 -0.006806
# 3 -0.001510 -0.001178 0.010070 0.000199 -0.002038 0.001902
# 4 0.008310 -0.004569 0.000199 0.028684 0.001797 0.001247
# 5 -0.001906 0.002674 -0.002038 0.001797 0.022198 0.001902
# 6 -0.001307 -0.006806 0.001902 0.001247 0.001902 0.025384
#
#
# Mechanical properties :
#
#
# Convention : Reuss Voigt Hill
#
# Bulk Modulus (GPa) = 38.72949 43.97501 41.35225
# Shear Modulus (GPa) = 31.54035 40.66994 36.10514
#
# Velocity S-wave (km/s) = 3.77661 4.28850 4.04067
# Velocity P-wave (km/s) = 6.04407 6.66390 6.36154
#
# Compressibility (1/GPa) = 0.02582012
#
# Stress axis : x y z
#
# Youngs Moduli (GPa) = 58.52793 44.28440 99.30389
#
# Poissons Ratio (x) = 0.41053 0.14996
# Poissons Ratio (y) = 0.54258 0.11698
# Poissons Ratio (z) = 0.08838 0.05217
#
# Static dielectric constant tensor:
#      x y z
#    x 1.813080 -0.012620 -0.064650 
#    y -0.012620 1.913200 0.042750 
#    z -0.064650 0.042750 1.885740 
# 
# From -- ./inp_files/500506.got.cif
#   From: 2010.05.17/outbox.cif.g08.bks.cpg/sg2_251_cif.got.tgz:500506.got - 2010.06.03 11:33:40.
