data_PCOD9061239
_publ_section_title
;
Structure prediction by ZEFSAII (Michael W. Deem and Ramdas Pophale) SiO2 
 PCOD9061239
Probable space group: P -1
;
_chemical_formula_sum "Si O2"
_cell_formula_units_Z 13
_cell_length_a 13.045533
_cell_length_b 8.319644
_cell_length_c 8.630331
_cell_angle_alpha 72.266959
_cell_angle_beta 47.572569
_cell_angle_gamma 45.555649
_cell_volume 467.910792
_symmetry_space_group_name_H-M "P -1"
_symmetry_group_IT_number 2
_symmetry_cell_setting 'triclinic'
loop_
_space_group_symop_operation_xyz
x,y,z
-x,-y,-z
loop_
_atom_site_type_symbol
_atom_site_label
_atom_site_fract_x
_atom_site_fract_y
_atom_site_fract_z
Si Si1 0.871488 0.822940 0.676822
Si Si2 0.444487 0.157142 0.661140
Si Si3 0.172083 0.664995 0.673720
Si Si4 0.896767 0.399684 0.801762
Si Si5 0.455110 0.544557 0.852574
Si Si6 0.500000 0.000000 0.000000
Si Si7 0.209422 0.943884 0.766452
O O1 0.847943 0.636684 0.753621
O O2 0.990428 0.782605 0.713698
O O3 0.002397 0.753726 0.414054
O O4 0.643622 0.051535 0.831763
O O5 0.245941 0.427723 0.746681
O O6 0.604804 0.166998 0.494664
O O7 0.500000 0.000000 0.500000
O O8 0.469815 0.033395 0.829497
O O9 0.348670 0.582380 0.407532
O O10 0.127101 0.847145 0.793456
O O11 0.695305 0.480712 0.019420
O O12 0.062320 0.224158 0.810955
O O13 0.307176 0.821477 0.866457
O O14 0.500000 0.500000 0.000000
#
# Coordination Sequence:
#
# PCOD9061239 Si02
#       7
#     2   2   2   2   2   1   2
#     4  11  26  48  77 107 149 198 261 316 377 465
#     4  11  25  50  79 113 154 202 260 313 385 452
#     4  11  26  50  72 110 153 195 251 326 376 460
#     4  11  24  47  73 110 146 199 257 309 380 460
#     4  11  23  44  76 105 145 201 247 299 391 443
#     4  12  28  50  82 110 152 204 256 322 384 456
#     4  11  25  49  70 111 159 193 252 324 372 461
#
# _framework density 27.783076000000001
#
# number of rings (size 3 to 8) (size 9 to 14) (size 15 to 20)
#    0.000    0.923    3.077    3.231    6.462    1.231 
#   11.077    0.000    0.000    0.000    0.000    0.000 
#    0.000    0.000    0.000    0.000    0.000    0.000 
#
# Total GULP energy -72652.184738 kJ/mol
# GULP energy per Si atom -5588.629595 kJ/mol
# Density = 2.771984 g / cm^3
# Si number density = 27.783076 Si / 1000 Ang^3
#
#
#
# Elastic Constant Matrix: (Units=GPa)
#
#
# Indices 1 2 3 4 5 6 
#
# 1 166.9030 24.4173 46.0500 -8.7924 18.5098 -22.5257
# 2 24.4173 88.1599 32.1570 -14.8269 33.0412 -18.5760
# 3 46.0500 32.1570 145.4292 -14.5570 22.7099 -23.0909
# 4 -8.7924 -14.8269 -14.5570 51.7634 -11.1153 7.1568
# 5 18.5098 33.0412 22.7099 -11.1153 67.5575 -1.2880
# 6 -22.5257 -18.5760 -23.0909 7.1568 -1.2880 45.5855
#
#
#
# Elastic Compliance Matrix: (Units=1/GPa)
#
#
# Indices 1 2 3 4 5 6 
#
# 1 0.006933 -0.000416 -0.001535 0.000048 -0.001125 0.002439
# 2 -0.000416 0.015888 -0.001315 0.001945 -0.006797 0.005105
# 3 -0.001535 -0.001315 0.008438 0.001018 -0.001552 0.002776
# 4 0.000048 0.001945 0.001018 0.020881 0.002093 -0.001887
# 5 -0.001125 -0.006797 -0.001552 0.002093 0.019227 -0.003898
# 6 0.002439 0.005105 0.002776 -0.001887 -0.003898 0.026815
#
#
# Mechanical properties :
#
#
# Convention : Reuss Voigt Hill
#
# Bulk Modulus (GPa) = 40.44254 67.30451 53.87352
# Shear Modulus (GPa) = 44.26504 52.83916 48.55210
#
# Velocity S-wave (km/s) = 3.99587 4.36575 4.18490
# Velocity P-wave (km/s) = 5.98978 7.04916 6.54095
#
# Compressibility (1/GPa) = 0.02472644
#
# Stress axis : x y z
#
# Youngs Moduli (GPa) = 144.24782 62.93952 118.50854
#
# Poissons Ratio (x) = 0.02621 0.18195
# Poissons Ratio (y) = 0.06006 0.15579
# Poissons Ratio (z) = 0.22147 0.08274
#
# Static dielectric constant tensor:
#      x y z
#    x 2.036480 0.206750 0.029460 
#    y 0.206750 1.681140 -0.226680 
#    z 0.029460 -0.226680 2.160240 
# 
# From -- ./inp_files/237391.got.cif
#   From: 2010.05.17/outbox.cif.g08.bks.cpg/sg2_119_cif.got.tgz:237391.got - 2010.06.03 11:33:40.
