data_PCOD9061607
_publ_section_title
;
Structure prediction by ZEFSAII (Michael W. Deem and Ramdas Pophale) SiO2 
 PCOD9061607
Probable space group: P -1
;
_chemical_formula_sum "Si O2"
_cell_formula_units_Z 14
_cell_length_a 24.247553
_cell_length_b 30.423369
_cell_length_c 15.067037
_cell_angle_alpha 19.118213
_cell_angle_beta 18.530673
_cell_angle_gamma 10.440752
_cell_volume 625.154272
_symmetry_space_group_name_H-M "P -1"
_symmetry_group_IT_number 2
_symmetry_cell_setting 'triclinic'
loop_
_space_group_symop_operation_xyz
x,y,z
-x,-y,-z
loop_
_atom_site_type_symbol
_atom_site_label
_atom_site_fract_x
_atom_site_fract_y
_atom_site_fract_z
Si Si1 0.210628 0.536048 0.435026
Si Si2 0.239796 0.689948 0.423103
Si Si3 0.781076 0.728652 0.331475
Si Si4 0.075237 0.847686 0.912545
Si Si5 0.927350 0.892692 0.332217
Si Si6 0.153936 0.282757 0.953857
Si Si7 0.899358 0.213422 0.218349
O O1 0.590061 0.299513 0.287568
O O2 0.096268 0.458153 0.760338
O O3 0.161711 0.642142 0.400131
O O4 0.036552 0.741914 0.234528
O O5 0.574900 0.460526 0.296645
O O6 0.974966 0.843614 0.456745
O O7 0.190247 0.865831 0.210063
O O8 0.131588 0.640274 0.747530
O O9 0.837934 0.677635 0.236868
O O10 0.000000 0.500000 0.500000
O O11 0.420437 0.915811 0.538074
O O12 0.839648 0.845875 0.039860
O O13 0.115132 0.778666 0.881511
O O14 0.000000 0.000000 0.000000
O O15 0.500000 0.000000 0.000000
O O16 0.000000 0.000000 0.500000
#
# Coordination Sequence:
#
# PCOD9061607 Si02
#       7
#     2   2   2   2   2   2   2
#     4  11  24  41  77 108 141 186 265 310 360 443
#     4  12  25  48  78 104 151 199 255 307 373 446
#     4  12  28  49  73 110 155 192 248 314 378 441
#     4  11  23  45  74 106 140 198 252 306 367 447
#     4  12  24  46  79 109 142 197 256 314 368 441
#     4  12  25  46  74 111 147 194 256 313 368 446
#     4  12  29  48  72 107 157 198 241 309 389 448
#
# _framework density 22.394473000000001
#
# number of rings (size 3 to 8) (size 9 to 14) (size 15 to 20)
#    0.000    0.286    5.714    2.571    4.000    2.857 
#    0.000    1.429    0.000    0.000    0.000    0.000 
#    0.000    0.000    0.000    0.000    0.000    0.000 
#
# Total GULP energy -78338.160745 kJ/mol
# GULP energy per Si atom -5595.582910 kJ/mol
# Density = 2.234350 g / cm^3
# Si number density = 22.394473 Si / 1000 Ang^3
#
#
#
# Elastic Constant Matrix: (Units=GPa)
#
#
# Indices 1 2 3 4 5 6 
#
# 1 96.6253 36.0858 13.0276 -1.5804 -3.1809 16.0520
# 2 36.0858 107.7841 36.0971 6.6951 -17.6550 15.2714
# 3 13.0276 36.0971 109.9390 -1.7274 -26.6461 9.5230
# 4 -1.5804 6.6951 -1.7274 28.0389 6.4306 -7.6280
# 5 -3.1809 -17.6550 -26.6461 6.4306 46.6226 -3.0382
# 6 16.0520 15.2714 9.5230 -7.6280 -3.0382 46.2572
#
#
#
# Elastic Compliance Matrix: (Units=1/GPa)
#
#
# Indices 1 2 3 4 5 6 
#
# 1 0.012280 -0.003895 -0.000174 0.001087 -0.001071 -0.002831
# 2 -0.003895 0.012795 -0.002709 -0.005046 0.003537 -0.002914
# 3 -0.000174 -0.002709 0.011415 -0.000200 0.005444 -0.001071
# 4 0.001087 -0.005046 -0.000200 0.040594 -0.007057 0.007560
# 5 -0.001071 0.003537 0.005444 -0.007057 0.026714 -0.001326
# 6 -0.002831 -0.002914 -0.001071 0.007560 -0.001326 0.024943
#
#
# Mechanical properties :
#
#
# Convention : Reuss Voigt Hill
#
# Bulk Modulus (GPa) = 43.60153 53.86324 48.73238
# Shear Modulus (GPa) = 33.34661 39.45961 36.40311
#
# Velocity S-wave (km/s) = 3.86301 4.20220 4.03617
# Velocity P-wave (km/s) = 6.27768 6.90282 6.59766
#
# Compressibility (1/GPa) = 0.02293498
#
# Stress axis : x y z
#
# Youngs Moduli (GPa) = 81.43251 78.15656 87.60326
#
# Poissons Ratio (x) = 0.30442 0.01520
# Poissons Ratio (y) = 0.31718 0.23732
# Poissons Ratio (z) = 0.01413 0.21172
#
# Static dielectric constant tensor:
#      x y z
#    x 1.836040 -0.010550 0.057800 
#    y -0.010550 1.840940 0.015340 
#    z 0.057800 0.015340 1.782720 
# 
# From -- ./inp_files/505663.got.cif
#   From: 2010.05.17/outbox.cif.g08.bks.cpg/sg2_253_cif.got.tgz:505663.got - 2010.06.03 11:33:40.
