data_PCOD9061963
_publ_section_title
;
Structure prediction by ZEFSAII (Michael W. Deem and Ramdas Pophale) SiO2 
 PCOD9061963
Probable space group: P -1
;
_chemical_formula_sum "Si O2"
_cell_formula_units_Z 14
_cell_length_a 9.143729
_cell_length_b 8.781351
_cell_length_c 10.836596
_cell_angle_alpha 71.237505
_cell_angle_beta 121.516471
_cell_angle_gamma 68.689392
_cell_volume 528.552239
_symmetry_space_group_name_H-M "P -1"
_symmetry_group_IT_number 2
_symmetry_cell_setting 'triclinic'
loop_
_space_group_symop_operation_xyz
x,y,z
-x,-y,-z
loop_
_atom_site_type_symbol
_atom_site_label
_atom_site_fract_x
_atom_site_fract_y
_atom_site_fract_z
Si Si1 0.018924 0.774550 0.758599
Si Si2 0.003750 0.684906 0.492896
Si Si3 0.471363 0.831157 0.521363
Si Si4 0.872265 0.916056 0.013858
Si Si5 0.730987 0.666951 0.925802
Si Si6 0.356124 0.855303 0.911715
Si Si7 0.704628 0.477018 0.543496
O O1 0.994381 0.734252 0.617807
O O2 0.235527 0.757430 0.869496
O O3 0.057922 0.585912 0.900657
O O4 0.802204 0.018813 0.638635
O O5 0.241126 0.588318 0.556979
O O6 0.000000 0.500000 0.500000
O O7 0.801301 0.912419 0.283748
O O8 0.588242 0.698456 0.734381
O O9 0.610805 0.702471 0.492963
O O10 0.500000 0.000000 0.500000
O O11 0.066938 0.707695 0.234706
O O12 0.664218 0.094074 0.965354
O O13 0.782979 0.825782 0.912807
O O14 0.000000 0.000000 0.000000
O O15 0.590114 0.720337 0.976578
O O16 0.500000 0.500000 0.500000
#
# Coordination Sequence:
#
# PCOD9061963 Si02
#       7
#     2   2   2   2   2   2   2
#     4  12  26  49  80 110 152 195 259 311 366 454
#     4  11  23  46  75 107 148 198 251 303 368 449
#     4  12  27  47  77 111 151 198 247 312 380 438
#     4  11  27  48  72 110 153 194 248 313 374 456
#     4  12  28  48  78 110 150 199 253 306 383 443
#     4  11  25  47  76 112 150 201 251 312 374 441
#     4  11  27  45  73 108 147 195 243 302 382 439
#
# _framework density 26.487449999999999
#
# number of rings (size 3 to 8) (size 9 to 14) (size 15 to 20)
#    0.000    0.571    1.429    6.429    8.000    2.286 
#    0.000    0.000    0.000    0.000    0.000    0.000 
#    0.000    0.000    0.000    0.000    0.000    0.000 
#
# Total GULP energy -78423.526495 kJ/mol
# GULP energy per Si atom -5601.680464 kJ/mol
# Density = 2.642716 g / cm^3
# Si number density = 26.487450 Si / 1000 Ang^3
#
#
#
# Elastic Constant Matrix: (Units=GPa)
#
#
# Indices 1 2 3 4 5 6 
#
# 1 105.3286 43.3294 8.5944 8.8414 7.4032 -17.4861
# 2 43.3294 141.4015 29.3090 -5.5695 -4.2086 -6.6776
# 3 8.5944 29.3090 98.3748 -12.4655 -7.5474 -10.9313
# 4 8.8414 -5.5695 -12.4655 42.2264 1.1962 0.6930
# 5 7.4032 -4.2086 -7.5474 1.1962 41.2766 -6.0715
# 6 -17.4861 -6.6776 -10.9313 0.6930 -6.0715 75.3660
#
#
#
# Elastic Compliance Matrix: (Units=1/GPa)
#
#
# Indices 1 2 3 4 5 6 
#
# 1 0.011780 -0.003635 -0.000239 -0.002993 -0.002112 0.002234
# 2 -0.003635 0.008681 -0.002058 0.001273 0.001080 -0.000297
# 3 -0.000239 -0.002058 0.011526 0.003096 0.002082 0.001573
# 4 -0.002993 0.001273 0.003096 0.025383 0.000449 -0.000330
# 5 -0.002112 0.001080 0.002082 0.000449 0.025370 0.001947
# 6 0.002234 -0.000297 0.001573 -0.000330 0.001947 0.014149
#
#
# Mechanical properties :
#
#
# Convention : Reuss Voigt Hill
#
# Bulk Modulus (GPa) = 49.69587 56.39671 53.04629
# Shear Modulus (GPa) = 43.30515 49.36526 46.33520
#
# Velocity S-wave (km/s) = 4.04781 4.32177 4.18703
# Velocity P-wave (km/s) = 6.37567 6.80012 6.59131
#
# Compressibility (1/GPa) = 0.02012240
#
# Stress axis : x y z
#
# Youngs Moduli (GPa) = 84.89252 115.19751 86.75993
#
# Poissons Ratio (x) = 0.41878 0.02075
# Poissons Ratio (y) = 0.30861 0.17851
# Poissons Ratio (z) = 0.02030 0.23702
#
# Static dielectric constant tensor:
#      x y z
#    x 2.184900 0.114660 0.025420 
#    y 0.114660 2.079370 0.096000 
#    z 0.025420 0.096000 2.139620 
# 
# From -- ./inp_files/381788.got.cif
#   From: 2010.05.17/outbox.cif.g08.bks.cpg/sg2_191_cif.got.tgz:381788.got - 2010.06.03 11:33:40.
