data_PCOD9061544
_publ_section_title
;
Structure prediction by ZEFSAII (Michael W. Deem and Ramdas Pophale) SiO2 
 PCOD9061544
Probable space group: P -1
;
_chemical_formula_sum "Si O2"
_cell_formula_units_Z 14
_cell_length_a 11.478643
_cell_length_b 11.651109
_cell_length_c 9.571979
_cell_angle_alpha 61.165180
_cell_angle_beta 49.917522
_cell_angle_gamma 39.996804
_cell_volume 629.387940
_symmetry_space_group_name_H-M "P -1"
_symmetry_group_IT_number 2
_symmetry_cell_setting 'triclinic'
loop_
_space_group_symop_operation_xyz
x,y,z
-x,-y,-z
loop_
_atom_site_type_symbol
_atom_site_label
_atom_site_fract_x
_atom_site_fract_y
_atom_site_fract_z
Si Si1 0.411486 0.406553 0.645545
Si Si2 0.558813 0.874939 0.153107
Si Si3 0.626760 0.854642 0.609491
Si Si4 0.971806 0.742142 0.840087
Si Si5 0.084142 0.916039 0.830227
Si Si6 0.429378 0.384221 0.335192
Si Si7 0.987620 0.231522 0.544662
O O1 0.500000 0.500000 0.500000
O O2 0.533991 0.216962 0.733736
O O3 0.373940 0.366052 0.545068
O O4 0.199180 0.553075 0.800919
O O5 0.473572 0.009570 0.265362
O O6 0.806328 0.734797 0.027757
O O7 0.500000 0.000000 0.000000
O O8 0.596266 0.717587 0.695294
O O9 0.870752 0.742588 0.502836
O O10 0.500000 0.000000 0.500000
O O11 0.975080 0.777069 0.648671
O O12 0.957131 0.878188 0.869795
O O13 0.325001 0.731129 0.774460
O O14 0.067383 0.050616 0.659917
O O15 0.000000 0.000000 0.000000
O O16 0.255643 0.599556 0.329389
#
# Coordination Sequence:
#
# PCOD9061544 Si02
#       7
#     2   2   2   2   2   2   2
#     4  11  23  45  73 101 143 190 239 294 362 438
#     4  12  25  44  71 111 141 186 246 301 363 429
#     4  12  22  45  74  97 148 189 240 299 364 432
#     4  11  25  44  70 104 144 188 243 297 360 436
#     4  12  25  45  70 104 150 191 241 301 366 434
#     4  11  24  44  72 103 138 193 245 293 365 433
#     4  11  25  44  72 104 140 196 246 297 366 438
#
# _framework density 22.243832000000001
#
# number of rings (size 3 to 8) (size 9 to 14) (size 15 to 20)
#    0.000    0.571    5.714    2.143    0.000    2.857 
#    2.571    0.000    0.000    0.000    0.000    0.000 
#    0.000    0.000    0.000    0.000    0.000    0.000 
#
# Total GULP energy -78033.164005 kJ/mol
# GULP energy per Si atom -5573.797429 kJ/mol
# Density = 2.219320 g / cm^3
# Si number density = 22.243832 Si / 1000 Ang^3
#
#
#
# Elastic Constant Matrix: (Units=GPa)
#
#
# Indices 1 2 3 4 5 6 
#
# 1 94.5734 45.8814 15.9166 -14.1285 -0.9084 13.8777
# 2 45.8814 106.0727 46.2578 11.9790 -5.8571 4.0648
# 3 15.9166 46.2578 62.5910 3.5887 5.4281 13.3740
# 4 -14.1285 11.9790 3.5887 42.8372 -1.4554 -11.9281
# 5 -0.9084 -5.8571 5.4281 -1.4554 45.1058 2.4270
# 6 13.8777 4.0648 13.3740 -11.9281 2.4270 45.5030
#
#
#
# Elastic Compliance Matrix: (Units=1/GPa)
#
#
# Indices 1 2 3 4 5 6 
#
# 1 0.015728 -0.008662 0.002757 0.006492 -0.000764 -0.003091
# 2 -0.008662 0.019561 -0.012795 -0.006355 0.003550 0.002800
# 3 0.002757 -0.012795 0.026667 0.000076 -0.004421 -0.007280
# 4 0.006492 -0.006355 0.000076 0.028969 -0.000101 0.006165
# 5 -0.000764 0.003550 -0.004421 -0.000101 0.023147 -0.000046
# 6 -0.003091 0.002800 -0.007280 0.006165 -0.000046 0.026427
#
#
# Mechanical properties :
#
#
# Convention : Reuss Voigt Hill
#
# Bulk Modulus (GPa) = 40.72705 53.26095 46.99400
# Shear Modulus (GPa) = 26.86937 37.03464 31.95200
#
# Velocity S-wave (km/s) = 3.47932 4.08479 3.79416
# Velocity P-wave (km/s) = 5.87282 6.80026 6.35349
#
# Compressibility (1/GPa) = 0.02455371
#
# Stress axis : x y z
#
# Youngs Moduli (GPa) = 63.57905 51.12291 37.50014
#
# Poissons Ratio (x) = 0.44285 -0.10338
# Poissons Ratio (y) = 0.55075 0.47982
# Poissons Ratio (z) = -0.17527 0.65413
#
# Static dielectric constant tensor:
#      x y z
#    x 1.845890 -0.021660 -0.052210 
#    y -0.021660 1.907890 0.010730 
#    z -0.052210 0.010730 1.854520 
# 
# From -- ./inp_files/261927.got.cif
#   From: 2010.05.17/outbox.cif.g08.bks.cpg/sg2_131_cif.got.tgz:261927.got - 2010.06.03 11:33:40.
