data_PCOD9061065
_publ_section_title
;
Structure prediction by ZEFSAII (Michael W. Deem and Ramdas Pophale) SiO2 
 PCOD9061065
Probable space group: P -1
;
_chemical_formula_sum "Si O2"
_cell_formula_units_Z 16
_cell_length_a 7.946007
_cell_length_b 14.772123
_cell_length_c 9.852007
_cell_angle_alpha 140.972364
_cell_angle_beta 111.878902
_cell_angle_gamma 54.120954
_cell_volume 582.231894
_symmetry_space_group_name_H-M "P -1"
_symmetry_group_IT_number 2
_symmetry_cell_setting 'triclinic'
loop_
_space_group_symop_operation_xyz
x,y,z
-x,-y,-z
loop_
_atom_site_type_symbol
_atom_site_label
_atom_site_fract_x
_atom_site_fract_y
_atom_site_fract_z
Si Si1 0.787172 0.553787 0.195022
Si Si2 0.815096 0.095243 0.895895
Si Si3 0.301406 0.259362 0.244124
Si Si4 0.322180 0.876259 0.413923
Si Si5 0.254107 0.825949 0.627020
Si Si6 0.800171 0.463464 0.802718
Si Si7 0.391359 0.148778 0.856410
Si Si8 0.145766 0.611409 0.677812
O O1 0.558584 0.719054 0.321208
O O2 0.823039 0.462112 0.243728
O O3 0.969624 0.593838 0.255577
O O4 0.802687 0.437589 0.936731
O O5 0.763340 0.141131 0.774831
O O6 0.642119 0.049936 0.835757
O O7 0.772485 0.261342 0.152905
O O8 0.055649 0.949873 0.802016
O O9 0.535022 0.172919 0.270863
O O10 0.248850 0.449492 0.426552
O O11 0.104891 0.286586 0.304956
O O12 0.289305 0.176652 0.005594
O O13 0.200898 0.881554 0.519260
O O14 0.327895 0.047833 0.620165
O O15 0.291150 0.639626 0.417688
O O16 0.674745 0.664430 0.989871
#
# Coordination Sequence:
#
# PCOD9061065 Si02
#       8
#     2   2   2   2   2   2   2   2
#     4  11  23  44  72 104 134 182 224 286 349 402
#     4  12  27  44  72 105 140 175 232 291 347 400
#     4  11  26  48  69  98 139 193 228 278 335 416
#     4  12  26  45  73 103 143 175 226 291 352 402
#     4  12  27  45  69 105 137 185 232 277 341 411
#     4  11  25  42  75 104 141 175 230 287 348 410
#     4  12  26  46  70 103 144 183 224 283 347 407
#     4  11  24  48  71 102 136 185 232 283 340 408
#
# _framework density 27.480460000000001
#
# number of rings (size 3 to 8) (size 9 to 14) (size 15 to 20)
#    0.000    0.500    3.750    3.750    3.500    5.500 
#    0.000    0.000    0.000    0.000    0.000    0.000 
#    0.000    0.000    0.000    0.000    0.000    0.000 
#
# Total GULP energy -89808.062105 kJ/mol
# GULP energy per Si atom -5613.003882 kJ/mol
# Density = 2.741791 g / cm^3
# Si number density = 27.480460 Si / 1000 Ang^3
#
#
#
# Elastic Constant Matrix: (Units=GPa)
#
#
# Indices 1 2 3 4 5 6 
#
# 1 56.9391 13.5073 4.3749 18.8986 -17.9339 -12.5541
# 2 13.5073 120.6229 19.6331 12.1247 -3.4454 -3.2403
# 3 4.3749 19.6331 115.6397 3.5938 9.1969 9.7152
# 4 18.8986 12.1247 3.5938 38.8462 -0.9681 -4.2413
# 5 -17.9339 -3.4454 9.1969 -0.9681 57.4075 -0.9944
# 6 -12.5541 -3.2403 9.7152 -4.2413 -0.9944 47.9616
#
#
#
# Elastic Compliance Matrix: (Units=1/GPa)
#
#
# Indices 1 2 3 4 5 6 
#
# 1 0.025504 -0.001091 -0.001592 -0.011051 0.008076 0.006115
# 2 -0.001091 0.008881 -0.001472 -0.002047 0.000401 0.000440
# 3 -0.001592 -0.001472 0.009330 0.000051 -0.002122 -0.002446
# 4 -0.011051 -0.002047 0.000051 0.031643 -0.003055 -0.000306
# 5 0.008076 0.000401 -0.002122 -0.003055 0.020302 0.002722
# 6 0.006115 0.000440 -0.002446 -0.000306 0.002722 0.023005
#
#
# Mechanical properties :
#
#
# Convention : Reuss Voigt Hill
#
# Bulk Modulus (GPa) = 28.24464 40.91470 34.57967
# Shear Modulus (GPa) = 36.02904 45.88881 40.95892
#
# Velocity S-wave (km/s) = 3.62481 4.09084 3.86485
# Velocity P-wave (km/s) = 5.27441 6.10199 5.70323
#
# Compressibility (1/GPa) = 0.03540494
#
# Stress axis : x y z
#
# Youngs Moduli (GPa) = 39.21020 112.59925 107.17756
#
# Poissons Ratio (x) = 0.12285 0.17065
# Poissons Ratio (y) = 0.04278 0.15774
# Poissons Ratio (z) = 0.06243 0.16572
#
# Static dielectric constant tensor:
#      x y z
#    x 2.142710 0.034980 -0.000430 
#    y 0.034980 2.213830 -0.008570 
#    z -0.000430 -0.008570 2.074900 
# 
# From -- ./inp_files/403600.got.cif
#   From: 2010.05.17/outbox.cif.g08.bks.cpg/sg2_202_cif.got.tgz:403600.got - 2010.06.03 11:33:40.
