data_PCOD9061617
_publ_section_title
;
Structure prediction by ZEFSAII (Michael W. Deem and Ramdas Pophale) SiO2 
 PCOD9061617
Probable space group: P -1
;
_chemical_formula_sum "Si O2"
_cell_formula_units_Z 14
_cell_length_a 5.410885
_cell_length_b 16.507663
_cell_length_c 13.420540
_cell_angle_alpha 35.584409
_cell_angle_beta 123.734372
_cell_angle_gamma 116.547070
_cell_volume 580.067440
_symmetry_space_group_name_H-M "P -1"
_symmetry_group_IT_number 2
_symmetry_cell_setting 'triclinic'
loop_
_space_group_symop_operation_xyz
x,y,z
-x,-y,-z
loop_
_atom_site_type_symbol
_atom_site_label
_atom_site_fract_x
_atom_site_fract_y
_atom_site_fract_z
Si Si1 0.834008 0.816747 0.412192
Si Si2 0.266364 0.320465 0.045884
Si Si3 0.719262 0.671587 0.184005
Si Si4 0.858868 0.961478 0.612405
Si Si5 0.615667 0.406508 0.526234
Si Si6 0.230236 0.091280 0.896468
Si Si7 0.905609 0.417844 0.160494
O O1 0.536083 0.737893 0.391140
O O2 0.957966 0.835185 0.308701
O O3 0.928109 0.713340 0.625612
O O4 0.932550 0.962038 0.336900
O O5 0.120769 0.202184 0.197541
O O6 0.582194 0.357269 0.126315
O O7 0.298894 0.274656 0.985661
O O8 0.095790 0.466622 0.868473
O O9 0.580883 0.518419 0.316977
O O10 0.620095 0.790989 0.118768
O O11 0.054015 0.637330 0.326485
O O12 0.500000 0.000000 0.500000
O O13 0.000000 0.000000 0.500000
O O14 0.500000 0.500000 0.500000
O O15 0.500000 0.000000 0.000000
O O16 0.000000 0.000000 0.000000
O O17 0.000000 0.500000 0.000000
#
# Coordination Sequence:
#
# PCOD9061617 Si02
#       7
#     2   2   2   2   2   2   2
#     4  12  25  49  81 109 156 209 260 331 403 476
#     4  11  25  46  76 111 156 203 263 336 393 483
#     4  11  25  45  76 111 156 201 266 329 409 475
#     4  12  28  51  74 110 155 207 264 317 392 471
#     4  11  23  45  74 115 151 202 261 330 400 485
#     4  12  28  51  74 115 158 210 267 329 402 485
#     4  11  24  47  75 115 154 205 266 329 407 475
#
# _framework density 24.135124999999999
#
# number of rings (size 3 to 8) (size 9 to 14) (size 15 to 20)
#    0.000    0.571    2.857    4.286    2.000    4.571 
#    7.714    0.000    0.000    0.000    0.000    0.000 
#    0.000    0.000    0.000    0.000    0.000    0.000 
#
# Total GULP energy -78174.451874 kJ/mol
# GULP energy per Si atom -5583.889420 kJ/mol
# Density = 2.408019 g / cm^3
# Si number density = 24.135125 Si / 1000 Ang^3
#
#
#
# Elastic Constant Matrix: (Units=GPa)
#
#
# Indices 1 2 3 4 5 6 
#
# 1 100.0831 43.7912 24.4241 -9.6842 -12.2998 5.5675
# 2 43.7912 156.7052 31.4477 -12.6281 -13.8877 6.1062
# 3 24.4241 31.4477 117.0140 -5.1798 -44.0214 5.5112
# 4 -9.6842 -12.6281 -5.1798 50.3026 -0.1013 -12.7546
# 5 -12.2998 -13.8877 -44.0214 -0.1013 53.7321 -2.7226
# 6 5.5675 6.1062 5.5112 -12.7546 -2.7226 50.3632
#
#
#
# Elastic Compliance Matrix: (Units=1/GPa)
#
#
# Indices 1 2 3 4 5 6 
#
# 1 0.011810 -0.002839 -0.001286 0.001319 0.000897 -0.000438
# 2 -0.002839 0.007556 -0.001287 0.001180 0.000243 -0.000149
# 3 -0.001286 -0.001287 0.012961 0.000680 0.009973 -0.000409
# 4 0.001319 0.001180 0.000680 0.021833 0.001471 0.005245
# 5 0.000897 0.000243 0.009973 0.001471 0.027083 0.000617
# 6 -0.000438 -0.000149 -0.000409 0.005245 0.000617 0.021329
#
#
# Mechanical properties :
#
#
# Convention : Reuss Voigt Hill
#
# Bulk Modulus (GPa) = 46.50669 63.68093 55.09381
# Shear Modulus (GPa) = 41.47164 49.15552 45.31358
#
# Velocity S-wave (km/s) = 4.14975 4.51785 4.33771
# Velocity P-wave (km/s) = 6.50167 7.32510 6.92563
#
# Compressibility (1/GPa) = 0.02150228
#
# Stress axis : x y z
#
# Youngs Moduli (GPa) = 84.67357 132.35077 77.15225
#
# Poissons Ratio (x) = 0.37581 0.09919
# Poissons Ratio (y) = 0.24043 0.09932
# Poissons Ratio (z) = 0.10886 0.17037
#
# Static dielectric constant tensor:
#      x y z
#    x 2.137090 0.192440 -0.173570 
#    y 0.192440 2.128420 -0.316540 
#    z -0.173570 -0.316540 2.207580 
# 
# From -- ./inp_files/367411.got.cif
#   From: 2010.05.17/outbox.cif.g08.bks.cpg/sg2_184_cif.got.tgz:367411.got - 2010.06.03 11:33:40.
