data_PCOD9061508
_publ_section_title
;
Structure prediction by ZEFSAII (Michael W. Deem and Ramdas Pophale) SiO2 
 PCOD9061508
Probable space group: P -1
;
_chemical_formula_sum "Si O2"
_cell_formula_units_Z 16
_cell_length_a 17.519286
_cell_length_b 12.765717
_cell_length_c 8.307026
_cell_angle_alpha 71.272022
_cell_angle_beta 89.778795
_cell_angle_gamma 30.938236
_cell_volume 750.839071
_symmetry_space_group_name_H-M "P -1"
_symmetry_group_IT_number 2
_symmetry_cell_setting 'triclinic'
loop_
_space_group_symop_operation_xyz
x,y,z
-x,-y,-z
loop_
_atom_site_type_symbol
_atom_site_label
_atom_site_fract_x
_atom_site_fract_y
_atom_site_fract_z
Si Si1 0.015551 0.412492 0.208996
Si Si2 0.650171 0.978680 0.425569
Si Si3 0.650035 0.628913 0.521904
Si Si4 0.467008 0.411341 0.042288
Si Si5 0.807094 0.048115 0.674943
Si Si6 0.334575 0.193396 0.791288
Si Si7 0.540002 0.573284 0.321911
Si Si8 0.886468 0.231093 0.993935
O O1 0.716318 0.627447 0.389496
O O2 0.826365 0.640353 0.181256
O O3 0.144964 0.303170 0.388314
O O4 0.389232 0.040283 0.722429
O O5 0.534285 0.095976 0.523991
O O6 0.592974 0.178587 0.279048
O O7 0.882729 0.836106 0.705992
O O8 0.609109 0.568023 0.459143
O O9 0.785989 0.440158 0.762346
O O10 0.267172 0.637551 0.981197
O O11 0.500000 0.500000 0.000000
O O12 0.494804 0.331883 0.899730
O O13 0.696638 0.276391 0.448979
O O14 0.649351 0.227705 0.715964
O O15 0.977571 0.884430 0.833471
O O16 0.000000 0.500000 0.000000
O O17 0.500000 0.000000 0.000000
O O18 0.000000 0.000000 0.000000
#
# Coordination Sequence:
#
# PCOD9061508 Si02
#       8
#     2   2   2   2   2   2   2   2
#     4  12  28  46  71 102 139 187 236 282 348 419
#     4  11  25  49  67  99 139 185 235 284 346 419
#     4  11  24  44  71  99 137 181 229 285 356 403
#     4  11  25  41  73 101 141 181 231 284 357 412
#     4  11  25  43  72  97 143 177 235 281 350 408
#     4  12  28  46  71 101 138 183 237 290 344 410
#     4  11  23  45  72 102 137 187 225 286 354 419
#     4  11  24  43  65 107 137 179 226 285 346 419
#
# _framework density 21.309494000000001
#
# number of rings (size 3 to 8) (size 9 to 14) (size 15 to 20)
#    0.000    0.750    2.500    3.750   12.250    3.500 
#    0.000    0.000    0.000    0.000    0.000    0.000 
#    0.000    0.000    0.000    0.000    0.000    0.000 
#
# Total GULP energy -89476.367075 kJ/mol
# GULP energy per Si atom -5592.272942 kJ/mol
# Density = 2.126099 g / cm^3
# Si number density = 21.309494 Si / 1000 Ang^3
#
#
#
# Elastic Constant Matrix: (Units=GPa)
#
#
# Indices 1 2 3 4 5 6 
#
# 1 81.4286 5.5017 18.0951 1.5292 10.2247 -0.8244
# 2 5.5017 87.5632 28.9353 6.6166 2.4230 -12.1635
# 3 18.0951 28.9353 74.4627 8.4453 20.9337 -21.0739
# 4 1.5292 6.6166 8.4453 36.1535 -7.6806 -0.1861
# 5 10.2247 2.4230 20.9337 -7.6806 34.4296 4.6246
# 6 -0.8244 -12.1635 -21.0739 -0.1861 4.6246 33.9868
#
#
#
# Elastic Compliance Matrix: (Units=1/GPa)
#
#
# Indices 1 2 3 4 5 6 
#
# 1 0.013184 0.000063 -0.002975 -0.000308 -0.002014 -0.001230
# 2 0.000063 0.013347 -0.005310 -0.000788 0.001931 0.001218
# 3 -0.002975 -0.005310 0.028305 -0.009796 -0.020600 0.018328
# 4 -0.000308 -0.000788 -0.009796 0.033165 0.014599 -0.008169
# 5 -0.002014 0.001931 -0.020600 0.014599 0.047781 -0.018553
# 6 -0.001230 0.001218 0.018328 -0.008169 -0.018553 0.043673
#
#
# Mechanical properties :
#
#
# Convention : Reuss Voigt Hill
#
# Bulk Modulus (GPa) = 26.04789 38.72430 32.38609
# Shear Modulus (GPa) = 23.95813 33.64215 28.80014
#
# Velocity S-wave (km/s) = 3.35669 3.97765 3.68029
# Velocity P-wave (km/s) = 5.22238 6.26956 5.76978
#
# Compressibility (1/GPa) = 0.03839082
#
# Stress axis : x y z
#
# Youngs Moduli (GPa) = 75.85033 74.92583 35.32885
#
# Poissons Ratio (x) = -0.00472 0.10511
# Poissons Ratio (y) = -0.00477 0.18761
# Poissons Ratio (z) = 0.22566 0.39789
#
# Static dielectric constant tensor:
#      x y z
#    x 1.833960 0.008620 -0.041740 
#    y 0.008620 1.593280 0.178400 
#    z -0.041740 0.178400 1.504530 
# 
# From -- ./inp_files/349484.got.cif
#   From: 2010.05.17/outbox.cif.g08.bks.cpg/sg2_175_cif.got.tgz:349484.got - 2010.06.03 11:33:40.
