data_PCOD9061779
_publ_section_title
;
Structure prediction by ZEFSAII (Michael W. Deem and Ramdas Pophale) SiO2 
 PCOD9061779
Probable space group: P -1
;
_chemical_formula_sum "Si O2"
_cell_formula_units_Z 12
_cell_length_a 15.705522
_cell_length_b 5.476914
_cell_length_c 7.822252
_cell_angle_alpha 65.442511
_cell_angle_beta 54.589058
_cell_angle_gamma 91.920426
_cell_volume 463.371071
_symmetry_space_group_name_H-M "P -1"
_symmetry_group_IT_number 2
_symmetry_cell_setting 'triclinic'
loop_
_space_group_symop_operation_xyz
x,y,z
-x,-y,-z
loop_
_atom_site_type_symbol
_atom_site_label
_atom_site_fract_x
_atom_site_fract_y
_atom_site_fract_z
Si Si1 0.710812 0.648536 0.831618
Si Si2 0.906867 0.146198 0.583621
Si Si3 0.471796 0.188067 0.832046
Si Si4 0.053835 0.350007 0.845239
Si Si5 0.735911 0.129957 0.076686
Si Si6 0.704670 0.603156 0.459742
O O1 0.757286 0.464825 0.957733
O O2 0.696617 0.534393 0.689658
O O3 0.805481 0.967183 0.625032
O O4 0.593721 0.638911 0.043547
O O5 0.948216 0.480103 0.378681
O O6 0.836634 0.100635 0.854411
O O7 0.000000 0.000000 0.500000
O O8 0.591046 0.399908 0.560360
O O9 0.500000 0.000000 0.000000
O O10 0.382158 0.005694 0.850042
O O11 0.182781 0.428220 0.723506
O O12 0.000000 0.500000 0.000000
O O13 0.000000 0.000000 0.000000
O O14 0.720507 0.935894 0.316542
#
# Coordination Sequence:
#
# PCOD9061779 Si02
#       6
#     2   2   2   2   2   2
#     4  11  24  47  70 106 144 189 245 304 374 438
#     4  11  25  48  73 102 152 193 243 313 372 448
#     4  11  23  46  70 101 147 188 239 306 375 439
#     4  12  27  48  74 111 146 198 254 312 378 450
#     4  11  25  44  70 107 139 192 242 301 374 449
#     4  12  24  46  74 104 146 190 247 304 369 448
#
# _framework density 25.897171
#
# number of rings (size 3 to 8) (size 9 to 14) (size 15 to 20)
#    0.000    0.667    3.333    4.000    2.333    1.333 
#   12.000    0.000    0.000    0.000    0.000    0.000 
#    0.000    0.000    0.000    0.000    0.000    0.000 
#
# Total GULP energy -67260.663741 kJ/mol
# GULP energy per Si atom -5605.055312 kJ/mol
# Density = 2.583823 g / cm^3
# Si number density = 25.897171 Si / 1000 Ang^3
#
#
#
# Elastic Constant Matrix: (Units=GPa)
#
#
# Indices 1 2 3 4 5 6 
#
# 1 112.3743 33.5053 58.9235 -5.6421 -28.4364 -17.9781
# 2 33.5053 126.5953 55.9035 -18.0333 -21.3708 -34.2180
# 3 58.9235 55.9035 119.6025 -24.1107 -24.8971 -17.3908
# 4 -5.6421 -18.0333 -24.1107 53.3798 -16.9770 -2.0586
# 5 -28.4364 -21.3708 -24.8971 -16.9770 64.6474 -11.0099
# 6 -17.9781 -34.2180 -17.3908 -2.0586 -11.0099 55.2927
#
#
#
# Elastic Compliance Matrix: (Units=1/GPa)
#
#
# Indices 1 2 3 4 5 6 
#
# 1 0.013391 0.001008 -0.004989 0.001410 0.005446 0.004545
# 2 0.001008 0.013410 -0.002739 0.005985 0.006990 0.009380
# 3 -0.004989 -0.002739 0.014896 0.006934 0.004901 0.002602
# 4 0.001410 0.005985 0.006934 0.029103 0.014674 0.010348
# 5 0.005446 0.006990 0.004901 0.014674 0.028268 0.013813
# 6 0.004545 0.009380 0.002602 0.010348 0.013813 0.029322
#
#
# Mechanical properties :
#
#
# Convention : Reuss Voigt Hill
#
# Bulk Modulus (GPa) = 35.39167 72.80407 54.09787
# Shear Modulus (GPa) = 33.05818 48.67995 40.86907
#
# Velocity S-wave (km/s) = 3.57671 4.34030 3.97688
# Velocity P-wave (km/s) = 5.54555 7.30010 6.48246
#
# Compressibility (1/GPa) = 0.02825524
#
# Stress axis : x y z
#
# Youngs Moduli (GPa) = 74.67936 74.57246 67.13334
#
# Poissons Ratio (x) = -0.07517 0.33496
# Poissons Ratio (y) = -0.07528 0.18388
# Poissons Ratio (z) = 0.37261 0.20425
#
# Static dielectric constant tensor:
#      x y z
#    x 2.016880 0.028800 0.010790 
#    y 0.028800 2.058810 -0.046900 
#    z 0.010790 -0.046900 2.046360 
# 
# From -- ./inp_files/19106.got.cif
#   From: 2010.05.17/outbox.cif.g08.bks.cpg/sg2_10_cif.got.tgz:19106.got - 2010.06.03 11:33:40.
