data_PCOD9061287
_publ_section_title
;
Structure prediction by ZEFSAII (Michael W. Deem and Ramdas Pophale) SiO2 
 PCOD9061287
Probable space group: P -1
;
_chemical_formula_sum "Si O2"
_cell_formula_units_Z 16
_cell_length_a 9.316281
_cell_length_b 25.714834
_cell_length_c 5.790096
_cell_angle_alpha 63.510778
_cell_angle_beta 86.275979
_cell_angle_gamma 41.299036
_cell_volume 728.668423
_symmetry_space_group_name_H-M "P -1"
_symmetry_group_IT_number 2
_symmetry_cell_setting 'triclinic'
loop_
_space_group_symop_operation_xyz
x,y,z
-x,-y,-z
loop_
_atom_site_type_symbol
_atom_site_label
_atom_site_fract_x
_atom_site_fract_y
_atom_site_fract_z
Si Si1 0.135089 0.609996 0.259911
Si Si2 0.796742 0.054293 0.225353
Si Si3 0.443147 0.471219 0.867324
Si Si4 0.404663 0.348109 0.221467
Si Si5 0.238752 0.117936 0.805701
Si Si6 0.709886 0.832833 0.798413
Si Si7 0.102844 0.499377 0.277519
Si Si8 0.134159 0.862544 0.267175
O O1 0.181230 0.574902 0.585261
O O2 0.341371 0.589485 0.220376
O O3 0.186480 0.536293 0.251471
O O4 0.878202 0.721081 0.011553
O O5 0.567796 0.098237 0.283395
O O6 0.753004 0.129602 0.947915
O O7 0.000000 0.000000 0.500000
O O8 0.921634 0.968656 0.204270
O O9 0.500000 0.500000 0.000000
O O10 0.441997 0.402882 0.036787
O O11 0.640785 0.231331 0.407535
O O12 0.335526 0.383376 0.422787
O O13 0.140434 0.414244 0.025748
O O14 0.235460 0.153436 0.483964
O O15 0.008743 0.148685 0.776733
O O16 0.236908 0.151437 0.991013
O O17 0.500000 0.000000 0.000000
O O18 0.000000 0.500000 0.500000
#
# Coordination Sequence:
#
# PCOD9061287 Si02
#       8
#     2   2   2   2   2   2   2   2
#     4  11  26  42  71 100 142 187 234 294 356 433
#     4  11  27  49  69 107 146 190 242 312 369 435
#     4  11  23  45  65 101 143 183 232 296 352 421
#     4  11  25  42  72  96 139 185 234 291 355 432
#     4  12  26  52  74 110 148 193 247 308 364 436
#     4  12  29  46  81 109 147 198 247 299 373 441
#     4  11  24  44  62 101 138 179 229 285 349 421
#     4  11  27  45  74 104 144 192 244 303 370 440
#
# _framework density 21.957861999999999
#
# number of rings (size 3 to 8) (size 9 to 14) (size 15 to 20)
#    0.000    0.750    3.750    1.875   10.500    0.000 
#    0.000    0.000    0.000    0.000    0.000    0.000 
#    0.000    0.000    0.000    0.000    0.000    0.000 
#
# Total GULP energy -89137.295882 kJ/mol
# GULP energy per Si atom -5571.080993 kJ/mol
# Density = 2.190788 g / cm^3
# Si number density = 21.957862 Si / 1000 Ang^3
#
#
#
# Elastic Constant Matrix: (Units=GPa)
#
#
# Indices 1 2 3 4 5 6 
#
# 1 116.4436 1.5112 30.1092 16.6607 0.3887 -8.3364
# 2 1.5112 42.9981 12.0331 -1.0305 -8.0557 -4.7295
# 3 30.1092 12.0331 108.9457 -6.3140 -9.1455 7.2171
# 4 16.6607 -1.0305 -6.3140 36.7724 -7.8470 1.1690
# 5 0.3887 -8.0557 -9.1455 -7.8470 39.9085 5.1545
# 6 -8.3364 -4.7295 7.2171 1.1690 5.1545 25.8823
#
#
#
# Elastic Compliance Matrix: (Units=1/GPa)
#
#
# Indices 1 2 3 4 5 6 
#
# 1 0.010982 0.000687 -0.004106 -0.006464 -0.002914 0.005680
# 2 0.000687 0.025341 -0.002949 0.000573 0.003917 0.004868
# 3 -0.004106 -0.002949 0.011643 0.004790 0.003841 -0.006090
# 4 -0.006464 0.000573 0.004790 0.033006 0.008608 -0.006518
# 5 -0.002914 0.003917 0.003841 0.008608 0.029423 -0.007543
# 6 0.005680 0.004868 -0.006090 -0.006518 -0.007543 0.044850
#
#
# Mechanical properties :
#
#
# Convention : Reuss Voigt Hill
#
# Bulk Modulus (GPa) = 28.38588 39.52161 33.95374
# Shear Modulus (GPa) = 27.82020 35.49489 31.65754
#
# Velocity S-wave (km/s) = 3.56333 4.02493 3.80115
# Velocity P-wave (km/s) = 5.46674 6.29587 5.89590
#
# Compressibility (1/GPa) = 0.03522879
#
# Stress axis : x y z
#
# Youngs Moduli (GPa) = 91.05814 39.46163 85.88835
#
# Poissons Ratio (x) = -0.02712 0.35270
# Poissons Ratio (y) = -0.06257 0.25331
# Poissons Ratio (z) = 0.37393 0.11639
#
# Static dielectric constant tensor:
#      x y z
#    x 1.855800 0.118400 0.125670 
#    y 0.118400 1.726840 -0.003930 
#    z 0.125670 -0.003930 1.864950 
# 
# From -- ./inp_files/56313.got.cif
#   From: 2010.05.17/outbox.cif.g08.bks.cpg/sg2_29_cif.got.tgz:56313.got - 2010.06.03 11:33:40.
