data_PCOD9061666
_publ_section_title
;
Structure prediction by ZEFSAII (Michael W. Deem and Ramdas Pophale) SiO2 
 PCOD9061666
Probable space group: P -1
;
_chemical_formula_sum "Si O2"
_cell_formula_units_Z 12
_cell_length_a 8.922653
_cell_length_b 24.814762
_cell_length_c 27.374307
_cell_angle_alpha 170.392099
_cell_angle_beta 29.757566
_cell_angle_gamma 151.105088
_cell_volume 487.912255
_symmetry_space_group_name_H-M "P -1"
_symmetry_group_IT_number 2
_symmetry_cell_setting 'triclinic'
loop_
_space_group_symop_operation_xyz
x,y,z
-x,-y,-z
loop_
_atom_site_type_symbol
_atom_site_label
_atom_site_fract_x
_atom_site_fract_y
_atom_site_fract_z
Si Si1 0.043200 0.765912 0.653220
Si Si2 0.506206 0.642071 0.497447
Si Si3 0.916787 0.303703 0.017965
Si Si4 0.525230 0.337259 0.764381
Si Si5 0.748198 0.497008 0.739990
Si Si6 0.941232 0.622085 0.196762
O O1 0.293581 0.716247 0.579011
O O2 0.157016 0.700275 0.508440
O O3 0.727082 0.507844 0.526957
O O4 0.018583 0.144525 0.002059
O O5 0.757266 0.966003 0.733845
O O6 0.681794 0.373529 0.187655
O O7 0.954464 0.594655 0.226902
O O8 0.253099 0.365385 0.002138
O O9 0.691492 0.325527 0.655167
O O10 0.500000 0.000000 0.500000
O O11 0.197880 0.436051 0.938724
O O12 0.408059 0.556890 0.878207
O O13 0.000000 0.000000 0.500000
#
# Coordination Sequence:
#
# PCOD9061666 Si02
#       6
#     2   2   2   2   2   2
#     4  11  23  45  76 111 141 190 253 317 365 438
#     4  11  23  45  76 109 145 191 248 311 380 440
#     4  12  25  46  73 110 149 197 241 307 384 447
#     4  12  29  48  73 110 158 204 243 306 384 450
#     4  12  25  46  75 110 145 193 256 309 362 443
#     4  12  25  46  75 108 144 199 259 308 356 443
#
# _framework density 24.594587000000001
#
# number of rings (size 3 to 8) (size 9 to 14) (size 15 to 20)
#    0.000    0.333    3.333    5.000    0.000    6.667 
#    0.000    5.000    0.000    0.000    0.000    0.000 
#    0.000    0.000    0.000    0.000    0.000    0.000 
#
# Total GULP energy -67300.066199 kJ/mol
# GULP energy per Si atom -5608.338850 kJ/mol
# Density = 2.453861 g / cm^3
# Si number density = 24.594587 Si / 1000 Ang^3
#
#
#
# Elastic Constant Matrix: (Units=GPa)
#
#
# Indices 1 2 3 4 5 6 
#
# 1 102.9201 38.9908 32.5969 7.5019 18.1030 -23.6826
# 2 38.9908 104.8995 28.2474 11.2873 2.8141 -25.1802
# 3 32.5969 28.2474 113.2986 10.1595 9.5809 -4.7581
# 4 7.5019 11.2873 10.1595 36.1043 0.0938 0.2515
# 5 18.1030 2.8141 9.5809 0.0938 36.9531 4.7354
# 6 -23.6826 -25.1802 -4.7581 0.2515 4.7354 36.5431
#
#
#
# Elastic Compliance Matrix: (Units=1/GPa)
#
#
# Indices 1 2 3 4 5 6 
#
# 1 0.014860 -0.002384 -0.002530 -0.001671 -0.007546 0.008647
# 2 -0.002384 0.013017 -0.001961 -0.003072 -0.000232 0.007220
# 3 -0.002530 -0.001961 0.010224 -0.001725 -0.001064 -0.001510
# 4 -0.001671 -0.003072 -0.001725 0.029513 0.001922 -0.003876
# 5 -0.007546 -0.000232 -0.001064 0.001922 0.032249 -0.009381
# 6 0.008647 0.007220 -0.001510 -0.003876 -0.009381 0.038990
#
#
# Mechanical properties :
#
#
# Convention : Reuss Voigt Hill
#
# Bulk Modulus (GPa) = 41.06590 57.86540 49.46565
# Shear Modulus (GPa) = 31.11006 36.67229 33.89118
#
# Velocity S-wave (km/s) = 3.56042 3.86563 3.71616
# Velocity P-wave (km/s) = 5.79961 6.59567 6.21041
#
# Compressibility (1/GPa) = 0.02435110
#
# Stress axis : x y z
#
# Youngs Moduli (GPa) = 67.29665 76.82157 97.80631
#
# Poissons Ratio (x) = 0.18315 0.24742
# Poissons Ratio (y) = 0.16044 0.19181
# Poissons Ratio (z) = 0.17024 0.15066
#
# Static dielectric constant tensor:
#      x y z
#    x 1.979920 0.008710 -0.016980 
#    y 0.008710 1.907380 0.001170 
#    z -0.016980 0.001170 1.938200 
# 
# From -- ./inp_files/229397.got.cif
#   From: 2010.05.17/outbox.cif.g08.bks.cpg/sg2_115_cif.got.tgz:229397.got - 2010.06.03 11:33:40.
