data_PCOD9061186
_publ_section_title
;
Structure prediction by ZEFSAII (Michael W. Deem and Ramdas Pophale) SiO2 
 PCOD9061186
Probable space group: P -1
;
_chemical_formula_sum "Si O2"
_cell_formula_units_Z 15
_cell_length_a 9.747559
_cell_length_b 13.554139
_cell_length_c 8.961796
_cell_angle_alpha 68.874274
_cell_angle_beta 116.039209
_cell_angle_gamma 61.963700
_cell_volume 656.820568
_symmetry_space_group_name_H-M "P -1"
_symmetry_group_IT_number 2
_symmetry_cell_setting 'triclinic'
loop_
_space_group_symop_operation_xyz
x,y,z
-x,-y,-z
loop_
_atom_site_type_symbol
_atom_site_label
_atom_site_fract_x
_atom_site_fract_y
_atom_site_fract_z
Si Si1 0.810908 0.429035 0.586630
Si Si2 0.972701 0.828755 0.400287
Si Si3 0.502026 0.924625 0.391408
Si Si4 0.709689 0.327840 0.850984
Si Si5 0.906476 0.025845 0.775793
Si Si6 0.736847 0.424310 0.095469
Si Si7 0.965007 0.548085 0.785729
Si Si8 0.500000 0.000000 0.000000
O O1 0.795853 0.332522 0.735461
O O2 0.544742 0.587472 0.330743
O O3 0.914966 0.474327 0.697462
O O4 0.958425 0.313931 0.579986
O O5 0.061421 0.755566 0.646271
O O6 0.109179 0.858418 0.387025
O O7 0.702599 0.976825 0.160881
O O8 0.748512 0.740698 0.579268
O O9 0.500000 0.000000 0.500000
O O10 0.322181 0.924350 0.344373
O O11 0.441586 0.006687 0.154872
O O12 0.711580 0.427499 0.905437
O O13 0.888551 0.151623 0.095386
O O14 0.000000 0.000000 0.000000
O O15 0.807578 0.505838 0.125941
O O16 0.500000 0.500000 0.000000
O O17 0.000000 0.500000 0.000000
#
# Coordination Sequence:
#
# PCOD9061186 Si02
#       8
#     2   2   2   2   2   2   2   1
#     4  11  24  44  76 103 140 193 244 297 363 441
#     4  12  27  48  74 107 151 191 246 310 372 445
#     4  12  28  51  76 109 154 200 249 314 377 447
#     4  11  23  44  74 104 142 186 241 299 362 441
#     4  12  24  45  76 104 138 197 243 294 377 444
#     4  12  26  49  68 108 148 183 239 316 367 438
#     4  12  27  46  75 108 144 199 254 302 381 447
#     4  12  26  50  76 108 158 194 252 312 370 448
#
# _framework density 22.837288000000001
#
# number of rings (size 3 to 8) (size 9 to 14) (size 15 to 20)
#    0.000    0.267    6.667    1.600    5.600    1.067 
#    2.400    0.000    0.000    0.000    0.000    0.000 
#    0.000    0.000    0.000    0.000    0.000    0.000 
#
# Total GULP energy -83542.485280 kJ/mol
# GULP energy per Si atom -5569.499019 kJ/mol
# Density = 2.278531 g / cm^3
# Si number density = 22.837288 Si / 1000 Ang^3
#
#
#
# Elastic Constant Matrix: (Units=GPa)
#
#
# Indices 1 2 3 4 5 6 
#
# 1 142.4436 24.9310 37.3686 16.4432 17.5817 37.7408
# 2 24.9310 94.7072 16.7223 15.3791 13.4500 17.9957
# 3 37.3686 16.7223 76.6540 22.5516 6.5493 12.8437
# 4 16.4432 15.3791 22.5516 33.7442 2.6606 3.6259
# 5 17.5817 13.4500 6.5493 2.6606 40.5745 17.5124
# 6 37.7408 17.9957 12.8437 3.6259 17.5124 22.6587
#
#
#
# Elastic Compliance Matrix: (Units=1/GPa)
#
#
# Indices 1 2 3 4 5 6 
#
# 1 0.014461 0.001712 -0.002053 -0.003887 0.005949 -0.028257
# 2 0.001712 0.013418 0.000051 -0.005622 0.000938 -0.013362
# 3 -0.002053 0.000051 0.018058 -0.010530 0.001321 -0.006193
# 4 -0.003887 -0.005622 -0.010530 0.039987 -0.002867 0.012725
# 5 0.005949 0.000938 0.001321 -0.002867 0.039698 -0.041626
# 6 -0.028257 -0.013362 -0.006193 0.012725 -0.041626 0.135457
#
#
# Mechanical properties :
#
#
# Convention : Reuss Voigt Hill
#
# Bulk Modulus (GPa) = 22.04791 52.42762 37.23777
# Shear Modulus (GPa) = 18.06503 35.04768 26.55636
#
# Velocity S-wave (km/s) = 2.81558 3.92174 3.41376
# Velocity P-wave (km/s) = 4.49948 6.59648 5.64619
#
# Compressibility (1/GPa) = 0.04535577
#
# Stress axis : x y z
#
# Youngs Moduli (GPa) = 69.15320 74.52750 55.37716
#
# Poissons Ratio (x) = -0.12756 0.11368
# Poissons Ratio (y) = -0.11836 -0.00282
# Poissons Ratio (z) = 0.14196 -0.00380
#
# Static dielectric constant tensor:
#      x y z
#    x 1.889290 -0.059800 -0.048930 
#    y -0.059800 1.887990 -0.001430 
#    z -0.048930 -0.001430 1.940130 
# 
# From -- ./inp_files/186132.got.cif
#   From: 2010.05.17/outbox.cif.g08.bks.cpg/sg2_94_cif.got.tgz:186132.got - 2010.06.03 11:33:40.
