data_PCOD9061756
_publ_section_title
;
Structure prediction by ZEFSAII (Michael W. Deem and Ramdas Pophale) SiO2 
 PCOD9061756
Probable space group: P -1
;
_chemical_formula_sum "Si O2"
_cell_formula_units_Z 16
_cell_length_a 15.387521
_cell_length_b 9.537968
_cell_length_c 9.454153
_cell_angle_alpha 117.693782
_cell_angle_beta 62.099733
_cell_angle_gamma 142.140534
_cell_volume 740.880836
_symmetry_space_group_name_H-M "P -1"
_symmetry_group_IT_number 2
_symmetry_cell_setting 'triclinic'
loop_
_space_group_symop_operation_xyz
x,y,z
-x,-y,-z
loop_
_atom_site_type_symbol
_atom_site_label
_atom_site_fract_x
_atom_site_fract_y
_atom_site_fract_z
Si Si1 0.086570 0.752329 0.502178
Si Si2 0.612618 0.026507 0.014515
Si Si3 0.609268 0.464401 0.526718
Si Si4 0.916266 0.063793 0.129205
Si Si5 0.075325 0.251330 0.601943
Si Si6 0.913528 0.550004 0.038937
Si Si7 0.582808 0.734359 0.136901
Si Si8 0.374220 0.148320 0.348540
O O1 0.084379 0.890387 0.684065
O O2 0.000000 0.500000 0.500000
O O3 0.014144 0.722480 0.399123
O O4 0.252505 0.914744 0.418985
O O5 0.639511 0.914863 0.832475
O O6 0.750822 0.300376 0.046683
O O7 0.500000 0.000000 0.000000
O O8 0.578998 0.894684 0.124750
O O9 0.759414 0.556116 0.484273
O O10 0.503215 0.347605 0.687678
O O11 0.524812 0.290555 0.376830
O O12 0.647345 0.688138 0.553613
O O13 0.750619 0.882609 0.111543
O O14 0.015861 0.312605 0.095552
O O15 0.000000 0.000000 0.000000
O O16 0.070580 0.286781 0.786962
O O17 0.000000 0.000000 0.500000
O O18 0.000000 0.500000 0.000000
O O19 0.500000 0.500000 0.000000
#
# Coordination Sequence:
#
# PCOD9061756 Si02
#       8
#     2   2   2   2   2   2   2   2
#     4  12  26  45  69 104 144 184 233 293 363 419
#     4  12  27  46  74 105 147 192 240 296 372 440
#     4  11  25  44  75 102 146 184 244 301 349 432
#     4  12  28  46  75 108 143 187 247 298 351 437
#     4  12  26  45  75 106 135 194 250 287 351 439
#     4  12  26  48  73 105 149 192 239 301 369 423
#     4  12  27  47  72 107 148 192 241 302 367 424
#     4  11  23  46  69 102 143 191 233 294 364 419
#
# _framework density 21.595915999999999
#
# number of rings (size 3 to 8) (size 9 to 14) (size 15 to 20)
#    0.000    0.250    5.000    3.750    5.250    1.000 
#    0.000    1.875    0.000    0.000    0.000    0.000 
#    0.000    0.000    0.000    0.000    0.000    0.000 
#
# Total GULP energy -89456.704934 kJ/mol
# GULP energy per Si atom -5591.044058 kJ/mol
# Density = 2.154676 g / cm^3
# Si number density = 21.595916 Si / 1000 Ang^3
#
#
#
# Elastic Constant Matrix: (Units=GPa)
#
#
# Indices 1 2 3 4 5 6 
#
# 1 85.5618 31.9869 -7.2441 0.8590 -1.0744 20.3021
# 2 31.9869 121.2616 15.0695 -5.0872 8.9436 11.8448
# 3 -7.2441 15.0695 87.2587 1.8061 11.5341 13.0452
# 4 0.8590 -5.0872 1.8061 38.3106 1.3003 7.5311
# 5 -1.0744 8.9436 11.5341 1.3003 29.3313 -2.0294
# 6 20.3021 11.8448 13.0452 7.5311 -2.0294 34.5677
#
#
#
# Elastic Compliance Matrix: (Units=1/GPa)
#
#
# Indices 1 2 3 4 5 6 
#
# 1 0.015493 -0.003523 0.003322 0.000880 -0.000351 -0.009358
# 2 -0.003523 0.009756 -0.001469 0.001784 -0.002693 -0.001266
# 3 0.003322 -0.001469 0.013744 0.000658 -0.005355 -0.007092
# 4 0.000880 0.001784 0.000658 0.027868 -0.002532 -0.007596
# 5 -0.000351 -0.002693 -0.005355 -0.002532 0.037528 0.005904
# 6 -0.009358 -0.001266 -0.007092 -0.007596 0.005904 0.039537
#
#
# Mechanical properties :
#
#
# Convention : Reuss Voigt Hill
#
# Bulk Modulus (GPa) = 28.04820 41.52295 34.78558
# Shear Modulus (GPa) = 31.41708 37.39324 34.40516
#
# Velocity S-wave (km/s) = 3.81828 4.16564 3.99574
# Velocity P-wave (km/s) = 5.69693 6.51197 6.11803
#
# Compressibility (1/GPa) = 0.03565291
#
# Stress axis : x y z
#
# Youngs Moduli (GPa) = 64.54580 102.50582 72.75834
#
# Poissons Ratio (x) = 0.36110 -0.24169
# Poissons Ratio (y) = 0.22738 0.10688
# Poissons Ratio (z) = -0.21441 0.15057
#
# Static dielectric constant tensor:
#      x y z
#    x 1.781970 -0.023120 -0.008200 
#    y -0.023120 1.753970 0.010540 
#    z -0.008200 0.010540 1.801110 
# 
# From -- ./inp_files/299154.got.cif
#   From: 2010.05.17/outbox.cif.g08.bks.cpg/sg2_150_cif.got.tgz:299154.got - 2010.06.03 11:33:40.
