data_PCOD9061705
_publ_section_title
;
Structure prediction by ZEFSAII (Michael W. Deem and Ramdas Pophale) SiO2 
 PCOD9061705
Probable space group: P -1
;
_chemical_formula_sum "Si O2"
_cell_formula_units_Z 16
_cell_length_a 22.454795
_cell_length_b 5.912087
_cell_length_c 7.048225
_cell_angle_alpha 92.490686
_cell_angle_beta 92.778767
_cell_angle_gamma 124.073865
_cell_volume 771.306376
_symmetry_space_group_name_H-M "P -1"
_symmetry_group_IT_number 2
_symmetry_cell_setting 'triclinic'
loop_
_space_group_symop_operation_xyz
x,y,z
-x,-y,-z
loop_
_atom_site_type_symbol
_atom_site_label
_atom_site_fract_x
_atom_site_fract_y
_atom_site_fract_z
Si Si1 0.715272 0.143597 0.066742
Si Si2 0.943192 0.178098 0.476799
Si Si3 0.432197 0.354666 0.126911
Si Si4 0.299079 0.560489 0.579446
Si Si5 0.800731 0.410848 0.713494
Si Si6 0.788307 0.026652 0.379310
Si Si7 0.961141 0.901895 0.791657
Si Si8 0.434516 0.869169 0.338271
O O1 0.688913 0.266650 0.224339
O O2 0.778019 0.153491 0.194970
O O3 0.751977 0.321709 0.889942
O O4 0.646905 0.845912 0.986255
O O5 0.000000 0.500000 0.500000
O O6 0.979706 0.077184 0.338734
O O7 0.865222 0.072787 0.382055
O O8 0.938463 0.082824 0.688507
O O9 0.433454 0.614621 0.228041
O O10 0.439146 0.124199 0.235870
O O11 0.500000 0.500000 0.000000
O O12 0.227104 0.470866 0.444779
O O13 0.283096 0.276973 0.637107
O O14 0.362722 0.726951 0.448347
O O15 0.885211 0.608270 0.778943
O O16 0.787769 0.155240 0.583885
O O17 0.000000 0.000000 0.000000
O O18 0.500000 0.000000 0.500000
#
# Coordination Sequence:
#
# PCOD9061705 Si02
#       8
#     2   2   2   2   2   2   2   2
#     4  11  27  42  72 104 140 179 238 288 355 420
#     4  11  24  45  62  93 133 175 229 288 355 424
#     4  12  27  49  76 112 151 188 242 299 352 429
#     4  11  25  45  70  99 141 186 232 284 357 417
#     4  11  23  46  62 100 136 177 231 290 350 425
#     4  11  25  42  69  95 137 185 226 294 356 426
#     4  11  26  40  67  92 132 176 231 291 356 422
#     4  12  27  48  78 107 153 194 238 294 359 427
#
# _framework density 20.744026999999999
#
# number of rings (size 3 to 8) (size 9 to 14) (size 15 to 20)
#    0.000    0.750    3.750    2.250    8.750    2.500 
#    0.000    0.000    0.000    0.000    0.000    0.000 
#    0.000    0.000    0.000    0.000    0.000    0.000 
#
# Total GULP energy -89177.578426 kJ/mol
# GULP energy per Si atom -5573.598652 kJ/mol
# Density = 2.069681 g / cm^3
# Si number density = 20.744027 Si / 1000 Ang^3
#
#
#
# Elastic Constant Matrix: (Units=GPa)
#
#
# Indices 1 2 3 4 5 6 
#
# 1 87.0341 26.3399 42.7953 6.8149 1.8718 4.1485
# 2 26.3399 115.3153 55.8939 6.1177 0.9565 -3.0685
# 3 42.7953 55.8939 141.9153 14.3580 1.5309 -4.0643
# 4 6.8149 6.1177 14.3580 32.3320 12.6874 -0.7153
# 5 1.8718 0.9565 1.5309 12.6874 35.0990 2.4942
# 6 4.1485 -3.0685 -4.0643 -0.7153 2.4942 29.5007
#
#
#
# Elastic Compliance Matrix: (Units=1/GPa)
#
#
# Indices 1 2 3 4 5 6 
#
# 1 0.013904 -0.001449 -0.003582 -0.001146 0.000055 -0.002632
# 2 -0.001449 0.010879 -0.003824 0.000008 -0.000113 0.000818
# 3 -0.003582 -0.003824 0.009995 -0.003308 0.000961 0.001321
# 4 -0.001146 0.000008 -0.003308 0.038043 -0.013673 0.001785
# 5 0.000055 -0.000113 0.000961 -0.013673 0.033609 -0.003060
# 6 -0.002632 0.000818 0.001321 0.001785 -0.003060 0.034837
#
#
# Mechanical properties :
#
#
# Convention : Reuss Voigt Hill
#
# Bulk Modulus (GPa) = 58.59239 66.03588 62.31413
# Shear Modulus (GPa) = 30.36473 34.00205 32.18339
#
# Velocity S-wave (km/s) = 3.83009 4.05300 3.94312
# Velocity P-wave (km/s) = 6.91854 7.33521 7.12992
#
# Compressibility (1/GPa) = 0.01706706
#
# Stress axis : x y z
#
# Youngs Moduli (GPa) = 71.92376 91.92388 100.05292
#
# Poissons Ratio (x) = 0.13323 0.35838
# Poissons Ratio (y) = 0.10424 0.38257
# Poissons Ratio (z) = 0.25763 0.35148
#
# Static dielectric constant tensor:
#      x y z
#    x 1.789970 -0.068120 0.014640 
#    y -0.068120 1.805670 -0.013860 
#    z 0.014640 -0.013860 1.697360 
# 
# From -- ./inp_files/11446.got.cif
#   From: 2010.05.17/outbox.cif.g08.bks.cpg/sg2_6_cif.got.tgz:11446.got - 2010.06.03 11:33:40.
