data_PCOD9061711
_publ_section_title
;
Structure prediction by ZEFSAII (Michael W. Deem and Ramdas Pophale) SiO2 
 PCOD9061711
Probable space group: P -1
;
_chemical_formula_sum "Si O2"
_cell_formula_units_Z 16
_cell_length_a 22.058700
_cell_length_b 9.052666
_cell_length_c 5.788283
_cell_angle_alpha 50.513874
_cell_angle_beta 116.653645
_cell_angle_gamma 118.959978
_cell_volume 763.393470
_symmetry_space_group_name_H-M "P -1"
_symmetry_group_IT_number 2
_symmetry_cell_setting 'triclinic'
loop_
_space_group_symop_operation_xyz
x,y,z
-x,-y,-z
loop_
_atom_site_type_symbol
_atom_site_label
_atom_site_fract_x
_atom_site_fract_y
_atom_site_fract_z
Si Si1 0.932073 0.808103 0.576041
Si Si2 0.211086 0.690339 0.840857
Si Si3 0.448600 0.478740 0.646161
Si Si4 0.452718 0.148048 0.287569
Si Si5 0.695130 0.954151 0.613713
Si Si6 0.800012 0.986364 0.159174
Si Si7 0.703981 0.621953 0.636674
Si Si8 0.069170 0.421395 0.693656
O O1 0.865723 0.897727 0.356988
O O2 0.932321 0.689896 0.448625
O O3 0.930815 0.696076 0.938458
O O4 0.000000 0.000000 0.500000
O O5 0.143150 0.598697 0.653502
O O6 0.280641 0.862035 0.703677
O O7 0.183692 0.804630 0.885653
O O8 0.240982 0.505362 0.132568
O O9 0.500000 0.500000 0.500000
O O10 0.493910 0.654488 0.708467
O O11 0.372196 0.509447 0.446417
O O12 0.431958 0.246631 0.923797
O O13 0.379683 0.056649 0.389188
O O14 0.500000 0.000000 0.500000
O O15 0.689667 0.731344 0.735983
O O16 0.764802 0.009890 0.835812
O O17 0.738311 0.812583 0.347720
O O18 0.000000 0.500000 0.500000
#
# Coordination Sequence:
#
# PCOD9061711 Si02
#       8
#     2   2   2   2   2   2   2   2
#     4  12  27  48  78 107 153 192 234 304 356 421
#     4  11  27  42  72 104 135 186 233 287 356 424
#     4  11  24  43  66  89 132 177 227 288 352 422
#     4  11  26  42  62  98 129 176 233 288 357 421
#     4  11  25  42  66  97 139 179 229 296 349 426
#     4  11  25  45  69 101 144 179 238 283 356 419
#     4  11  23  46  65  97 136 180 231 288 353 419
#     4  12  27  49  76 111 149 191 245 291 357 434
#
# _framework density 20.959047000000002
#
# number of rings (size 3 to 8) (size 9 to 14) (size 15 to 20)
#    0.000    0.750    3.750    2.250    8.750    1.500 
#    0.000    0.000    0.000    0.000    0.000    0.000 
#    0.000    0.000    0.000    0.000    0.000    0.000 
#
# Total GULP energy -89161.899232 kJ/mol
# GULP energy per Si atom -5572.618702 kJ/mol
# Density = 2.091134 g / cm^3
# Si number density = 20.959047 Si / 1000 Ang^3
#
#
#
# Elastic Constant Matrix: (Units=GPa)
#
#
# Indices 1 2 3 4 5 6 
#
# 1 106.0651 -19.2028 47.0235 -12.7305 1.3481 22.4134
# 2 -19.2028 -19.1729 41.7243 -18.4714 -38.4912 36.8390
# 3 47.0235 41.7243 74.7781 -8.0817 18.1318 -16.9590
# 4 -12.7305 -18.4714 -8.0817 29.3381 -2.3228 10.7910
# 5 1.3481 -38.4912 18.1318 -2.3228 26.0771 10.3120
# 6 22.4134 36.8390 -16.9590 10.7910 10.3120 40.7516
#
#
#
# Elastic Compliance Matrix: (Units=1/GPa)
#
#
# Indices 1 2 3 4 5 6 
#
# 1 0.009804 -0.004780 -0.002210 0.000421 -0.005731 -0.000652
# 2 -0.004780 0.000084 0.006162 -0.003862 -0.007429 0.008020
# 3 -0.002210 0.006162 0.010623 0.007125 0.003531 -0.002714
# 4 0.000421 -0.003862 0.007125 0.033501 -0.007384 -0.000778
# 5 -0.005731 -0.007429 0.003531 -0.007384 0.021457 0.007863
# 6 -0.000652 0.008020 -0.002714 -0.000778 0.007863 0.014734
#
#
# Mechanical properties :
#
#
# Convention : Reuss Voigt Hill
#
# Bulk Modulus (GPa) = 53.04169 33.41781 43.22975
# Shear Modulus (GPa) = 50.94576 25.37504 38.16040
#
# Velocity S-wave (km/s) = 4.93559 3.48328 4.27161
# Velocity P-wave (km/s) = 7.60541 5.67068 6.70816
#
# Compressibility (1/GPa) = 0.01885310
#
# Stress axis : x y z
#
# Youngs Moduli (GPa) = 102.00331 11884.22888 94.13832
#
# Poissons Ratio (x) = 56.81216 0.20805
# Poissons Ratio (y) = 0.48762 -0.58007
# Poissons Ratio (z) = 0.22544 -73.22937
#
# Static dielectric constant tensor:
#      x y z
#    x 1.739720 -0.148140 -0.117540 
#    y -0.148140 1.245260 -0.225400 
#    z -0.117540 -0.225400 1.798570 
# 
# From -- ./inp_files/10671.got.cif
#   From: 2010.05.17/outbox.cif.g08.bks.cpg/sg2_6_cif.got.tgz:10671.got - 2010.06.03 11:33:40.
