data_PCOD9061585
_publ_section_title
;
Structure prediction by ZEFSAII (Michael W. Deem and Ramdas Pophale) SiO2 
 PCOD9061585
Probable space group: P -1
;
_chemical_formula_sum "Si O2"
_cell_formula_units_Z 14
_cell_length_a 9.539371
_cell_length_b 8.629391
_cell_length_c 8.342986
_cell_angle_alpha 88.561709
_cell_angle_beta 64.177485
_cell_angle_gamma 107.502121
_cell_volume 579.760606
_symmetry_space_group_name_H-M "P -1"
_symmetry_group_IT_number 2
_symmetry_cell_setting 'triclinic'
loop_
_space_group_symop_operation_xyz
x,y,z
-x,-y,-z
loop_
_atom_site_type_symbol
_atom_site_label
_atom_site_fract_x
_atom_site_fract_y
_atom_site_fract_z
Si Si1 0.528220 0.188266 0.665188
Si Si2 0.163572 0.006005 0.826103
Si Si3 0.235813 0.486239 0.462924
Si Si4 0.844148 0.372445 0.172190
Si Si5 0.646927 0.984077 0.817269
Si Si6 0.516334 0.700262 0.673302
Si Si7 0.984400 0.859948 0.384363
O O1 0.656045 0.347782 0.687450
O O2 0.615481 0.056746 0.659574
O O3 0.512631 0.219549 0.483956
O O4 0.337817 0.112871 0.818524
O O5 0.157204 0.816660 0.811976
O O6 0.144419 0.110790 0.677875
O O7 0.000000 0.000000 0.000000
O O8 0.164351 0.553251 0.649758
O O9 0.386387 0.419339 0.423258
O O10 0.084608 0.321083 0.497306
O O11 0.674483 0.372671 0.172495
O O12 0.000000 0.500000 0.000000
O O13 0.830428 0.090488 0.781335
O O14 0.617156 0.800366 0.774710
O O15 0.500000 0.000000 0.000000
O O16 0.000000 0.000000 0.500000
#
# Coordination Sequence:
#
# PCOD9061585 Si02
#       7
#     2   2   2   2   2   2   2
#     4  11  23  45  74  97 129 184 244 270 336 414
#     4  12  25  43  73 103 138 180 228 286 346 402
#     4  11  25  42  72 103 134 181 235 293 332 408
#     4  11  25  41  71 108 136 173 239 295 330 396
#     4  12  26  45  67  99 142 186 222 284 352 413
#     4  11  23  45  73  99 133 185 233 283 339 407
#     4  12  26  45  67 100 144 178 226 280 353 414
#
# _framework density 24.1479
#
# number of rings (size 3 to 8) (size 9 to 14) (size 15 to 20)
#    0.000    0.571    4.286    3.857   10.000    0.571 
#    0.000    0.714    0.000    0.000    0.000    0.000 
#    0.000    0.000    0.000    0.000    0.000    0.000 
#
# Total GULP energy -78069.972035 kJ/mol
# GULP energy per Si atom -5576.426574 kJ/mol
# Density = 2.409294 g / cm^3
# Si number density = 24.147900 Si / 1000 Ang^3
#
#
#
# Elastic Constant Matrix: (Units=GPa)
#
#
# Indices 1 2 3 4 5 6 
#
# 1 103.3832 11.9448 26.8208 -14.2983 -38.1411 12.8775
# 2 11.9448 129.0080 40.1431 -3.5994 -36.5365 19.7783
# 3 26.8208 40.1431 68.5572 -6.0165 -43.7185 -1.0558
# 4 -14.2983 -3.5994 -6.0165 37.8706 9.2378 -17.8631
# 5 -38.1411 -36.5365 -43.7185 9.2378 49.2623 -9.1125
# 6 12.8775 19.7783 -1.0558 -17.8631 -9.1125 46.3717
#
#
#
# Elastic Compliance Matrix: (Units=1/GPa)
#
#
# Indices 1 2 3 4 5 6 
#
# 1 0.014557 0.002281 0.002274 0.001907 0.014363 -0.001406
# 2 0.002281 0.011235 -0.003814 -0.002713 0.006236 -0.005332
# 3 0.002274 -0.003814 0.037866 0.002784 0.033784 0.009569
# 4 0.001907 -0.002713 0.002784 0.034138 -0.001978 0.013453
# 5 0.014363 0.006236 0.033784 -0.001978 0.067629 0.006649
# 6 -0.001406 -0.005332 0.009569 0.013453 0.006649 0.030936
#
#
# Mechanical properties :
#
#
# Convention : Reuss Voigt Hill
#
# Bulk Modulus (GPa) = 15.35149 50.97400 33.16275
# Shear Modulus (GPa) = 23.08481 41.50357 32.29419
#
# Velocity S-wave (km/s) = 3.09524 4.15025 3.66095
# Velocity P-wave (km/s) = 4.37551 6.64236 5.62433
#
# Compressibility (1/GPa) = 0.06514027
#
# Stress axis : x y z
#
# Youngs Moduli (GPa) = 68.69473 89.00697 26.40893
#
# Poissons Ratio (x) = -0.20304 -0.06006
# Poissons Ratio (y) = -0.15670 0.10074
# Poissons Ratio (z) = -0.15624 0.33951
#
# Static dielectric constant tensor:
#      x y z
#    x 1.976710 0.054310 0.037840 
#    y 0.054310 2.043540 -0.047610 
#    z 0.037840 -0.047610 2.058470 
# 
# From -- ./inp_files/244424.got.cif
#   From: 2010.05.17/outbox.cif.g08.bks.cpg/sg2_123_cif.got.tgz:244424.got - 2010.06.03 11:33:40.
