data_PCOD9061562
_publ_section_title
;
Structure prediction by ZEFSAII (Michael W. Deem and Ramdas Pophale) SiO2 
 PCOD9061562
Probable space group: P -1
;
_chemical_formula_sum "Si O2"
_cell_formula_units_Z 16
_cell_length_a 8.917380
_cell_length_b 12.527446
_cell_length_c 23.079372
_cell_angle_alpha 155.937091
_cell_angle_beta 45.622523
_cell_angle_gamma 139.757476
_cell_volume 679.105774
_symmetry_space_group_name_H-M "P -1"
_symmetry_group_IT_number 2
_symmetry_cell_setting 'triclinic'
loop_
_space_group_symop_operation_xyz
x,y,z
-x,-y,-z
loop_
_atom_site_type_symbol
_atom_site_label
_atom_site_fract_x
_atom_site_fract_y
_atom_site_fract_z
Si Si1 0.254083 0.761829 0.422887
Si Si2 0.351696 0.094535 0.827667
Si Si3 0.012272 0.696505 0.648255
Si Si4 0.122120 0.809164 0.088565
Si Si5 0.738754 0.241582 0.717760
Si Si6 0.411980 0.906773 0.833019
Si Si7 0.076594 0.783144 0.957419
Si Si8 0.744334 0.661036 0.479039
O O1 0.279415 0.727086 0.330305
O O2 0.197580 0.480960 0.339449
O O3 0.000994 0.784693 0.503098
O O4 0.500000 0.000000 0.500000
O O5 0.530278 0.290910 0.829712
O O6 0.237583 0.788135 0.673066
O O7 0.491693 0.100751 0.850211
O O8 0.130272 0.128167 0.928352
O O9 0.000000 0.500000 0.500000
O O10 0.029019 0.006315 0.777703
O O11 0.356371 0.031789 0.165350
O O12 0.000000 0.500000 0.000000
O O13 0.174586 0.770561 0.988082
O O14 0.961293 0.472283 0.804731
O O15 0.732383 0.931620 0.582420
O O16 0.274939 0.587354 0.684933
O O17 0.253322 0.976831 0.956698
O O18 0.500000 0.500000 0.500000
#
# Coordination Sequence:
#
# PCOD9061562 Si02
#       8
#     2   2   2   2   2   2   2   2
#     4  12  27  45  74 120 155 198 254 322 383 456
#     4  11  23  45  73 103 146 203 248 308 378 458
#     4  11  25  48  72 108 156 198 252 317 389 451
#     4  11  28  47  74 110 146 200 257 321 384 463
#     4  12  24  46  74 112 155 195 256 309 390 463
#     4  12  24  47  77 104 151 197 257 310 387 455
#     4  11  25  46  70 106 148 197 254 306 383 459
#     4  12  26  47  78 112 156 205 250 313 391 461
#
# _framework density 23.560395
#
# number of rings (size 3 to 8) (size 9 to 14) (size 15 to 20)
#    0.000    0.500    3.750    3.000    5.250    2.000 
#    0.000    6.250    0.000    0.000    0.000    0.000 
#    0.000    0.000    0.000    0.000    0.000    0.000 
#
# Total GULP energy -89242.115205 kJ/mol
# GULP energy per Si atom -5577.632200 kJ/mol
# Density = 2.350677 g / cm^3
# Si number density = 23.560395 Si / 1000 Ang^3
#
#
#
# Elastic Constant Matrix: (Units=GPa)
#
#
# Indices 1 2 3 4 5 6 
#
# 1 130.7591 39.9450 46.2303 -6.9548 29.3479 0.0601
# 2 39.9450 113.6027 38.0921 -22.9306 7.2949 -15.3798
# 3 46.2303 38.0921 100.8712 -6.7551 14.5013 -19.9886
# 4 -6.9548 -22.9306 -6.7551 49.9761 0.0911 6.7832
# 5 29.3479 7.2949 14.5013 0.0911 52.8900 -3.6794
# 6 0.0601 -15.3798 -19.9886 6.7832 -3.6794 48.8304
#
#
#
# Elastic Compliance Matrix: (Units=1/GPa)
#
#
# Indices 1 2 3 4 5 6 
#
# 1 0.010894 -0.002559 -0.003873 0.000207 -0.004825 -0.002797
# 2 -0.002559 0.011708 -0.002645 0.004379 0.000665 0.002050
# 3 -0.003873 -0.002645 0.013734 -0.000546 -0.000917 0.004801
# 4 0.000207 0.004379 -0.000546 0.022245 -0.000746 -0.001991
# 5 -0.004825 0.000665 -0.000917 -0.000746 0.021856 0.001591
# 6 -0.002797 0.002050 0.004801 -0.001991 0.001591 0.023490
#
#
# Mechanical properties :
#
#
# Convention : Reuss Voigt Hill
#
# Bulk Modulus (GPa) = 54.99913 65.97421 60.48667
# Shear Modulus (GPa) = 39.01945 45.07033 42.04489
#
# Velocity S-wave (km/s) = 4.07399 4.37850 4.22899
# Velocity P-wave (km/s) = 6.74718 7.32288 7.04092
#
# Compressibility (1/GPa) = 0.01818211
#
# Stress axis : x y z
#
# Youngs Moduli (GPa) = 91.79369 85.41290 72.81199
#
# Poissons Ratio (x) = 0.21856 0.28202
# Poissons Ratio (y) = 0.23489 0.19256
# Poissons Ratio (z) = 0.35555 0.22589
#
# Static dielectric constant tensor:
#      x y z
#    x 1.938240 -0.002050 -0.056230 
#    y -0.002050 1.969050 0.032240 
#    z -0.056230 0.032240 1.932180 
# 
# From -- ./inp_files/589700.got.cif
#   From: 2010.05.17/outbox.cif.g08.bks.cpg/sg2_295_cif.got.tgz:589700.got - 2010.06.03 11:33:40.
