data_PCOD9061092
_publ_section_title
;
Structure prediction by ZEFSAII (Michael W. Deem and Ramdas Pophale) SiO2 
 PCOD9061092
Probable space group: P -1
;
_chemical_formula_sum "Si O2"
_cell_formula_units_Z 15
_cell_length_a 11.891124
_cell_length_b 8.231726
_cell_length_c 13.876018
_cell_angle_alpha 80.872537
_cell_angle_beta 31.633790
_cell_angle_gamma 66.993298
_cell_volume 611.578395
_symmetry_space_group_name_H-M "P -1"
_symmetry_group_IT_number 2
_symmetry_cell_setting 'triclinic'
loop_
_space_group_symop_operation_xyz
x,y,z
-x,-y,-z
loop_
_atom_site_type_symbol
_atom_site_label
_atom_site_fract_x
_atom_site_fract_y
_atom_site_fract_z
Si Si1 0.007392 0.596762 0.758337
Si Si2 0.186382 0.287317 0.907476
Si Si3 0.424738 0.273345 0.086928
Si Si4 0.682418 0.243884 0.562708
Si Si5 0.548975 0.827768 0.554022
Si Si6 0.000000 0.000000 0.000000
Si Si7 0.246844 0.133033 0.389355
Si Si8 0.308532 0.621495 0.259842
O O1 0.139904 0.721572 0.636811
O O2 0.225304 0.377060 0.628088
O O3 0.821493 0.696798 0.972657
O O4 0.833256 0.622164 0.792257
O O5 0.447144 0.255216 0.683459
O O6 0.000000 0.500000 0.000000
O O7 0.108665 0.140291 0.939223
O O8 0.420717 0.117342 0.174078
O O9 0.448586 0.415746 0.130210
O O10 0.627077 0.240348 0.862344
O O11 0.612744 0.391893 0.686377
O O12 0.798082 0.043308 0.549798
O O13 0.280528 0.847585 0.764567
O O14 0.647936 0.843811 0.587446
O O15 0.500000 0.000000 0.500000
O O16 0.979663 0.306821 0.544940
#
# Coordination Sequence:
#
# PCOD9061092 Si02
#       8
#     2   2   2   2   2   1   2   2
#     4  12  26  48  79 108 150 200 249 317 382 454
#     4  12  28  51  76 110 151 199 261 317 378 458
#     4  11  24  43  74 110 145 198 245 305 385 444
#     4  12  26  45  73 109 150 198 249 316 380 451
#     4  12  28  49  76 109 149 199 257 312 373 453
#     4  12  28  52  76 106 146 202 250 314 378 444
#     4  12  25  45  70 108 151 193 247 309 373 457
#     4  11  23  44  72 108 151 192 246 310 376 457
#
# _framework density 24.526700000000002
#
# number of rings (size 3 to 8) (size 9 to 14) (size 15 to 20)
#    0.000    0.267    5.333    3.200    1.867    3.733 
#    0.000    0.000    0.000    0.000    0.000    0.000 
#    0.000    0.000    0.000    0.000    0.000    0.000 
#
# Total GULP energy -83624.320633 kJ/mol
# GULP energy per Si atom -5574.954709 kJ/mol
# Density = 2.447088 g / cm^3
# Si number density = 24.526700 Si / 1000 Ang^3
#
#
#
# Elastic Constant Matrix: (Units=GPa)
#
#
# Indices 1 2 3 4 5 6 
#
# 1 108.9837 19.9457 18.2610 -13.3991 -13.1058 4.5385
# 2 19.9457 89.6785 -2.2813 -5.2134 -7.7530 -7.1153
# 3 18.2610 -2.2813 93.5774 -20.0797 -30.5845 -13.9544
# 4 -13.3991 -5.2134 -20.0797 37.5630 2.7317 2.3559
# 5 -13.1058 -7.7530 -30.5845 2.7317 36.7107 -8.6949
# 6 4.5385 -7.1153 -13.9544 2.3559 -8.6949 37.5100
#
#
#
# Elastic Compliance Matrix: (Units=1/GPa)
#
#
# Indices 1 2 3 4 5 6 
#
# 1 0.010396 -0.002220 -0.001319 0.002714 0.001469 -0.002000
# 2 -0.002220 0.012935 0.004331 0.002470 0.006723 0.005737
# 3 -0.001319 0.004331 0.022096 0.009539 0.021352 0.013551
# 4 0.002714 0.002470 0.009539 0.032242 0.007865 0.003487
# 5 0.001469 0.006723 0.021352 0.007865 0.051224 0.020421
# 6 -0.002000 0.005737 0.013551 0.003487 0.020421 0.037546
#
#
# Mechanical properties :
#
#
# Convention : Reuss Voigt Hill
#
# Bulk Modulus (GPa) = 21.27112 40.45449 30.86281
# Shear Modulus (GPa) = 27.69714 39.44434 33.57074
#
# Velocity S-wave (km/s) = 3.36410 4.01461 3.70367
# Velocity P-wave (km/s) = 4.87658 6.16598 5.55879
#
# Compressibility (1/GPa) = 0.04701209
#
# Stress axis : x y z
#
# Youngs Moduli (GPa) = 96.18652 77.31098 45.25771
#
# Poissons Ratio (x) = 0.17161 0.05968
# Poissons Ratio (y) = 0.21351 -0.19602
# Poissons Ratio (z) = 0.12685 -0.33484
#
# Static dielectric constant tensor:
#      x y z
#    x 2.006120 -0.020020 0.095890 
#    y -0.020020 2.012700 0.019750 
#    z 0.095890 0.019750 1.989540 
# 
# From -- ./inp_files/200421.got.cif
#   From: 2010.05.17/outbox.cif.g08.bks.cpg/sg2_101_cif.got.tgz:200421.got - 2010.06.03 11:33:40.
