data_PCOD9061611
_publ_section_title
;
Structure prediction by ZEFSAII (Michael W. Deem and Ramdas Pophale) SiO2 
 PCOD9061611
Probable space group: P -1
;
_chemical_formula_sum "Si O2"
_cell_formula_units_Z 12
_cell_length_a 12.289216
_cell_length_b 5.326604
_cell_length_c 13.043405
_cell_angle_alpha 52.406652
_cell_angle_beta 48.327821
_cell_angle_gamma 59.505491
_cell_volume 497.804401
_symmetry_space_group_name_H-M "P -1"
_symmetry_group_IT_number 2
_symmetry_cell_setting 'triclinic'
loop_
_space_group_symop_operation_xyz
x,y,z
-x,-y,-z
loop_
_atom_site_type_symbol
_atom_site_label
_atom_site_fract_x
_atom_site_fract_y
_atom_site_fract_z
Si Si1 0.823367 0.868094 0.676540
Si Si2 0.770164 0.980884 0.095983
Si Si3 0.497403 0.030978 0.871911
Si Si4 0.030918 0.369419 0.786259
Si Si5 0.176078 0.378254 0.480036
Si Si6 0.497756 0.755788 0.654240
O O1 0.886589 0.709500 0.568738
O O2 0.932898 0.711564 0.736252
O O3 0.655016 0.804447 0.807160
O O4 0.817780 0.247695 0.594933
O O5 0.649985 0.146435 0.212120
O O6 0.665002 0.003807 0.057019
O O7 0.852777 0.661449 0.184602
O O8 0.905157 0.160183 0.941807
O O9 0.507217 0.375184 0.727143
O O10 0.500000 0.000000 0.000000
O O11 0.114072 0.256069 0.655423
O O12 0.347346 0.214831 0.398448
O O13 0.500000 0.000000 0.500000
#
# Coordination Sequence:
#
# PCOD9061611 Si02
#       6
#     2   2   2   2   2   2
#     4  11  25  46  77 109 146 196 254 308 370 451
#     4  11  25  48  70 104 151 192 248 308 379 451
#     4  11  26  46  77 108 143 202 254 313 369 449
#     4  11  25  45  70 109 151 193 238 309 386 445
#     4  11  24  47  77 110 145 198 251 309 372 450
#     4  11  23  45  74 107 144 191 258 306 372 443
#
# _framework density 24.105851999999999
#
# number of rings (size 3 to 8) (size 9 to 14) (size 15 to 20)
#    0.000    1.000    3.333    2.000    4.667    3.333 
#    6.000    2.500    0.000    0.000    0.000    0.000 
#    0.000    0.000    0.000    0.000    0.000    0.000 
#
# Total GULP energy -66912.622602 kJ/mol
# GULP energy per Si atom -5576.051884 kJ/mol
# Density = 2.405099 g / cm^3
# Si number density = 24.105852 Si / 1000 Ang^3
#
#
#
# Elastic Constant Matrix: (Units=GPa)
#
#
# Indices 1 2 3 4 5 6 
#
# 1 171.7129 39.2647 49.8925 3.6454 9.9257 -30.7667
# 2 39.2647 98.0877 -4.4737 0.4674 5.5849 -21.8947
# 3 49.8925 -4.4737 355.9774 20.6216 68.4244 2.4514
# 4 3.6454 0.4674 20.6216 41.2285 -10.3360 0.6494
# 5 9.9257 5.5849 68.4244 -10.3360 63.6381 11.8496
# 6 -30.7667 -21.8947 2.4514 0.6494 11.8496 34.2873
#
#
#
# Elastic Compliance Matrix: (Units=1/GPa)
#
#
# Indices 1 2 3 4 5 6 
#
# 1 0.007684 -0.001574 -0.000806 -0.000742 -0.001523 0.006488
# 2 -0.001574 0.012937 0.001190 -0.001727 -0.003971 0.008169
# 3 -0.000806 0.001190 0.004134 -0.003357 -0.005271 0.001627
# 4 -0.000742 -0.001727 -0.003357 0.028485 0.009500 -0.005352
# 5 -0.001523 -0.003971 -0.005271 0.009500 0.025865 -0.012644
# 6 0.006488 0.008169 0.001627 -0.005352 -0.012644 0.044558
#
#
# Mechanical properties :
#
#
# Convention : Reuss Voigt Hill
#
# Bulk Modulus (GPa) = 44.69202 88.34944 66.52073
# Shear Modulus (GPa) = 37.45297 63.90375 50.67836
#
# Velocity S-wave (km/s) = 3.94596 5.15434 4.59009
# Velocity P-wave (km/s) = 6.27224 8.49430 7.46639
#
# Compressibility (1/GPa) = 0.02237536
#
# Stress axis : x y z
#
# Youngs Moduli (GPa) = 130.14124 77.29666 241.92135
#
# Poissons Ratio (x) = 0.12169 0.19493
# Poissons Ratio (y) = 0.20488 -0.28798
# Poissons Ratio (z) = 0.10486 -0.09201
#
# Static dielectric constant tensor:
#      x y z
#    x 2.043410 0.006140 -0.012640 
#    y 0.006140 1.948630 0.015640 
#    z -0.012640 0.015640 1.904170 
# 
# From -- ./inp_files/48988.got.cif
#   From: 2010.05.17/outbox.cif.g08.bks.cpg/sg2_25_cif.got.tgz:48988.got - 2010.06.03 11:33:40.
