data_PCOD9061009
_publ_section_title
;
Structure prediction by ZEFSAII (Michael W. Deem and Ramdas Pophale) SiO2 
 PCOD9061009
Probable space group: P -1
;
_chemical_formula_sum "Si O2"
_cell_formula_units_Z 14
_cell_length_a 11.796144
_cell_length_b 5.364568
_cell_length_c 11.425012
_cell_angle_alpha 86.485204
_cell_angle_beta 114.387989
_cell_angle_gamma 61.881856
_cell_volume 550.501556
_symmetry_space_group_name_H-M "P -1"
_symmetry_group_IT_number 2
_symmetry_cell_setting 'triclinic'
loop_
_space_group_symop_operation_xyz
x,y,z
-x,-y,-z
loop_
_atom_site_type_symbol
_atom_site_label
_atom_site_fract_x
_atom_site_fract_y
_atom_site_fract_z
Si Si1 0.886291 0.250755 0.531742
Si Si2 0.655489 0.195632 0.109532
Si Si3 0.624199 0.182341 0.508786
Si Si4 0.956148 0.944414 0.161595
Si Si5 0.124155 0.567678 0.031582
Si Si6 0.668964 0.650778 0.257875
Si Si7 0.585883 0.934527 0.724769
O O1 0.763016 0.186425 0.523563
O O2 0.796507 0.556020 0.411925
O O3 0.000000 0.000000 0.500000
O O4 0.974018 0.233282 0.685345
O O5 0.788744 0.017469 0.076032
O O6 0.713652 0.346873 0.219431
O O7 0.639401 0.935936 0.163950
O O8 0.500000 0.500000 0.000000
O O9 0.500000 0.500000 0.500000
O O10 0.536258 0.124295 0.374769
O O11 0.664182 0.959374 0.641902
O O12 0.911540 0.282245 0.114922
O O13 0.082065 0.785092 0.119940
O O14 0.293074 0.312866 0.131209
O O15 0.000000 0.500000 0.000000
O O16 0.514124 0.761376 0.254997
#
# Coordination Sequence:
#
# PCOD9061009 Si02
#       7
#     2   2   2   2   2   2   2
#     4  12  25  49  75 113 158 201 261 324 402 467
#     4  12  28  50  79 111 158 205 263 319 397 476
#     4  11  23  44  71 106 150 197 253 321 386 465
#     4  11  27  47  71 108 149 201 258 321 394 461
#     4  11  26  47  73 106 148 202 261 325 387 467
#     4  12  27  48  77 117 150 209 258 326 393 477
#     4  11  25  43  75 108 147 199 268 314 395 464
#
# _framework density 25.431353000000001
#
# number of rings (size 3 to 8) (size 9 to 14) (size 15 to 20)
#    0.000    0.571    2.857    3.857    6.000    2.857 
#    2.571    0.000    0.000    0.000    0.000    0.000 
#    0.000    0.000    0.000    0.000    0.000    0.000 
#
# Total GULP energy -78265.734846 kJ/mol
# GULP energy per Si atom -5590.409632 kJ/mol
# Density = 2.537347 g / cm^3
# Si number density = 25.431353 Si / 1000 Ang^3
#
#
#
# Elastic Constant Matrix: (Units=GPa)
#
#
# Indices 1 2 3 4 5 6 
#
# 1 115.0707 10.7846 -3.5066 -11.7510 -5.6556 -16.9706
# 2 10.7846 85.9691 20.8129 -10.7258 7.8558 -17.5286
# 3 -3.5066 20.8129 104.0010 -34.2579 11.8691 -1.1576
# 4 -11.7510 -10.7258 -34.2579 44.0467 -4.8050 0.9558
# 5 -5.6556 7.8558 11.8691 -4.8050 31.0182 -10.3108
# 6 -16.9706 -17.5286 -1.1576 0.9558 -10.3108 55.2331
#
#
#
# Elastic Compliance Matrix: (Units=1/GPa)
#
#
# Indices 1 2 3 4 5 6 
#
# 1 0.009837 -0.000703 0.001410 0.003819 0.003137 0.003349
# 2 -0.000703 0.013244 -0.002097 0.001188 -0.001271 0.003685
# 3 0.001410 -0.002097 0.013822 0.010288 -0.003142 -0.000707
# 4 0.003819 0.001188 0.010288 0.032194 0.001970 0.001577
# 5 0.003137 -0.001271 -0.003142 0.001970 0.037096 0.007386
# 6 0.003349 0.003685 -0.000707 0.001577 0.007386 0.021640
#
#
# Mechanical properties :
#
#
# Convention : Reuss Voigt Hill
#
# Bulk Modulus (GPa) = 29.30527 40.13584 34.72056
# Shear Modulus (GPa) = 35.21460 44.52293 39.86877
#
# Velocity S-wave (km/s) = 3.72518 4.18869 3.96372
# Velocity P-wave (km/s) = 5.48187 6.26177 5.88476
#
# Compressibility (1/GPa) = 0.03412355
#
# Stress axis : x y z
#
# Youngs Moduli (GPa) = 101.65539 75.50822 72.34760
#
# Poissons Ratio (x) = 0.05306 -0.10198
# Poissons Ratio (y) = 0.07143 0.15168
# Poissons Ratio (z) = -0.14329 0.15831
#
# Static dielectric constant tensor:
#      x y z
#    x 2.262590 -0.741680 -0.622210 
#    y -0.741680 4.323980 1.665170 
#    z -0.622210 1.665170 3.489460 
# 
# From -- ./inp_files/72148.got.cif
#   From: 2010.05.17/outbox.cif.g08.bks.cpg/sg2_37_cif.got.tgz:72148.got - 2010.06.03 11:33:40.
