data_PCOD9061382
_publ_section_title
;
Structure prediction by ZEFSAII (Michael W. Deem and Ramdas Pophale) SiO2 
 PCOD9061382
Probable space group: P -1
;
_chemical_formula_sum "Si O2"
_cell_formula_units_Z 12
_cell_length_a 21.553174
_cell_length_b 12.889939
_cell_length_c 5.701069
_cell_angle_alpha 61.815834
_cell_angle_beta 52.776550
_cell_angle_gamma 22.013999
_cell_volume 451.475068
_symmetry_space_group_name_H-M "P -1"
_symmetry_group_IT_number 2
_symmetry_cell_setting 'triclinic'
loop_
_space_group_symop_operation_xyz
x,y,z
-x,-y,-z
loop_
_atom_site_type_symbol
_atom_site_label
_atom_site_fract_x
_atom_site_fract_y
_atom_site_fract_z
Si Si1 0.985305 0.276205 0.234170
Si Si2 0.229609 0.184463 0.301734
Si Si3 0.384749 0.633247 0.871678
Si Si4 0.841564 0.277851 0.893886
Si Si5 0.651273 0.714811 0.180412
Si Si6 0.730999 0.854907 0.245927
O O1 0.960523 0.218627 0.561629
O O2 0.832559 0.441440 0.220633
O O3 0.908167 0.515761 0.202101
O O4 0.193738 0.974159 0.976800
O O5 0.282256 0.064268 0.561552
O O6 0.000000 0.500000 0.500000
O O7 0.312252 0.204011 0.084465
O O8 0.280079 0.061637 0.064220
O O9 0.500000 0.500000 0.500000
O O10 0.500000 0.500000 0.000000
O O11 0.277879 0.652250 0.062659
O O12 0.674327 0.582980 0.075213
O O13 0.000000 0.000000 0.000000
O O14 0.458795 0.962323 0.499281
#
# Coordination Sequence:
#
# PCOD9061382 Si02
#       6
#     2   2   2   2   2   2
#     4  11  24  48  79 103 151 197 258 307 369 455
#     4  11  23  45  69 107 154 193 239 303 377 437
#     4  12  29  50  71 109 150 194 252 314 378 434
#     4  12  25  49  81 106 147 210 258 310 370 451
#     4  11  25  46  77 112 148 193 260 302 368 463
#     4  11  25  47  74 110 149 195 248 306 372 451
#
# _framework density 26.579539
#
# number of rings (size 3 to 8) (size 9 to 14) (size 15 to 20)
#    0.000    0.667    3.333    4.500    4.667    0.000 
#   12.000    0.000    0.000    0.000    0.000    0.000 
#    0.000    0.000    0.000    0.000    0.000    0.000 
#
# Total GULP energy -67061.388407 kJ/mol
# GULP energy per Si atom -5588.449034 kJ/mol
# Density = 2.651904 g / cm^3
# Si number density = 26.579539 Si / 1000 Ang^3
#
#
#
# Elastic Constant Matrix: (Units=GPa)
#
#
# Indices 1 2 3 4 5 6 
#
# 1 145.1025 34.0901 47.7209 -19.2732 6.5523 -14.2035
# 2 34.0901 124.0226 50.3591 11.5832 8.6108 -5.3933
# 3 47.7209 50.3591 180.9104 -1.3838 29.6107 7.5890
# 4 -19.2732 11.5832 -1.3838 51.7504 -4.4760 -0.9849
# 5 6.5523 8.6108 29.6107 -4.4760 54.2388 -11.7539
# 6 -14.2035 -5.3933 7.5890 -0.9849 -11.7539 50.3961
#
#
#
# Elastic Compliance Matrix: (Units=1/GPa)
#
#
# Indices 1 2 3 4 5 6 
#
# 1 0.008758 -0.001871 -0.002105 0.003797 0.001346 0.002973
# 2 -0.001871 0.009819 -0.002266 -0.002956 -0.000174 0.000766
# 3 -0.002105 -0.002266 0.007516 -0.000493 -0.004169 -0.002950
# 4 0.003797 -0.002956 -0.000493 0.021634 0.002460 0.001825
# 5 0.001346 -0.000174 -0.004169 0.002460 0.022124 0.006197
# 6 0.002973 0.000766 -0.002950 0.001825 0.006197 0.022688
#
#
# Mechanical properties :
#
#
# Convention : Reuss Voigt Hill
#
# Bulk Modulus (GPa) = 73.48644 79.37507 76.43076
# Shear Modulus (GPa) = 45.63694 52.46809 49.05251
#
# Velocity S-wave (km/s) = 4.14816 4.44780 4.30059
# Velocity P-wave (km/s) = 7.11693 7.50368 7.31286
#
# Compressibility (1/GPa) = 0.01360795
#
# Stress axis : x y z
#
# Youngs Moduli (GPa) = 114.17589 101.84389 133.04810
#
# Poissons Ratio (x) = 0.19059 0.28012
# Poissons Ratio (y) = 0.21366 0.30148
# Poissons Ratio (z) = 0.24039 0.23078
#
# Static dielectric constant tensor:
#      x y z
#    x 2.159140 0.019660 -0.029110 
#    y 0.019660 1.783710 0.121130 
#    z -0.029110 0.121130 2.078280 
# 
# From -- ./inp_files/124111.got.cif
#   From: 2010.05.17/outbox.cif.g08.bks.cpg/sg2_63_cif.got.tgz:124111.got - 2010.06.03 11:33:40.
