data_PCOD9061427
_publ_section_title
;
Structure prediction by ZEFSAII (Michael W. Deem and Ramdas Pophale) SiO2 
 PCOD9061427
Probable space group: P -1
;
_chemical_formula_sum "Si O2"
_cell_formula_units_Z 16
_cell_length_a 8.996554
_cell_length_b 8.168569
_cell_length_c 21.902840
_cell_angle_alpha 43.358397
_cell_angle_beta 38.743245
_cell_angle_gamma 46.489297
_cell_volume 663.424409
_symmetry_space_group_name_H-M "P -1"
_symmetry_group_IT_number 2
_symmetry_cell_setting 'triclinic'
loop_
_space_group_symop_operation_xyz
x,y,z
-x,-y,-z
loop_
_atom_site_type_symbol
_atom_site_label
_atom_site_fract_x
_atom_site_fract_y
_atom_site_fract_z
Si Si1 0.828905 0.078625 0.899017
Si Si2 0.580546 0.530354 0.769923
Si Si3 0.742190 0.089274 0.393316
Si Si4 0.484308 0.563008 0.417010
Si Si5 0.957454 0.797698 0.518369
Si Si6 0.423987 0.251881 0.078516
Si Si7 0.357174 0.984884 0.805004
Si Si8 0.914600 0.303969 0.172848
O O1 0.755978 0.289985 0.812311
O O2 0.059152 0.090642 0.865712
O O3 0.581856 0.117919 0.006501
O O4 0.938373 0.815668 0.902140
O O5 0.741408 0.678600 0.640366
O O6 0.346927 0.499491 0.813431
O O7 0.446533 0.720030 0.814474
O O8 0.669244 0.368340 0.367515
O O9 0.831741 0.093075 0.294859
O O10 0.500000 0.000000 0.500000
O O11 0.922218 0.931321 0.428459
O O12 0.500000 0.500000 0.500000
O O13 0.530926 0.825844 0.318928
O O14 0.203357 0.575106 0.490404
O O15 0.000000 0.000000 0.500000
O O16 0.130637 0.346316 0.134513
O O17 0.517562 0.065873 0.155302
O O18 0.500000 0.500000 0.000000
#
# Coordination Sequence:
#
# PCOD9061427 Si02
#       8
#     2   2   2   2   2   2   2   2
#     4  11  26  48  75  99 148 192 236 302 376 425
#     4  11  23  45  70 106 146 193 235 297 366 436
#     4  12  27  47  67 109 150 189 241 293 359 438
#     4  12  25  41  75 105 145 195 235 296 362 419
#     4  12  23  41  72 104 145 187 246 289 351 434
#     4  12  26  50  78 108 138 191 251 316 362 417
#     4  11  24  45  74 112 142 184 253 304 360 437
#     4  11  28  48  70 105 150 190 243 296 367 451
#
# _framework density 24.117291999999999
#
# number of rings (size 3 to 8) (size 9 to 14) (size 15 to 20)
#    0.000    0.500    5.000    2.250    5.250    3.000 
#    2.250    0.000    0.000    0.000    0.000    0.000 
#    0.000    0.000    0.000    0.000    0.000    0.000 
#
# Total GULP energy -89511.590594 kJ/mol
# GULP energy per Si atom -5594.474412 kJ/mol
# Density = 2.406240 g / cm^3
# Si number density = 24.117292 Si / 1000 Ang^3
#
#
#
# Elastic Constant Matrix: (Units=GPa)
#
#
# Indices 1 2 3 4 5 6 
#
# 1 109.6892 25.2802 26.3060 -1.0494 -4.2426 -37.3756
# 2 25.2802 89.6618 11.1247 4.8671 0.1424 -27.7645
# 3 26.3060 11.1247 78.7247 7.3643 -2.8650 -10.8881
# 4 -1.0494 4.8671 7.3643 40.6529 -6.6687 -3.4837
# 5 -4.2426 0.1424 -2.8650 -6.6687 47.7321 7.4390
# 6 -37.3756 -27.7645 -10.8881 -3.4837 7.4390 35.3980
#
#
#
# Elastic Compliance Matrix: (Units=1/GPa)
#
#
# Indices 1 2 3 4 5 6 
#
# 1 0.015170 0.001055 -0.003197 0.002061 -0.001098 0.016296
# 2 0.001055 0.015036 -0.000665 -0.000885 -0.002151 0.013068
# 3 -0.003197 -0.000665 0.014130 -0.002518 0.000189 0.000161
# 4 0.002061 -0.000885 -0.002518 0.025970 0.003261 0.002577
# 5 -0.001098 -0.002151 0.000189 0.003261 0.022446 -0.007185
# 6 0.016296 0.013068 0.000161 0.002577 -0.007185 0.057520
#
#
# Mechanical properties :
#
#
# Convention : Reuss Voigt Hill
#
# Bulk Modulus (GPa) = 25.82559 44.83307 35.32933
# Shear Modulus (GPa) = 29.62221 39.11425 34.36823
#
# Velocity S-wave (km/s) = 3.50845 4.03157 3.77907
# Velocity P-wave (km/s) = 5.20998 6.34833 5.80712
#
# Compressibility (1/GPa) = 0.03872129
#
# Stress axis : x y z
#
# Youngs Moduli (GPa) = 65.91971 66.50601 70.77389
#
# Poissons Ratio (x) = -0.07019 0.22628
# Poissons Ratio (y) = -0.06957 0.04710
# Poissons Ratio (z) = 0.21076 0.04426
#
# Static dielectric constant tensor:
#      x y z
#    x 2.026530 0.005160 -0.021800 
#    y 0.005160 1.937090 0.017260 
#    z -0.021800 0.017260 1.878890 
# 
# From -- ./inp_files/606605.got.cif
#   From: 2010.05.17/outbox.cif.g08.bks.cpg/sg2_304_cif.got.tgz:606605.got - 2010.06.03 11:33:40.
