data_PCOD9061038
_publ_section_title
;
Structure prediction by ZEFSAII (Michael W. Deem and Ramdas Pophale) SiO2 
 PCOD9061038
Probable space group: P -1
;
_chemical_formula_sum "Si O2"
_cell_formula_units_Z 16
_cell_length_a 23.558299
_cell_length_b 8.360053
_cell_length_c 10.310619
_cell_angle_alpha 82.058187
_cell_angle_beta 41.632825
_cell_angle_gamma 48.355899
_cell_volume 697.433564
_symmetry_space_group_name_H-M "P -1"
_symmetry_group_IT_number 2
_symmetry_cell_setting 'triclinic'
loop_
_space_group_symop_operation_xyz
x,y,z
-x,-y,-z
loop_
_atom_site_type_symbol
_atom_site_label
_atom_site_fract_x
_atom_site_fract_y
_atom_site_fract_z
Si Si1 0.688613 0.694303 0.675962
Si Si2 0.685600 0.072671 0.638246
Si Si3 0.322906 0.353671 0.809977
Si Si4 0.373166 0.719573 0.001640
Si Si5 0.146911 0.299886 0.169177
Si Si6 0.970410 0.454390 0.924380
Si Si7 0.188067 0.702061 0.256221
Si Si8 0.822594 0.358148 0.232553
O O1 0.786716 0.471968 0.656840
O O2 0.716585 0.530440 0.524779
O O3 0.727621 0.818591 0.570722
O O4 0.500000 0.000000 0.000000
O O5 0.551967 0.351772 0.734513
O O6 0.851626 0.906375 0.369340
O O7 0.625249 0.186712 0.875884
O O8 0.254663 0.568654 0.780688
O O9 0.500000 0.000000 0.500000
O O10 0.202625 0.396681 0.048774
O O11 0.310470 0.474737 0.950793
O O12 0.242947 0.783179 0.215832
O O13 0.307323 0.944764 0.979484
O O14 0.000000 0.500000 0.500000
O O15 0.083991 0.354222 0.127756
O O16 0.000000 0.500000 0.000000
O O17 0.845457 0.512321 0.151020
O O18 0.000000 0.000000 0.500000
O O19 0.000000 0.000000 0.000000
#
# Coordination Sequence:
#
# PCOD9061038 Si02
#       8
#     2   2   2   2   2   2   2   2
#     4  12  24  45  72 101 140 187 233 283 352 422
#     4  11  24  43  68  99 139 177 231 288 349 406
#     4  11  26  46  68  99 146 186 222 290 366 418
#     4  11  25  42  69 106 135 176 240 295 338 407
#     4  11  23  44  71  99 138 185 239 286 352 422
#     4  11  24  42  69  96 139 183 228 279 356 418
#     4  12  26  42  72 106 139 179 245 291 340 423
#     4  11  26  43  68 101 140 180 230 286 349 415
#
# _framework density 22.941251000000001
#
# number of rings (size 3 to 8) (size 9 to 14) (size 15 to 20)
#    0.000    0.750    3.750    3.000    5.250    2.000 
#    0.000    1.250    0.000    0.000    0.000    0.000 
#    0.000    0.000    0.000    0.000    0.000    0.000 
#
# Total GULP energy -89400.277231 kJ/mol
# GULP energy per Si atom -5587.517327 kJ/mol
# Density = 2.288904 g / cm^3
# Si number density = 22.941251 Si / 1000 Ang^3
#
#
#
# Elastic Constant Matrix: (Units=GPa)
#
#
# Indices 1 2 3 4 5 6 
#
# 1 68.8692 34.7729 12.7490 -8.7669 14.2146 -15.9175
# 2 34.7729 139.9910 36.1148 16.2983 16.1534 -49.7209
# 3 12.7490 36.1148 102.2281 -7.7799 8.5927 -16.3601
# 4 -8.7669 16.2983 -7.7799 26.4159 -9.9213 -2.7477
# 5 14.2146 16.1534 8.5927 -9.9213 40.2284 3.1211
# 6 -15.9175 -49.7209 -16.3601 -2.7477 3.1211 45.2823
#
#
#
# Elastic Compliance Matrix: (Units=1/GPa)
#
#
# Indices 1 2 3 4 5 6 
#
# 1 0.019040 -0.004555 0.000557 0.008381 -0.003154 0.002619
# 2 -0.004555 0.018161 -0.003508 -0.015809 -0.010137 0.016812
# 3 0.000557 -0.003508 0.011525 0.005883 0.000135 0.000855
# 4 0.008381 -0.015809 0.005883 0.057503 0.017085 -0.009975
# 5 -0.003154 -0.010137 0.000135 0.017085 0.035282 -0.013585
# 6 0.002619 0.016812 0.000855 -0.009975 -0.013585 0.042104
#
#
# Mechanical properties :
#
#
# Convention : Reuss Voigt Hill
#
# Bulk Modulus (GPa) = 29.66169 53.15128 41.40649
# Shear Modulus (GPa) = 23.82464 37.54878 30.68671
#
# Velocity S-wave (km/s) = 3.22608 4.05005 3.66132
# Velocity P-wave (km/s) = 5.18018 6.71485 5.99681
#
# Compressibility (1/GPa) = 0.03371352
#
# Stress axis : x y z
#
# Youngs Moduli (GPa) = 52.52075 55.06260 86.76560
#
# Poissons Ratio (x) = 0.25079 -0.04829
# Poissons Ratio (y) = 0.23922 0.30441
# Poissons Ratio (z) = -0.02923 0.19318
#
# Static dielectric constant tensor:
#      x y z
#    x 1.914450 0.000870 -0.020930 
#    y 0.000870 1.877340 -0.066880 
#    z -0.020930 -0.066880 2.022650 
# 
# From -- ./inp_files/352177.got.cif
#   From: 2010.05.17/outbox.cif.g08.bks.cpg/sg2_177_cif.got.tgz:352177.got - 2010.06.03 11:33:40.
