data_PCOD9061448
_publ_section_title
;
Structure prediction by ZEFSAII (Michael W. Deem and Ramdas Pophale) SiO2 
 PCOD9061448
Probable space group: P -1
;
_chemical_formula_sum "Si O2"
_cell_formula_units_Z 12
_cell_length_a 11.734311
_cell_length_b 6.268245
_cell_length_c 11.517503
_cell_angle_alpha 121.024752
_cell_angle_beta 46.882458
_cell_angle_gamma 121.442340
_cell_volume 510.127009
_symmetry_space_group_name_H-M "P -1"
_symmetry_group_IT_number 2
_symmetry_cell_setting 'triclinic'
loop_
_space_group_symop_operation_xyz
x,y,z
-x,-y,-z
loop_
_atom_site_type_symbol
_atom_site_label
_atom_site_fract_x
_atom_site_fract_y
_atom_site_fract_z
Si Si1 0.081874 0.946674 0.298698
Si Si2 0.615705 0.207552 0.890702
Si Si3 0.187645 0.423574 0.487998
Si Si4 0.479501 0.366553 0.790056
Si Si5 0.774275 0.044822 0.272581
Si Si6 0.074047 0.799447 0.019704
O O1 0.211677 0.853646 0.260409
O O2 0.905348 0.745931 0.385429
O O3 0.152183 0.929232 0.118787
O O4 0.084229 0.239392 0.408259
O O5 0.545695 0.236642 0.818634
O O6 0.634089 0.477765 0.023855
O O7 0.500000 0.000000 0.000000
O O8 0.369244 0.436752 0.324497
O O9 0.202048 0.723371 0.587364
O O10 0.389817 0.178353 0.696531
O O11 0.924030 0.921522 0.143063
O O12 0.799868 0.166698 0.161121
O O13 0.000000 0.500000 0.000000
#
# Coordination Sequence:
#
# PCOD9061448 Si02
#       6
#     2   2   2   2   2   2
#     4  11  24  44  72  97 136 176 230 271 328 406
#     4  11  23  45  70  99 130 181 224 272 328 400
#     4  11  25  45  65 105 136 175 220 279 344 381
#     4  11  25  43  69  99 135 175 224 273 335 398
#     4  11  25  43  69  99 135 175 224 273 335 398
#     4  11  23  45  70  99 130 181 224 272 328 400
#
# _framework density 23.523555000000002
#
# number of rings (size 3 to 8) (size 9 to 14) (size 15 to 20)
#    0.000    1.000    3.333    2.500    4.667    4.000 
#    0.000    1.667    0.000    0.000    0.000    0.000 
#    0.000    0.000    0.000    0.000    0.000    0.000 
#
# Total GULP energy -66915.388698 kJ/mol
# GULP energy per Si atom -5576.282392 kJ/mol
# Density = 2.347001 g / cm^3
# Si number density = 23.523555 Si / 1000 Ang^3
#
#
#
# Elastic Constant Matrix: (Units=GPa)
#
#
# Indices 1 2 3 4 5 6 
#
# 1 67.4673 24.4038 14.9645 12.5168 -1.9960 15.9224
# 2 24.4038 113.9493 35.4602 16.3454 -8.2785 27.9077
# 3 14.9645 35.4602 98.1112 24.3075 -10.0915 10.7217
# 4 12.5168 16.3454 24.3075 57.7580 16.9479 1.3266
# 5 -1.9960 -8.2785 -10.0915 16.9479 23.3795 -2.2292
# 6 15.9224 27.9077 10.7217 1.3266 -2.2292 25.9081
#
#
#
# Elastic Compliance Matrix: (Units=1/GPa)
#
#
# Indices 1 2 3 4 5 6 
#
# 1 0.018404 -0.000483 0.000084 -0.004810 0.003947 -0.010239
# 2 -0.000483 0.013686 -0.001692 -0.004560 0.006142 -0.012983
# 3 0.000084 -0.001692 0.014612 -0.009177 0.012104 -0.002764
# 4 -0.004810 -0.004560 -0.009177 0.031598 -0.028165 0.007625
# 5 0.003947 0.006142 0.012104 -0.028165 0.070300 -0.006560
# 6 -0.010239 -0.012983 -0.002764 0.007625 -0.006560 0.059065
#
#
# Mechanical properties :
#
#
# Convention : Reuss Voigt Hill
#
# Bulk Modulus (GPa) = 23.51909 47.68719 35.60314
# Shear Modulus (GPa) = 22.12187 35.05573 28.58880
#
# Velocity S-wave (km/s) = 3.06994 3.86455 3.48994
# Velocity P-wave (km/s) = 4.75246 6.34264 5.60424
#
# Compressibility (1/GPa) = 0.04251865
#
# Stress axis : x y z
#
# Youngs Moduli (GPa) = 54.33716 73.06673 68.43661
#
# Poissons Ratio (x) = 0.03531 -0.00576
# Poissons Ratio (y) = 0.02626 0.11583
# Poissons Ratio (z) = -0.00457 0.12366
#
# Static dielectric constant tensor:
#      x y z
#    x 1.873590 -0.125180 0.111420 
#    y -0.125180 1.785900 0.083550 
#    z 0.111420 0.083550 1.849970 
# 
# From -- ./inp_files/369259.got.cif
#   From: 2010.05.17/outbox.cif.g08.bks.cpg/sg2_185_cif.got.tgz:369259.got - 2010.06.03 11:33:40.
