data_PCOD9061283
_publ_section_title
;
Structure prediction by ZEFSAII (Michael W. Deem and Ramdas Pophale) SiO2 
 PCOD9061283
Probable space group: P -1
;
_chemical_formula_sum "Si O2"
_cell_formula_units_Z 14
_cell_length_a 6.848371
_cell_length_b 18.719389
_cell_length_c 5.816448
_cell_angle_alpha 61.257391
_cell_angle_beta 86.298954
_cell_angle_gamma 101.329535
_cell_volume 629.978678
_symmetry_space_group_name_H-M "P -1"
_symmetry_group_IT_number 2
_symmetry_cell_setting 'triclinic'
loop_
_space_group_symop_operation_xyz
x,y,z
-x,-y,-z
loop_
_atom_site_type_symbol
_atom_site_label
_atom_site_fract_x
_atom_site_fract_y
_atom_site_fract_z
Si Si1 0.616945 0.999884 0.745973
Si Si2 0.346879 0.728096 0.801317
Si Si3 0.950144 0.428552 0.804951
Si Si4 0.689508 0.825812 0.904532
Si Si5 0.040717 0.826510 0.534834
Si Si6 0.308522 0.291137 0.526837
Si Si7 0.734390 0.544824 0.902901
O O1 0.500000 0.000000 0.500000
O O2 0.807803 0.081356 0.626155
O O3 0.693863 0.914759 0.877942
O O4 0.500000 0.000000 0.000000
O O5 0.180023 0.761365 0.626190
O O6 0.501249 0.693376 0.685599
O O7 0.210485 0.660183 0.091828
O O8 0.500316 0.809772 0.770085
O O9 0.832632 0.471158 0.932892
O O10 0.000000 0.500000 0.500000
O O11 0.155249 0.418653 0.924350
O O12 0.627558 0.741102 0.190910
O O13 0.900400 0.825326 0.770679
O O14 0.871124 0.789437 0.413830
O O15 0.233772 0.375824 0.394690
O O16 0.500000 0.500000 0.000000
#
# Coordination Sequence:
#
# PCOD9061283 Si02
#       7
#     2   2   2   2   2   2   2
#     4  12  27  50  78 109 149 193 240 298 367 434
#     4  11  23  45  64 101 140 177 234 291 354 428
#     4  11  26  41  66  96 135 182 232 291 355 421
#     4  11  27  43  74 104 134 188 233 290 362 428
#     4  11  25  46  72 101 145 179 238 289 357 430
#     4  11  25  43  69 100 138 184 231 295 354 428
#     4  11  24  44  63  98 136 180 232 289 352 421
#
# _framework density 22.222974000000001
#
# number of rings (size 3 to 8) (size 9 to 14) (size 15 to 20)
#    0.000    0.857    4.286    1.286    8.000    2.286 
#    0.000    0.000    0.000    0.000    0.000    0.000 
#    0.000    0.000    0.000    0.000    0.000    0.000 
#
# Total GULP energy -78044.587584 kJ/mol
# GULP energy per Si atom -5574.613399 kJ/mol
# Density = 2.217239 g / cm^3
# Si number density = 22.222974 Si / 1000 Ang^3
#
#
#
# Elastic Constant Matrix: (Units=GPa)
#
#
# Indices 1 2 3 4 5 6 
#
# 1 114.4887 20.0078 18.6817 -5.8706 -7.4339 24.9925
# 2 20.0078 70.0780 3.3028 -21.1220 -13.0402 11.4874
# 3 18.6817 3.3028 67.4320 -19.3694 -8.6259 28.1764
# 4 -5.8706 -21.1220 -19.3694 35.3034 3.4599 -3.7018
# 5 -7.4339 -13.0402 -8.6259 3.4599 34.6925 -22.4505
# 6 24.9925 11.4874 28.1764 -3.7018 -22.4505 29.9578
#
#
#
# Elastic Compliance Matrix: (Units=1/GPa)
#
#
# Indices 1 2 3 4 5 6 
#
# 1 0.012876 -0.000987 0.006930 0.003893 -0.013378 -0.026426
# 2 -0.000987 0.021774 0.011497 0.017527 -0.002685 -0.018185
# 3 0.006930 0.011497 0.051201 0.031157 -0.038515 -0.083360
# 4 0.003893 0.017527 0.031157 0.053557 -0.021948 -0.049103
# 5 -0.013378 -0.002685 -0.038515 -0.021948 0.091521 0.114289
# 6 -0.026426 -0.018185 -0.083360 -0.049103 0.114289 0.220383
#
#
# Mechanical properties :
#
#
# Convention : Reuss Voigt Hill
#
# Bulk Modulus (GPa) = 8.28288 37.33147 22.80718
# Shear Modulus (GPa) = 10.94870 33.99116 22.46993
#
# Velocity S-wave (km/s) = 2.22204 3.91519 3.18325
# Velocity P-wave (km/s) = 3.21225 6.10519 4.87811
#
# Compressibility (1/GPa) = 0.12073088
#
# Stress axis : x y z
#
# Youngs Moduli (GPa) = 77.66538 45.92634 19.53074
#
# Poissons Ratio (x) = 0.04533 -0.13535
# Poissons Ratio (y) = 0.07665 -0.22454
# Poissons Ratio (z) = -0.53822 -0.52801
#
# Static dielectric constant tensor:
#      x y z
#    x 1.800900 -0.002460 0.021060 
#    y -0.002460 1.838850 0.037040 
#    z 0.021060 0.037040 1.853750 
# 
# From -- ./inp_files/6569.got.cif
#   From: 2010.05.17/outbox.cif.g08.bks.cpg/sg2_4_cif.got.tgz:6569.got - 2010.06.03 11:33:40.
