data_PCOD9061970
_publ_section_title
;
Structure prediction by ZEFSAII (Michael W. Deem and Ramdas Pophale) SiO2 
 PCOD9061970
Probable space group: P -1
;
_chemical_formula_sum "Si O2"
_cell_formula_units_Z 14
_cell_length_a 9.187490
_cell_length_b 24.144397
_cell_length_c 8.982014
_cell_angle_alpha 139.884072
_cell_angle_beta 47.949903
_cell_angle_gamma 150.186145
_cell_volume 638.166040
_symmetry_space_group_name_H-M "P -1"
_symmetry_group_IT_number 2
_symmetry_cell_setting 'triclinic'
loop_
_space_group_symop_operation_xyz
x,y,z
-x,-y,-z
loop_
_atom_site_type_symbol
_atom_site_label
_atom_site_fract_x
_atom_site_fract_y
_atom_site_fract_z
Si Si1 0.834238 0.524442 0.591020
Si Si2 0.884849 0.804715 0.890493
Si Si3 0.721297 0.179429 0.134841
Si Si4 0.804042 0.668255 0.380566
Si Si5 0.905126 0.952611 0.637582
Si Si6 0.255278 0.528806 0.809657
Si Si7 0.759729 0.111660 0.659916
O O1 0.508252 0.422593 0.670143
O O2 0.796358 0.496217 0.382390
O O3 0.000000 0.500000 0.500000
O O4 0.020776 0.671236 0.778980
O O5 0.869245 0.766879 0.654179
O O6 0.576092 0.675081 0.909253
O O7 0.144254 0.839609 0.871596
O O8 0.935513 0.922207 0.115994
O O9 0.440505 0.141724 0.303260
O O10 0.645908 0.101217 0.878229
O O11 0.766591 0.571864 0.308822
O O12 0.065735 0.753452 0.259880
O O13 0.013817 0.893674 0.486746
O O14 0.000000 0.000000 0.500000
O O15 0.000000 0.500000 0.000000
O O16 0.500000 0.000000 0.500000
#
# Coordination Sequence:
#
# PCOD9061970 Si02
#       7
#     2   2   2   2   2   2   2
#     4  11  24  43  72 104 140 181 233 292 351 415
#     4  11  23  46  75  98 139 190 234 290 352 419
#     4  12  25  48  72 104 144 185 237 293 352 420
#     4  11  24  48  68 102 143 182 232 288 355 421
#     4  12  28  45  74 105 136 187 243 286 351 422
#     4  11  25  42  71 106 138 186 235 288 352 423
#     4  12  30  46  71 107 142 189 235 291 356 416
#
# _framework density 21.937866
#
# number of rings (size 3 to 8) (size 9 to 14) (size 15 to 20)
#    0.000    0.571    4.286    3.000    8.000    5.143 
#    0.000    0.000    0.000    0.000    0.000    0.000 
#    0.000    0.000    0.000    0.000    0.000    0.000 
#
# Total GULP energy -78410.783604 kJ/mol
# GULP energy per Si atom -5600.770257 kJ/mol
# Density = 2.188793 g / cm^3
# Si number density = 21.937866 Si / 1000 Ang^3
#
#
#
# Elastic Constant Matrix: (Units=GPa)
#
#
# Indices 1 2 3 4 5 6 
#
# 1 97.9069 19.5179 -6.5404 -6.0680 3.2255 12.7709
# 2 19.5179 109.7905 1.9585 -10.1484 20.1758 15.0953
# 3 -6.5404 1.9585 58.9266 -3.1439 9.8366 15.2684
# 4 -6.0680 -10.1484 -3.1439 37.0014 4.7328 -9.7532
# 5 3.2255 20.1758 9.8366 4.7328 24.1908 5.4083
# 6 12.7709 15.0953 15.2684 -9.7532 5.4083 38.2177
#
#
#
# Elastic Compliance Matrix: (Units=1/GPa)
#
#
# Indices 1 2 3 4 5 6 
#
# 1 0.011219 -0.001306 0.002459 0.000740 -0.000673 -0.003932
# 2 -0.001306 0.012042 0.002174 0.003982 -0.010946 -0.002623
# 3 0.002459 0.002174 0.020943 0.001760 -0.009145 -0.008304
# 4 0.000740 0.003982 0.001760 0.031849 -0.011999 0.007303
# 5 -0.000673 -0.010946 -0.009145 -0.011999 0.057286 -0.002967
# 6 -0.003932 -0.002623 -0.008304 0.007303 -0.002967 0.034117
#
#
# Mechanical properties :
#
#
# Convention : Reuss Voigt Hill
#
# Bulk Modulus (GPa) = 19.66201 32.94401 26.30301
# Shear Modulus (GPa) = 28.12873 36.66116 32.39494
#
# Velocity S-wave (km/s) = 3.58467 4.09239 3.84691
# Velocity P-wave (km/s) = 5.11030 6.11390 5.63449
#
# Compressibility (1/GPa) = 0.05085951
#
# Stress axis : x y z
#
# Youngs Moduli (GPa) = 89.13248 83.04390 47.74836
#
# Poissons Ratio (x) = 0.10843 -0.11742
# Poissons Ratio (y) = 0.11638 -0.10382
# Poissons Ratio (z) = -0.21919 -0.18056
#
# Static dielectric constant tensor:
#      x y z
#    x 1.770640 0.003860 -0.008450 
#    y 0.003860 1.758330 0.035480 
#    z -0.008450 0.035480 1.780250 
# 
# From -- ./inp_files/184668.got.cif
#   From: 2010.05.17/outbox.cif.g08.bks.cpg/sg2_93_cif.got.tgz:184668.got - 2010.06.03 11:33:40.
