data_PCOD9061854
_publ_section_title
;
Structure prediction by ZEFSAII (Michael W. Deem and Ramdas Pophale) SiO2 
 PCOD9061854
Probable space group: P -1
;
_chemical_formula_sum "Si O2"
_cell_formula_units_Z 14
_cell_length_a 8.369741
_cell_length_b 14.919591
_cell_length_c 14.335881
_cell_angle_alpha 146.045594
_cell_angle_beta 122.511501
_cell_angle_gamma 38.859579
_cell_volume 596.540388
_symmetry_space_group_name_H-M "P -1"
_symmetry_group_IT_number 2
_symmetry_cell_setting 'triclinic'
loop_
_space_group_symop_operation_xyz
x,y,z
-x,-y,-z
loop_
_atom_site_type_symbol
_atom_site_label
_atom_site_fract_x
_atom_site_fract_y
_atom_site_fract_z
Si Si1 0.185779 0.847027 0.726666
Si Si2 0.262927 0.746642 0.177524
Si Si3 0.577792 0.826045 0.703677
Si Si4 0.934933 0.439064 0.610336
Si Si5 0.465270 0.261761 0.094378
Si Si6 0.461718 0.888615 0.508172
Si Si7 0.053112 0.646456 0.175762
O O1 0.376619 0.846411 0.723968
O O2 0.195873 0.655351 0.534993
O O3 0.286214 0.817642 0.837495
O O4 0.890875 0.081157 0.808237
O O5 0.067356 0.753571 0.184259
O O6 0.377855 0.803052 0.336213
O O7 0.500000 0.500000 0.000000
O O8 0.861840 0.603684 0.645198
O O9 0.526479 0.804211 0.562974
O O10 0.533307 0.044956 0.888335
O O11 0.785645 0.602129 0.794216
O O12 0.250911 0.220042 0.529937
O O13 0.343303 0.462333 0.156730
O O14 0.193913 0.155248 0.665526
O O15 0.000000 0.500000 0.000000
#
# Coordination Sequence:
#
# PCOD9061854 Si02
#       7
#     2   2   2   2   2   2   2
#     4  11  24  46  73 104 142 186 242 281 357 416
#     4  12  30  47  74 104 144 188 238 298 357 425
#     4  11  23  46  72 105 144 193 231 294 357 420
#     4  11  26  42  73 110 144 186 240 290 352 423
#     4  11  24  44  80 102 145 190 236 289 354 425
#     4  12  27  45  73 102 153 183 239 295 358 417
#     4  12  26  49  74 106 143 186 238 292 360 421
#
# _framework density 23.468654000000001
#
# number of rings (size 3 to 8) (size 9 to 14) (size 15 to 20)
#    0.000    0.571    2.857    5.143   12.000    1.143 
#    0.000    1.429    0.000    0.000    0.000    0.000 
#    0.000    0.000    0.000    0.000    0.000    0.000 
#
# Total GULP energy -78323.088379 kJ/mol
# GULP energy per Si atom -5594.506313 kJ/mol
# Density = 2.341524 g / cm^3
# Si number density = 23.468654 Si / 1000 Ang^3
#
#
#
# Elastic Constant Matrix: (Units=GPa)
#
#
# Indices 1 2 3 4 5 6 
#
# 1 32.3200 10.2061 20.0383 7.6993 3.7152 -19.5808
# 2 10.2061 161.3056 65.6629 13.7272 6.5968 0.5798
# 3 20.0383 65.6629 156.6995 11.3699 -0.5487 -24.6389
# 4 7.6993 13.7272 11.3699 45.8778 -3.4385 3.9321
# 5 3.7152 6.5968 -0.5487 -3.4385 31.0894 -4.1574
# 6 -19.5808 0.5798 -24.6389 3.9321 -4.1574 37.1862
#
#
#
# Elastic Compliance Matrix: (Units=1/GPa)
#
#
# Indices 1 2 3 4 5 6 
#
# 1 0.051497 -0.002071 -0.000652 -0.010456 -0.003210 0.027463
# 2 -0.002071 0.007981 -0.003603 -0.000986 -0.002118 -0.003734
# 3 -0.000652 -0.003603 0.009034 -0.001445 0.001649 0.006036
# 4 -0.010456 -0.000986 -0.001445 0.025185 0.003046 -0.008770
# 5 -0.003210 -0.002118 0.001649 0.003046 0.033750 0.002887
# 6 0.027463 -0.003734 0.006036 -0.008770 0.002887 0.046661
#
#
# Mechanical properties :
#
#
# Convention : Reuss Voigt Hill
#
# Bulk Modulus (GPa) = 17.90130 60.23773 39.06951
# Shear Modulus (GPa) = 24.34529 39.79185 32.06857
#
# Velocity S-wave (km/s) = 3.22429 4.12215 3.70055
# Velocity P-wave (km/s) = 4.63743 6.95552 5.91121
#
# Compressibility (1/GPa) = 0.05586188
#
# Stress axis : x y z
#
# Youngs Moduli (GPa) = 19.41870 125.29945 110.68882
#
# Poissons Ratio (x) = 0.25944 0.07217
# Poissons Ratio (y) = 0.04021 0.39876
# Poissons Ratio (z) = 0.01266 0.45139
#
# Static dielectric constant tensor:
#      x y z
#    x 1.898870 -0.002660 -0.030640 
#    y -0.002660 1.980710 0.014300 
#    z -0.030640 0.014300 1.819250 
# 
# From -- ./inp_files/523322.got.cif
#   From: 2010.05.17/outbox.cif.g08.bks.cpg/sg2_262_cif.got.tgz:523322.got - 2010.06.03 11:33:40.
