data_PCOD9061523
_publ_section_title
;
Structure prediction by ZEFSAII (Michael W. Deem and Ramdas Pophale) SiO2 
 PCOD9061523
Probable space group: P -1
;
_chemical_formula_sum "Si O2"
_cell_formula_units_Z 14
_cell_length_a 14.118793
_cell_length_b 11.345271
_cell_length_c 9.363439
_cell_angle_alpha 57.563777
_cell_angle_beta 49.412800
_cell_angle_gamma 34.372554
_cell_volume 643.052712
_symmetry_space_group_name_H-M "P -1"
_symmetry_group_IT_number 2
_symmetry_cell_setting 'triclinic'
loop_
_space_group_symop_operation_xyz
x,y,z
-x,-y,-z
loop_
_atom_site_type_symbol
_atom_site_label
_atom_site_fract_x
_atom_site_fract_y
_atom_site_fract_z
Si Si1 0.514341 0.329773 0.549681
Si Si2 0.946450 0.988902 0.291197
Si Si3 0.984297 0.497183 0.689194
Si Si4 0.484809 0.681278 0.910928
Si Si5 0.216488 0.563758 0.441310
Si Si6 0.424611 0.215588 0.975265
Si Si7 0.092062 0.107838 0.910617
O O1 0.500000 0.500000 0.500000
O O2 0.384746 0.430641 0.472915
O O3 0.430609 0.298010 0.770761
O O4 0.735845 0.120322 0.448313
O O5 0.988932 0.878509 0.169727
O O6 0.099392 0.802607 0.372208
O O7 0.971830 0.131942 0.137404
O O8 0.000000 0.500000 0.500000
O O9 0.069491 0.567843 0.622317
O O10 0.093897 0.271870 0.788548
O O11 0.776787 0.644887 0.850973
O O12 0.675380 0.571027 0.721033
O O13 0.300287 0.878544 0.878450
O O14 0.500000 0.500000 0.000000
O O15 0.473305 0.768495 0.018315
O O16 0.500000 0.000000 0.000000
#
# Coordination Sequence:
#
# PCOD9061523 Si02
#       7
#     2   2   2   2   2   2   2
#     4  12  28  48  72 107 157 197 249 320 397 444
#     4  11  23  45  72 110 141 191 255 317 370 448
#     4  12  25  48  75 109 148 203 259 309 374 468
#     4  12  24  47  80 112 144 206 267 309 371 463
#     4  12  25  46  78 103 149 197 260 310 373 460
#     4  12  29  50  73 113 164 197 246 328 393 449
#     4  11  24  41  80 108 143 191 264 316 360 444
#
# _framework density 21.771153999999999
#
# number of rings (size 3 to 8) (size 9 to 14) (size 15 to 20)
#    0.000    0.286    5.714    2.571    4.000    1.714 
#    5.143    0.000    0.000    0.000    0.000    0.000 
#    0.000    0.000    0.000    0.000    0.000    0.000 
#
# Total GULP energy -78235.034283 kJ/mol
# GULP energy per Si atom -5588.216734 kJ/mol
# Density = 2.172160 g / cm^3
# Si number density = 21.771154 Si / 1000 Ang^3
#
#
#
# Elastic Constant Matrix: (Units=GPa)
#
#
# Indices 1 2 3 4 5 6 
#
# 1 79.5189 47.0740 32.1925 -3.5522 -1.1477 -1.1530
# 2 47.0740 143.4674 66.8359 -20.1094 4.0241 -9.5873
# 3 32.1925 66.8359 143.8449 -6.8425 -18.1004 -9.4272
# 4 -3.5522 -20.1094 -6.8425 35.4617 -0.1355 -15.1253
# 5 -1.1477 4.0241 -18.1004 -0.1355 37.4512 -0.4102
# 6 -1.1530 -9.5873 -9.4272 -15.1253 -0.4102 45.1180
#
#
#
# Elastic Compliance Matrix: (Units=1/GPa)
#
#
# Indices 1 2 3 4 5 6 
#
# 1 0.016008 -0.005026 -0.001427 -0.002249 0.000314 -0.001708
# 2 -0.005026 0.011958 -0.004273 0.007089 -0.003436 0.003865
# 3 -0.001427 -0.004273 0.009987 -0.000130 0.005254 0.001146
# 4 -0.002249 0.007089 -0.000130 0.038005 -0.000601 0.014157
# 5 0.000314 -0.003436 0.005254 -0.000601 0.029622 0.000444
# 6 -0.001708 0.003865 0.001146 0.014157 0.000444 0.027931
#
#
# Mechanical properties :
#
#
# Convention : Reuss Voigt Hill
#
# Bulk Modulus (GPa) = 60.60284 73.22621 66.91452
# Shear Modulus (GPa) = 31.15965 38.32142 34.74054
#
# Velocity S-wave (km/s) = 3.78727 4.20002 3.99897
# Velocity P-wave (km/s) = 6.85721 7.56490 7.21973
#
# Compressibility (1/GPa) = 0.01650088
#
# Stress axis : x y z
#
# Youngs Moduli (GPa) = 62.46947 83.62309 100.13105
#
# Poissons Ratio (x) = 0.42029 0.14285
# Poissons Ratio (y) = 0.31397 0.42790
# Poissons Ratio (z) = 0.08912 0.35736
#
# Static dielectric constant tensor:
#      x y z
#    x 1.833520 0.001710 0.018110 
#    y 0.001710 1.825040 -0.013160 
#    z 0.018110 -0.013160 1.818360 
# 
# From -- ./inp_files/306697.got.cif
#   From: 2010.05.17/outbox.cif.g08.bks.cpg/sg2_154_cif.got.tgz:306697.got - 2010.06.03 11:33:40.
