data_PCOD9061202
_publ_section_title
;
Structure prediction by ZEFSAII (Michael W. Deem and Ramdas Pophale) SiO2 
 PCOD9061202
Probable space group: P -1
;
_chemical_formula_sum "Si O2"
_cell_formula_units_Z 14
_cell_length_a 9.134750
_cell_length_b 16.759852
_cell_length_c 5.183504
_cell_angle_alpha 107.131138
_cell_angle_beta 92.223066
_cell_angle_gamma 43.900991
_cell_volume 507.530380
_symmetry_space_group_name_H-M "P -1"
_symmetry_group_IT_number 2
_symmetry_cell_setting 'triclinic'
loop_
_space_group_symop_operation_xyz
x,y,z
-x,-y,-z
loop_
_atom_site_type_symbol
_atom_site_label
_atom_site_fract_x
_atom_site_fract_y
_atom_site_fract_z
Si Si1 0.156461 0.284284 0.572009
Si Si2 0.437815 0.320871 0.718751
Si Si3 0.768670 0.921139 0.372795
Si Si4 0.285436 0.535382 0.584384
Si Si5 0.222795 0.719217 0.024114
Si Si6 0.219498 0.860594 0.803284
Si Si7 0.530310 0.098641 0.020209
O O1 0.253822 0.328050 0.744757
O O2 0.213495 0.184846 0.672388
O O3 0.904647 0.391114 0.570731
O O4 0.294017 0.206827 0.243287
O O5 0.345610 0.418499 0.575156
O O6 0.540370 0.348379 0.936954
O O7 0.660732 0.181143 0.500627
O O8 0.664979 0.995561 0.166347
O O9 0.023529 0.838453 0.296421
O O10 0.631431 0.013499 0.691624
O O11 0.500000 0.500000 0.500000
O O12 0.199065 0.631212 0.901575
O O13 0.189417 0.778203 0.802711
O O14 0.399478 0.834800 0.957175
O O15 0.000000 0.000000 0.000000
#
# Coordination Sequence:
#
# PCOD9061202 Si02
#       7
#     2   2   2   2   2   2   2
#     4  11  27  48  77 113 157 204 259 325 393 463
#     4  11  26  49  75 114 154 202 260 328 387 457
#     4  12  25  49  77 118 160 215 255 320 392 482
#     4  12  25  53  80 109 151 207 269 319 391 465
#     4  12  26  46  83 112 153 205 267 315 388 468
#     4  11  23  44  74 115 155 202 250 324 385 468
#     4  11  26  45  78 111 168 206 260 317 399 473
#
# _framework density 27.584555999999999
#
# number of rings (size 3 to 8) (size 9 to 14) (size 15 to 20)
#    0.000    0.571    2.857    4.286    4.000    2.286 
#    5.143    1.429    0.000    0.000    0.000    0.000 
#    0.000    0.000    0.000    0.000    0.000    0.000 
#
# Total GULP energy -78294.712254 kJ/mol
# GULP energy per Si atom -5592.479447 kJ/mol
# Density = 2.752177 g / cm^3
# Si number density = 27.584556 Si / 1000 Ang^3
#
#
#
# Elastic Constant Matrix: (Units=GPa)
#
#
# Indices 1 2 3 4 5 6 
#
# 1 190.9266 43.5193 27.6336 -2.5248 0.6113 -14.0388
# 2 43.5193 100.8921 22.0281 -5.8565 -4.7553 4.0675
# 3 27.6336 22.0281 121.8139 -14.0739 -7.2660 -18.2911
# 4 -2.5248 -5.8565 -14.0739 44.8557 -2.2411 -0.5503
# 5 0.6113 -4.7553 -7.2660 -2.2411 49.8314 4.5000
# 6 -14.0388 4.0675 -18.2911 -0.5503 4.5000 58.6555
#
#
#
# Elastic Compliance Matrix: (Units=1/GPa)
#
#
# Indices 1 2 3 4 5 6 
#
# 1 0.006028 -0.002533 -0.000757 -0.000240 -0.000565 0.001423
# 2 -0.002533 0.011547 -0.001645 0.000880 0.001113 -0.001997
# 3 -0.000757 -0.001645 0.009495 0.002812 0.001107 0.002835
# 4 -0.000240 0.000880 0.002812 0.023361 0.001469 0.000865
# 5 -0.000565 0.001113 0.001107 0.001469 0.020537 -0.001429
# 6 0.001423 -0.001997 0.002835 0.000865 -0.001429 0.018530
#
#
# Mechanical properties :
#
#
# Convention : Reuss Voigt Hill
#
# Bulk Modulus (GPa) = 58.14003 66.66606 62.40304
# Shear Modulus (GPa) = 47.57251 52.03196 49.80223
#
# Velocity S-wave (km/s) = 4.15734 4.34783 4.25366
# Velocity P-wave (km/s) = 6.64586 7.03031 6.84079
#
# Compressibility (1/GPa) = 0.01719985
#
# Stress axis : x y z
#
# Youngs Moduli (GPa) = 165.89826 86.59991 105.31630
#
# Poissons Ratio (x) = 0.21933 0.07973
# Poissons Ratio (y) = 0.42017 0.17329
# Poissons Ratio (z) = 0.12560 0.14250
#
# Static dielectric constant tensor:
#      x y z
#    x 2.266760 -0.023500 0.091480 
#    y -0.023500 2.128540 0.032210 
#    z 0.091480 0.032210 2.261160 
# 
# From -- ./inp_files/74674.got.cif
#   From: 2010.05.17/outbox.cif.g08.bks.cpg/sg2_38_cif.got.tgz:74674.got - 2010.06.03 11:33:40.
