data_PCOD9061012
_publ_section_title
;
Structure prediction by ZEFSAII (Michael W. Deem and Ramdas Pophale) SiO2 
 PCOD9061012
Probable space group: P -1
;
_chemical_formula_sum "Si O2"
_cell_formula_units_Z 14
_cell_length_a 11.734665
_cell_length_b 5.385559
_cell_length_c 21.969963
_cell_angle_alpha 58.210137
_cell_angle_beta 28.835513
_cell_angle_gamma 53.713527
_cell_volume 539.655111
_symmetry_space_group_name_H-M "P -1"
_symmetry_group_IT_number 2
_symmetry_cell_setting 'triclinic'
loop_
_space_group_symop_operation_xyz
x,y,z
-x,-y,-z
loop_
_atom_site_type_symbol
_atom_site_label
_atom_site_fract_x
_atom_site_fract_y
_atom_site_fract_z
Si Si1 0.082137 0.328485 0.272162
Si Si2 0.433225 0.201502 0.902277
Si Si3 0.985795 0.614580 0.835031
Si Si4 0.424791 0.801621 0.612752
Si Si5 0.796243 0.838268 0.102729
Si Si6 0.298423 0.923664 0.456839
Si Si7 0.274244 0.338096 0.308406
O O1 0.988704 0.507607 0.230097
O O2 0.105393 0.451991 0.313042
O O3 0.908072 0.115723 0.394609
O O4 0.364733 0.131804 0.147047
O O5 0.206900 0.243968 0.955744
O O6 0.591180 0.409046 0.774499
O O7 0.294258 0.298883 0.018914
O O8 0.127193 0.868684 0.736785
O O9 0.150541 0.396458 0.837248
O O10 0.433322 0.566407 0.419029
O O11 0.500000 0.000000 0.500000
O O12 0.516736 0.919536 0.616622
O O13 0.513767 0.053436 0.214003
O O14 0.000000 0.000000 0.000000
O O15 0.169387 0.176939 0.432333
#
# Coordination Sequence:
#
# PCOD9061012 Si02
#       7
#     2   2   2   2   2   2   2
#     4  11  28  47  69 108 153 198 248 303 382 449
#     4  11  26  47  71 109 146 197 251 303 381 452
#     4  12  24  47  76 107 150 190 253 316 377 445
#     4  12  27  47  78 115 150 194 254 318 378 435
#     4  11  23  44  71 107 140 193 249 311 373 445
#     4  12  27  50  78 111 151 203 256 308 372 452
#     4  11  25  46  73 105 150 195 252 304 374 452
#
# _framework density 25.942496999999999
#
# number of rings (size 3 to 8) (size 9 to 14) (size 15 to 20)
#    0.000    0.571    4.286    2.571    6.000    1.143 
#    2.571    0.000    0.000    0.000    0.000    0.000 
#    0.000    0.000    0.000    0.000    0.000    0.000 
#
# Total GULP energy -78197.296092 kJ/mol
# GULP energy per Si atom -5585.521149 kJ/mol
# Density = 2.588345 g / cm^3
# Si number density = 25.942497 Si / 1000 Ang^3
#
#
#
# Elastic Constant Matrix: (Units=GPa)
#
#
# Indices 1 2 3 4 5 6 
#
# 1 153.2970 54.7245 7.1974 -8.3626 21.8850 4.8504
# 2 54.7245 93.5608 24.1300 -0.2537 8.6324 12.1176
# 3 7.1974 24.1300 111.0145 -5.7288 12.5670 -6.7784
# 4 -8.3626 -0.2537 -5.7288 30.0396 -8.2330 -7.5929
# 5 21.8850 8.6324 12.5670 -8.2330 43.5621 -6.6003
# 6 4.8504 12.1176 -6.7784 -7.5929 -6.6003 33.5883
#
#
#
# Elastic Compliance Matrix: (Units=1/GPa)
#
#
# Indices 1 2 3 4 5 6 
#
# 1 0.008902 -0.005253 0.001072 0.001889 -0.003292 0.000606
# 2 -0.005253 0.015653 -0.003544 -0.004053 -0.001231 -0.006762
# 3 0.001072 -0.003544 0.010254 0.002603 -0.001782 0.003432
# 4 0.001889 -0.004053 0.002603 0.039728 0.008484 0.012363
# 5 -0.003292 -0.001231 -0.001782 0.008484 0.028186 0.008016
# 6 0.000606 -0.006762 0.003432 0.012363 0.008016 0.037187
#
#
# Mechanical properties :
#
#
# Convention : Reuss Voigt Hill
#
# Bulk Modulus (GPa) = 51.65761 58.88624 55.27192
# Shear Modulus (GPa) = 30.89975 39.55935 35.22955
#
# Velocity S-wave (km/s) = 3.45496 3.90922 3.68908
# Velocity P-wave (km/s) = 5.98926 6.56689 6.28471
#
# Compressibility (1/GPa) = 0.01935823
#
# Stress axis : x y z
#
# Youngs Moduli (GPa) = 112.33466 63.88463 97.51917
#
# Poissons Ratio (x) = 0.33558 -0.10452
# Poissons Ratio (y) = 0.59009 0.34566
# Poissons Ratio (z) = -0.12039 0.22644
#
# Static dielectric constant tensor:
#      x y z
#    x 2.187290 -0.243130 0.274750 
#    y -0.243130 2.902600 -0.677290 
#    z 0.274750 -0.677290 2.742400 
# 
# From -- ./inp_files/348139.got.cif
#   From: 2010.05.17/outbox.cif.g08.bks.cpg/sg2_175_cif.got.tgz:348139.got - 2010.06.03 11:33:40.
