data_PCOD9061972
_publ_section_title
;
Structure prediction by ZEFSAII (Michael W. Deem and Ramdas Pophale) SiO2 
 PCOD9061972
Probable space group: P -1
;
_chemical_formula_sum "Si O2"
_cell_formula_units_Z 14
_cell_length_a 7.974681
_cell_length_b 8.546367
_cell_length_c 18.875361
_cell_angle_alpha 59.186371
_cell_angle_beta 133.909350
_cell_angle_gamma 144.728393
_cell_volume 530.663677
_symmetry_space_group_name_H-M "P -1"
_symmetry_group_IT_number 2
_symmetry_cell_setting 'triclinic'
loop_
_space_group_symop_operation_xyz
x,y,z
-x,-y,-z
loop_
_atom_site_type_symbol
_atom_site_label
_atom_site_fract_x
_atom_site_fract_y
_atom_site_fract_z
Si Si1 0.725419 0.532920 0.887789
Si Si2 0.751956 0.407895 0.303048
Si Si3 0.127389 0.183403 0.563300
Si Si4 0.747430 0.471265 0.070672
Si Si5 0.595628 0.750543 0.610356
Si Si6 0.751565 0.062129 0.166298
Si Si7 0.348044 0.818094 0.279601
O O1 0.459002 0.547187 0.804131
O O2 0.072448 0.811204 0.888624
O O3 0.528146 0.261005 0.848435
O O4 0.807119 0.511611 0.994646
O O5 0.635342 0.339168 0.367304
O O6 0.141470 0.663398 0.328595
O O7 0.608425 0.136002 0.293593
O O8 0.332593 0.489924 0.541987
O O9 0.429313 0.224750 0.669251
O O10 0.000000 0.000000 0.500000
O O11 0.814612 0.022583 0.565375
O O12 0.626292 0.193336 0.117861
O O13 0.067292 0.691190 0.166171
O O14 0.500000 0.500000 0.000000
O O15 0.915360 0.809959 0.719291
#
# Coordination Sequence:
#
# PCOD9061972 Si02
#       7
#     2   2   2   2   2   2   2
#     4  11  24  44  65  97 139 190 238 278 328 423
#     4  11  24  46  71 105 144 192 231 283 358 416
#     4  12  26  48  76 107 135 179 236 292 355 426
#     4  12  26  42  67 103 146 183 241 288 349 394
#     4  11  23  46  76 100 139 186 232 285 350 430
#     4  11  24  45  67  96 138 188 238 276 341 413
#     4  12  26  46  69 105 148 183 232 301 352 406
#
# _framework density 26.382058000000001
#
# number of rings (size 3 to 8) (size 9 to 14) (size 15 to 20)
#    0.000    0.571    2.857    6.429    0.000    1.714 
#    0.000    4.286    0.000    0.000    0.000    0.000 
#    0.000    0.000    0.000    0.000    0.000    0.000 
#
# Total GULP energy -78476.388984 kJ/mol
# GULP energy per Si atom -5605.456356 kJ/mol
# Density = 2.632201 g / cm^3
# Si number density = 26.382058 Si / 1000 Ang^3
#
#
#
# Elastic Constant Matrix: (Units=GPa)
#
#
# Indices 1 2 3 4 5 6 
#
# 1 103.0266 7.9634 10.3569 -9.6420 -0.3128 35.8079
# 2 7.9634 96.3975 -2.5506 -6.8753 12.8684 14.6241
# 3 10.3569 -2.5506 108.2532 2.4024 -3.3854 11.4220
# 4 -9.6420 -6.8753 2.4024 36.6707 -5.2542 -4.5812
# 5 -0.3128 12.8684 -3.3854 -5.2542 42.0131 -9.6960
# 6 35.8079 14.6241 11.4220 -4.5812 -9.6960 48.1092
#
#
#
# Elastic Compliance Matrix: (Units=1/GPa)
#
#
# Indices 1 2 3 4 5 6 
#
# 1 0.013523 0.000947 -0.000277 0.002088 -0.002390 -0.010570
# 2 0.000947 0.011807 0.000573 0.001103 -0.004639 -0.005260
# 3 -0.000277 0.000573 0.009541 -0.000890 -0.000058 -0.002329
# 4 0.002088 0.001103 -0.000890 0.028828 0.003626 0.001797
# 5 -0.002390 -0.004639 -0.000058 0.003626 0.027764 0.009144
# 6 -0.010570 -0.005260 -0.002329 0.001797 0.009144 0.032819
#
#
# Mechanical properties :
#
#
# Convention : Reuss Voigt Hill
#
# Bulk Modulus (GPa) = 26.76929 37.69071 32.23000
# Shear Modulus (GPa) = 37.24431 44.81911 41.03171
#
# Velocity S-wave (km/s) = 3.76137 4.12618 3.94799
# Velocity P-wave (km/s) = 5.38820 6.08424 5.74677
#
# Compressibility (1/GPa) = 0.03735624
#
# Stress axis : x y z
#
# Youngs Moduli (GPa) = 73.94920 84.69889 104.80685
#
# Poissons Ratio (x) = -0.08022 0.02906
# Poissons Ratio (y) = -0.07004 -0.06005
# Poissons Ratio (z) = 0.02050 -0.04853
#
# Static dielectric constant tensor:
#      x y z
#    x 2.140960 0.017750 0.025220 
#    y 0.017750 1.975350 -0.023650 
#    z 0.025220 -0.023650 2.089580 
# 
# From -- ./inp_files/587930.got.cif
#   From: 2010.05.17/outbox.cif.g08.bks.cpg/sg2_294_cif.got.tgz:587930.got - 2010.06.03 11:33:40.
