data_PCOD9061984
_publ_section_title
;
Structure prediction by ZEFSAII (Michael W. Deem and Ramdas Pophale) SiO2 
 PCOD9061984
Probable space group: P -1
;
_chemical_formula_sum "Si O2"
_cell_formula_units_Z 13
_cell_length_a 8.442753
_cell_length_b 11.989272
_cell_length_c 5.446859
_cell_angle_alpha 94.846096
_cell_angle_beta 79.799867
_cell_angle_gamma 74.467604
_cell_volume 517.730775
_symmetry_space_group_name_H-M "P -1"
_symmetry_group_IT_number 2
_symmetry_cell_setting 'triclinic'
loop_
_space_group_symop_operation_xyz
x,y,z
-x,-y,-z
loop_
_atom_site_type_symbol
_atom_site_label
_atom_site_fract_x
_atom_site_fract_y
_atom_site_fract_z
Si Si1 0.662595 0.733636 0.886954
Si Si2 0.736714 0.283887 0.655602
Si Si3 0.657208 0.932495 0.277868
Si Si4 0.500000 0.500000 0.500000
Si Si5 0.101694 0.268024 0.549484
Si Si6 0.682454 0.168551 0.163990
Si Si7 0.197447 0.461734 0.858589
O O1 0.839799 0.745912 0.749272
O O2 0.516353 0.764347 0.734135
O O3 0.601513 0.835889 0.120336
O O4 0.700981 0.602975 0.944726
O O5 0.580083 0.393678 0.651979
O O6 0.765550 0.197193 0.395890
O O7 0.906404 0.319804 0.647293
O O8 0.721559 0.220558 0.905478
O O9 0.817653 0.856916 0.370875
O O10 0.500000 0.000000 0.500000
O O11 0.703364 0.030984 0.122606
O O12 0.309764 0.532840 0.707005
O O13 0.192889 0.358577 0.650470
O O14 0.000000 0.500000 0.000000
#
# Coordination Sequence:
#
# PCOD9061984 Si02
#       7
#     2   2   2   1   2   2   2
#     4  11  23  46  76 108 150 202 261 319 388 470
#     4  12  30  47  75 112 159 199 262 322 393 466
#     4  11  24  44  80 109 152 205 258 321 394 462
#     4  12  26  50  80 112 150 212 258 326 402 462
#     4  11  27  48  73 115 153 200 260 321 393 474
#     4  12  26  48  73 112 149 202 258 314 381 475
#     4  11  26  49  79 113 154 203 262 330 395 470
#
# _framework density 25.109573999999999
#
# number of rings (size 3 to 8) (size 9 to 14) (size 15 to 20)
#    0.000    0.615    3.077    3.231    8.615    5.538 
#    0.000    0.000    0.000    0.000    0.000    0.000 
#    0.000    0.000    0.000    0.000    0.000    0.000 
#
# Total GULP energy -72455.976763 kJ/mol
# GULP energy per Si atom -5573.536674 kJ/mol
# Density = 2.505242 g / cm^3
# Si number density = 25.109574 Si / 1000 Ang^3
#
#
#
# Elastic Constant Matrix: (Units=GPa)
#
#
# Indices 1 2 3 4 5 6 
#
# 1 64.9558 17.8109 20.3159 -0.9073 -16.2212 2.0488
# 2 17.8109 83.5527 46.6463 -25.4863 3.1304 -14.2558
# 3 20.3159 46.6463 120.0401 -18.9626 -21.5526 6.4626
# 4 -0.9073 -25.4863 -18.9626 50.3713 2.8150 -0.1891
# 5 -16.2212 3.1304 -21.5526 2.8150 44.9777 3.3939
# 6 2.0488 -14.2558 6.4626 -0.1891 3.3939 31.3210
#
#
#
# Elastic Compliance Matrix: (Units=1/GPa)
#
#
# Indices 1 2 3 4 5 6 
#
# 1 0.019223 -0.006640 0.000582 -0.003277 0.008280 -0.005317
# 2 -0.006640 0.024460 -0.009569 0.009289 -0.010375 0.014722
# 3 0.000582 -0.009569 0.013829 -0.000110 0.008123 -0.008128
# 4 -0.003277 0.009289 -0.000110 0.024684 -0.003805 0.005026
# 5 0.008280 -0.010375 0.008123 -0.003805 0.030850 -0.010306
# 6 -0.005317 0.014722 -0.008128 0.005026 -0.010306 0.041800
#
#
# Mechanical properties :
#
#
# Convention : Reuss Voigt Hill
#
# Bulk Modulus (GPa) = 38.08199 48.67720 43.37960
# Shear Modulus (GPa) = 25.66029 37.58569 31.62299
#
# Velocity S-wave (km/s) = 3.20024 3.87313 3.55265
# Velocity P-wave (km/s) = 5.37165 6.27930 5.84312
#
# Compressibility (1/GPa) = 0.02625913
#
# Stress axis : x y z
#
# Youngs Moduli (GPa) = 52.02010 40.88243 72.31045
#
# Poissons Ratio (x) = 0.27144 -0.04208
# Poissons Ratio (y) = 0.34539 0.69196
# Poissons Ratio (z) = -0.03027 0.39122
#
# Static dielectric constant tensor:
#      x y z
#    x 2.110360 0.034020 0.009100 
#    y 0.034020 1.961630 -0.020690 
#    z 0.009100 -0.020690 2.173170 
# 
# From -- ./inp_files/24086.got.cif
#   From: 2010.05.17/outbox.cif.g08.bks.cpg/sg2_13_cif.got.tgz:24086.got - 2010.06.03 11:33:40.
