data_PCOD9061344
_publ_section_title
;
Structure prediction by ZEFSAII (Michael W. Deem and Ramdas Pophale) SiO2 
 PCOD9061344
Probable space group: P -1
;
_chemical_formula_sum "Si O2"
_cell_formula_units_Z 13
_cell_length_a 12.678862
_cell_length_b 11.064812
_cell_length_c 11.322052
_cell_angle_alpha 137.428718
_cell_angle_beta 142.750328
_cell_angle_gamma 34.300968
_cell_volume 527.117919
_symmetry_space_group_name_H-M "P -1"
_symmetry_group_IT_number 2
_symmetry_cell_setting 'triclinic'
loop_
_space_group_symop_operation_xyz
x,y,z
-x,-y,-z
loop_
_atom_site_type_symbol
_atom_site_label
_atom_site_fract_x
_atom_site_fract_y
_atom_site_fract_z
Si Si1 0.165170 0.567166 0.203540
Si Si2 0.296336 0.811989 0.873367
Si Si3 0.000000 0.000000 0.500000
Si Si4 0.757814 0.334182 0.905757
Si Si5 0.139454 0.586540 0.709707
Si Si6 0.583338 0.120604 0.732133
Si Si7 0.391796 0.887629 0.769470
O O1 0.147755 0.686140 0.151377
O O2 0.408062 0.345854 0.263902
O O3 0.121021 0.730270 0.385240
O O4 0.000000 0.500000 0.000000
O O5 0.529610 0.581247 0.886043
O O6 0.142800 0.755007 0.749373
O O7 0.232846 0.916280 0.760214
O O8 0.322940 0.943806 0.096131
O O9 0.805768 0.004351 0.415555
O O10 0.721888 0.155246 0.789641
O O11 0.903022 0.330360 0.134868
O O12 0.382160 0.370533 0.758705
O O13 0.000000 0.500000 0.500000
O O14 0.500000 0.000000 0.500000
O O15 0.500000 0.000000 0.000000
#
# Coordination Sequence:
#
# PCOD9061344 Si02
#       7
#     2   2   1   2   2   2   2
#     4  11  23  45  68  96 134 175 223 277 331 391
#     4   8  18  37  60  82 124 163 198 260 316 382
#     4  12  26  44  68  98 128 178 230 270 336 394
#     4   8  18  37  60  82 124 163 198 260 316 382
#     4   9  17  35  57  86 119 157 200 249 317 380
#     4   9  17  35  57  86 119 157 200 249 317 380
#     4  11  23  45  68  96 134 175 223 277 331 391
#
# _framework density 24.662413000000001
#
# number of rings (size 3 to 8) (size 9 to 14) (size 15 to 20)
#    0.000    2.462    1.538    2.308    0.000    2.462 
#   11.077    4.615    0.000    0.000    0.000    0.000 
#    0.000    0.000    0.000    0.000    0.000    0.000 
#
# Total GULP energy -72433.779079 kJ/mol
# GULP energy per Si atom -5571.829160 kJ/mol
# Density = 2.460628 g / cm^3
# Si number density = 24.662413 Si / 1000 Ang^3
#
#
#
# Elastic Constant Matrix: (Units=GPa)
#
#
# Indices 1 2 3 4 5 6 
#
# 1 120.1729 19.2693 64.2352 0.4014 -12.5891 -19.6383
# 2 19.2693 121.3667 25.7526 1.5544 -11.0193 -41.8938
# 3 64.2352 25.7526 205.6746 23.2228 13.1904 -7.9815
# 4 0.4014 1.5544 23.2228 41.1114 -8.6141 -4.0993
# 5 -12.5891 -11.0193 13.1904 -8.6141 38.9300 -11.4825
# 6 -19.6383 -41.8938 -7.9815 -4.0993 -11.4825 40.9905
#
#
#
# Elastic Compliance Matrix: (Units=1/GPa)
#
#
# Indices 1 2 3 4 5 6 
#
# 1 0.016088 0.007209 -0.007351 0.009345 0.017552 0.019495
# 2 0.007209 0.020796 -0.006209 0.010225 0.021601 0.030572
# 3 -0.007351 -0.006209 0.009284 -0.008909 -0.012963 -0.012582
# 4 0.009345 0.010225 -0.008909 0.036227 0.023883 0.023506
# 5 0.017552 0.021601 -0.012963 0.023883 0.061159 0.047483
# 6 0.019495 0.030572 -0.012582 0.023506 0.047483 0.078184
#
#
# Mechanical properties :
#
#
# Convention : Reuss Voigt Hill
#
# Bulk Modulus (GPa) = 29.88120 73.96981 51.92550
# Shear Modulus (GPa) = 20.35866 46.73685 33.54776
#
# Velocity S-wave (km/s) = 2.87626 4.35796 3.69220
# Velocity P-wave (km/s) = 4.81382 7.44180 6.26711
#
# Compressibility (1/GPa) = 0.03346586
#
# Stress axis : x y z
#
# Youngs Moduli (GPa) = 62.15704 48.08697 107.70805
#
# Poissons Ratio (x) = -0.34666 0.79181
# Poissons Ratio (y) = -0.44809 0.66873
# Poissons Ratio (z) = 0.45694 0.29856
#
# Static dielectric constant tensor:
#      x y z
#    x 2.010250 0.146410 -0.178470 
#    y 0.146410 2.222410 -0.255840 
#    z -0.178470 -0.255840 2.217080 
# 
# From -- ./inp_files/374749.got.cif
#   From: 2010.05.17/outbox.cif.g08.bks.cpg/sg2_188_cif.got.tgz:374749.got - 2010.06.03 11:33:40.
