data_PCOD9061661
_publ_section_title
;
Structure prediction by ZEFSAII (Michael W. Deem and Ramdas Pophale) SiO2 
 PCOD9061661
Probable space group: P -1
;
_chemical_formula_sum "Si O2"
_cell_formula_units_Z 15
_cell_length_a 7.868980
_cell_length_b 13.711850
_cell_length_c 12.530284
_cell_angle_alpha 31.699910
_cell_angle_beta 74.934723
_cell_angle_gamma 92.978606
_cell_volume 578.171313
_symmetry_space_group_name_H-M "P -1"
_symmetry_group_IT_number 2
_symmetry_cell_setting 'triclinic'
loop_
_space_group_symop_operation_xyz
x,y,z
-x,-y,-z
loop_
_atom_site_type_symbol
_atom_site_label
_atom_site_fract_x
_atom_site_fract_y
_atom_site_fract_z
Si Si1 0.757809 0.574916 0.782725
Si Si2 0.423793 0.739133 0.467917
Si Si3 0.300724 0.191113 0.222642
Si Si4 0.000000 0.500000 0.500000
Si Si5 0.221674 0.266024 0.924924
Si Si6 0.454750 0.851914 0.042120
Si Si7 0.855051 0.308955 0.283536
Si Si8 0.149207 0.188666 0.673427
O O1 0.744036 0.694383 0.779336
O O2 0.762858 0.696618 0.562498
O O3 0.984262 0.608695 0.719809
O O4 0.553328 0.330528 0.040983
O O5 0.353460 0.698071 0.642005
O O6 0.645420 0.799948 0.329839
O O7 0.421160 0.956114 0.243611
O O8 0.257256 0.500402 0.668664
O O9 0.207547 0.217160 0.101203
O O10 0.209883 0.937780 0.503057
O O11 0.941956 0.686509 0.367438
O O12 0.789366 0.313830 0.772881
O O13 0.434309 0.282135 0.844156
O O14 0.033727 0.060631 0.087908
O O15 0.500000 0.000000 0.000000
O O16 0.000000 0.500000 0.000000
#
# Coordination Sequence:
#
# PCOD9061661 Si02
#       8
#     2   2   2   1   2   2   2   2
#     4  11  24  45  77 101 147 207 241 311 385 434
#     4  12  28  48  75 115 152 195 265 308 377 464
#     4  11  23  45  76 104 152 198 252 306 375 453
#     4  12  26  50  80 108 152 190 258 310 394 432
#     4  12  24  51  75 108 153 201 248 313 383 448
#     4  12  26  50  79 108 151 200 248 320 382 445
#     4  12  27  44  71 116 155 200 254 308 373 462
#     4  12  26  47  79 108 147 205 250 317 380 448
#
# _framework density 25.943867999999998
#
# number of rings (size 3 to 8) (size 9 to 14) (size 15 to 20)
#    0.000    0.267    6.667    1.200    3.733    3.733 
#    0.000    0.000    0.000    0.000    0.000    0.000 
#    0.000    0.000    0.000    0.000    0.000    0.000 
#
# Total GULP energy -83728.097220 kJ/mol
# GULP energy per Si atom -5581.873148 kJ/mol
# Density = 2.588482 g / cm^3
# Si number density = 25.943868 Si / 1000 Ang^3
#
#
#
# Elastic Constant Matrix: (Units=GPa)
#
#
# Indices 1 2 3 4 5 6 
#
# 1 85.9714 28.1303 50.1242 -11.6160 -24.6052 -25.8019
# 2 28.1303 97.8369 37.7577 -8.1237 -9.3516 -8.8158
# 3 50.1242 37.7577 232.5733 -29.3755 -21.7443 -8.7409
# 4 -11.6160 -8.1237 -29.3755 56.3788 -2.4234 -4.6179
# 5 -24.6052 -9.3516 -21.7443 -2.4234 40.1112 10.4481
# 6 -25.8019 -8.8158 -8.7409 -4.6179 10.4481 35.7981
#
#
#
# Elastic Compliance Matrix: (Units=1/GPa)
#
#
# Indices 1 2 3 4 5 6 
#
# 1 0.019983 -0.002809 -0.002223 0.003819 0.007652 0.011428
# 2 -0.002809 0.011596 -0.001166 0.000539 0.000238 0.000546
# 3 -0.002223 -0.001166 0.005364 0.002175 0.001603 -0.000767
# 4 0.003819 0.000539 0.002175 0.020297 0.003573 0.004992
# 5 0.007652 0.000238 0.001603 0.003573 0.031485 -0.002763
# 6 0.011428 0.000546 -0.000767 0.004992 -0.002763 0.037568
#
#
# Mechanical properties :
#
#
# Convention : Reuss Voigt Hill
#
# Bulk Modulus (GPa) = 40.74163 72.04508 56.39336
# Shear Modulus (GPa) = 34.04315 46.48223 40.26269
#
# Velocity S-wave (km/s) = 3.62634 4.23738 3.94371
# Velocity P-wave (km/s) = 5.76816 7.19516 6.52081
#
# Compressibility (1/GPa) = 0.02454492
#
# Stress axis : x y z
#
# Youngs Moduli (GPa) = 50.04271 86.23934 186.42896
#
# Poissons Ratio (x) = 0.24227 0.41451
# Poissons Ratio (y) = 0.14058 0.21740
# Poissons Ratio (z) = 0.11126 0.10057
#
# Static dielectric constant tensor:
#      x y z
#    x 2.411870 0.140450 0.079660 
#    y 0.140450 2.133390 0.062010 
#    z 0.079660 0.062010 2.038390 
# 
# From -- ./inp_files/504968.got.cif
#   From: 2010.05.17/outbox.cif.g08.bks.cpg/sg2_253_cif.got.tgz:504968.got - 2010.06.03 11:33:40.
