data_PCOD9061313
_publ_section_title
;
Structure prediction by ZEFSAII (Michael W. Deem and Ramdas Pophale) SiO2 
 PCOD9061313
Probable space group: P -1
;
_chemical_formula_sum "Si O2"
_cell_formula_units_Z 16
_cell_length_a 15.788459
_cell_length_b 9.252821
_cell_length_c 8.859565
_cell_angle_alpha 96.815996
_cell_angle_beta 72.782448
_cell_angle_gamma 143.456870
_cell_volume 719.783589
_symmetry_space_group_name_H-M "P -1"
_symmetry_group_IT_number 2
_symmetry_cell_setting 'triclinic'
loop_
_space_group_symop_operation_xyz
x,y,z
-x,-y,-z
loop_
_atom_site_type_symbol
_atom_site_label
_atom_site_fract_x
_atom_site_fract_y
_atom_site_fract_z
Si Si1 0.407494 0.097518 0.497198
Si Si2 0.369853 0.731208 0.355030
Si Si3 0.336982 0.462360 0.114717
Si Si4 0.013422 0.969653 0.819547
Si Si5 0.935583 0.775158 0.414891
Si Si6 0.426480 0.290220 0.215154
Si Si7 0.891040 0.222815 0.199017
Si Si8 0.862539 0.198835 0.850772
O O1 0.537426 0.240173 0.568136
O O2 0.423942 0.250311 0.388148
O O3 0.407525 0.949442 0.380371
O O4 0.252886 0.906952 0.651039
O O5 0.398852 0.696387 0.175028
O O6 0.194404 0.476309 0.456319
O O7 0.157700 0.236318 0.172582
O O8 0.380791 0.392487 0.200578
O O9 0.411499 0.522369 0.923651
O O10 0.067435 0.877619 0.767306
O O11 0.123806 0.225004 0.704803
O O12 0.000000 0.000000 0.000000
O O13 0.051874 0.810333 0.294881
O O14 0.000000 0.000000 0.500000
O O15 0.304012 0.024754 0.160389
O O16 0.034968 0.520642 0.178747
O O17 0.857131 0.158888 0.029043
#
# Coordination Sequence:
#
# PCOD9061313 Si02
#       8
#     2   2   2   2   2   2   2   2
#     4  11  27  44  69  99 134 179 225 281 329 403
#     4  11  25  47  65  99 138 173 226 277 339 396
#     4  11  25  46  65  96 139 178 220 281 334 402
#     4  12  25  42  68 101 130 175 225 274 338 399
#     4  12  23  43  69  98 134 174 219 282 336 389
#     4  11  25  44  68  97 132 179 225 275 338 394
#     4  11  25  43  69 100 134 178 224 275 337 401
#     4  11  23  45  67  97 138 176 220 280 335 400
#
# _framework density 22.228902000000001
#
# number of rings (size 3 to 8) (size 9 to 14) (size 15 to 20)
#    0.000    0.750    5.000    0.750    7.000    2.500 
#    2.250    0.000    0.000    0.000    0.000    0.000 
#    0.000    0.000    0.000    0.000    0.000    0.000 
#
# Total GULP energy -89438.561309 kJ/mol
# GULP energy per Si atom -5589.910082 kJ/mol
# Density = 2.217831 g / cm^3
# Si number density = 22.228902 Si / 1000 Ang^3
#
#
#
# Elastic Constant Matrix: (Units=GPa)
#
#
# Indices 1 2 3 4 5 6 
#
# 1 56.9751 -10.9728 17.3676 -6.6978 -12.0269 8.8496
# 2 -10.9728 28.8763 0.9427 6.7465 -12.5198 4.0391
# 3 17.3676 0.9427 67.7860 -2.3451 -11.2964 -2.7578
# 4 -6.6978 6.7465 -2.3451 36.7054 -7.5872 -3.2574
# 5 -12.0269 -12.5198 -11.2964 -7.5872 26.5561 -4.8677
# 6 8.8496 4.0391 -2.7578 -3.2574 -4.8677 17.7385
#
#
#
# Elastic Compliance Matrix: (Units=1/GPa)
#
#
# Indices 1 2 3 4 5 6 
#
# 1 0.030236 0.021454 -0.005134 0.004126 0.020148 -0.014481
# 2 0.021454 0.060207 -0.001306 -0.001526 0.034269 -0.015492
# 3 -0.005134 -0.001306 0.017615 0.002519 0.006720 0.007904
# 4 0.004126 -0.001526 0.002519 0.031791 0.012774 0.008024
# 5 0.020148 0.034269 0.006720 0.012774 0.070332 0.004836
# 6 -0.014481 -0.015492 0.007904 0.008024 0.004836 0.071156
#
#
# Mechanical properties :
#
#
# Convention : Reuss Voigt Hill
#
# Bulk Modulus (GPa) = 7.24190 18.70138 12.97164
# Shear Modulus (GPa) = 16.81600 25.95332 21.38466
#
# Velocity S-wave (km/s) = 2.75342 3.42065 3.10501
# Velocity P-wave (km/s) = 3.65697 4.90229 4.32469
#
# Compressibility (1/GPa) = 0.13808525
#
# Stress axis : x y z
#
# Youngs Moduli (GPa) = 33.07359 16.60934 56.77137
#
# Poissons Ratio (x) = -0.35634 0.29146
# Poissons Ratio (y) = -0.70957 0.07416
# Poissons Ratio (z) = 0.16979 0.02170
#
# Static dielectric constant tensor:
#      x y z
#    x 1.818820 0.008750 0.024440 
#    y 0.008750 1.800660 0.035890 
#    z 0.024440 0.035890 1.785310 
# 
# From -- ./inp_files/298797.got.cif
#   From: 2010.05.17/outbox.cif.g08.bks.cpg/sg2_150_cif.got.tgz:298797.got - 2010.06.03 11:33:40.
