data_PCOD9061862
_publ_section_title
;
Structure prediction by ZEFSAII (Michael W. Deem and Ramdas Pophale) SiO2 
 PCOD9061862
Probable space group: P -1
;
_chemical_formula_sum "Si O2"
_cell_formula_units_Z 14
_cell_length_a 9.265107
_cell_length_b 18.216025
_cell_length_c 5.806343
_cell_angle_alpha 97.821988
_cell_angle_beta 96.809774
_cell_angle_gamma 36.803193
_cell_volume 581.522403
_symmetry_space_group_name_H-M "P -1"
_symmetry_group_IT_number 2
_symmetry_cell_setting 'triclinic'
loop_
_space_group_symop_operation_xyz
x,y,z
-x,-y,-z
loop_
_atom_site_type_symbol
_atom_site_label
_atom_site_fract_x
_atom_site_fract_y
_atom_site_fract_z
Si Si1 0.895259 0.264486 0.082336
Si Si2 0.197456 0.858001 0.019235
Si Si3 0.584685 0.931330 0.733505
Si Si4 0.450785 0.437853 0.389295
Si Si5 0.596819 0.757819 0.753674
Si Si6 0.379688 0.348006 0.686642
Si Si7 0.066524 0.585411 0.038694
O O1 0.934664 0.165558 0.949967
O O2 0.635720 0.353969 0.180813
O O3 0.877152 0.351278 0.990519
O O4 0.123213 0.182626 0.258419
O O5 0.373383 0.797686 0.804280
O O6 0.398769 0.787228 0.221264
O O7 0.000000 0.000000 0.000000
O O8 0.519925 0.870845 0.710697
O O9 0.500000 0.000000 0.500000
O O10 0.500000 0.000000 0.000000
O O11 0.500000 0.500000 0.500000
O O12 0.501642 0.366357 0.582903
O O13 0.181278 0.533034 0.289993
O O14 0.729471 0.661622 0.530000
O O15 0.786595 0.690284 0.970653
O O16 0.200967 0.465131 0.871539
#
# Coordination Sequence:
#
# PCOD9061862 Si02
#       7
#     2   2   2   2   2   2   2
#     4  11  23  46  72 107 140 198 244 309 372 445
#     4  12  27  46  70 103 147 190 246 303 369 442
#     4  11  28  52  77 106 149 205 262 310 369 452
#     4  12  23  42  74 108 142 190 242 308 374 453
#     4  11  27  45  73 107 145 195 237 312 376 449
#     4  12  24  43  73 105 146 184 245 300 383 445
#     4  11  24  46  71 106 146 183 246 302 382 447
#
# _framework density 24.074739000000001
#
# number of rings (size 3 to 8) (size 9 to 14) (size 15 to 20)
#    0.000    0.571    4.286    2.571    4.000    8.571 
#    0.000    0.000    0.000    0.000    0.000    0.000 
#    0.000    0.000    0.000    0.000    0.000    0.000 
#
# Total GULP energy -78100.791350 kJ/mol
# GULP energy per Si atom -5578.627954 kJ/mol
# Density = 2.401994 g / cm^3
# Si number density = 24.074739 Si / 1000 Ang^3
#
#
#
# Elastic Constant Matrix: (Units=GPa)
#
#
# Indices 1 2 3 4 5 6 
#
# 1 132.1795 46.0833 29.3307 6.7077 -2.0799 22.2466
# 2 46.0833 134.6085 47.9677 -23.8071 -7.4560 18.8725
# 3 29.3307 47.9677 87.1741 -15.4941 5.7567 13.2903
# 4 6.7077 -23.8071 -15.4941 42.0008 7.3144 6.5940
# 5 -2.0799 -7.4560 5.7567 7.3144 30.9415 2.6909
# 6 22.2466 18.8725 13.2903 6.5940 2.6909 49.0838
#
#
#
# Elastic Compliance Matrix: (Units=1/GPa)
#
#
# Indices 1 2 3 4 5 6 
#
# 1 0.009613 -0.002812 -0.002114 -0.003806 0.001459 -0.002272
# 2 -0.002812 0.011309 -0.004029 0.005426 0.002249 -0.002835
# 3 -0.002114 -0.004029 0.016005 0.005203 -0.005125 -0.002245
# 4 -0.003806 0.005426 0.005203 0.031492 -0.006872 -0.005624
# 5 0.001459 0.002249 -0.005125 -0.006872 0.035639 -0.001169
# 6 -0.002272 -0.002835 -0.002245 -0.005624 -0.001169 0.023921
#
#
# Mechanical properties :
#
#
# Convention : Reuss Voigt Hill
#
# Bulk Modulus (GPa) = 52.57900 66.74727 59.66314
# Shear Modulus (GPa) = 32.84581 39.77724 36.31153
#
# Velocity S-wave (km/s) = 3.69769 4.06919 3.88788
# Velocity P-wave (km/s) = 6.33386 7.06137 6.70749
#
# Compressibility (1/GPa) = 0.01901900
#
# Stress axis : x y z
#
# Youngs Moduli (GPa) = 104.02205 88.42547 62.48162
#
# Poissons Ratio (x) = 0.24862 0.13208
# Poissons Ratio (y) = 0.29247 0.25171
# Poissons Ratio (z) = 0.21989 0.35623
#
# Static dielectric constant tensor:
#      x y z
#    x 2.893640 1.718850 1.043580 
#    y 1.718850 4.914430 1.915280 
#    z 1.043580 1.915280 3.161360 
# 
# From -- ./inp_files/48320.got.cif
#   From: 2010.05.17/outbox.cif.g08.bks.cpg/sg2_25_cif.got.tgz:48320.got - 2010.06.03 11:33:40.
