data_PCOD9061135
_publ_section_title
;
Structure prediction by ZEFSAII (Michael W. Deem and Ramdas Pophale) SiO2 
 PCOD9061135
Probable space group: P -1
;
_chemical_formula_sum "Si O2"
_cell_formula_units_Z 16
_cell_length_a 9.360024
_cell_length_b 11.147053
_cell_length_c 9.416625
_cell_angle_alpha 83.697928
_cell_angle_beta 128.385804
_cell_angle_gamma 100.416661
_cell_volume 757.433012
_symmetry_space_group_name_H-M "P -1"
_symmetry_group_IT_number 2
_symmetry_cell_setting 'triclinic'
loop_
_space_group_symop_operation_xyz
x,y,z
-x,-y,-z
loop_
_atom_site_type_symbol
_atom_site_label
_atom_site_fract_x
_atom_site_fract_y
_atom_site_fract_z
Si Si1 0.046620 0.356186 0.930214
Si Si2 0.526828 0.579115 0.865554
Si Si3 0.445729 0.830663 0.211021
Si Si4 0.591373 0.590825 0.425213
Si Si5 0.114407 0.914536 0.175301
Si Si6 0.812541 0.014344 0.464203
Si Si7 0.018082 0.394217 0.233851
Si Si8 0.681518 0.227354 0.177702
O O1 0.960023 0.458808 0.776057
O O2 0.001655 0.220474 0.860997
O O3 0.264069 0.404961 0.060846
O O4 0.979193 0.354566 0.051636
O O5 0.394576 0.499719 0.684686
O O6 0.475948 0.710315 0.852614
O O7 0.500000 0.500000 0.000000
O O8 0.467393 0.693384 0.292088
O O9 0.298719 0.889745 0.208268
O O10 0.647732 0.906074 0.345106
O O11 0.385718 0.828686 0.009148
O O12 0.500000 0.500000 0.500000
O O13 0.793148 0.648127 0.593690
O O14 0.156985 0.970846 0.350008
O O15 0.000000 0.000000 0.000000
O O16 0.746878 0.132525 0.337918
O O17 0.000000 0.000000 0.500000
O O18 0.849450 0.333700 0.231631
#
# Coordination Sequence:
#
# PCOD9061135 Si02
#       8
#     2   2   2   2   2   2   2   2
#     4  11  24  44  72 100 142 184 236 279 362 419
#     4  12  25  44  68 111 142 182 224 292 361 419
#     4  12  26  50  73 100 145 192 238 289 355 424
#     4  12  25  41  74 105 143 182 235 287 353 426
#     4  12  29  48  76 102 140 191 244 290 348 427
#     4  12  30  49  72 106 141 187 244 297 354 415
#     4  11  23  44  73 103 140 185 230 291 347 436
#     4  12  26  47  74 103 146 183 234 296 359 414
#
# _framework density 21.123981000000001
#
# number of rings (size 3 to 8) (size 9 to 14) (size 15 to 20)
#    0.000    0.250    5.000    3.000    8.750    1.500 
#    0.000    0.000    0.000    0.000    0.000    0.000 
#    0.000    0.000    0.000    0.000    0.000    0.000 
#
# Total GULP energy -89541.848832 kJ/mol
# GULP energy per Si atom -5596.365552 kJ/mol
# Density = 2.107590 g / cm^3
# Si number density = 21.123981 Si / 1000 Ang^3
#
#
#
# Elastic Constant Matrix: (Units=GPa)
#
#
# Indices 1 2 3 4 5 6 
#
# 1 95.0251 24.8187 40.5748 -5.7991 3.7107 -15.5087
# 2 24.8187 76.3211 39.7376 -6.7913 -4.7988 -3.9000
# 3 40.5748 39.7376 139.9802 -11.7633 -12.1000 -11.0390
# 4 -5.7991 -6.7913 -11.7633 39.6307 0.6876 6.7233
# 5 3.7107 -4.7988 -12.1000 0.6876 41.1736 1.7897
# 6 -15.5087 -3.9000 -11.0390 6.7233 1.7897 39.0112
#
#
#
# Elastic Compliance Matrix: (Units=1/GPa)
#
#
# Indices 1 2 3 4 5 6 
#
# 1 0.013304 -0.002728 -0.002972 -0.000089 -0.002576 0.004309
# 2 -0.002728 0.016020 -0.003611 0.001390 0.001063 -0.000793
# 3 -0.002972 -0.003611 0.009443 0.001579 0.002564 0.000740
# 4 -0.000089 0.001390 0.001579 0.026608 0.000366 -0.004052
# 5 -0.002576 0.001063 0.002564 0.000366 0.025453 -0.001423
# 6 0.004309 -0.000793 0.000740 -0.004052 -0.001423 0.028240
#
#
# Mechanical properties :
#
#
# Convention : Reuss Voigt Hill
#
# Bulk Modulus (GPa) = 49.64257 57.95428 53.79842
# Shear Modulus (GPa) = 34.62507 37.70945 36.16726
#
# Velocity S-wave (km/s) = 4.05302 4.22969 4.14229
# Velocity P-wave (km/s) = 6.74197 7.16579 6.95711
#
# Compressibility (1/GPa) = 0.02014400
#
# Stress axis : x y z
#
# Youngs Moduli (GPa) = 75.16805 62.42287 105.89877
#
# Poissons Ratio (x) = 0.17032 0.31473
# Poissons Ratio (y) = 0.20510 0.38236
# Poissons Ratio (z) = 0.22340 0.22539
#
# Static dielectric constant tensor:
#      x y z
#    x 1.706180 0.008760 -0.002480 
#    y 0.008760 1.741870 0.013350 
#    z -0.002480 0.013350 1.627470 
# 
# From -- ./inp_files/187080.got.cif
#   From: 2010.05.17/outbox.cif.g08.bks.cpg/sg2_94_cif.got.tgz:187080.got - 2010.06.03 11:33:40.
