data_PCOD9061354
_publ_section_title
;
Structure prediction by ZEFSAII (Michael W. Deem and Ramdas Pophale) SiO2 
 PCOD9061354
Probable space group: P -1
;
_chemical_formula_sum "Si O2"
_cell_formula_units_Z 16
_cell_length_a 11.179146
_cell_length_b 14.627695
_cell_length_c 9.147356
_cell_angle_alpha 128.957697
_cell_angle_beta 108.191751
_cell_angle_gamma 111.138579
_cell_volume 726.026280
_symmetry_space_group_name_H-M "P -1"
_symmetry_group_IT_number 2
_symmetry_cell_setting 'triclinic'
loop_
_space_group_symop_operation_xyz
x,y,z
-x,-y,-z
loop_
_atom_site_type_symbol
_atom_site_label
_atom_site_fract_x
_atom_site_fract_y
_atom_site_fract_z
Si Si1 0.936485 0.015510 0.144739
Si Si2 0.769986 0.504690 0.631303
Si Si3 0.699696 0.692871 0.939539
Si Si4 0.508318 0.980755 0.315319
Si Si5 0.368501 0.621732 0.840433
Si Si6 0.951916 0.331153 0.836683
Si Si7 0.561616 0.918313 0.862511
Si Si8 0.779393 0.632660 0.219586
O O1 0.876328 0.878974 0.110050
O O2 0.755366 0.980164 0.033068
O O3 0.122697 0.212540 0.472762
O O4 0.000000 0.000000 0.000000
O O5 0.803306 0.518745 0.483611
O O6 0.624127 0.296481 0.407777
O O7 0.667669 0.553011 0.692423
O O8 0.960659 0.635363 0.935742
O O9 0.712302 0.656873 0.075843
O O10 0.539135 0.678831 0.875655
O O11 0.500000 0.000000 0.500000
O O12 0.734842 0.143028 0.536357
O O13 0.414347 0.020816 0.232095
O O14 0.414427 0.790392 0.048455
O O15 0.351235 0.545150 0.912141
O O16 0.066052 0.342337 0.769095
O O17 0.000000 0.500000 0.000000
O O18 0.500000 0.000000 0.000000
#
# Coordination Sequence:
#
# PCOD9061354 Si02
#       8
#     2   2   2   2   2   2   2   2
#     4  12  27  46  74 110 149 189 245 302 367 434
#     4  11  24  41  76 101 140 188 238 298 363 425
#     4  11  24  45  71 100 143 194 236 300 361 434
#     4  12  27  45  71 104 142 189 240 301 365 434
#     4  12  24  45  71 106 144 190 243 294 362 438
#     4  11  23  45  69 100 143 184 243 301 365 423
#     4  12  24  47  73 106 142 196 237 302 364 428
#     4  11  26  42  69 104 143 189 241 300 359 431
#
# _framework density 22.037769000000001
#
# number of rings (size 3 to 8) (size 9 to 14) (size 15 to 20)
#    0.000    0.500    3.750    4.125    3.500    5.000 
#    0.000    1.875    0.000    0.000    0.000    0.000 
#    0.000    0.000    0.000    0.000    0.000    0.000 
#
# Total GULP energy -89308.798441 kJ/mol
# GULP energy per Si atom -5581.799903 kJ/mol
# Density = 2.198761 g / cm^3
# Si number density = 22.037769 Si / 1000 Ang^3
#
#
#
# Elastic Constant Matrix: (Units=GPa)
#
#
# Indices 1 2 3 4 5 6 
#
# 1 65.6975 9.8819 11.0985 -8.1027 -7.6224 -12.1190
# 2 9.8819 144.9866 23.4779 -12.4130 1.4178 -14.6781
# 3 11.0985 23.4779 77.3613 -10.3941 -22.1472 -8.7308
# 4 -8.1027 -12.4130 -10.3941 41.6162 5.0304 -7.1345
# 5 -7.6224 1.4178 -22.1472 5.0304 29.1603 9.0320
# 6 -12.1190 -14.6781 -8.7308 -7.1345 9.0320 27.3474
#
#
#
# Elastic Compliance Matrix: (Units=1/GPa)
#
#
# Indices 1 2 3 4 5 6 
#
# 1 0.017572 0.000224 -0.000849 0.004722 0.000419 0.008730
# 2 0.000224 0.008318 -0.002821 0.003496 -0.005023 0.006234
# 3 -0.000849 -0.002821 0.017938 0.001866 0.013232 -0.000047
# 4 0.004722 0.003496 0.001866 0.029860 -0.007237 0.014744
# 5 0.000419 -0.005023 0.013232 -0.007237 0.051240 -0.017097
# 6 0.008730 0.006234 -0.000047 0.014744 -0.017097 0.053259
#
#
# Mechanical properties :
#
#
# Convention : Reuss Voigt Hill
#
# Bulk Modulus (GPa) = 27.07469 41.88468 34.47968
# Shear Modulus (GPa) = 25.33022 35.86392 30.59707
#
# Velocity S-wave (km/s) = 3.39396 4.03846 3.73016
# Velocity P-wave (km/s) = 5.26031 6.38692 5.85079
#
# Compressibility (1/GPa) = 0.03693487
#
# Stress axis : x y z
#
# Youngs Moduli (GPa) = 56.90746 120.21656 55.74841
#
# Poissons Ratio (x) = -0.02690 0.04735
# Poissons Ratio (y) = -0.01273 0.15728
# Poissons Ratio (z) = 0.04833 0.33916
#
# Static dielectric constant tensor:
#      x y z
#    x 1.860230 -0.028910 0.044060 
#    y -0.028910 1.847640 -0.063090 
#    z 0.044060 -0.063090 1.805540 
# 
# From -- ./inp_files/274435.got.cif
#   From: 2010.05.17/outbox.cif.g08.bks.cpg/sg2_138_cif.got.tgz:274435.got - 2010.06.03 11:33:40.
