data_PCOD9061079
_publ_section_title
;
Structure prediction by ZEFSAII (Michael W. Deem and Ramdas Pophale) SiO2 
 PCOD9061079
Probable space group: P -1
;
_chemical_formula_sum "Si O2"
_cell_formula_units_Z 12
_cell_length_a 8.823031
_cell_length_b 6.696669
_cell_length_c 15.037850
_cell_angle_alpha 74.294861
_cell_angle_beta 138.964715
_cell_angle_gamma 101.771738
_cell_volume 561.550822
_symmetry_space_group_name_H-M "P -1"
_symmetry_group_IT_number 2
_symmetry_cell_setting 'triclinic'
loop_
_space_group_symop_operation_xyz
x,y,z
-x,-y,-z
loop_
_atom_site_type_symbol
_atom_site_label
_atom_site_fract_x
_atom_site_fract_y
_atom_site_fract_z
Si Si1 0.496728 0.156331 0.563617
Si Si2 0.522244 0.071784 0.899349
Si Si3 0.996659 0.315760 0.089708
Si Si4 0.532373 0.832170 0.758440
Si Si5 0.803479 0.549629 0.333725
Si Si6 0.879320 0.496310 0.690073
O O1 0.739619 0.279819 0.665742
O O2 0.308514 0.334066 0.443642
O O3 0.500000 0.000000 0.500000
O O4 0.423597 0.023458 0.633059
O O5 0.319169 0.225958 0.756740
O O6 0.540583 0.886005 0.859276
O O7 0.762995 0.192298 0.988679
O O8 0.500000 0.000000 0.000000
O O9 0.220612 0.183669 0.178414
O O10 0.018954 0.416091 0.184290
O O11 0.000000 0.500000 0.000000
O O12 0.394875 0.618852 0.713346
O O13 0.000000 0.500000 0.500000
O O14 0.926401 0.518513 0.296959
#
# Coordination Sequence:
#
# PCOD9061079 Si02
#       6
#     2   2   2   2   2   2
#     4  11  23  44  72 106 137 183 236 287 351 414
#     4  12  29  47  72 106 144 187 235 289 357 418
#     4  12  25  46  72 103 142 185 234 289 351 417
#     4  12  26  46  74 102 140 188 235 289 350 421
#     4  12  28  48  71 104 145 185 235 294 351 417
#     4  11  26  43  72 103 144 180 234 294 346 419
#
# _framework density 21.369389999999999
#
# number of rings (size 3 to 8) (size 9 to 14) (size 15 to 20)
#    0.000    0.333    3.333    4.500    7.000    6.667 
#    0.000    0.000    0.000    0.000    0.000    0.000 
#    0.000    0.000    0.000    0.000    0.000    0.000 
#
# Total GULP energy -67143.817351 kJ/mol
# GULP energy per Si atom -5595.318113 kJ/mol
# Density = 2.132075 g / cm^3
# Si number density = 21.369390 Si / 1000 Ang^3
#
#
#
# Elastic Constant Matrix: (Units=GPa)
#
#
# Indices 1 2 3 4 5 6 
#
# 1 102.2002 6.0034 22.8500 -6.5616 -6.1863 -16.5103
# 2 6.0034 68.7154 14.7168 -12.1836 2.7670 -4.1747
# 3 22.8500 14.7168 93.7188 -1.2989 -7.9238 -12.7293
# 4 -6.5616 -12.1836 -1.2989 22.8847 3.5505 -13.3712
# 5 -6.1863 2.7670 -7.9238 3.5505 46.9532 1.9065
# 6 -16.5103 -4.1747 -12.7293 -13.3712 1.9065 43.6891
#
#
#
# Elastic Compliance Matrix: (Units=1/GPa)
#
#
# Indices 1 2 3 4 5 6 
#
# 1 0.011664 0.001083 -0.002050 0.007348 0.000322 0.006149
# 2 0.001083 0.017757 -0.002320 0.013304 -0.002529 0.005612
# 3 -0.002050 -0.002320 0.012016 -0.000002 0.001796 0.002426
# 4 0.007348 0.013304 -0.000002 0.068610 -0.006032 0.025309
# 5 0.000322 -0.002529 0.001796 -0.006032 0.022347 -0.002418
# 6 0.006149 0.005612 0.002426 0.025309 -0.002418 0.034307
#
#
# Mechanical properties :
#
#
# Convention : Reuss Voigt Hill
#
# Bulk Modulus (GPa) = 28.68291 39.08608 33.88450
# Shear Modulus (GPa) = 27.04258 37.44301 32.24279
#
# Velocity S-wave (km/s) = 3.56122 4.19045 3.88858
# Velocity P-wave (km/s) = 5.51011 6.46092 6.00436
#
# Compressibility (1/GPa) = 0.03486397
#
# Stress axis : x y z
#
# Youngs Moduli (GPa) = 85.73450 56.31699 83.22581
#
# Poissons Ratio (x) = -0.06101 0.17059
# Poissons Ratio (y) = -0.09288 0.19305
# Poissons Ratio (z) = 0.17573 0.13063
#
# Static dielectric constant tensor:
#      x y z
#    x 1.777580 -0.104330 0.051480 
#    y -0.104330 1.942960 -0.131800 
#    z 0.051480 -0.131800 1.875320 
# 
# From -- ./inp_files/22664.got.cif
#   From: 2010.05.17/outbox.cif.g08.bks.cpg/sg2_12_cif.got.tgz:22664.got - 2010.06.03 11:33:40.
