data_PCOD9061857
_publ_section_title
;
Structure prediction by ZEFSAII (Michael W. Deem and Ramdas Pophale) SiO2 
 PCOD9061857
Probable space group: P -1
;
_chemical_formula_sum "Si O2"
_cell_formula_units_Z 15
_cell_length_a 8.780180
_cell_length_b 7.101259
_cell_length_c 15.009927
_cell_angle_alpha 47.133433
_cell_angle_beta 66.581285
_cell_angle_gamma 58.487040
_cell_volume 583.464450
_symmetry_space_group_name_H-M "P -1"
_symmetry_group_IT_number 2
_symmetry_cell_setting 'triclinic'
loop_
_space_group_symop_operation_xyz
x,y,z
-x,-y,-z
loop_
_atom_site_type_symbol
_atom_site_label
_atom_site_fract_x
_atom_site_fract_y
_atom_site_fract_z
Si Si1 0.739492 0.083135 0.284264
Si Si2 0.054097 0.917273 0.410568
Si Si3 0.699570 0.890750 0.829882
Si Si4 0.604571 0.627723 0.500958
Si Si5 0.091810 0.243797 0.818653
Si Si6 0.500000 0.500000 0.000000
Si Si7 0.371947 0.454613 0.729317
Si Si8 0.775089 0.112674 0.926395
O O1 0.605236 0.921969 0.379119
O O2 0.804960 0.004005 0.194115
O O3 0.887752 0.966358 0.366177
O O4 0.679262 0.411158 0.205495
O O5 0.192801 0.596511 0.471998
O O6 0.169190 0.081461 0.286736
O O7 0.000000 0.000000 0.500000
O O8 0.507945 0.145101 0.783350
O O9 0.764797 0.963339 0.885466
O O10 0.663471 0.613891 0.921870
O O11 0.500000 0.500000 0.500000
O O12 0.485092 0.635779 0.611884
O O13 0.191237 0.460469 0.721583
O O14 0.889524 0.304753 0.819106
O O15 0.122813 0.127940 0.948701
O O16 0.407138 0.712055 0.038226
#
# Coordination Sequence:
#
# PCOD9061857 Si02
#       8
#     2   2   2   2   2   1   2   2
#     4  12  25  46  73 105 145 197 235 305 366 432
#     4  11  26  48  77 108 144 195 245 302 367 440
#     4  11  26  50  71 110 151 191 247 310 361 439
#     4  11  23  46  72 105 147 183 244 300 362 435
#     4  11  25  46  71 106 145 189 241 302 358 440
#     4  12  26  44  80 104 148 196 246 298 370 430
#     4  11  25  44  70 105 147 191 245 298 363 436
#     4  11  26  47  73 106 147 191 246 301 363 432
#
# _framework density 25.708507000000001
#
# number of rings (size 3 to 8) (size 9 to 14) (size 15 to 20)
#    0.000    0.800    4.000    2.000    3.733    0.000 
#    4.800    2.667    0.000    0.000    0.000    0.000 
#    0.000    0.000    0.000    0.000    0.000    0.000 
#
# Total GULP energy -83639.248305 kJ/mol
# GULP energy per Si atom -5575.949887 kJ/mol
# Density = 2.564999 g / cm^3
# Si number density = 25.708507 Si / 1000 Ang^3
#
#
#
# Elastic Constant Matrix: (Units=GPa)
#
#
# Indices 1 2 3 4 5 6 
#
# 1 115.9409 40.7105 55.7920 -6.1091 -17.3870 25.0266
# 2 40.7105 131.0304 49.1198 24.4596 -22.7989 28.9920
# 3 55.7920 49.1198 107.3371 25.8403 -16.9846 24.6727
# 4 -6.1091 24.4596 25.8403 29.5917 -4.8937 -1.7507
# 5 -17.3870 -22.7989 -16.9846 -4.8937 48.1986 0.6816
# 6 25.0266 28.9920 24.6727 -1.7507 0.6816 40.1763
#
#
#
# Elastic Compliance Matrix: (Units=1/GPa)
#
#
# Indices 1 2 3 4 5 6 
#
# 1 0.015791 -0.003534 -0.009684 0.014949 0.002140 -0.000724
# 2 -0.003534 0.013303 0.001651 -0.012973 0.004410 -0.009052
# 3 -0.009684 0.001651 0.021563 -0.022295 0.002755 -0.009419
# 4 0.014949 -0.012973 -0.022295 0.067736 -0.001959 0.016726
# 5 0.002140 0.004410 0.002755 -0.001959 0.024473 -0.006709
# 6 -0.000724 -0.009052 -0.009419 0.016726 -0.006709 0.038501
#
#
# Mechanical properties :
#
#
# Convention : Reuss Voigt Hill
#
# Bulk Modulus (GPa) = 36.33385 71.72811 54.03098
# Shear Modulus (GPa) = 23.40000 37.50574 30.45287
#
# Velocity S-wave (km/s) = 3.02023 3.82368 3.44546
# Velocity P-wave (km/s) = 5.13090 6.88877 6.07376
#
# Compressibility (1/GPa) = 0.02752254
#
# Stress axis : x y z
#
# Youngs Moduli (GPa) = 63.32697 75.17200 46.37545
#
# Poissons Ratio (x) = 0.26563 0.44912
# Poissons Ratio (y) = 0.22377 -0.07656
# Poissons Ratio (z) = 0.61329 -0.12409
#
# Static dielectric constant tensor:
#      x y z
#    x 2.067170 -0.078090 -0.009830 
#    y -0.078090 2.013980 0.054290 
#    z -0.009830 0.054290 2.192260 
# 
# From -- ./inp_files/488073.got.cif
#   From: 2010.05.17/outbox.cif.g08.bks.cpg/sg2_245_cif.got.tgz:488073.got - 2010.06.03 11:33:40.
