data_PCOD9061184
_publ_section_title
;
Structure prediction by ZEFSAII (Michael W. Deem and Ramdas Pophale) SiO2 
 PCOD9061184
Probable space group: P -1
;
_chemical_formula_sum "Si O2"
_cell_formula_units_Z 14
_cell_length_a 13.979643
_cell_length_b 8.803049
_cell_length_c 13.354973
_cell_angle_alpha 148.435684
_cell_angle_beta 42.097177
_cell_angle_gamma 136.568732
_cell_volume 555.676910
_symmetry_space_group_name_H-M "P -1"
_symmetry_group_IT_number 2
_symmetry_cell_setting 'triclinic'
loop_
_space_group_symop_operation_xyz
x,y,z
-x,-y,-z
loop_
_atom_site_type_symbol
_atom_site_label
_atom_site_fract_x
_atom_site_fract_y
_atom_site_fract_z
Si Si1 0.189670 0.340749 0.625591
Si Si2 0.349727 0.265295 0.017790
Si Si3 0.836457 0.904355 0.114532
Si Si4 0.535193 0.395840 0.584616
Si Si5 0.864715 0.260943 0.757710
Si Si6 0.693251 0.216984 0.556264
Si Si7 0.685982 0.213576 0.054472
O O1 0.338859 0.488533 0.531112
O O2 0.204059 0.510834 0.815010
O O3 0.040661 0.364630 0.698467
O O4 0.169665 0.981670 0.440213
O O5 0.250571 0.486905 0.254163
O O6 0.500000 0.500000 0.000000
O O7 0.274712 0.067504 0.871319
O O8 0.369298 0.049489 0.970099
O O9 0.812198 0.088707 0.333179
O O10 0.802881 0.549490 0.960022
O O11 0.000000 0.000000 0.000000
O O12 0.601556 0.332955 0.604234
O O13 0.444809 0.648240 0.803619
O O14 0.417982 0.074875 0.469702
O O15 0.779653 0.102979 0.834185
#
# Coordination Sequence:
#
# PCOD9061184 Si02
#       7
#     2   2   2   2   2   2   2
#     4  11  25  44  70 102 143 179 240 293 349 422
#     4  12  28  45  76 109 143 188 243 298 360 427
#     4  12  27  48  71 103 149 194 234 295 365 432
#     4  11  23  44  74 103 142 187 227 305 352 414
#     4  11  26  45  71 101 139 191 236 288 356 427
#     4  11  24  46  69 107 149 179 240 298 356 419
#     4  12  25  45  74 104 140 184 239 293 355 419
#
# _framework density 25.194496999999998
#
# number of rings (size 3 to 8) (size 9 to 14) (size 15 to 20)
#    0.000    0.571    1.429    6.857    4.000    2.857 
#    0.000    0.000    0.000    0.000    0.000    0.000 
#    0.000    0.000    0.000    0.000    0.000    0.000 
#
# Total GULP energy -78504.378175 kJ/mol
# GULP energy per Si atom -5607.455584 kJ/mol
# Density = 2.513715 g / cm^3
# Si number density = 25.194497 Si / 1000 Ang^3
#
#
#
# Elastic Constant Matrix: (Units=GPa)
#
#
# Indices 1 2 3 4 5 6 
#
# 1 46.2272 14.8525 3.9359 -4.2677 -2.4556 8.2608
# 2 14.8525 101.1951 19.2354 -12.8882 -19.3318 1.5067
# 3 3.9359 19.2354 158.2225 9.9101 2.6470 2.7177
# 4 -4.2677 -12.8882 9.9101 42.2280 -0.9054 -12.5292
# 5 -2.4556 -19.3318 2.6470 -0.9054 50.6920 9.2969
# 6 8.2608 1.5067 2.7177 -12.5292 9.2969 33.1395
#
#
#
# Elastic Compliance Matrix: (Units=1/GPa)
#
#
# Indices 1 2 3 4 5 6 
#
# 1 0.023811 -0.003232 -0.000086 -0.000384 0.001060 -0.006224
# 2 -0.003232 0.012045 -0.001724 0.004050 0.004475 0.000675
# 3 -0.000086 -0.001724 0.006721 -0.002471 -0.000846 -0.001148
# 4 -0.000384 0.004050 -0.002471 0.028701 0.000165 0.010919
# 5 0.001060 0.004475 -0.000846 0.000165 0.022765 -0.006722
# 6 -0.006224 0.000675 -0.001148 0.010919 -0.006722 0.037804
#
#
# Mechanical properties :
#
#
# Convention : Reuss Voigt Hill
#
# Bulk Modulus (GPa) = 30.77701 42.41026 36.59364
# Shear Modulus (GPa) = 32.73050 43.05331 37.89191
#
# Velocity S-wave (km/s) = 3.60823 4.13829 3.88232
# Velocity P-wave (km/s) = 5.44072 6.30108 5.88664
#
# Compressibility (1/GPa) = 0.03249178
#
# Stress axis : x y z
#
# Youngs Moduli (GPa) = 41.99711 83.02385 148.79644
#
# Poissons Ratio (x) = 0.26834 0.01282
# Poissons Ratio (y) = 0.13574 0.25653
# Poissons Ratio (z) = 0.00362 0.14314
#
# Static dielectric constant tensor:
#      x y z
#    x 2.020680 -0.048080 0.020650 
#    y -0.048080 1.991440 0.016140 
#    z 0.020650 0.016140 2.034860 
# 
# From -- ./inp_files/530291.got.cif
#   From: 2010.05.17/outbox.cif.g08.bks.cpg/sg2_266_cif.got.tgz:530291.got - 2010.06.03 11:33:40.
