data_PCOD9061956
_publ_section_title
;
Structure prediction by ZEFSAII (Michael W. Deem and Ramdas Pophale) SiO2 
 PCOD9061956
Probable space group: P -1
;
_chemical_formula_sum "Si O2"
_cell_formula_units_Z 12
_cell_length_a 9.440285
_cell_length_b 25.056296
_cell_length_c 5.165215
_cell_angle_alpha 113.060193
_cell_angle_beta 76.587986
_cell_angle_gamma 151.201738
_cell_volume 524.179604
_symmetry_space_group_name_H-M "P -1"
_symmetry_group_IT_number 2
_symmetry_cell_setting 'triclinic'
loop_
_space_group_symop_operation_xyz
x,y,z
-x,-y,-z
loop_
_atom_site_type_symbol
_atom_site_label
_atom_site_fract_x
_atom_site_fract_y
_atom_site_fract_z
Si Si1 0.555273 0.080738 0.501299
Si Si2 0.900781 0.415006 0.176779
Si Si3 0.505348 0.173056 0.993304
Si Si4 0.518049 0.371749 0.958983
Si Si5 0.046155 0.953001 0.153957
Si Si6 0.873320 0.768923 0.658011
O O1 0.660970 0.170699 0.805106
O O2 0.812684 0.156940 0.326585
O O3 0.500000 0.000000 0.500000
O O4 0.225464 0.985648 0.369163
O O5 0.000000 0.500000 0.500000
O O6 0.188622 0.494909 0.037973
O O7 0.742929 0.307372 0.189822
O O8 0.665216 0.362055 0.973769
O O9 0.249039 0.111634 0.795980
O O10 0.300032 0.079653 0.139671
O O11 0.277643 0.286304 0.665789
O O12 0.351858 0.333380 0.218585
O O13 0.939591 0.860028 0.855373
#
# Coordination Sequence:
#
# PCOD9061956 Si02
#       6
#     2   2   2   2   2   2
#     4  12  26  43  70 106 155 193 233 292 377 443
#     4  11  23  46  75 105 139 191 250 306 354 418
#     4  11  25  43  71 110 141 186 249 300 359 431
#     4  11  24  43  76 103 140 190 251 294 362 424
#     4  11  24  44  71 107 147 186 244 300 361 434
#     4  12  24  44  74 106 144 194 232 299 369 429
#
# _framework density 22.892914999999999
#
# number of rings (size 3 to 8) (size 9 to 14) (size 15 to 20)
#    0.000    0.667    5.000    2.000    2.333    5.333 
#    0.000    1.667    0.000    0.000    0.000    0.000 
#    0.000    0.000    0.000    0.000    0.000    0.000 
#
# Total GULP energy -67059.474436 kJ/mol
# GULP energy per Si atom -5588.289536 kJ/mol
# Density = 2.284081 g / cm^3
# Si number density = 22.892915 Si / 1000 Ang^3
#
#
#
# Elastic Constant Matrix: (Units=GPa)
#
#
# Indices 1 2 3 4 5 6 
#
# 1 102.7980 25.4274 41.9621 7.4034 -20.2922 -2.0690
# 2 25.4274 144.1625 17.4458 -12.6956 -28.9682 -6.3315
# 3 41.9621 17.4458 77.4778 -7.5271 4.6874 -5.0243
# 4 7.4034 -12.6956 -7.5271 30.8511 2.8486 -12.3538
# 5 -20.2922 -28.9682 4.6874 2.8486 36.8405 -6.8138
# 6 -2.0690 -6.3315 -5.0243 -12.3538 -6.8138 37.8562
#
#
#
# Elastic Compliance Matrix: (Units=1/GPa)
#
#
# Indices 1 2 3 4 5 6 
#
# 1 0.016813 -0.000306 -0.010573 -0.008251 0.010764 -0.001291
# 2 -0.000306 0.009346 -0.001708 0.004455 0.007827 0.004182
# 3 -0.010573 -0.001708 0.020692 0.009016 -0.009935 0.003037
# 4 -0.008251 0.004455 0.009016 0.044954 -0.002768 0.015663
# 5 0.010764 0.007827 -0.009935 -0.002768 0.042045 0.007243
# 6 -0.001291 0.004182 0.003037 0.015663 0.007243 0.033863
#
#
# Mechanical properties :
#
#
# Convention : Reuss Voigt Hill
#
# Bulk Modulus (GPa) = 46.13538 54.90099 50.51818
# Shear Modulus (GPa) = 24.98581 37.08309 31.03445
#
# Velocity S-wave (km/s) = 3.30725 4.02910 3.68589
# Velocity P-wave (km/s) = 5.89748 6.75859 6.34267
#
# Compressibility (1/GPa) = 0.02167534
#
# Stress axis : x y z
#
# Youngs Moduli (GPa) = 59.47865 106.99753 48.32770
#
# Poissons Ratio (x) = 0.03276 0.51099
# Poissons Ratio (y) = 0.01821 0.08255
# Poissons Ratio (z) = 0.62889 0.18277
#
# Static dielectric constant tensor:
#      x y z
#    x 1.846160 0.024530 0.023090 
#    y 0.024530 1.889330 0.009200 
#    z 0.023090 0.009200 1.946150 
# 
# From -- ./inp_files/36973.got.cif
#   From: 2010.05.17/outbox.cif.g08.bks.cpg/sg2_19_cif.got.tgz:36973.got - 2010.06.03 11:33:40.
