data_PCOD9061658
_publ_section_title
;
Structure prediction by ZEFSAII (Michael W. Deem and Ramdas Pophale) SiO2 
 PCOD9061658
Probable space group: P -1
;
_chemical_formula_sum "Si O2"
_cell_formula_units_Z 16
_cell_length_a 14.133108
_cell_length_b 8.641771
_cell_length_c 7.858895
_cell_angle_alpha 110.875289
_cell_angle_beta 110.672148
_cell_angle_gamma 45.599106
_cell_volume 632.979968
_symmetry_space_group_name_H-M "P -1"
_symmetry_group_IT_number 2
_symmetry_cell_setting 'triclinic'
loop_
_space_group_symop_operation_xyz
x,y,z
-x,-y,-z
loop_
_atom_site_type_symbol
_atom_site_label
_atom_site_fract_x
_atom_site_fract_y
_atom_site_fract_z
Si Si1 0.477854 0.714221 0.518047
Si Si2 0.912758 0.449532 0.996776
Si Si3 0.104474 0.024319 0.126550
Si Si4 0.300192 0.339779 0.554341
Si Si5 0.383384 0.630114 0.111052
Si Si6 0.382433 0.249733 0.961174
Si Si7 0.797328 0.899997 0.476184
Si Si8 0.953609 0.236631 0.590607
O O1 0.500000 0.500000 0.500000
O O2 0.595501 0.720220 0.553987
O O3 0.421426 0.737573 0.302892
O O4 0.350332 0.913109 0.623447
O O5 0.909013 0.321087 0.788959
O O6 0.763869 0.655434 0.036865
O O7 0.000000 0.500000 0.000000
O O8 0.007978 0.283920 0.142676
O O9 0.165006 0.983729 0.335107
O O10 0.237133 0.837677 0.029294
O O11 0.000000 0.000000 0.000000
O O12 0.370349 0.280243 0.760105
O O13 0.232277 0.230170 0.477784
O O14 0.173532 0.594590 0.545156
O O15 0.500000 0.500000 0.000000
O O16 0.384995 0.438095 0.107421
O O17 0.500000 0.000000 0.000000
O O18 0.923505 0.770324 0.380278
O O19 0.000000 0.000000 0.500000
#
# Coordination Sequence:
#
# PCOD9061658 Si02
#       8
#     2   2   2   2   2   2   2   2
#     4  11  26  44  74 106 144 195 248 308 376 449
#     4  12  27  46  73 110 147 192 253 313 373 454
#     4  11  23  45  76 101 144 194 246 307 376 442
#     4  12  26  49  71 106 154 198 246 311 379 450
#     4  11  25  46  72 106 144 195 255 307 374 451
#     4  12  29  48  75 107 150 202 253 312 379 451
#     4  11  25  45  71 106 147 198 242 306 379 446
#     4  12  27  45  75 111 149 194 255 313 378 450
#
# _framework density 25.277262
#
# number of rings (size 3 to 8) (size 9 to 14) (size 15 to 20)
#    0.000    0.500    2.500    4.500    8.750    2.000 
#    0.000    0.000    0.000    0.000    0.000    0.000 
#    0.000    0.000    0.000    0.000    0.000    0.000 
#
# Total GULP energy -89335.040615 kJ/mol
# GULP energy per Si atom -5583.440038 kJ/mol
# Density = 2.521973 g / cm^3
# Si number density = 25.277262 Si / 1000 Ang^3
#
#
#
# Elastic Constant Matrix: (Units=GPa)
#
#
# Indices 1 2 3 4 5 6 
#
# 1 191.4354 63.7306 15.5202 -4.2160 -1.8649 -29.4937
# 2 63.7306 191.7643 11.3280 -11.4179 -4.2806 -34.2582
# 3 15.5202 11.3280 70.4786 4.6203 4.8585 -10.9995
# 4 -4.2160 -11.4179 4.6203 31.6738 -0.1033 3.2741
# 5 -1.8649 -4.2806 4.8585 -0.1033 43.0720 15.8471
# 6 -29.4937 -34.2582 -10.9995 3.2741 15.8471 56.4250
#
#
#
# Elastic Compliance Matrix: (Units=1/GPa)
#
#
# Indices 1 2 3 4 5 6 
#
# 1 0.006164 -0.001607 -0.000704 0.000105 -0.000655 0.002287
# 2 -0.001607 0.006404 -0.000287 0.001822 -0.000511 0.003030
# 3 -0.000704 -0.000287 0.015327 -0.002802 -0.003072 0.003471
# 4 0.000105 0.001822 -0.002802 0.032823 0.001176 -0.001620
# 5 -0.000655 -0.000511 -0.003072 0.001176 0.026735 -0.008828
# 6 0.002287 0.003030 0.003471 -0.001620 -0.008828 0.024008
#
#
# Mechanical properties :
#
#
# Convention : Reuss Voigt Hill
#
# Bulk Modulus (GPa) = 44.05275 70.53732 57.29504
# Shear Modulus (GPa) = 40.25046 50.44078 45.34562
#
# Velocity S-wave (km/s) = 3.99477 4.47195 4.24008
# Velocity P-wave (km/s) = 6.22440 7.39124 6.83278
#
# Compressibility (1/GPa) = 0.02270006
#
# Stress axis : x y z
#
# Youngs Moduli (GPa) = 162.23398 156.15093 65.24457
#
# Poissons Ratio (x) = 0.25089 0.04593
# Poissons Ratio (y) = 0.26066 0.01871
# Poissons Ratio (z) = 0.11421 0.04477
#
# Static dielectric constant tensor:
#      x y z
#    x 2.032780 0.021430 -0.004880 
#    y 0.021430 2.056670 0.024490 
#    z -0.004880 0.024490 2.069510 
# 
# From -- ./inp_files/299304.got.cif
#   From: 2010.05.17/outbox.cif.g08.bks.cpg/sg2_150_cif.got.tgz:299304.got - 2010.06.03 11:33:40.
