data_PCOD9061533
_publ_section_title
;
Structure prediction by ZEFSAII (Michael W. Deem and Ramdas Pophale) SiO2 
 PCOD9061533
Probable space group: P -1
;
_chemical_formula_sum "Si O2"
_cell_formula_units_Z 16
_cell_length_a 15.142167
_cell_length_b 9.773103
_cell_length_c 8.715500
_cell_angle_alpha 97.974899
_cell_angle_beta 70.382254
_cell_angle_gamma 141.887233
_cell_volume 732.195966
_symmetry_space_group_name_H-M "P -1"
_symmetry_group_IT_number 2
_symmetry_cell_setting 'triclinic'
loop_
_space_group_symop_operation_xyz
x,y,z
-x,-y,-z
loop_
_atom_site_type_symbol
_atom_site_label
_atom_site_fract_x
_atom_site_fract_y
_atom_site_fract_z
Si Si1 0.567243 0.450578 0.548017
Si Si2 0.019314 0.437816 0.133648
Si Si3 0.355116 0.902758 0.992073
Si Si4 0.904743 0.015312 0.108251
Si Si5 0.512107 0.107398 0.360594
Si Si6 0.400281 0.266251 0.930450
Si Si7 0.126184 0.051441 0.517945
Si Si8 0.155201 0.765989 0.492543
O O1 0.500000 0.500000 0.500000
O O2 0.468072 0.299369 0.731003
O O3 0.720355 0.688215 0.571149
O O4 0.578071 0.333261 0.409983
O O5 0.875531 0.274297 0.310344
O O6 0.189169 0.677950 0.129404
O O7 0.016816 0.275936 0.067778
O O8 0.000000 0.500000 0.000000
O O9 0.373025 0.843159 0.809763
O O10 0.379121 0.096053 0.003801
O O11 0.500000 0.000000 0.000000
O O12 0.762743 0.865233 0.051427
O O13 0.870507 0.950785 0.298128
O O14 0.000000 0.000000 0.000000
O O15 0.332011 0.924032 0.385048
O O16 0.500000 0.000000 0.500000
O O17 0.500000 0.500000 0.000000
O O18 0.131895 0.893498 0.455572
O O19 0.000000 0.000000 0.500000
O O20 0.000000 0.500000 0.500000
#
# Coordination Sequence:
#
# PCOD9061533 Si02
#       8
#     2   2   2   2   2   2   2   2
#     4  12  24  47  74 100 143 190 240 292 356 423
#     4  11  23  45  72  96 140 185 231 283 354 418
#     4  12  28  45  71 110 144 185 241 294 358 429
#     4  11  26  47  68 102 141 183 234 289 353 421
#     4  12  25  46  74 103 141 189 239 295 358 419
#     4  12  28  48  72 105 147 187 236 299 357 424
#     4  11  27  45  71 104 139 184 239 289 350 421
#     4  11  25  45  68 102 143 179 232 295 346 419
#
# _framework density 21.852074000000002
#
# number of rings (size 3 to 8) (size 9 to 14) (size 15 to 20)
#    0.000    0.500    5.000    2.250    8.750    3.000 
#    0.000    0.000    0.000    0.000    0.000    0.000 
#    0.000    0.000    0.000    0.000    0.000    0.000 
#
# Total GULP energy -89221.114295 kJ/mol
# GULP energy per Si atom -5576.319643 kJ/mol
# Density = 2.180234 g / cm^3
# Si number density = 21.852074 Si / 1000 Ang^3
#
#
#
# Elastic Constant Matrix: (Units=GPa)
#
#
# Indices 1 2 3 4 5 6 
#
# 1 155.2345 55.1381 0.5673 -1.6380 6.6984 7.8015
# 2 55.1381 142.6588 0.7433 4.4033 -11.0978 -4.7392
# 3 0.5673 0.7433 41.2532 -4.1467 -4.8034 -10.9937
# 4 -1.6380 4.4033 -4.1467 37.3707 0.9585 -6.9503
# 5 6.6984 -11.0978 -4.8034 0.9585 36.2185 2.4270
# 6 7.8015 -4.7392 -10.9937 -6.9503 2.4270 48.4254
#
#
#
# Elastic Compliance Matrix: (Units=1/GPa)
#
#
# Indices 1 2 3 4 5 6 
#
# 1 0.007791 -0.003262 -0.000704 0.000422 -0.002441 -0.001551
# 2 -0.003262 0.008589 0.000484 -0.000966 0.003246 0.001175
# 3 -0.000704 0.000484 0.026805 0.004041 0.003280 0.006662
# 4 0.000422 -0.000966 0.004041 0.028267 -0.000912 0.004858
# 5 -0.002441 0.003246 0.003280 -0.000912 0.029526 -0.000155
# 6 -0.001551 0.001175 0.006662 0.004858 -0.000155 0.023233
#
#
# Mechanical properties :
#
#
# Convention : Reuss Voigt Hill
#
# Bulk Modulus (GPa) = 27.60751 50.22710 38.91731
# Shear Modulus (GPa) = 34.90478 43.24943 39.07711
#
# Velocity S-wave (km/s) = 4.00099 4.45364 4.23337
# Velocity P-wave (km/s) = 5.83139 7.03431 6.46090
#
# Compressibility (1/GPa) = 0.03622203
#
# Stress axis : x y z
#
# Youngs Moduli (GPa) = 128.35676 116.42350 37.30660
#
# Poissons Ratio (x) = 0.37977 0.02625
# Poissons Ratio (y) = 0.41869 -0.01806
# Poissons Ratio (z) = 0.09031 -0.05635
#
# Static dielectric constant tensor:
#      x y z
#    x 5.192930 1.707620 0.355920 
#    y 1.707620 2.617300 0.226480 
#    z 0.355920 0.226480 2.112070 
# 
# From -- ./inp_files/244263.got.cif
#   From: 2010.05.17/outbox.cif.g08.bks.cpg/sg2_123_cif.got.tgz:244263.got - 2010.06.03 11:33:40.
