data_PCOD9061820
_publ_section_title
;
Structure prediction by ZEFSAII (Michael W. Deem and Ramdas Pophale) SiO2 
 PCOD9061820
Probable space group: P -1
;
_chemical_formula_sum "Si O2"
_cell_formula_units_Z 14
_cell_length_a 7.985330
_cell_length_b 8.012884
_cell_length_c 16.500934
_cell_angle_alpha 74.520403
_cell_angle_beta 121.899078
_cell_angle_gamma 138.872538
_cell_volume 573.086767
_symmetry_space_group_name_H-M "P -1"
_symmetry_group_IT_number 2
_symmetry_cell_setting 'triclinic'
loop_
_space_group_symop_operation_xyz
x,y,z
-x,-y,-z
loop_
_atom_site_type_symbol
_atom_site_label
_atom_site_fract_x
_atom_site_fract_y
_atom_site_fract_z
Si Si1 0.264660 0.269600 0.641218
Si Si2 0.877684 0.041080 0.218927
Si Si3 0.041318 0.667559 0.558314
Si Si4 0.673245 0.259801 0.666945
Si Si5 0.232679 0.626760 0.843650
Si Si6 0.726915 0.446451 0.957438
Si Si7 0.365070 0.275215 0.191870
O O1 0.060363 0.997553 0.671973
O O2 0.113407 0.265130 0.528534
O O3 0.530823 0.328126 0.668726
O O4 0.384247 0.480161 0.713848
O O5 0.543318 0.784666 0.138930
O O6 0.090825 0.079202 0.207781
O O7 0.872186 0.244365 0.188874
O O8 0.858444 0.465070 0.612813
O O9 0.000000 0.500000 0.500000
O O10 0.390751 0.948333 0.619995
O O11 0.927994 0.334981 0.775394
O O12 0.475386 0.761885 0.817981
O O13 0.343690 0.626706 0.957077
O O14 0.763414 0.668604 0.912665
O O15 0.000000 0.500000 0.000000
#
# Coordination Sequence:
#
# PCOD9061820 Si02
#       7
#     2   2   2   2   2   2   2
#     4  11  25  48  74 106 153 193 251 315 378 455
#     4  11  24  48  72 107 151 202 250 312 382 449
#     4  12  28  50  78 115 151 194 259 316 378 457
#     4  12  26  49  76 112 149 207 247 310 389 448
#     4  12  24  47  74 109 151 197 258 311 379 448
#     4  11  23  46  71 105 152 200 251 317 379 450
#     4  11  25  45  72 109 146 197 255 311 378 449
#
# _framework density 24.429109
#
# number of rings (size 3 to 8) (size 9 to 14) (size 15 to 20)
#    0.000    0.571    2.857    4.714    2.000    0.571 
#   23.143    0.000    0.000    0.000    0.000    0.000 
#    0.000    0.000    0.000    0.000    0.000    0.000 
#
# Total GULP energy -78317.983318 kJ/mol
# GULP energy per Si atom -5594.141666 kJ/mol
# Density = 2.437351 g / cm^3
# Si number density = 24.429109 Si / 1000 Ang^3
#
#
#
# Elastic Constant Matrix: (Units=GPa)
#
#
# Indices 1 2 3 4 5 6 
#
# 1 135.2204 28.8880 13.0896 -2.2508 -10.5004 11.6740
# 2 28.8880 91.3064 35.5610 -8.3957 -2.6791 19.0334
# 3 13.0896 35.5610 81.5392 -9.9002 -10.4515 -2.5491
# 4 -2.2508 -8.3957 -9.9002 30.0671 12.1280 -0.3208
# 5 -10.5004 -2.6791 -10.4515 12.1280 45.7477 -2.9179
# 6 11.6740 19.0334 -2.5491 -0.3208 -2.9179 30.7653
#
#
#
# Elastic Compliance Matrix: (Units=1/GPa)
#
#
# Indices 1 2 3 4 5 6 
#
# 1 0.008149 -0.002149 -0.000292 -0.000827 0.001793 -0.001625
# 2 -0.002149 0.016858 -0.007297 0.003106 -0.002662 -0.010439
# 3 -0.000292 -0.007297 0.016345 0.002151 0.003071 0.006294
# 4 -0.000827 0.003106 0.002151 0.038751 -0.009915 -0.001966
# 5 0.001793 -0.002662 0.003071 -0.009915 0.025671 0.003553
# 6 -0.001625 -0.010439 0.006294 -0.001966 0.003553 0.040417
#
#
# Mechanical properties :
#
#
# Convention : Reuss Voigt Hill
#
# Bulk Modulus (GPa) = 45.71647 51.46036 48.58841
# Shear Modulus (GPa) = 28.90861 36.68451 32.79656
#
# Velocity S-wave (km/s) = 3.44374 3.87935 3.66802
# Velocity P-wave (km/s) = 5.87937 6.41691 6.15401
#
# Compressibility (1/GPa) = 0.02187395
#
# Stress axis : x y z
#
# Youngs Moduli (GPa) = 122.72192 59.32041 61.18053
#
# Poissons Ratio (x) = 0.12747 0.01788
# Poissons Ratio (y) = 0.26371 0.44646
# Poissons Ratio (z) = 0.03587 0.43289
#
# Static dielectric constant tensor:
#      x y z
#    x 1.910750 -0.014660 -0.017670 
#    y -0.014660 2.094670 -0.038900 
#    z -0.017670 -0.038900 1.940460 
# 
# From -- ./inp_files/319289.got.cif
#   From: 2010.05.17/outbox.cif.g08.bks.cpg/sg2_160_cif.got.tgz:319289.got - 2010.06.03 11:33:40.
