data_PCOD9061475
_publ_section_title
;
Structure prediction by ZEFSAII (Michael W. Deem and Ramdas Pophale) SiO2 
 PCOD9061475
Probable space group: P -1
;
_chemical_formula_sum "Si O2"
_cell_formula_units_Z 12
_cell_length_a 6.846752
_cell_length_b 25.349511
_cell_length_c 14.588003
_cell_angle_alpha 19.361826
_cell_angle_beta 140.373992
_cell_angle_gamma 140.947925
_cell_volume 520.227746
_symmetry_space_group_name_H-M "P -1"
_symmetry_group_IT_number 2
_symmetry_cell_setting 'triclinic'
loop_
_space_group_symop_operation_xyz
x,y,z
-x,-y,-z
loop_
_atom_site_type_symbol
_atom_site_label
_atom_site_fract_x
_atom_site_fract_y
_atom_site_fract_z
Si Si1 0.643315 0.780454 0.181701
Si Si2 0.661212 0.078821 0.837049
Si Si3 0.594804 0.617531 0.755298
Si Si4 0.656217 0.506805 0.328361
Si Si5 0.708304 0.223429 0.262557
Si Si6 0.711783 0.062757 0.333467
O O1 0.579582 0.616823 0.486371
O O2 0.978012 0.821777 0.184595
O O3 0.369496 0.791486 0.993625
O O4 0.647343 0.930821 0.005357
O O5 0.472848 0.210065 0.522433
O O6 0.500000 0.000000 0.000000
O O7 0.399230 0.554830 0.695435
O O8 0.962166 0.649652 0.808527
O O9 0.500000 0.500000 0.000000
O O10 0.000000 0.500000 0.500000
O O11 0.565711 0.681540 0.011121
O O12 0.765327 0.125665 0.353051
O O13 0.590792 0.092394 0.515339
O O14 0.000000 0.000000 0.500000
#
# Coordination Sequence:
#
# PCOD9061475 Si02
#       6
#     2   2   2   2   2   2
#     4  11  25  42  73 103 139 184 238 294 350 422
#     4  11  23  45  71 104 139 183 236 293 356 420
#     4  12  27  46  75 104 144 193 237 293 359 423
#     4  12  28  47  72 106 148 188 241 295 357 423
#     4  11  27  47  73 106 145 184 240 294 354 428
#     4  11  25  46  75 104 141 187 236 293 360 421
#
# _framework density 23.06682
#
# number of rings (size 3 to 8) (size 9 to 14) (size 15 to 20)
#    0.000    0.667    1.667    4.500   11.667    3.333 
#    0.000    0.000    0.000    0.000    0.000    0.000 
#    0.000    0.000    0.000    0.000    0.000    0.000 
#
# Total GULP energy -67213.662150 kJ/mol
# GULP energy per Si atom -5601.138513 kJ/mol
# Density = 2.301432 g / cm^3
# Si number density = 23.066820 Si / 1000 Ang^3
#
#
#
# Elastic Constant Matrix: (Units=GPa)
#
#
# Indices 1 2 3 4 5 6 
#
# 1 116.1501 33.5235 24.9087 0.4381 -12.2702 9.7548
# 2 33.5235 87.3756 -1.4025 15.6894 -9.1958 12.1379
# 3 24.9087 -1.4025 120.6293 -1.4121 -17.1802 9.9431
# 4 0.4381 15.6894 -1.4121 35.6379 4.4279 0.5269
# 5 -12.2702 -9.1958 -17.1802 4.4279 55.8663 0.9945
# 6 9.7548 12.1379 9.9431 0.5269 0.9945 26.2033
#
#
#
# Elastic Compliance Matrix: (Units=1/GPa)
#
#
# Indices 1 2 3 4 5 6 
#
# 1 0.010381 -0.003989 -0.001928 0.001455 0.000939 -0.001350
# 2 -0.003989 0.015437 0.001857 -0.006940 0.002899 -0.006341
# 3 -0.001928 0.001857 0.009430 -0.000725 0.002908 -0.003817
# 4 0.001455 -0.006940 -0.000725 0.031478 -0.003584 0.002451
# 5 0.000939 0.002899 0.002908 -0.003584 0.019824 -0.003476
# 6 -0.001350 -0.006341 -0.003817 0.002451 -0.003476 0.043134
#
#
# Mechanical properties :
#
#
# Convention : Reuss Voigt Hill
#
# Bulk Modulus (GPa) = 36.85977 48.69050 42.77514
# Shear Modulus (GPa) = 34.04932 41.34984 37.69958
#
# Velocity S-wave (km/s) = 3.84619 4.23852 4.04711
# Velocity P-wave (km/s) = 5.97817 6.71622 6.35792
#
# Compressibility (1/GPa) = 0.02712985
#
# Stress axis : x y z
#
# Youngs Moduli (GPa) = 96.32589 64.77843 106.04714
#
# Poissons Ratio (x) = 0.25839 0.20445
# Poissons Ratio (y) = 0.38423 -0.19698
# Poissons Ratio (z) = 0.18571 -0.12032
#
# Static dielectric constant tensor:
#      x y z
#    x 1.843370 0.006440 -0.005240 
#    y 0.006440 1.923700 0.002660 
#    z -0.005240 0.002660 1.826610 
# 
# From -- ./inp_files/28746.got.cif
#   From: 2010.05.17/outbox.cif.g08.bks.cpg/sg2_15_cif.got.tgz:28746.got - 2010.06.03 11:33:40.
