data_PCOD9061197
_publ_section_title
;
Structure prediction by ZEFSAII (Michael W. Deem and Ramdas Pophale) SiO2 
 PCOD9061197
Probable space group: P -1
;
_chemical_formula_sum "Si O2"
_cell_formula_units_Z 15
_cell_length_a 6.983030
_cell_length_b 19.002416
_cell_length_c 8.793659
_cell_angle_alpha 140.976437
_cell_angle_beta 105.985550
_cell_angle_gamma 74.007696
_cell_volume 702.635485
_symmetry_space_group_name_H-M "P -1"
_symmetry_group_IT_number 2
_symmetry_cell_setting 'triclinic'
loop_
_space_group_symop_operation_xyz
x,y,z
-x,-y,-z
loop_
_atom_site_type_symbol
_atom_site_label
_atom_site_fract_x
_atom_site_fract_y
_atom_site_fract_z
Si Si1 0.500000 0.000000 0.000000
Si Si2 0.241426 0.247371 0.356446
Si Si3 0.165175 0.211496 0.766516
Si Si4 0.083315 0.815528 0.056852
Si Si5 0.640475 0.000694 0.682849
Si Si6 0.975029 0.369287 0.760992
Si Si7 0.455543 0.651629 0.880056
Si Si8 0.440413 0.595161 0.431049
O O1 0.366524 0.125106 0.195271
O O2 0.470158 0.980273 0.148288
O O3 0.383426 0.334111 0.463258
O O4 0.144407 0.307067 0.585268
O O5 0.055864 0.235137 0.182790
O O6 0.232313 0.119644 0.500899
O O7 0.066743 0.149261 0.778965
O O8 0.007008 0.306707 0.822485
O O9 0.357935 0.273875 0.959305
O O10 0.202944 0.908483 0.159001
O O11 0.257871 0.727371 0.014201
O O12 0.500000 0.000000 0.500000
O O13 0.758125 0.360868 0.628735
O O14 0.000000 0.500000 0.000000
O O15 0.408641 0.615734 0.637925
O O16 0.508727 0.539152 0.800360
#
# Coordination Sequence:
#
# PCOD9061197 Si02
#       8
#     1   2   2   2   2   2   2   2
#     4  12  28  50  80 108 156 198 260 314 384 456
#     4  12  27  48  75 109 148 200 251 311 379 453
#     4  12  25  48  73 114 150 196 255 315 386 449
#     4  12  26  46  79 109 147 202 258 312 378 464
#     4  12  26  49  77 111 150 199 258 317 383 452
#     4  12  27  46  71 112 151 193 252 312 381 451
#     4  11  23  44  74 109 144 200 254 302 382 457
#     4  11  25  44  74 104 152 193 250 317 366 458
#
# _framework density 21.348192999999998
#
# number of rings (size 3 to 8) (size 9 to 14) (size 15 to 20)
#    0.000    0.267    6.667    2.000    1.867    4.800 
#    0.000    0.000    0.000    0.000    0.000    0.000 
#    0.000    0.000    0.000    0.000    0.000    0.000 
#
# Total GULP energy -83593.563414 kJ/mol
# GULP energy per Si atom -5572.904228 kJ/mol
# Density = 2.129960 g / cm^3
# Si number density = 21.348193 Si / 1000 Ang^3
#
#
#
# Elastic Constant Matrix: (Units=GPa)
#
#
# Indices 1 2 3 4 5 6 
#
# 1 113.1362 55.5163 60.0163 2.0701 12.4014 0.2498
# 2 55.5163 96.1932 31.4031 4.6346 -8.0303 5.7522
# 3 60.0163 31.4031 97.0801 3.4189 -18.2869 11.4883
# 4 2.0701 4.6346 3.4189 34.8334 0.0026 -16.6464
# 5 12.4014 -8.0303 -18.2869 0.0026 33.1169 8.0090
# 6 0.2498 5.7522 11.4883 -16.6464 8.0090 25.0573
#
#
#
# Elastic Compliance Matrix: (Units=1/GPa)
#
#
# Indices 1 2 3 4 5 6 
#
# 1 0.070894 -0.037095 -0.064993 0.058561 -0.097475 0.107667
# 2 -0.037095 0.031351 0.031299 -0.034196 0.053532 -0.061005
# 3 -0.064993 0.031299 0.075270 -0.062694 0.101328 -0.115084
# 4 0.058561 -0.034196 -0.062694 0.099591 -0.097061 0.133195
# 5 -0.097475 0.053532 0.101328 -0.097061 0.179045 -0.179483
# 6 0.107667 -0.061005 -0.115084 0.133195 -0.179483 0.251457
#
#
# Mechanical properties :
#
#
# Convention : Reuss Voigt Hill
#
# Bulk Modulus (GPa) = 27.82669 66.69787 47.26228
# Shear Modulus (GPa) = 5.80607 29.23311 17.51959
#
# Velocity S-wave (km/s) = 1.65094 3.70449 2.86782
# Velocity P-wave (km/s) = 4.08621 7.04332 5.75784
#
# Compressibility (1/GPa) = 0.03593672
#
# Stress axis : x y z
#
# Youngs Moduli (GPa) = 14.10548 31.89657 13.28547
#
# Poissons Ratio (x) = 1.18320 0.86347
# Poissons Ratio (y) = 0.52324 -0.41582
# Poissons Ratio (z) = 0.91676 -0.99832
#
# Static dielectric constant tensor:
#      x y z
#    x 1.770500 0.007750 -0.021600 
#    y 0.007750 1.817710 -0.005350 
#    z -0.021600 -0.005350 1.776190 
# 
# From -- ./inp_files/34424.got.cif
#   From: 2010.05.17/outbox.cif.g08.bks.cpg/sg2_18_cif.got.tgz:34424.got - 2010.06.03 11:33:40.
