data_PCOD9061942
_publ_section_title
;
Structure prediction by ZEFSAII (Michael W. Deem and Ramdas Pophale) SiO2 
 PCOD9061942
Probable space group: P -1
;
_chemical_formula_sum "Si O2"
_cell_formula_units_Z 13
_cell_length_a 8.493231
_cell_length_b 13.425455
_cell_length_c 8.930443
_cell_angle_alpha 38.384792
_cell_angle_beta 105.475780
_cell_angle_gamma 119.017770
_cell_volume 540.735236
_symmetry_space_group_name_H-M "P -1"
_symmetry_group_IT_number 2
_symmetry_cell_setting 'triclinic'
loop_
_space_group_symop_operation_xyz
x,y,z
-x,-y,-z
loop_
_atom_site_type_symbol
_atom_site_label
_atom_site_fract_x
_atom_site_fract_y
_atom_site_fract_z
Si Si1 0.873230 0.084250 0.638061
Si Si2 0.744841 0.599060 0.713738
Si Si3 0.262886 0.785865 0.816841
Si Si4 0.410615 0.952665 0.196234
Si Si5 0.878336 0.745868 0.887587
Si Si6 0.500000 0.500000 0.500000
Si Si7 0.791351 0.454843 0.456363
O O1 0.743042 0.133881 0.441137
O O2 0.758007 0.002315 0.857354
O O3 0.065019 0.264208 0.481736
O O4 0.907340 0.936493 0.731957
O O5 0.754571 0.686286 0.777193
O O6 0.579472 0.582061 0.588933
O O7 0.730748 0.402703 0.972193
O O8 0.069679 0.750439 0.883247
O O9 0.425491 0.929750 0.788842
O O10 0.306352 0.736408 0.426551
O O11 0.500000 0.000000 0.000000
O O12 0.800471 0.608615 0.165887
O O13 0.674937 0.454566 0.572345
O O14 0.000000 0.500000 0.500000
#
# Coordination Sequence:
#
# PCOD9061942 Si02
#       7
#     2   2   2   2   2   1   2
#     4  11  25  46  75 111 147 195 250 308 374 450
#     4  11  24  48  77 108 152 196 249 306 377 451
#     4  11  23  46  74 109 144 197 248 305 377 444
#     4  12  26  44  72 104 151 191 244 308 374 445
#     4  11  25  46  79 106 149 198 250 311 374 447
#     4  12  28  44  80 106 152 190 264 298 378 440
#     4  12  28  52  73 109 152 203 247 314 382 449
#
# _framework density 24.041340000000002
#
# number of rings (size 3 to 8) (size 9 to 14) (size 15 to 20)
#    0.000    0.615    0.000    9.692    8.615    0.615 
#    2.769    2.308    0.000    0.000    0.000    0.000 
#    0.000    0.000    0.000    0.000    0.000    0.000 
#
# Total GULP energy -72596.067877 kJ/mol
# GULP energy per Si atom -5584.312914 kJ/mol
# Density = 2.398662 g / cm^3
# Si number density = 24.041340 Si / 1000 Ang^3
#
#
#
# Elastic Constant Matrix: (Units=GPa)
#
#
# Indices 1 2 3 4 5 6 
#
# 1 70.1987 35.0942 -1.4563 -2.8402 -1.2744 -0.5355
# 2 35.0942 131.6104 41.3726 -36.4887 8.2766 16.4541
# 3 -1.4563 41.3726 74.1417 -13.9760 -2.3138 21.8072
# 4 -2.8402 -36.4887 -13.9760 37.2556 -11.1910 -2.0402
# 5 -1.2744 8.2766 -2.3138 -11.1910 25.8514 3.4286
# 6 -0.5355 16.4541 21.8072 -2.0402 3.4286 45.8873
#
#
#
# Elastic Compliance Matrix: (Units=1/GPa)
#
#
# Indices 1 2 3 4 5 6 
#
# 1 0.017714 -0.007023 0.003380 -0.003700 0.001713 0.000826
# 2 -0.007023 0.014717 -0.005520 0.011618 -0.000231 -0.002202
# 3 0.003380 -0.005520 0.019809 0.003772 0.006361 -0.007703
# 4 -0.003700 0.011618 0.003772 0.043915 0.016143 -0.005255
# 5 0.001713 -0.000231 0.006361 0.016143 0.047158 -0.005726
# 6 0.000826 -0.002202 -0.007703 -0.005255 -0.005726 0.026447
#
#
# Mechanical properties :
#
#
# Convention : Reuss Voigt Hill
#
# Bulk Modulus (GPa) = 29.48576 47.33021 38.40798
# Shear Modulus (GPa) = 25.07647 35.19486 30.13567
#
# Velocity S-wave (km/s) = 3.23314 3.83029 3.54431
# Velocity P-wave (km/s) = 5.12141 6.26827 5.72364
#
# Compressibility (1/GPa) = 0.03391468
#
# Stress axis : x y z
#
# Youngs Moduli (GPa) = 56.45268 67.94915 50.48112
#
# Poissons Ratio (x) = 0.47719 -0.17061
# Poissons Ratio (y) = 0.39646 0.27864
# Poissons Ratio (z) = -0.19079 0.37506
#
# Static dielectric constant tensor:
#      x y z
#    x 1.836680 -0.077270 -0.036130 
#    y -0.077270 1.961180 0.054720 
#    z -0.036130 0.054720 1.941750 
# 
# From -- ./inp_files/183880.got.cif
#   From: 2010.05.17/outbox.cif.g08.bks.cpg/sg2_92_cif.got.tgz:183880.got - 2010.06.03 11:33:40.
