data_PCOD9061337
_publ_section_title
;
Structure prediction by ZEFSAII (Michael W. Deem and Ramdas Pophale) SiO2 
 PCOD9061337
Probable space group: P -1
;
_chemical_formula_sum "Si O2"
_cell_formula_units_Z 14
_cell_length_a 17.871288
_cell_length_b 8.884848
_cell_length_c 11.701327
_cell_angle_alpha 127.994221
_cell_angle_beta 40.625345
_cell_angle_gamma 151.285449
_cell_volume 573.727704
_symmetry_space_group_name_H-M "P -1"
_symmetry_group_IT_number 2
_symmetry_cell_setting 'triclinic'
loop_
_space_group_symop_operation_xyz
x,y,z
-x,-y,-z
loop_
_atom_site_type_symbol
_atom_site_label
_atom_site_fract_x
_atom_site_fract_y
_atom_site_fract_z
Si Si1 0.130689 0.098192 0.064155
Si Si2 0.427347 0.952956 0.934260
Si Si3 0.551915 0.434908 0.261074
Si Si4 0.338825 0.439429 0.187218
Si Si5 0.985616 0.509132 0.883603
Si Si6 0.301502 0.616664 0.543479
Si Si7 0.770383 0.807602 0.389280
O O1 0.161856 0.114841 0.171726
O O2 0.337707 0.401485 0.908853
O O3 0.987607 0.086693 0.225936
O O4 0.044357 0.810956 0.956944
O O5 0.403337 0.708111 0.802541
O O6 0.589584 0.275200 0.826741
O O7 0.223284 0.783155 0.068936
O O8 0.500000 0.000000 0.000000
O O9 0.657290 0.710466 0.358350
O O10 0.326942 0.174797 0.400775
O O11 0.310337 0.472033 0.363739
O O12 0.500000 0.500000 0.000000
O O13 0.139298 0.561597 0.683116
O O14 0.000000 0.500000 0.000000
O O15 0.263562 0.439113 0.618555
O O16 0.500000 0.000000 0.500000
#
# Coordination Sequence:
#
# PCOD9061337 Si02
#       7
#     2   2   2   2   2   2   2
#     4  12  24  45  73 108 142 198 251 311 378 449
#     4  12  26  47  73 108 153 198 244 318 382 448
#     4  11  23  45  68 105 150 192 241 312 383 446
#     4  12  27  47  74 107 151 196 249 312 384 451
#     4  12  24  47  76 106 149 200 257 309 379 457
#     4  12  25  46  73 109 146 198 258 313 379 454
#     4  11  24  41  73 104 142 193 255 305 370 452
#
# _framework density 24.401821000000002
#
# number of rings (size 3 to 8) (size 9 to 14) (size 15 to 20)
#    0.000    0.286    4.286    5.571    0.000    2.857 
#    0.000    1.429    0.000    0.000    0.000    0.000 
#    0.000    0.000    0.000    0.000    0.000    0.000 
#
# Total GULP energy -78056.764817 kJ/mol
# GULP energy per Si atom -5575.483201 kJ/mol
# Density = 2.434628 g / cm^3
# Si number density = 24.401821 Si / 1000 Ang^3
#
#
#
# Elastic Constant Matrix: (Units=GPa)
#
#
# Indices 1 2 3 4 5 6 
#
# 1 112.6646 16.0813 49.5582 -4.8273 7.1197 20.7702
# 2 16.0813 51.3690 19.4185 -2.6715 13.0410 6.4346
# 3 49.5582 19.4185 183.5785 -5.1341 -11.2062 21.2694
# 4 -4.8273 -2.6715 -5.1341 26.2636 10.9009 3.0920
# 5 7.1197 13.0410 -11.2062 10.9009 61.0838 -1.9446
# 6 20.7702 6.4346 21.2694 3.0920 -1.9446 42.4062
#
#
#
# Elastic Compliance Matrix: (Units=1/GPa)
#
#
# Indices 1 2 3 4 5 6 
#
# 1 0.011194 -0.001361 -0.002421 0.002832 -0.002103 -0.004365
# 2 -0.001361 0.022672 -0.001994 0.004396 -0.005907 -0.002365
# 3 -0.002421 -0.001994 0.006631 0.000086 0.001853 -0.001759
# 4 0.002832 0.004396 0.000086 0.043552 -0.009206 -0.005695
# 5 -0.002103 -0.005907 0.001853 -0.009206 0.019942 0.002583
# 6 -0.004365 -0.002365 -0.001759 -0.005695 0.002583 0.027494
#
#
# Mechanical properties :
#
#
# Convention : Reuss Voigt Hill
#
# Bulk Modulus (GPa) = 34.55068 57.52532 46.03800
# Shear Modulus (GPa) = 32.74685 43.45433 38.10059
#
# Velocity S-wave (km/s) = 3.66728 4.22451 3.95572
# Velocity P-wave (km/s) = 5.66761 6.88627 6.30644
#
# Compressibility (1/GPa) = 0.02894299
#
# Stress axis : x y z
#
# Youngs Moduli (GPa) = 89.33192 44.10818 150.80251
#
# Poissons Ratio (x) = 0.06004 0.36516
# Poissons Ratio (y) = 0.12160 0.30076
# Poissons Ratio (z) = 0.21631 0.08797
#
# Static dielectric constant tensor:
#      x y z
#    x 2.030030 0.075340 0.032570 
#    y 0.075340 2.200380 0.144340 
#    z 0.032570 0.144340 2.112370 
# 
# From -- ./inp_files/246172.got.cif
#   From: 2010.05.17/outbox.cif.g08.bks.cpg/sg2_124_cif.got.tgz:246172.got - 2010.06.03 11:33:40.
