data_PCOD9061200
_publ_section_title
;
Structure prediction by ZEFSAII (Michael W. Deem and Ramdas Pophale) SiO2 
 PCOD9061200
Probable space group: P -1
;
_chemical_formula_sum "Si O2"
_cell_formula_units_Z 14
_cell_length_a 12.803740
_cell_length_b 5.142683
_cell_length_c 11.033870
_cell_angle_alpha 93.413862
_cell_angle_beta 66.843823
_cell_angle_gamma 58.434702
_cell_volume 535.508842
_symmetry_space_group_name_H-M "P -1"
_symmetry_group_IT_number 2
_symmetry_cell_setting 'triclinic'
loop_
_space_group_symop_operation_xyz
x,y,z
-x,-y,-z
loop_
_atom_site_type_symbol
_atom_site_label
_atom_site_fract_x
_atom_site_fract_y
_atom_site_fract_z
Si Si1 0.631959 0.001078 0.411370
Si Si2 0.879558 0.987777 0.496428
Si Si3 0.154764 0.417336 0.898951
Si Si4 0.887712 0.653185 0.726050
Si Si5 0.380816 0.356580 0.109715
Si Si6 0.783715 0.125409 0.987532
Si Si7 0.598995 0.448225 0.628734
O O1 0.654352 0.100233 0.535091
O O2 0.549027 0.308824 0.364382
O O3 0.500000 0.000000 0.500000
O O4 0.765104 0.704924 0.270364
O O5 0.849541 0.840545 0.621631
O O6 0.965409 0.702698 0.351821
O O7 0.754031 0.358622 0.524108
O O8 0.000000 0.000000 0.500000
O O9 0.164253 0.698380 0.953403
O O10 0.246961 0.089567 0.927680
O O11 0.000000 0.500000 0.000000
O O12 0.762316 0.620240 0.809562
O O13 0.893577 0.872900 0.829396
O O14 0.652413 0.397093 0.975186
O O15 0.413234 0.458467 0.223678
O O16 0.500000 0.000000 0.000000
#
# Coordination Sequence:
#
# PCOD9061200 Si02
#       7
#     2   2   2   2   2   2   2
#     4  11  30  52  77 109 160 227 277 327 396 504
#     4  11  23  44  74 110 162 198 262 324 406 477
#     4  12  30  55  83 119 163 219 279 341 404 488
#     4  11  24  42  72 121 151 200 252 332 405 486
#     4  12  26  47  79 118 161 206 258 342 415 484
#     4  12  26  51  79 120 161 201 273 334 420 483
#     4  11  26  48  75 112 160 208 271 328 407 480
#
# _framework density 26.143360999999999
#
# number of rings (size 3 to 8) (size 9 to 14) (size 15 to 20)
#    0.000    0.571    4.286    1.286    8.000    1.714 
#    2.571    0.000    0.000    0.000    0.000    0.000 
#    0.000    0.000    0.000    0.000    0.000    0.000 
#
# Total GULP energy -78151.128406 kJ/mol
# GULP energy per Si atom -5582.223458 kJ/mol
# Density = 2.608386 g / cm^3
# Si number density = 26.143361 Si / 1000 Ang^3
#
#
#
# Elastic Constant Matrix: (Units=GPa)
#
#
# Indices 1 2 3 4 5 6 
#
# 1 71.3712 0.3766 72.1265 13.9431 17.1416 3.6396
# 2 0.3766 83.5935 46.0620 15.3932 5.5441 3.5758
# 3 72.1265 46.0620 224.8513 53.4749 8.8729 13.5242
# 4 13.9431 15.3932 53.4749 57.6544 3.6239 -4.6298
# 5 17.1416 5.5441 8.8729 3.6239 58.4544 13.5902
# 6 3.6396 3.5758 13.5242 -4.6298 13.5902 46.8685
#
#
#
# Elastic Compliance Matrix: (Units=1/GPa)
#
#
# Indices 1 2 3 4 5 6 
#
# 1 0.024440 0.004951 -0.009197 0.001944 -0.006963 0.002589
# 2 0.004951 0.014611 -0.004281 -0.000967 -0.002192 0.000276
# 3 -0.009197 -0.004281 0.009828 -0.006177 0.002738 -0.003199
# 4 0.001944 -0.000967 -0.006177 0.023362 -0.002061 0.004611
# 5 -0.006963 -0.002192 0.002738 -0.002061 0.020519 -0.006236
# 6 0.002589 0.000276 -0.003199 0.004611 -0.006236 0.024301
#
#
# Mechanical properties :
#
#
# Convention : Reuss Voigt Hill
#
# Bulk Modulus (GPa) = 31.42243 68.54959 49.98601
# Shear Modulus (GPa) = 34.54815 50.01217 42.28016
#
# Velocity S-wave (km/s) = 3.63917 4.37853 4.02586
# Velocity P-wave (km/s) = 5.45009 7.19997 6.38526
#
# Compressibility (1/GPa) = 0.03182440
#
# Stress axis : x y z
#
# Youngs Moduli (GPa) = 40.91592 68.44069 101.74796
#
# Poissons Ratio (x) = -0.33885 0.93580
# Poissons Ratio (y) = -0.20257 0.43562
# Poissons Ratio (z) = 0.37632 0.29302
#
# Static dielectric constant tensor:
#      x y z
#    x 1.656780 0.138060 -0.067900 
#    y 0.138060 2.212650 -0.052080 
#    z -0.067900 -0.052080 2.129610 
# 
# From -- ./inp_files/411212.got.cif
#   From: 2010.05.17/outbox.cif.g08.bks.cpg/sg2_206_cif.got.tgz:411212.got - 2010.06.03 11:33:40.
