data_PCOD9061226
_publ_section_title
;
Structure prediction by ZEFSAII (Michael W. Deem and Ramdas Pophale) SiO2 
 PCOD9061226
Probable space group: P -1
;
_chemical_formula_sum "Si O2"
_cell_formula_units_Z 12
_cell_length_a 11.574945
_cell_length_b 6.613617
_cell_length_c 11.337399
_cell_angle_alpha 86.616121
_cell_angle_beta 50.345578
_cell_angle_gamma 55.114063
_cell_volume 479.504103
_symmetry_space_group_name_H-M "P -1"
_symmetry_group_IT_number 2
_symmetry_cell_setting 'triclinic'
loop_
_space_group_symop_operation_xyz
x,y,z
-x,-y,-z
loop_
_atom_site_type_symbol
_atom_site_label
_atom_site_fract_x
_atom_site_fract_y
_atom_site_fract_z
Si Si1 0.419228 0.606305 0.800408
Si Si2 0.619684 0.974541 0.038089
Si Si3 0.145602 0.037672 0.456088
Si Si4 0.397541 0.300268 0.510691
Si Si5 0.995471 0.530172 0.658883
Si Si6 0.797951 0.543508 0.121169
O O1 0.435850 0.717128 0.663540
O O2 0.217118 0.650462 0.937868
O O3 0.430006 0.750910 0.898849
O O4 0.628100 0.272336 0.670595
O O5 0.618667 0.848230 0.164215
O O6 0.858891 0.718087 0.852807
O O7 0.500000 0.000000 0.000000
O O8 0.134799 0.241579 0.368846
O O9 0.041190 0.247671 0.628917
O O10 0.000000 0.000000 0.500000
O O11 0.274540 0.473046 0.703867
O O12 0.218301 0.427436 0.527159
O O13 0.500000 0.000000 0.500000
O O14 0.000000 0.500000 0.000000
#
# Coordination Sequence:
#
# PCOD9061226 Si02
#       6
#     2   2   2   2   2   2
#     4  12  27  48  83 115 152 209 265 315 392 466
#     4  12  27  49  77 115 162 201 255 328 391 460
#     4  11  23  44  75 113 151 203 262 315 386 463
#     4  12  24  49  77 108 151 206 257 319 381 464
#     4  11  25  44  73 108 158 199 252 321 383 455
#     4  12  27  51  73 112 160 206 259 321 387 462
#
# _framework density 25.025856000000001
#
# number of rings (size 3 to 8) (size 9 to 14) (size 15 to 20)
#    0.000    0.333    5.000    3.500    2.333    4.667 
#    0.000    0.000    0.000    0.000    0.000    0.000 
#    0.000    0.000    0.000    0.000    0.000    0.000 
#
# Total GULP energy -66964.272455 kJ/mol
# GULP energy per Si atom -5580.356038 kJ/mol
# Density = 2.496890 g / cm^3
# Si number density = 25.025856 Si / 1000 Ang^3
#
#
#
# Elastic Constant Matrix: (Units=GPa)
#
#
# Indices 1 2 3 4 5 6 
#
# 1 138.7069 77.1871 41.3429 -20.6946 -8.8016 15.1973
# 2 77.1871 138.5399 45.1427 20.6304 6.5518 16.1028
# 3 41.3429 45.1427 106.0582 12.5312 4.0391 25.7988
# 4 -20.6946 20.6304 12.5312 33.9113 5.1744 1.3971
# 5 -8.8016 6.5518 4.0391 5.1744 39.9857 -6.9135
# 6 15.1973 16.1028 25.7988 1.3971 -6.9135 53.3378
#
#
#
# Elastic Compliance Matrix: (Units=1/GPa)
#
#
# Indices 1 2 3 4 5 6 
#
# 1 0.018255 -0.011796 -0.004699 0.019412 0.004025 0.000646
# 2 -0.011796 0.016628 0.000039 -0.016733 -0.003451 -0.001687
# 3 -0.004699 0.000039 0.013489 -0.007295 -0.002378 -0.005315
# 4 0.019412 -0.016733 -0.007295 0.053973 0.001074 0.001774
# 5 0.004025 -0.003451 -0.002378 0.001074 0.027351 0.004562
# 6 0.000646 -0.001687 -0.005315 0.001774 0.004562 0.022189
#
#
# Mechanical properties :
#
#
# Convention : Reuss Voigt Hill
#
# Bulk Modulus (GPa) = 64.67849 78.96115 71.81982
# Shear Modulus (GPa) = 26.32265 40.08913 33.20589
#
# Velocity S-wave (km/s) = 3.24669 4.00673 3.64657
# Velocity P-wave (km/s) = 6.32103 7.28186 6.81839
#
# Compressibility (1/GPa) = 0.01546109
#
# Stress axis : x y z
#
# Youngs Moduli (GPa) = 54.77967 60.13861 74.13340
#
# Poissons Ratio (x) = 0.70937 0.34839
# Poissons Ratio (y) = 0.64616 -0.00292
# Poissons Ratio (z) = 0.25743 -0.00237
#
# Static dielectric constant tensor:
#      x y z
#    x 2.113650 0.067320 0.067830 
#    y 0.067320 2.018560 -0.042210 
#    z 0.067830 -0.042210 2.309460 
# 
# From -- ./inp_files/83253.got.cif
#   From: 2010.05.17/outbox.cif.g08.bks.cpg/sg2_42_cif.got.tgz:83253.got - 2010.06.03 11:33:40.
