data_PCOD9061644
_publ_section_title
;
Structure prediction by ZEFSAII (Michael W. Deem and Ramdas Pophale) SiO2 
 PCOD9061644
Probable space group: P -1
;
_chemical_formula_sum "Si O2"
_cell_formula_units_Z 14
_cell_length_a 14.487155
_cell_length_b 22.405240
_cell_length_c 6.286574
_cell_angle_alpha 118.414031
_cell_angle_beta 120.535127
_cell_angle_gamma 19.690299
_cell_volume 592.162689
_symmetry_space_group_name_H-M "P -1"
_symmetry_group_IT_number 2
_symmetry_cell_setting 'triclinic'
loop_
_space_group_symop_operation_xyz
x,y,z
-x,-y,-z
loop_
_atom_site_type_symbol
_atom_site_label
_atom_site_fract_x
_atom_site_fract_y
_atom_site_fract_z
Si Si1 0.816022 0.478753 0.210375
Si Si2 0.244735 0.016379 0.538056
Si Si3 0.640511 0.844705 0.401167
Si Si4 0.248582 0.592873 0.330994
Si Si5 0.068912 0.938519 0.729228
Si Si6 0.793604 0.670469 0.880571
Si Si7 0.640074 0.608160 0.644573
O O1 0.095528 0.305807 0.386906
O O2 0.933875 0.466941 0.168760
O O3 0.576693 0.640340 0.370341
O O4 0.732747 0.460006 0.956413
O O5 0.053043 0.194254 0.657879
O O6 0.032303 0.079334 0.415395
O O7 0.399364 0.935311 0.357008
O O8 0.505932 0.850053 0.716002
O O9 0.500000 0.000000 0.500000
O O10 0.748361 0.751931 0.150280
O O11 0.500000 0.500000 0.500000
O O12 0.261584 0.526038 0.410260
O O13 0.397681 0.758457 0.787064
O O14 0.000000 0.000000 0.500000
O O15 0.000000 0.000000 0.000000
O O16 0.799216 0.587354 0.798172
#
# Coordination Sequence:
#
# PCOD9061644 Si02
#       7
#     2   2   2   2   2   2   2
#     4  11  26  44  71 107 146 190 255 310 394 455
#     4  11  24  45  73 108 144 199 256 311 389 457
#     4  11  23  45  75 107 147 195 249 322 384 467
#     4  12  27  47  68 106 152 200 249 312 386 466
#     4  12  27  49  77 114 154 206 264 321 385 472
#     4  11  24  46  76 107 145 190 254 319 384 462
#     4  12  26  46  73 108 151 198 247 321 386 459
#
# _framework density 23.642153
#
# number of rings (size 3 to 8) (size 9 to 14) (size 15 to 20)
#    0.000    0.571    2.857    4.714    2.000    7.429 
#    0.000    0.000    0.000    0.000    0.000    0.000 
#    0.000    0.000    0.000    0.000    0.000    0.000 
#
# Total GULP energy -78098.192860 kJ/mol
# GULP energy per Si atom -5578.442347 kJ/mol
# Density = 2.358834 g / cm^3
# Si number density = 23.642153 Si / 1000 Ang^3
#
#
#
# Elastic Constant Matrix: (Units=GPa)
#
#
# Indices 1 2 3 4 5 6 
#
# 1 191.6155 49.7962 72.4073 16.2101 4.8249 -15.7063
# 2 49.7962 85.5914 29.8853 15.0882 -7.1483 -6.0335
# 3 72.4073 29.8853 152.6187 23.0251 -2.4420 -11.2599
# 4 16.2101 15.0882 23.0251 41.7980 -13.7996 -6.6832
# 5 4.8249 -7.1483 -2.4420 -13.7996 44.0084 -3.6571
# 6 -15.7063 -6.0335 -11.2599 -6.6832 -3.6571 55.8024
#
#
#
# Elastic Compliance Matrix: (Units=1/GPa)
#
#
# Indices 1 2 3 4 5 6 
#
# 1 0.007235 -0.003245 -0.002671 -0.000517 -0.001549 0.000983
# 2 -0.003245 0.014538 -0.000821 -0.002907 0.001782 0.000261
# 3 -0.002671 -0.000821 0.008523 -0.003426 -0.000405 0.000442
# 4 -0.000517 -0.002907 -0.003426 0.030616 0.009254 0.003122
# 5 -0.001549 0.001782 -0.000405 0.009254 0.026270 0.002505
# 6 0.000983 0.000261 0.000442 0.003122 0.002505 0.018853
#
#
# Mechanical properties :
#
#
# Convention : Reuss Voigt Hill
#
# Bulk Modulus (GPa) = 59.44783 81.55591 70.50187
# Shear Modulus (GPa) = 39.96283 46.83754 43.40019
#
# Velocity S-wave (km/s) = 4.11581 4.45579 4.28917
# Velocity P-wave (km/s) = 6.91274 7.81300 7.37661
#
# Compressibility (1/GPa) = 0.01682147
#
# Stress axis : x y z
#
# Youngs Moduli (GPa) = 138.21868 68.78608 117.32521
#
# Poissons Ratio (x) = 0.22324 0.31340
# Poissons Ratio (y) = 0.44858 0.09628
# Poissons Ratio (z) = 0.36921 0.05645
#
# Static dielectric constant tensor:
#      x y z
#    x 1.884100 -0.013200 -0.083860 
#    y -0.013200 2.104470 -0.048900 
#    z -0.083860 -0.048900 1.957720 
# 
# From -- ./inp_files/70073.got.cif
#   From: 2010.05.17/outbox.cif.g08.bks.cpg/sg2_36_cif.got.tgz:70073.got - 2010.06.03 11:33:40.
