data_PCOD9061430
_publ_section_title
;
Structure prediction by ZEFSAII (Michael W. Deem and Ramdas Pophale) SiO2 
 PCOD9061430
Probable space group: P -1
;
_chemical_formula_sum "Si O2"
_cell_formula_units_Z 16
_cell_length_a 10.453532
_cell_length_b 6.820261
_cell_length_c 11.407897
_cell_angle_alpha 74.797268
_cell_angle_beta 119.657214
_cell_angle_gamma 81.209242
_cell_volume 642.163920
_symmetry_space_group_name_H-M "P -1"
_symmetry_group_IT_number 2
_symmetry_cell_setting 'triclinic'
loop_
_space_group_symop_operation_xyz
x,y,z
-x,-y,-z
loop_
_atom_site_type_symbol
_atom_site_label
_atom_site_fract_x
_atom_site_fract_y
_atom_site_fract_z
Si Si1 0.051304 0.428318 0.787335
Si Si2 0.396062 0.851193 0.500405
Si Si3 0.111953 0.129893 0.490856
Si Si4 0.929017 0.259028 0.064170
Si Si5 0.179402 0.816263 0.216348
Si Si6 0.682670 0.262373 0.113423
Si Si7 0.672295 0.832390 0.202392
Si Si8 0.473417 0.511375 0.784168
O O1 0.057406 0.526102 0.904786
O O2 0.221489 0.287545 0.839924
O O3 0.980313 0.636065 0.640753
O O4 0.934256 0.293119 0.755668
O O5 0.337126 0.772293 0.366916
O O6 0.484781 0.652735 0.657391
O O7 0.500000 0.000000 0.500000
O O8 0.238110 0.994964 0.473275
O O9 0.206950 0.167500 0.639710
O O10 0.000000 0.000000 0.500000
O O11 0.853531 0.164486 0.151730
O O12 0.816181 0.271691 0.899916
O O13 0.091172 0.075296 0.132348
O O14 0.675411 0.342215 0.229514
O O15 0.597411 0.085555 0.100311
O O16 0.601734 0.453892 0.954955
O O17 0.561818 0.707398 0.221540
#
# Coordination Sequence:
#
# PCOD9061430 Si02
#       8
#     2   2   2   2   2   2   2   2
#     4  12  22  41  73 109 142 192 247 310 381 436
#     4  12  27  51  75 108 155 206 249 305 379 457
#     4  12  24  43  73 107 153 187 246 311 368 447
#     4  11  23  45  70 108 146 188 250 314 366 442
#     4  11  25  46  72 102 147 197 247 301 378 445
#     4  11  23  45  70 108 146 188 250 314 366 442
#     4  12  22  41  73 109 142 192 247 310 381 436
#     4  11  25  46  72 102 147 197 247 301 378 445
#
# _framework density 24.915756999999999
#
# number of rings (size 3 to 8) (size 9 to 14) (size 15 to 20)
#    0.000    0.500    5.000    4.125    0.000    2.000 
#    9.000    1.875    0.000    0.000    0.000    0.875 
#    0.000    0.000    0.000    0.000    0.000    0.000 
#
# Total GULP energy -89586.731771 kJ/mol
# GULP energy per Si atom -5599.170736 kJ/mol
# Density = 2.485905 g / cm^3
# Si number density = 24.915757 Si / 1000 Ang^3
#
#
#
# Elastic Constant Matrix: (Units=GPa)
#
#
# Indices 1 2 3 4 5 6 
#
# 1 82.2735 27.4372 18.6117 -0.8510 -12.9036 17.6336
# 2 27.4372 128.6033 51.0167 -3.5278 -0.5974 21.5780
# 3 18.6117 51.0167 163.6327 4.9806 -11.9324 13.1238
# 4 -0.8510 -3.5278 4.9806 55.2054 5.4870 0.1022
# 5 -12.9036 -0.5974 -11.9324 5.4870 28.0466 4.5282
# 6 17.6336 21.5780 13.1238 0.1022 4.5282 61.8610
#
#
#
# Elastic Compliance Matrix: (Units=1/GPa)
#
#
# Indices 1 2 3 4 5 6 
#
# 1 0.015038 -0.002514 -0.000033 -0.000676 0.007623 -0.003959
# 2 -0.002514 0.009762 -0.002780 0.001040 -0.002020 -0.001953
# 3 -0.000033 -0.002780 0.007332 -0.001177 0.003409 -0.000824
# 4 -0.000676 0.001040 -0.001177 0.018724 -0.004514 0.000379
# 5 0.007623 -0.002020 0.003409 -0.004514 0.042305 -0.005281
# 6 -0.003959 -0.001953 -0.000824 0.000379 -0.005281 0.018536
#
#
# Mechanical properties :
#
#
# Convention : Reuss Voigt Hill
#
# Bulk Modulus (GPa) = 46.55847 63.18231 54.87039
# Shear Modulus (GPa) = 38.60740 47.51885 43.06312
#
# Velocity S-wave (km/s) = 3.94066 4.37187 4.16185
# Velocity P-wave (km/s) = 6.27949 7.13426 6.72048
#
# Compressibility (1/GPa) = 0.02147837
#
# Stress axis : x y z
#
# Youngs Moduli (GPa) = 66.50031 102.44056 136.38606
#
# Poissons Ratio (x) = 0.25755 0.00444
# Poissons Ratio (y) = 0.16719 0.37914
# Poissons Ratio (z) = 0.00216 0.28477
#
# Static dielectric constant tensor:
#      x y z
#    x 2.030440 -0.035740 0.031100 
#    y -0.035740 1.985660 -0.006080 
#    z 0.031100 -0.006080 2.010190 
# 
# From -- ./inp_files/410346.got.cif
#   From: 2010.05.17/outbox.cif.g08.bks.cpg/sg2_206_cif.got.tgz:410346.got - 2010.06.03 11:33:40.
