data_PCOD9061097
_publ_section_title
;
Structure prediction by ZEFSAII (Michael W. Deem and Ramdas Pophale) SiO2 
 PCOD9061097
Probable space group: P -1
;
_chemical_formula_sum "Si O2"
_cell_formula_units_Z 16
_cell_length_a 13.999526
_cell_length_b 11.381078
_cell_length_c 11.652633
_cell_angle_alpha 75.670971
_cell_angle_beta 31.540768
_cell_angle_gamma 53.598024
_cell_volume 617.326639
_symmetry_space_group_name_H-M "P -1"
_symmetry_group_IT_number 2
_symmetry_cell_setting 'triclinic'
loop_
_space_group_symop_operation_xyz
x,y,z
-x,-y,-z
loop_
_atom_site_type_symbol
_atom_site_label
_atom_site_fract_x
_atom_site_fract_y
_atom_site_fract_z
Si Si1 0.954604 0.328475 0.443723
Si Si2 0.810397 0.889063 0.406791
Si Si3 0.624647 0.745431 0.091240
Si Si4 0.890910 0.037913 0.971653
Si Si5 0.284270 0.793815 0.232463
Si Si6 0.115299 0.603758 0.973451
Si Si7 0.248317 0.637222 0.606559
Si Si8 0.624237 0.735722 0.698033
O O1 0.811660 0.296146 0.674746
O O2 0.839856 0.347188 0.433379
O O3 0.834937 0.519970 0.545020
O O4 0.271269 0.201215 0.115130
O O5 0.785543 0.781017 0.534091
O O6 0.062612 0.856758 0.164168
O O7 0.552225 0.100744 0.663637
O O8 0.870987 0.801508 0.238773
O O9 0.465883 0.728605 0.176072
O O10 0.851460 0.543488 0.966970
O O11 0.572740 0.161330 0.239475
O O12 0.100131 0.835005 0.752017
O O13 0.000000 0.000000 0.000000
O O14 0.414648 0.808079 0.995482
O O15 0.000000 0.000000 0.500000
O O16 0.111390 0.607268 0.839678
O O17 0.416702 0.521394 0.697403
#
# Coordination Sequence:
#
# PCOD9061097 Si02
#       8
#     2   2   2   2   2   2   2   2
#     4  12  26  48  74 106 148 188 248 300 362 434
#     4  12  24  47  72 108 149 183 242 297 360 429
#     4  12  26  47  77 105 145 198 240 301 366 430
#     4  12  25  45  75 104 147 195 234 296 364 432
#     4  12  27  51  73 103 144 191 246 302 364 429
#     4  11  23  44  72 110 147 189 241 296 357 438
#     4  11  23  45  73 110 149 195 238 297 370 426
#     4  12  29  46  73 111 143 191 245 299 361 433
#
# _framework density 25.918208
#
# number of rings (size 3 to 8) (size 9 to 14) (size 15 to 20)
#    0.000    0.250    5.000    4.125    1.750    4.500 
#    4.500    0.000    0.000    0.000    0.000    0.000 
#    0.000    0.000    0.000    0.000    0.000    0.000 
#
# Total GULP energy -89396.855660 kJ/mol
# GULP energy per Si atom -5587.303479 kJ/mol
# Density = 2.585922 g / cm^3
# Si number density = 25.918208 Si / 1000 Ang^3
#
#
#
# Elastic Constant Matrix: (Units=GPa)
#
#
# Indices 1 2 3 4 5 6 
#
# 1 84.1770 21.7173 12.1917 -14.1588 -9.5694 1.5058
# 2 21.7173 130.8565 18.0875 -31.6777 -14.5880 16.7576
# 3 12.1917 18.0875 113.4022 -24.2392 0.4374 9.4100
# 4 -14.1588 -31.6777 -24.2392 59.6821 7.4601 1.1362
# 5 -9.5694 -14.5880 0.4374 7.4601 33.2208 -11.5513
# 6 1.5058 16.7576 9.4100 1.1362 -11.5513 32.0684
#
#
#
# Elastic Compliance Matrix: (Units=1/GPa)
#
#
# Indices 1 2 3 4 5 6 
#
# 1 0.013005 -0.001510 -0.000999 0.001430 0.003340 0.001624
# 2 -0.001510 0.009793 0.000023 0.004802 0.001110 -0.004824
# 3 -0.000999 0.000023 0.010206 0.004352 -0.002826 -0.004132
# 4 0.001430 0.004802 0.004352 0.022120 -0.004706 -0.006332
# 5 0.003340 0.001110 -0.002826 -0.004706 0.037422 0.013739
# 6 0.001624 -0.004824 -0.004132 -0.006332 0.013739 0.040014
#
#
# Mechanical properties :
#
#
# Convention : Reuss Voigt Hill
#
# Bulk Modulus (GPa) = 35.67404 48.04764 41.86084
# Shear Modulus (GPa) = 34.04215 43.42354 38.73285
#
# Velocity S-wave (km/s) = 3.62808 4.09761 3.86997
# Velocity P-wave (km/s) = 5.59862 6.40044 6.01291
#
# Compressibility (1/GPa) = 0.02803159
#
# Stress axis : x y z
#
# Youngs Moduli (GPa) = 76.89286 102.11010 97.98183
#
# Poissons Ratio (x) = 0.15416 0.09792
# Poissons Ratio (y) = 0.11609 -0.00223
# Poissons Ratio (z) = 0.07685 -0.00232
#
# Static dielectric constant tensor:
#      x y z
#    x 2.002780 -0.018250 0.016410 
#    y -0.018250 2.207460 -0.044470 
#    z 0.016410 -0.044470 1.964300 
# 
# From -- ./inp_files/452255.got.cif
#   From: 2010.05.17/outbox.cif.g08.bks.cpg/sg2_227_cif.got.tgz:452255.got - 2010.06.03 11:33:40.
