data_PCOD9061913
_publ_section_title
;
Structure prediction by ZEFSAII (Michael W. Deem and Ramdas Pophale) SiO2 
 PCOD9061913
Probable space group: P -1
;
_chemical_formula_sum "Si O2"
_cell_formula_units_Z 15
_cell_length_a 8.990773
_cell_length_b 9.381241
_cell_length_c 18.229507
_cell_angle_alpha 61.077902
_cell_angle_beta 149.395701
_cell_angle_gamma 128.037680
_cell_volume 612.322321
_symmetry_space_group_name_H-M "P -1"
_symmetry_group_IT_number 2
_symmetry_cell_setting 'triclinic'
loop_
_space_group_symop_operation_xyz
x,y,z
-x,-y,-z
loop_
_atom_site_type_symbol
_atom_site_label
_atom_site_fract_x
_atom_site_fract_y
_atom_site_fract_z
Si Si1 0.294970 0.949387 0.144426
Si Si2 0.378635 0.742517 0.904273
Si Si3 0.883056 0.627517 0.961858
Si Si4 0.164375 0.229899 0.242195
Si Si5 0.849526 0.494251 0.517586
Si Si6 0.500000 0.000000 0.500000
Si Si7 0.799535 0.593576 0.189463
Si Si8 0.205088 0.917896 0.561347
O O1 0.559300 0.098618 0.166445
O O2 0.440133 0.973055 0.279648
O O3 0.163135 0.748752 0.106585
O O4 0.000000 0.000000 0.000000
O O5 0.190665 0.547327 0.831925
O O6 0.168295 0.772328 0.870915
O O7 0.712626 0.742298 0.076309
O O8 0.829831 0.750533 0.847222
O O9 0.540191 0.520543 0.882807
O O10 0.000000 0.500000 0.000000
O O11 0.463606 0.405684 0.362711
O O12 0.249113 0.069747 0.341128
O O13 0.000000 0.500000 0.500000
O O14 0.922616 0.368594 0.639972
O O15 0.030351 0.704695 0.563364
O O16 0.732824 0.060695 0.504796
O O17 0.000000 0.000000 0.500000
#
# Coordination Sequence:
#
# PCOD9061913 Si02
#       8
#     2   2   2   2   2   1   2   2
#     4  12  25  49  77 104 154 202 252 322 384 465
#     4  11  25  47  74 113 146 197 261 317 383 462
#     4  12  25  48  78 112 150 202 255 317 397 453
#     4  12  27  48  76 111 154 197 258 318 388 463
#     4  12  24  48  77 107 158 205 249 324 398 464
#     4  12  26  50  74 116 156 204 260 318 384 472
#     4  11  23  46  73 110 149 191 257 311 384 462
#     4  12  28  51  77 115 157 209 261 317 401 464
#
# _framework density 24.496901000000001
#
# number of rings (size 3 to 8) (size 9 to 14) (size 15 to 20)
#    0.000    0.267    6.667    1.600    1.867    3.200 
#    2.400    0.000    0.000    0.000    0.000    0.000 
#    0.000    0.000    0.000    0.000    0.000    0.000 
#
# Total GULP energy -83725.917932 kJ/mol
# GULP energy per Si atom -5581.727862 kJ/mol
# Density = 2.444114 g / cm^3
# Si number density = 24.496901 Si / 1000 Ang^3
#
#
#
# Elastic Constant Matrix: (Units=GPa)
#
#
# Indices 1 2 3 4 5 6 
#
# 1 104.3250 22.7345 10.5688 -15.1724 -3.0658 -2.0241
# 2 22.7345 58.1711 14.1056 -10.4442 -0.5868 -18.0349
# 3 10.5688 14.1056 93.7501 -2.2712 -17.1739 -2.6644
# 4 -15.1724 -10.4442 -2.2712 42.3366 -0.2737 -5.4608
# 5 -3.0658 -0.5868 -17.1739 -0.2737 42.1841 -13.7876
# 6 -2.0241 -18.0349 -2.6644 -5.4608 -13.7876 46.7173
#
#
#
# Elastic Compliance Matrix: (Units=1/GPa)
#
#
# Indices 1 2 3 4 5 6 
#
# 1 0.010880 -0.003784 -0.000541 0.002864 0.000346 -0.000584
# 2 -0.003784 0.023379 -0.002210 0.005615 0.002498 0.010129
# 3 -0.000541 -0.002210 0.012074 0.000122 0.005301 0.001391
# 4 0.002864 0.005615 0.000122 0.026852 0.002532 0.006185
# 5 0.000346 0.002498 0.005301 0.002532 0.029280 0.010219
# 6 -0.000584 0.010129 0.001391 0.006185 0.010219 0.029108
#
#
# Mechanical properties :
#
#
# Convention : Reuss Voigt Hill
#
# Bulk Modulus (GPa) = 30.06342 39.00710 34.53526
# Shear Modulus (GPa) = 32.10660 40.17009 36.13834
#
# Velocity S-wave (km/s) = 3.62420 4.05384 3.84503
# Velocity P-wave (km/s) = 5.46005 6.15381 5.81728
#
# Compressibility (1/GPa) = 0.03326302
#
# Stress axis : x y z
#
# Youngs Moduli (GPa) = 91.90988 42.77324 82.82516
#
# Poissons Ratio (x) = 0.16187 0.04482
# Poissons Ratio (y) = 0.34782 0.18301
# Poissons Ratio (z) = 0.04973 0.09451
#
# Static dielectric constant tensor:
#      x y z
#    x 1.800710 0.056260 0.090600 
#    y 0.056260 2.120030 0.044870 
#    z 0.090600 0.044870 1.867400 
# 
# From -- ./inp_files/557151.got.cif
#   From: 2010.05.17/outbox.cif.g08.bks.cpg/sg2_279_cif.got.tgz:557151.got - 2010.06.03 11:33:40.
