data_PCOD9061418
_publ_section_title
;
Structure prediction by ZEFSAII (Michael W. Deem and Ramdas Pophale) SiO2 
 PCOD9061418
Probable space group: P -1
;
_chemical_formula_sum "Si O2"
_cell_formula_units_Z 16
_cell_length_a 8.796264
_cell_length_b 12.294124
_cell_length_c 17.651733
_cell_angle_alpha 130.118903
_cell_angle_beta 149.792521
_cell_angle_gamma 50.766697
_cell_volume 720.130238
_symmetry_space_group_name_H-M "P -1"
_symmetry_group_IT_number 2
_symmetry_cell_setting 'triclinic'
loop_
_space_group_symop_operation_xyz
x,y,z
-x,-y,-z
loop_
_atom_site_type_symbol
_atom_site_label
_atom_site_fract_x
_atom_site_fract_y
_atom_site_fract_z
Si Si1 0.364340 0.650498 0.969611
Si Si2 0.799961 0.605795 0.606409
Si Si3 0.692622 0.931571 0.433898
Si Si4 0.239257 0.195786 0.897434
Si Si5 0.874814 0.094603 0.917001
Si Si6 0.446496 0.776602 0.398766
Si Si7 0.523529 0.866411 0.873657
Si Si8 0.297737 0.718048 0.567710
O O1 0.115151 0.636955 0.791378
O O2 0.500000 0.500000 0.000000
O O3 0.616264 0.733653 0.079269
O O4 0.207099 0.745373 0.014102
O O5 0.691421 0.665935 0.503837
O O6 0.531180 0.685978 0.583691
O O7 0.813297 0.433539 0.536873
O O8 0.420463 0.952103 0.265291
O O9 0.606547 0.825357 0.414987
O O10 0.007921 0.851079 0.494809
O O11 0.666223 0.083973 0.532984
O O12 0.878679 0.267141 0.782011
O O13 0.284835 0.019501 0.832606
O O14 0.446955 0.211437 0.067782
O O15 0.147844 0.085241 0.971237
O O16 0.000000 0.000000 0.000000
O O17 0.468507 0.762776 0.735671
#
# Coordination Sequence:
#
# PCOD9061418 Si02
#       8
#     2   2   2   2   2   2   2   2
#     4  12  27  46  69  99 141 182 229 284 345 409
#     4  11  27  45  68  99 138 183 225 283 345 413
#     4  11  25  43  68 102 140 179 228 286 344 415
#     4  11  25  43  72 103 140 180 229 293 342 406
#     4  12  23  42  68 101 133 179 232 278 338 410
#     4  11  25  43  68 103 140 177 230 285 347 408
#     4  11  23  45  70 104 136 178 235 284 347 408
#     4  11  25  46  69  98 138 178 227 282 347 412
#
# _framework density 22.218202000000002
#
# number of rings (size 3 to 8) (size 9 to 14) (size 15 to 20)
#    0.000    0.750    5.000    1.500    7.000    1.000 
#    2.250    1.250    0.000    0.000    0.000    0.000 
#    0.000    0.000    0.000    0.000    0.000    0.000 
#
# Total GULP energy -89494.171610 kJ/mol
# GULP energy per Si atom -5593.385726 kJ/mol
# Density = 2.216763 g / cm^3
# Si number density = 22.218202 Si / 1000 Ang^3
#
#
#
# Elastic Constant Matrix: (Units=GPa)
#
#
# Indices 1 2 3 4 5 6 
#
# 1 41.9250 20.0058 -0.4683 -2.5685 -13.8252 5.7400
# 2 20.0058 73.9283 10.6592 -15.2102 -5.4030 -2.9456
# 3 -0.4683 10.6592 97.8162 -13.5842 -8.9236 0.4792
# 4 -2.5685 -15.2102 -13.5842 34.3521 0.9024 -6.2625
# 5 -13.8252 -5.4030 -8.9236 0.9024 29.2457 -4.7902
# 6 5.7400 -2.9456 0.4792 -6.2625 -4.7902 32.4391
#
#
#
# Elastic Compliance Matrix: (Units=1/GPa)
#
#
# Indices 1 2 3 4 5 6 
#
# 1 0.033308 -0.008889 0.002170 -0.001871 0.014000 -0.005027
# 2 -0.008889 0.017784 -0.001003 0.007666 -0.000709 0.004578
# 3 0.002170 -0.001003 0.011318 0.004228 0.004296 0.000808
# 4 -0.001871 0.007666 0.004228 0.035462 0.002057 0.008115
# 5 0.014000 -0.000709 0.004296 0.002057 0.042596 0.004082
# 6 -0.005027 0.004578 0.000808 0.008115 0.004082 0.034290
#
#
# Mechanical properties :
#
#
# Convention : Reuss Voigt Hill
#
# Bulk Modulus (GPa) = 21.29130 30.45145 25.87138
# Shear Modulus (GPa) = 24.28868 31.43891 27.86379
#
# Velocity S-wave (km/s) = 3.30993 3.76574 3.54517
# Velocity P-wave (km/s) = 4.92048 5.71341 5.33171
#
# Compressibility (1/GPa) = 0.04696753
#
# Stress axis : x y z
#
# Youngs Moduli (GPa) = 30.02284 56.22889 88.35409
#
# Poissons Ratio (x) = 0.49979 -0.19173
# Poissons Ratio (y) = 0.26686 0.08862
# Poissons Ratio (z) = -0.06515 0.05640
#
# Static dielectric constant tensor:
#      x y z
#    x 1.851870 0.044460 -0.015480 
#    y 0.044460 1.779240 -0.015560 
#    z -0.015480 -0.015560 1.824730 
# 
# From -- ./inp_files/208467.got.cif
#   From: 2010.05.17/outbox.cif.g08.bks.cpg/sg2_105_cif.got.tgz:208467.got - 2010.06.03 11:33:40.
