data_PCOD9061223
_publ_section_title
;
Structure prediction by ZEFSAII (Michael W. Deem and Ramdas Pophale) SiO2 
 PCOD9061223
Probable space group: P -1
;
_chemical_formula_sum "Si O2"
_cell_formula_units_Z 12
_cell_length_a 12.336102
_cell_length_b 5.583022
_cell_length_c 8.832295
_cell_angle_alpha 106.390180
_cell_angle_beta 59.271572
_cell_angle_gamma 77.284983
_cell_volume 450.051100
_symmetry_space_group_name_H-M "P -1"
_symmetry_group_IT_number 2
_symmetry_cell_setting 'triclinic'
loop_
_space_group_symop_operation_xyz
x,y,z
-x,-y,-z
loop_
_atom_site_type_symbol
_atom_site_label
_atom_site_fract_x
_atom_site_fract_y
_atom_site_fract_z
Si Si1 0.699662 0.621005 0.570823
Si Si2 0.789177 0.225692 0.975446
Si Si3 0.030449 0.767814 0.565639
Si Si4 0.603964 0.640015 0.967450
Si Si5 0.412321 0.911891 0.735602
Si Si6 0.837483 0.653400 0.202069
O O1 0.814717 0.323882 0.492544
O O2 0.633824 0.748549 0.805188
O O3 0.800044 0.713916 0.416632
O O4 0.568515 0.663245 0.563211
O O5 0.754719 0.418079 0.885808
O O6 0.799256 0.404021 0.138684
O O7 0.922211 0.937148 0.805604
O O8 0.656840 0.169908 0.090642
O O9 0.000000 0.500000 0.500000
O O10 0.000000 0.000000 0.500000
O O11 0.500000 0.500000 0.000000
O O12 0.549755 0.847038 0.185650
O O13 0.280843 0.068932 0.745140
O O14 0.000000 0.500000 0.000000
#
# Coordination Sequence:
#
# PCOD9061223 Si02
#       6
#     2   2   2   2   2   2
#     4  12  25  45  77 112 148 203 256 320 388 466
#     4  11  25  49  72 107 156 198 256 323 386 462
#     4  12  28  46  76 117 154 202 264 323 393 469
#     4  11  23  44  75 111 148 190 248 326 390 456
#     4  11  25  47  74 110 154 195 261 320 393 459
#     4  11  28  51  73 107 157 210 257 317 384 473
#
# _framework density 26.663641999999999
#
# number of rings (size 3 to 8) (size 9 to 14) (size 15 to 20)
#    0.000    0.667    3.333    3.000    7.000    3.333 
#    3.000    0.000    0.000    0.000    0.000    0.000 
#    0.000    0.000    0.000    0.000    0.000    0.000 
#
# Total GULP energy -66941.089766 kJ/mol
# GULP energy per Si atom -5578.424147 kJ/mol
# Density = 2.660295 g / cm^3
# Si number density = 26.663642 Si / 1000 Ang^3
#
#
#
# Elastic Constant Matrix: (Units=GPa)
#
#
# Indices 1 2 3 4 5 6 
#
# 1 123.0229 51.2476 48.8123 11.7360 -16.7012 -26.6459
# 2 51.2476 110.4919 29.9101 -4.2085 4.3383 -31.6900
# 3 48.8123 29.9101 147.6801 -8.2739 -29.2118 -24.3196
# 4 11.7360 -4.2085 -8.2739 45.2303 -18.5621 -0.4021
# 5 -16.7012 4.3383 -29.2118 -18.5621 45.0290 14.5249
# 6 -26.6459 -31.6900 -24.3196 -0.4021 14.5249 66.2929
#
#
#
# Elastic Compliance Matrix: (Units=1/GPa)
#
#
# Indices 1 2 3 4 5 6 
#
# 1 0.011913 -0.004589 -0.002752 -0.003514 0.001207 0.001299
# 2 -0.004589 0.013279 -0.001435 -0.000103 -0.005636 0.005211
# 3 -0.002752 -0.001435 0.009840 0.005560 0.007743 0.000155
# 4 -0.003514 -0.000103 0.005560 0.030463 0.015737 -0.002685
# 5 0.001207 -0.005636 0.007743 0.015737 0.037096 -0.007401
# 6 0.001299 0.005211 0.000155 -0.002685 -0.007401 0.019760
#
#
# Mechanical properties :
#
#
# Convention : Reuss Voigt Hill
#
# Bulk Modulus (GPa) = 57.20873 71.23720 64.22296
# Shear Modulus (GPa) = 34.30986 48.05877 41.18432
#
# Velocity S-wave (km/s) = 3.59104 4.25008 3.93439
# Velocity P-wave (km/s) = 6.22064 7.13157 6.69162
#
# Compressibility (1/GPa) = 0.01747985
#
# Stress axis : x y z
#
# Youngs Moduli (GPa) = 83.94379 75.30524 101.62212
#
# Poissons Ratio (x) = 0.34557 0.27969
# Poissons Ratio (y) = 0.38521 0.14584
# Poissons Ratio (z) = 0.23103 0.10807
#
# Static dielectric constant tensor:
#      x y z
#    x 2.164310 -0.052300 -0.026630 
#    y -0.052300 2.162370 -0.006260 
#    z -0.026630 -0.006260 2.262800 
# 
# From -- ./inp_files/229824.got.cif
#   From: 2010.05.17/outbox.cif.g08.bks.cpg/sg2_115_cif.got.tgz:229824.got - 2010.06.03 11:33:40.
