data_PCOD9061333
_publ_section_title
;
Structure prediction by ZEFSAII (Michael W. Deem and Ramdas Pophale) SiO2 
 PCOD9061333
Probable space group: P -1
;
_chemical_formula_sum "Si O2"
_cell_formula_units_Z 14
_cell_length_a 14.104370
_cell_length_b 8.144012
_cell_length_c 14.395606
_cell_angle_alpha 70.200347
_cell_angle_beta 149.103412
_cell_angle_gamma 90.465234
_cell_volume 648.036112
_symmetry_space_group_name_H-M "P -1"
_symmetry_group_IT_number 2
_symmetry_cell_setting 'triclinic'
loop_
_space_group_symop_operation_xyz
x,y,z
-x,-y,-z
loop_
_atom_site_type_symbol
_atom_site_label
_atom_site_fract_x
_atom_site_fract_y
_atom_site_fract_z
Si Si1 0.734712 0.470633 0.226591
Si Si2 0.577852 0.800448 0.883443
Si Si3 0.909414 0.792297 0.568284
Si Si4 0.750329 0.490809 0.455519
Si Si5 0.079539 0.127012 0.928764
Si Si6 0.292367 0.573067 0.075732
Si Si7 0.238960 0.652694 0.214256
O O1 0.765169 0.478939 0.359114
O O2 0.944537 0.260599 0.392198
O O3 0.500000 0.500000 0.000000
O O4 0.709545 0.667049 0.112436
O O5 0.597325 0.634435 0.857386
O O6 0.322630 0.976787 0.664464
O O7 0.701943 0.890752 0.920478
O O8 0.844862 0.621817 0.548504
O O9 0.069723 0.749969 0.797885
O O10 0.486327 0.612959 0.237021
O O11 0.893398 0.253693 0.666422
O O12 0.943778 0.289173 0.870482
O O13 0.159612 0.890513 0.069753
O O14 0.233680 0.545899 0.135300
O O15 0.500000 0.500000 0.500000
#
# Coordination Sequence:
#
# PCOD9061333 Si02
#       7
#     2   2   2   2   2   2   2
#     4  11  23  45  68 105 143 180 235 279 338 413
#     4  11  25  45  67 105 143 184 232 280 343 415
#     4  11  25  44  68 101 142 184 230 281 343 408
#     4  12  22  47  72  98 147 180 223 293 337 411
#     4  11  25  45  73 105 137 181 238 281 355 414
#     4  11  24  45  70  99 141 181 232 285 342 407
#     4  11  25  45  74 104 135 183 233 292 352 409
#
# _framework density 21.603733999999999
#
# number of rings (size 3 to 8) (size 9 to 14) (size 15 to 20)
#    0.000    0.857    7.143    1.286    2.000    1.714 
#    2.571    1.429    0.000    0.000    0.000    0.000 
#    0.000    0.000    0.000    0.000    0.000    0.000 
#
# Total GULP energy -78246.809923 kJ/mol
# GULP energy per Si atom -5589.057852 kJ/mol
# Density = 2.155456 g / cm^3
# Si number density = 21.603734 Si / 1000 Ang^3
#
#
#
# Elastic Constant Matrix: (Units=GPa)
#
#
# Indices 1 2 3 4 5 6 
#
# 1 144.0309 27.6780 53.7672 -9.7235 -1.0442 -24.2719
# 2 27.6780 28.8137 30.2773 -12.5572 -4.5023 -1.3848
# 3 53.7672 30.2773 120.7935 -16.9239 15.3803 -23.0794
# 4 -9.7235 -12.5572 -16.9239 37.5227 -1.8370 10.9594
# 5 -1.0442 -4.5023 15.3803 -1.8370 44.0359 3.2374
# 6 -24.2719 -1.3848 -23.0794 10.9594 3.2374 40.1236
#
#
#
# Elastic Compliance Matrix: (Units=1/GPa)
#
#
# Indices 1 2 3 4 5 6 
#
# 1 0.010006 -0.009346 -0.001294 -0.002862 -0.000815 0.005834
# 2 -0.009346 0.071382 -0.016519 0.020452 0.015133 -0.019499
# 3 -0.001294 -0.016519 0.015380 -0.001827 -0.007801 0.008622
# 4 -0.002862 0.020452 -0.001827 0.035755 0.005053 -0.012250
# 5 -0.000815 0.015133 -0.007801 0.005053 0.027766 -0.008079
# 6 0.005834 -0.019499 0.008622 -0.012250 -0.008079 0.036736
#
#
# Mechanical properties :
#
#
# Convention : Reuss Voigt Hill
#
# Bulk Modulus (GPa) = 23.55728 57.45369 40.50549
# Shear Modulus (GPa) = 18.83286 36.46414 27.64850
#
# Velocity S-wave (km/s) = 2.95573 4.11282 3.58131
# Velocity P-wave (km/s) = 4.75146 7.01468 5.99092
#
# Compressibility (1/GPa) = 0.04244971
#
# Stress axis : x y z
#
# Youngs Moduli (GPa) = 99.94061 14.00907 65.02039
#
# Poissons Ratio (x) = 0.13093 0.08412
# Poissons Ratio (y) = 0.93408 1.07407
# Poissons Ratio (z) = 0.12930 0.23142
#
# Static dielectric constant tensor:
#      x y z
#    x 1.807990 0.017950 0.014950 
#    y 0.017950 1.814240 0.005360 
#    z 0.014950 0.005360 1.778910 
# 
# From -- ./inp_files/529568.got.cif
#   From: 2010.05.17/outbox.cif.g08.bks.cpg/sg2_265_cif.got.tgz:529568.got - 2010.06.03 11:33:40.
