data_PCOD9061720
_publ_section_title
;
Structure prediction by ZEFSAII (Michael W. Deem and Ramdas Pophale) SiO2 
 PCOD9061720
Probable space group: P -1
;
_chemical_formula_sum "Si O2"
_cell_formula_units_Z 14
_cell_length_a 12.405471
_cell_length_b 6.507760
_cell_length_c 10.885853
_cell_angle_alpha 45.797073
_cell_angle_beta 72.746701
_cell_angle_gamma 80.320744
_cell_volume 600.706023
_symmetry_space_group_name_H-M "P -1"
_symmetry_group_IT_number 2
_symmetry_cell_setting 'triclinic'
loop_
_space_group_symop_operation_xyz
x,y,z
-x,-y,-z
loop_
_atom_site_type_symbol
_atom_site_label
_atom_site_fract_x
_atom_site_fract_y
_atom_site_fract_z
Si Si1 0.958490 0.173265 0.150284
Si Si2 0.558778 0.604114 0.061617
Si Si3 0.664463 0.174307 0.860789
Si Si4 0.373634 0.953175 0.607022
Si Si5 0.819737 0.220589 0.417413
Si Si6 0.893244 0.273121 0.641152
Si Si7 0.755728 0.874785 0.196615
O O1 0.905756 0.129600 0.321842
O O2 0.862002 0.073558 0.128204
O O3 0.063823 0.977247 0.183467
O O4 0.000000 0.500000 0.000000
O O5 0.451117 0.665094 0.158441
O O6 0.632451 0.362029 0.195750
O O7 0.500000 0.500000 0.000000
O O8 0.634440 0.898604 0.899763
O O9 0.774615 0.360531 0.700981
O O10 0.693952 0.030189 0.041849
O O11 0.295680 0.942769 0.518065
O O12 0.500000 0.000000 0.500000
O O13 0.329774 0.154723 0.645530
O O14 0.863376 0.161132 0.562214
O O15 0.798992 0.562807 0.278804
O O16 0.000000 0.500000 0.500000
#
# Coordination Sequence:
#
# PCOD9061720 Si02
#       7
#     2   2   2   2   2   2   2
#     4  11  26  45  72  97 134 186 228 283 346 412
#     4  11  24  46  67 103 135 182 234 284 348 412
#     4  11  26  43  72  98 139 182 234 285 343 421
#     4  11  26  42  70 101 139 179 227 293 354 408
#     4  11  25  46  66  98 142 175 234 281 352 414
#     4  12  27  46  70 106 142 185 231 292 351 411
#     4  11  23  46  67 101 134 182 233 281 343 424
#
# _framework density 23.305910000000001
#
# number of rings (size 3 to 8) (size 9 to 14) (size 15 to 20)
#    0.000    0.857    4.286    1.286    8.000    1.714 
#    0.000    0.000    0.000    0.000    0.000    0.000 
#    0.000    0.000    0.000    0.000    0.000    0.000 
#
# Total GULP energy -78354.374843 kJ/mol
# GULP energy per Si atom -5596.741060 kJ/mol
# Density = 2.325286 g / cm^3
# Si number density = 23.305910 Si / 1000 Ang^3
#
#
#
# Elastic Constant Matrix: (Units=GPa)
#
#
# Indices 1 2 3 4 5 6 
#
# 1 120.3549 24.8951 22.8409 12.9211 -7.8423 15.4114
# 2 24.8951 82.5355 7.7601 0.9798 -1.8887 10.7624
# 3 22.8409 7.7601 40.9432 -1.3631 -14.2089 6.3147
# 4 12.9211 0.9798 -1.3631 31.8184 -3.4988 14.4961
# 5 -7.8423 -1.8887 -14.2089 -3.4988 47.7380 2.0089
# 6 15.4114 10.7624 6.3147 14.4961 2.0089 50.7317
#
#
#
# Elastic Compliance Matrix: (Units=1/GPa)
#
#
# Indices 1 2 3 4 5 6 
#
# 1 0.010365 -0.002473 -0.005421 -0.004038 -0.000272 -0.000785
# 2 -0.002473 0.013227 -0.000635 0.001713 0.000158 -0.002472
# 3 -0.005421 -0.000635 0.031651 0.006593 0.009174 -0.004405
# 4 -0.004038 0.001713 0.006593 0.038950 0.004696 -0.011273
# 5 -0.000272 0.000158 0.009174 0.004696 0.024127 -0.003390
# 6 -0.000785 -0.002472 -0.004405 -0.011273 -0.003390 0.024378
#
#
# Mechanical properties :
#
#
# Convention : Reuss Voigt Hill
#
# Bulk Modulus (GPa) = 26.18734 39.42509 32.80622
# Shear Modulus (GPa) = 28.98809 38.61343 33.80076
#
# Velocity S-wave (km/s) = 3.53059 4.07481 3.81242
# Velocity P-wave (km/s) = 5.28023 6.25234 5.78674
#
# Compressibility (1/GPa) = 0.03818638
#
# Stress axis : x y z
#
# Youngs Moduli (GPa) = 96.47470 75.60251 31.59424
#
# Poissons Ratio (x) = 0.18694 0.17129
# Poissons Ratio (y) = 0.23855 0.02005
# Poissons Ratio (z) = 0.52304 0.04797
#
# Static dielectric constant tensor:
#      x y z
#    x 1.897390 -0.041100 -0.018640 
#    y -0.041100 1.873020 -0.011040 
#    z -0.018640 -0.011040 1.899400 
# 
# From -- ./inp_files/24027.got.cif
#   From: 2010.05.17/outbox.cif.g08.bks.cpg/sg2_13_cif.got.tgz:24027.got - 2010.06.03 11:33:40.
