data_PCOD9061280
_publ_section_title
;
Structure prediction by ZEFSAII (Michael W. Deem and Ramdas Pophale) SiO2 
 PCOD9061280
Probable space group: P -1
;
_chemical_formula_sum "Si O2"
_cell_formula_units_Z 16
_cell_length_a 9.034217
_cell_length_b 13.165732
_cell_length_c 14.659776
_cell_angle_alpha 64.287086
_cell_angle_beta 65.740889
_cell_angle_gamma 120.266956
_cell_volume 797.550203
_symmetry_space_group_name_H-M "P -1"
_symmetry_group_IT_number 2
_symmetry_cell_setting 'triclinic'
loop_
_space_group_symop_operation_xyz
x,y,z
-x,-y,-z
loop_
_atom_site_type_symbol
_atom_site_label
_atom_site_fract_x
_atom_site_fract_y
_atom_site_fract_z
Si Si1 0.869811 0.473719 0.182834
Si Si2 0.402513 0.552838 0.898264
Si Si3 0.578913 0.836624 0.438135
Si Si4 0.096657 0.778899 0.720947
Si Si5 0.155112 0.042137 0.253332
Si Si6 0.902689 0.733206 0.592392
Si Si7 0.986771 0.454716 0.418283
Si Si8 0.394304 0.831371 0.033708
O O1 0.788344 0.471229 0.105159
O O2 0.587014 0.325056 0.376032
O O3 0.909764 0.360807 0.224436
O O4 0.147032 0.699024 0.067791
O O5 0.584294 0.582561 0.769388
O O6 0.618335 0.746811 0.833228
O O7 0.187724 0.359608 0.092292
O O8 0.338478 0.703079 0.472616
O O9 0.890073 0.955172 0.305145
O O10 0.641959 0.003568 0.382748
O O11 0.075710 0.821415 0.609846
O O12 0.022426 0.891758 0.428396
O O13 0.334562 0.071654 0.123387
O O14 0.938207 0.632852 0.576672
O O15 0.000000 0.500000 0.500000
O O16 0.222134 0.653215 0.218009
O O17 0.500000 0.000000 0.000000
#
# Coordination Sequence:
#
# PCOD9061280 Si02
#       8
#     2   2   2   2   2   2   2   2
#     4  11  23  45  63 100 137 179 220 271 334 409
#     4  12  24  38  65 106 141 170 219 277 340 397
#     4  11  24  42  69  99 135 175 218 274 335 404
#     4  12  23  38  68 100 142 172 218 272 343 392
#     4  12  24  42  68 100 137 177 221 273 335 395
#     4  12  23  40  67  96 137 174 217 276 330 392
#     4  11  26  49  70  96 131 177 229 272 333 396
#     4  11  25  47  71  93 132 180 228 272 328 392
#
# _framework density 20.061433000000001
#
# number of rings (size 3 to 8) (size 9 to 14) (size 15 to 20)
#    0.000    0.500    6.250    3.000    3.500    1.000 
#    2.250    2.500    0.000    0.000    0.000    0.000 
#    0.000    0.000    0.000    0.000    0.000    0.000 
#
# Total GULP energy -89359.596998 kJ/mol
# GULP energy per Si atom -5584.974812 kJ/mol
# Density = 2.001577 g / cm^3
# Si number density = 20.061433 Si / 1000 Ang^3
#
#
#
# Elastic Constant Matrix: (Units=GPa)
#
#
# Indices 1 2 3 4 5 6 
#
# 1 112.2493 62.9851 43.4318 -0.6249 -10.3761 4.8729
# 2 62.9851 134.8247 65.9155 1.5157 -8.1811 11.3811
# 3 43.4318 65.9155 102.8704 4.6078 -23.7754 3.7293
# 4 -0.6249 1.5157 4.6078 40.7869 -4.4042 2.0322
# 5 -10.3761 -8.1811 -23.7754 -4.4042 34.3144 5.2998
# 6 4.8729 11.3811 3.7293 2.0322 5.2998 17.5220
#
#
#
# Elastic Compliance Matrix: (Units=1/GPa)
#
#
# Indices 1 2 3 4 5 6 
#
# 1 0.012488 -0.004796 -0.001864 0.000770 0.001518 -0.000509
# 2 -0.004796 0.013297 -0.006817 0.000229 -0.002167 -0.005223
# 3 -0.001864 -0.006817 0.017264 -0.000567 0.009958 -0.001674
# 4 0.000770 0.000229 -0.000567 0.025210 0.003796 -0.004314
# 5 0.001518 -0.002167 0.009958 0.003796 0.038514 -0.013224
# 6 -0.000509 -0.005223 -0.001674 -0.004314 -0.013224 0.065462
#
#
# Mechanical properties :
#
#
# Convention : Reuss Voigt Hill
#
# Bulk Modulus (GPa) = 62.13525 77.17880 69.65703
# Shear Modulus (GPa) = 24.44322 30.36547 27.40434
#
# Velocity S-wave (km/s) = 3.49437 3.89475 3.69998
# Velocity P-wave (km/s) = 6.87899 7.66683 7.28357
#
# Compressibility (1/GPa) = 0.01609392
#
# Stress axis : x y z
#
# Youngs Moduli (GPa) = 80.07717 75.20286 57.92334
#
# Poissons Ratio (x) = 0.36066 0.10800
# Poissons Ratio (y) = 0.38404 0.39489
# Poissons Ratio (z) = 0.14930 0.51269
#
# Static dielectric constant tensor:
#      x y z
#    x 1.764350 -0.015440 -0.034440 
#    y -0.015440 1.694990 0.009600 
#    z -0.034440 0.009600 1.741740 
# 
# From -- ./inp_files/500257.got.cif
#   From: 2010.05.17/outbox.cif.g08.bks.cpg/sg2_251_cif.got.tgz:500257.got - 2010.06.03 11:33:40.
