data_PCOD9061109
_publ_section_title
;
Structure prediction by ZEFSAII (Michael W. Deem and Ramdas Pophale) SiO2 
 PCOD9061109
Probable space group: P -1
;
_chemical_formula_sum "Si O2"
_cell_formula_units_Z 14
_cell_length_a 9.617049
_cell_length_b 15.914213
_cell_length_c 12.357475
_cell_angle_alpha 25.269074
_cell_angle_beta 129.578706
_cell_angle_gamma 123.056210
_cell_volume 619.534570
_symmetry_space_group_name_H-M "P -1"
_symmetry_group_IT_number 2
_symmetry_cell_setting 'triclinic'
loop_
_space_group_symop_operation_xyz
x,y,z
-x,-y,-z
loop_
_atom_site_type_symbol
_atom_site_label
_atom_site_fract_x
_atom_site_fract_y
_atom_site_fract_z
Si Si1 0.950934 0.847143 0.352455
Si Si2 0.193620 0.418621 0.229008
Si Si3 0.469483 0.695479 0.132618
Si Si4 0.360544 0.833076 0.144098
Si Si5 0.523183 0.835875 0.443668
Si Si6 0.135286 0.316838 0.732855
Si Si7 0.680838 0.040744 0.608328
O O1 0.839732 0.699600 0.539209
O O2 0.948492 0.788559 0.291662
O O3 0.154514 0.859406 0.481650
O O4 0.839088 0.058626 0.072423
O O5 0.327483 0.584769 0.123658
O O6 0.281264 0.274896 0.346604
O O7 0.000000 0.500000 0.000000
O O8 0.403666 0.694103 0.225861
O O9 0.676814 0.618972 0.298839
O O10 0.460511 0.929247 0.827152
O O11 0.414580 0.766205 0.368214
O O12 0.500000 0.000000 0.000000
O O13 0.405165 0.805865 0.523878
O O14 0.000000 0.500000 0.500000
O O15 0.212334 0.151850 0.053220
O O16 0.500000 0.000000 0.500000
#
# Coordination Sequence:
#
# PCOD9061109 Si02
#       7
#     2   2   2   2   2   2   2
#     4  12  24  45  72 106 139 185 248 290 357 430
#     4  12  28  42  69 110 145 188 237 301 363 428
#     4  10  22  43  72 102 141 181 242 295 362 409
#     4  10  17  42  71 101 129 174 239 298 339 412
#     4  10  22  46  70  97 140 185 235 296 356 425
#     4  11  25  45  72 111 137 189 251 298 351 434
#     4  11  27  47  74 100 147 200 232 290 378 432
#
# _framework density 22.597608000000001
#
# number of rings (size 3 to 8) (size 9 to 14) (size 15 to 20)
#    0.000    1.143    7.143    0.429    6.000    6.286 
#    0.000    1.429    0.000    0.000    0.000    0.000 
#    0.000    0.000    0.000    0.000    0.000    0.000 
#
# Total GULP energy -78151.878689 kJ/mol
# GULP energy per Si atom -5582.277049 kJ/mol
# Density = 2.254617 g / cm^3
# Si number density = 22.597608 Si / 1000 Ang^3
#
#
#
# Elastic Constant Matrix: (Units=GPa)
#
#
# Indices 1 2 3 4 5 6 
#
# 1 134.1270 38.6019 43.1250 -6.7490 60.2203 4.3019
# 2 38.6019 91.4402 34.3744 -3.3821 34.9628 17.1134
# 3 43.1250 34.3744 91.2214 -4.8464 47.2325 -3.5723
# 4 -6.7490 -3.3821 -4.8464 35.6115 0.7458 7.0498
# 5 60.2203 34.9628 47.2325 0.7458 52.1093 -6.2800
# 6 4.3019 17.1134 -3.5723 7.0498 -6.2800 47.3910
#
#
#
# Elastic Compliance Matrix: (Units=1/GPa)
#
#
# Indices 1 2 3 4 5 6 
#
# 1 0.018576 0.002910 0.005298 0.006550 -0.029181 -0.007179
# 2 0.002910 0.018079 0.000642 0.004645 -0.017314 -0.009730
# 3 0.005298 0.000642 0.022645 0.005410 -0.027574 -0.003465
# 4 0.006550 0.004645 0.005410 0.032638 -0.017140 -0.008991
# 5 -0.029181 -0.017314 -0.027574 -0.017140 0.092374 0.021614
# 6 -0.007179 -0.009730 -0.003465 -0.008991 0.021614 0.029207
#
#
# Mechanical properties :
#
#
# Convention : Reuss Voigt Hill
#
# Bulk Modulus (GPa) = 12.98700 60.99903 36.99301
# Shear Modulus (GPa) = 22.57480 40.40150 31.48815
#
# Velocity S-wave (km/s) = 3.16411 4.23290 3.73692
# Velocity P-wave (km/s) = 4.37131 7.13738 5.91821
#
# Compressibility (1/GPa) = 0.07700009
#
# Stress axis : x y z
#
# Youngs Moduli (GPa) = 53.83180 55.31217 44.16067
#
# Poissons Ratio (x) = -0.16095 -0.23395
# Poissons Ratio (y) = -0.15664 -0.02837
# Poissons Ratio (z) = -0.28519 -0.03554
#
# Static dielectric constant tensor:
#      x y z
#    x 2.115920 -0.223930 0.053680 
#    y -0.223930 2.010410 -0.111940 
#    z 0.053680 -0.111940 2.026000 
# 
# From -- ./inp_files/398315.got.cif
#   From: 2010.05.17/outbox.cif.g08.bks.cpg/sg2_200_cif.got.tgz:398315.got - 2010.06.03 11:33:40.
