data_PCOD9061507
_publ_section_title
;
Structure prediction by ZEFSAII (Michael W. Deem and Ramdas Pophale) SiO2 
 PCOD9061507
Probable space group: P -1
;
_chemical_formula_sum "Si O2"
_cell_formula_units_Z 14
_cell_length_a 8.681302
_cell_length_b 9.086249
_cell_length_c 9.591329
_cell_angle_alpha 118.647010
_cell_angle_beta 78.853074
_cell_angle_gamma 111.382029
_cell_volume 618.097801
_symmetry_space_group_name_H-M "P -1"
_symmetry_group_IT_number 2
_symmetry_cell_setting 'triclinic'
loop_
_space_group_symop_operation_xyz
x,y,z
-x,-y,-z
loop_
_atom_site_type_symbol
_atom_site_label
_atom_site_fract_x
_atom_site_fract_y
_atom_site_fract_z
Si Si1 0.181018 0.062931 0.923690
Si Si2 0.349721 0.681529 0.193991
Si Si3 0.468182 0.393992 0.128912
Si Si4 0.316931 0.750573 0.774740
Si Si5 0.024613 0.449726 0.813980
Si Si6 0.147986 0.119603 0.624032
Si Si7 0.547501 0.923537 0.595965
O O1 0.166983 0.055095 0.751512
O O2 0.281439 0.932991 0.899335
O O3 0.294409 0.258169 0.040999
O O4 0.000000 0.000000 0.000000
O O5 0.447066 0.587362 0.238427
O O6 0.398430 0.890231 0.243897
O O7 0.160451 0.623211 0.245611
O O8 0.390737 0.595174 0.006150
O O9 0.536714 0.303804 0.200614
O O10 0.143969 0.606109 0.774009
O O11 0.387489 0.782288 0.621679
O O12 0.110152 0.299885 0.734838
O O13 0.000000 0.500000 0.000000
O O14 0.302496 0.141358 0.504780
O O15 0.000000 0.000000 0.500000
O O16 0.500000 0.000000 0.500000
#
# Coordination Sequence:
#
# PCOD9061507 Si02
#       7
#     2   2   2   2   2   2   2
#     4  12  26  45  73 111 147 188 249 307 362 436
#     4  11  23  45  72 101 147 193 240 303 360 436
#     4  11  24  42  73 109 142 191 246 300 363 427
#     4  12  26  42  74 109 144 191 247 303 363 434
#     4  12  25  47  74 110 146 187 247 306 362 432
#     4  12  27  49  75 104 147 200 237 299 376 436
#     4  12  26  49  70  98 151 196 243 298 368 441
#
# _framework density 22.650138999999999
#
# number of rings (size 3 to 8) (size 9 to 14) (size 15 to 20)
#    0.000    0.286    5.714    3.000    6.000    0.571 
#    0.000    1.429    0.000    0.000    0.000    0.000 
#    0.000    0.000    0.000    0.000    0.000    0.000 
#
# Total GULP energy -78133.284178 kJ/mol
# GULP energy per Si atom -5580.948870 kJ/mol
# Density = 2.259859 g / cm^3
# Si number density = 22.650139 Si / 1000 Ang^3
#
#
#
# Elastic Constant Matrix: (Units=GPa)
#
#
# Indices 1 2 3 4 5 6 
#
# 1 98.8699 35.5753 26.5960 -6.2664 -34.5772 8.5926
# 2 35.5753 120.1979 42.2695 -13.3504 -21.3269 7.3092
# 3 26.5960 42.2695 72.3413 -5.9397 -31.6785 4.3072
# 4 -6.2664 -13.3504 -5.9397 46.2505 -2.5766 -15.3594
# 5 -34.5772 -21.3269 -31.6785 -2.5766 52.9879 -0.7331
# 6 8.5926 7.3092 4.3072 -15.3594 -0.7331 61.3958
#
#
#
# Elastic Compliance Matrix: (Units=1/GPa)
#
#
# Indices 1 2 3 4 5 6 
#
# 1 0.014076 -0.002518 0.000095 0.001231 0.008271 -0.001270
# 2 -0.002518 0.011212 -0.005615 0.002133 -0.000385 -0.000059
# 3 0.000095 -0.005615 0.022086 0.001737 0.011086 -0.000327
# 4 0.001231 0.002133 0.001737 0.024738 0.003982 0.005688
# 5 0.008271 -0.000385 0.011086 0.003982 0.030929 -0.000524
# 6 -0.001270 -0.000059 -0.000327 0.005688 -0.000524 0.017912
#
#
# Mechanical properties :
#
#
# Convention : Reuss Voigt Hill
#
# Bulk Modulus (GPa) = 31.95175 55.58785 43.76980
# Shear Modulus (GPa) = 33.90726 44.59140 39.24933
#
# Velocity S-wave (km/s) = 3.87331 4.44182 4.16727
# Velocity P-wave (km/s) = 5.84300 7.13453 6.52082
#
# Compressibility (1/GPa) = 0.03129719
#
# Stress axis : x y z
#
# Youngs Moduli (GPa) = 71.04462 89.19191 45.27720
#
# Poissons Ratio (x) = 0.22457 -0.00429
# Poissons Ratio (y) = 0.17888 0.25424
# Poissons Ratio (z) = -0.00674 0.50083
#
# Static dielectric constant tensor:
#      x y z
#    x 1.259730 0.004180 0.052610 
#    y 0.004180 1.958360 -0.003590 
#    z 0.052610 -0.003590 1.813770 
# 
# From -- ./inp_files/159593.got.cif
#   From: 2010.05.17/outbox.cif.g08.bks.cpg/sg2_80_cif.got.tgz:159593.got - 2010.06.03 11:33:40.
