data_PCOD9061798
_publ_section_title
;
Structure prediction by ZEFSAII (Michael W. Deem and Ramdas Pophale) SiO2 
 PCOD9061798
Probable space group: P -1
;
_chemical_formula_sum "Si O2"
_cell_formula_units_Z 16
_cell_length_a 9.475052
_cell_length_b 8.825671
_cell_length_c 15.643946
_cell_angle_alpha 95.887768
_cell_angle_beta 43.749091
_cell_angle_gamma 67.627459
_cell_volume 675.171285
_symmetry_space_group_name_H-M "P -1"
_symmetry_group_IT_number 2
_symmetry_cell_setting 'triclinic'
loop_
_space_group_symop_operation_xyz
x,y,z
-x,-y,-z
loop_
_atom_site_type_symbol
_atom_site_label
_atom_site_fract_x
_atom_site_fract_y
_atom_site_fract_z
Si Si1 0.925716 0.138723 0.781818
Si Si2 0.122831 0.896969 0.849741
Si Si3 0.550323 0.946220 0.670704
Si Si4 0.578486 0.521133 0.240983
Si Si5 0.508673 0.207707 0.571090
Si Si6 0.544132 0.774628 0.124313
Si Si7 0.083280 0.494861 0.203289
Si Si8 0.885669 0.456171 0.623915
O O1 0.722723 0.163711 0.802484
O O2 0.862293 0.350552 0.828849
O O3 0.931108 0.046265 0.864629
O O4 0.235979 0.967263 0.604946
O O5 0.197405 0.683396 0.816476
O O6 0.400410 0.859779 0.722321
O O7 0.000000 0.000000 0.000000
O O8 0.409261 0.126238 0.674751
O O9 0.522102 0.040556 0.781130
O O10 0.860979 0.785299 0.492492
O O11 0.410593 0.695939 0.395682
O O12 0.658956 0.599318 0.135722
O O13 0.383239 0.498489 0.280091
O O14 0.238501 0.379120 0.647740
O O15 0.759783 0.675444 0.947458
O O16 0.171337 0.425008 0.257904
O O17 0.000000 0.500000 0.500000
#
# Coordination Sequence:
#
# PCOD9061798 Si02
#       8
#     2   2   2   2   2   2   2   2
#     4  12  23  45  71  99 135 179 230 273 336 406
#     4  12  27  42  66  96 142 180 217 274 351 399
#     4  11  23  46  70  98 134 178 225 275 339 403
#     4  11  25  44  68  99 139 173 224 278 342 394
#     4  11  24  43  72 101 129 175 232 284 326 397
#     4  11  26  44  73 102 132 178 231 283 325 399
#     4  12  24  42  72 102 133 174 236 277 329 401
#     4  12  24  43  69  98 135 180 223 274 342 402
#
# _framework density 23.697690000000001
#
# number of rings (size 3 to 8) (size 9 to 14) (size 15 to 20)
#    0.000    0.500    5.000    3.000    3.500    3.500 
#    2.250    1.250    0.000    0.000    0.000    0.000 
#    0.000    0.000    0.000    0.000    0.000    0.000 
#
# Total GULP energy -89485.058972 kJ/mol
# GULP energy per Si atom -5592.816186 kJ/mol
# Density = 2.364375 g / cm^3
# Si number density = 23.697690 Si / 1000 Ang^3
#
#
#
# Elastic Constant Matrix: (Units=GPa)
#
#
# Indices 1 2 3 4 5 6 
#
# 1 115.1388 16.0277 23.3965 -11.1574 8.9131 -0.6521
# 2 16.0277 59.2409 5.5773 -15.1624 18.0546 -23.3947
# 3 23.3965 5.5773 103.8208 -1.6110 22.9068 2.5586
# 4 -11.1574 -15.1624 -1.6110 22.9964 -5.6931 13.9060
# 5 8.9131 18.0546 22.9068 -5.6931 49.0935 -3.0255
# 6 -0.6521 -23.3947 2.5586 13.9060 -3.0255 17.7533
#
#
#
# Elastic Compliance Matrix: (Units=1/GPa)
#
#
# Indices 1 2 3 4 5 6 
#
# 1 0.010981 -0.007487 -0.001862 0.011571 0.001865 -0.017940
# 2 -0.007487 0.048936 -0.000109 -0.023346 -0.014359 0.080066
# 3 -0.001862 -0.000109 0.011241 0.000373 -0.005007 -0.002978
# 4 0.011571 -0.023346 0.000373 0.102156 0.011473 -0.108456
# 5 0.001865 -0.014359 -0.005007 0.011473 0.027597 -0.022416
# 6 -0.017940 0.080066 -0.002978 -0.108456 -0.022416 0.242738
#
#
# Mechanical properties :
#
#
# Convention : Reuss Voigt Hill
#
# Bulk Modulus (GPa) = 19.14170 40.91149 30.02660
# Shear Modulus (GPa) = 10.41710 33.51525 21.96618
#
# Velocity S-wave (km/s) = 2.09890 3.76478 3.04786
# Velocity P-wave (km/s) = 3.73749 6.01660 5.00841
#
# Compressibility (1/GPa) = 0.05224197
#
# Stress axis : x y z
#
# Youngs Moduli (GPa) = 91.06559 20.43497 88.95638
#
# Poissons Ratio (x) = 0.15300 0.16566
# Poissons Ratio (y) = 0.68182 0.00968
# Poissons Ratio (z) = 0.16958 0.00222
#
# Static dielectric constant tensor:
#      x y z
#    x 1.935840 0.000180 0.000360 
#    y 0.000180 2.197630 0.041140 
#    z 0.000360 0.041140 1.869450 
# 
# From -- ./inp_files/205534.got.cif
#   From: 2010.05.17/outbox.cif.g08.bks.cpg/sg2_103_cif.got.tgz:205534.got - 2010.06.03 11:33:40.
