data_PCOD9061838
_publ_section_title
;
Structure prediction by ZEFSAII (Michael W. Deem and Ramdas Pophale) SiO2 
 PCOD9061838
Probable space group: P -1
;
_chemical_formula_sum "Si O2"
_cell_formula_units_Z 16
_cell_length_a 15.448843
_cell_length_b 9.239422
_cell_length_c 9.668641
_cell_angle_alpha 109.683580
_cell_angle_beta 145.232079
_cell_angle_gamma 80.104557
_cell_volume 726.749428
_symmetry_space_group_name_H-M "P -1"
_symmetry_group_IT_number 2
_symmetry_cell_setting 'triclinic'
loop_
_space_group_symop_operation_xyz
x,y,z
-x,-y,-z
loop_
_atom_site_type_symbol
_atom_site_label
_atom_site_fract_x
_atom_site_fract_y
_atom_site_fract_z
Si Si1 0.781209 0.856887 0.464007
Si Si2 0.360697 0.462695 0.914116
Si Si3 0.895673 0.127316 0.977570
Si Si4 0.378537 0.160728 0.482383
Si Si5 0.867197 0.090587 0.415251
Si Si6 0.419953 0.510307 0.546796
Si Si7 0.721764 0.219566 0.006337
Si Si8 0.120237 0.662711 0.243524
O O1 0.770252 0.679838 0.347191
O O2 0.639142 0.851227 0.378830
O O3 0.775665 0.967731 0.364342
O O4 0.937652 0.905438 0.773447
O O5 0.296158 0.617299 0.900332
O O6 0.500000 0.500000 0.000000
O O7 0.440064 0.421887 0.145463
O O8 0.889938 0.210262 0.849445
O O9 0.761176 0.976785 0.790178
O O10 0.854644 0.248297 0.075773
O O11 0.354898 0.330091 0.452525
O O12 0.557498 0.156390 0.693597
O O13 0.769154 0.119463 0.162183
O O14 0.906203 0.249788 0.616105
O O15 0.000000 0.000000 0.500000
O O16 0.500000 0.500000 0.500000
O O17 0.287399 0.611909 0.427552
O O18 0.000000 0.500000 0.000000
#
# Coordination Sequence:
#
# PCOD9061838 Si02
#       8
#     2   2   2   2   2   2   2   2
#     4  12  25  45  74  99 145 195 235 300 361 435
#     4  11  23  46  72 102 140 187 240 291 366 431
#     4  12  26  46  70 108 146 192 239 294 377 435
#     4  11  24  46  75 104 144 189 238 297 367 442
#     4  12  28  48  69 112 149 189 249 312 366 428
#     4  11  25  47  75 112 147 185 242 307 364 434
#     4  11  25  45  75 104 142 184 244 302 365 436
#     4  12  28  45  76 108 146 196 249 301 368 445
#
# _framework density 22.015843
#
# number of rings (size 3 to 8) (size 9 to 14) (size 15 to 20)
#    0.000    0.500    5.000    3.750    3.500    5.000 
#    0.000    0.000    0.000    0.000    0.000    0.000 
#    0.000    0.000    0.000    0.000    0.000    0.000 
#
# Total GULP energy -89310.103704 kJ/mol
# GULP energy per Si atom -5581.881482 kJ/mol
# Density = 2.196573 g / cm^3
# Si number density = 22.015843 Si / 1000 Ang^3
#
#
#
# Elastic Constant Matrix: (Units=GPa)
#
#
# Indices 1 2 3 4 5 6 
#
# 1 98.6153 20.1731 -3.5004 -10.4256 -14.7656 -15.5732
# 2 20.1731 118.8650 41.6703 -4.1184 11.0695 -11.4509
# 3 -3.5004 41.6703 89.7088 0.1317 0.7720 3.1021
# 4 -10.4256 -4.1184 0.1317 53.2734 1.5691 1.2364
# 5 -14.7656 11.0695 0.7720 1.5691 35.3707 -6.2281
# 6 -15.5732 -11.4509 3.1021 1.2364 -6.2281 41.4899
#
#
#
# Elastic Compliance Matrix: (Units=1/GPa)
#
#
# Indices 1 2 3 4 5 6 
#
# 1 0.012801 -0.002839 0.001586 0.001963 0.006972 0.004891
# 2 -0.002839 0.011391 -0.005428 0.000424 -0.004329 0.001822
# 3 0.001586 -0.005428 0.013773 -0.000157 0.001775 -0.001662
# 4 0.001963 0.000424 -0.000157 0.019185 -0.000112 0.000277
# 5 0.006972 -0.004329 0.001775 -0.000112 0.033620 0.006339
# 6 0.004891 0.001822 -0.001662 0.000277 0.006339 0.027508
#
#
# Mechanical properties :
#
#
# Convention : Reuss Voigt Hill
#
# Bulk Modulus (GPa) = 40.64488 47.09723 43.87105
# Shear Modulus (GPa) = 35.75477 42.61654 39.18566
#
# Velocity S-wave (km/s) = 4.03432 4.40446 4.22344
# Velocity P-wave (km/s) = 6.34056 6.87783 6.61465
#
# Compressibility (1/GPa) = 0.02460335
#
# Stress axis : x y z
#
# Youngs Moduli (GPa) = 78.11790 87.78841 72.60603
#
# Poissons Ratio (x) = 0.24920 -0.11516
# Poissons Ratio (y) = 0.22175 0.39413
# Poissons Ratio (z) = -0.12390 0.47654
#
# Static dielectric constant tensor:
#      x y z
#    x 1.921330 -0.157820 -0.092790 
#    y -0.157820 1.889230 0.099140 
#    z -0.092790 0.099140 1.849350 
# 
# From -- ./inp_files/299403.got.cif
#   From: 2010.05.17/outbox.cif.g08.bks.cpg/sg2_150_cif.got.tgz:299403.got - 2010.06.03 11:33:40.
