data_PCOD9061689
_publ_section_title
;
Structure prediction by ZEFSAII (Michael W. Deem and Ramdas Pophale) SiO2 
 PCOD9061689
Probable space group: P -1
;
_chemical_formula_sum "Si O2"
_cell_formula_units_Z 13
_cell_length_a 8.196989
_cell_length_b 9.072372
_cell_length_c 15.143387
_cell_angle_alpha 34.366350
_cell_angle_beta 53.607764
_cell_angle_gamma 63.986820
_cell_volume 508.463212
_symmetry_space_group_name_H-M "P -1"
_symmetry_group_IT_number 2
_symmetry_cell_setting 'triclinic'
loop_
_space_group_symop_operation_xyz
x,y,z
-x,-y,-z
loop_
_atom_site_type_symbol
_atom_site_label
_atom_site_fract_x
_atom_site_fract_y
_atom_site_fract_z
Si Si1 0.058619 0.911173 0.927437
Si Si2 0.261924 0.832182 0.622195
Si Si3 0.712632 0.587349 0.685665
Si Si4 0.702259 0.685062 0.031112
Si Si5 0.599762 0.660703 0.469799
Si Si6 0.000000 0.500000 0.500000
Si Si7 0.818164 0.671204 0.805915
O O1 0.246402 0.094997 0.735033
O O2 0.129269 0.625250 0.054711
O O3 0.863909 0.879997 0.938165
O O4 0.000000 0.000000 0.000000
O O5 0.242885 0.611894 0.815052
O O6 0.403243 0.731354 0.551719
O O7 0.036357 0.840531 0.652283
O O8 0.323759 0.130228 0.485406
O O9 0.533948 0.349135 0.849896
O O10 0.703180 0.669738 0.751506
O O11 0.932339 0.520773 0.616468
O O12 0.715574 0.744825 0.893644
O O13 0.500000 0.500000 0.500000
O O14 0.757014 0.500354 0.553170
#
# Coordination Sequence:
#
# PCOD9061689 Si02
#       7
#     2   2   2   2   2   1   2
#     4  11  24  45  71 103 151 197 241 305 388 450
#     4  11  23  45  78 102 144 201 255 296 380 449
#     4  12  25  46  73 114 147 200 251 318 369 458
#     4  11  24  44  74 107 146 193 250 305 377 454
#     4  12  26  49  76 109 150 203 252 316 379 458
#     4  12  28  44  76 108 156 180 270 308 380 440
#     4  11  25  45  71 115 148 190 252 318 374 454
#
# _framework density 25.567236999999999
#
# number of rings (size 3 to 8) (size 9 to 14) (size 15 to 20)
#    0.000    0.615    1.538    7.846    4.308    0.000 
#    2.769    1.538    0.000    0.000    0.000    0.000 
#    0.000    0.000    0.000    0.000    0.000    0.000 
#
# Total GULP energy -72560.172250 kJ/mol
# GULP energy per Si atom -5581.551712 kJ/mol
# Density = 2.550905 g / cm^3
# Si number density = 25.567237 Si / 1000 Ang^3
#
#
#
# Elastic Constant Matrix: (Units=GPa)
#
#
# Indices 1 2 3 4 5 6 
#
# 1 55.6352 14.8702 26.8444 8.8262 -21.1597 2.1740
# 2 14.8702 109.4732 53.7041 29.3656 -26.3539 4.2814
# 3 26.8444 53.7041 128.7541 29.8652 -28.8558 9.6068
# 4 8.8262 29.3656 29.8652 48.8942 -2.2362 -9.3839
# 5 -21.1597 -26.3539 -28.8558 -2.2362 49.0858 2.8162
# 6 2.1740 4.2814 9.6068 -9.3839 2.8162 42.1584
#
#
#
# Elastic Compliance Matrix: (Units=1/GPa)
#
#
# Indices 1 2 3 4 5 6 
#
# 1 0.022852 0.001223 -0.002254 -0.003482 0.009149 -0.002175
# 2 0.001223 0.013828 -0.002792 -0.007080 0.006149 -0.002818
# 3 -0.002254 -0.002792 0.012082 -0.005846 0.004593 -0.003962
# 4 -0.003482 -0.007080 -0.005846 0.030370 -0.007902 0.009519
# 5 0.009149 0.006149 0.004593 -0.007902 0.030298 -0.005926
# 6 -0.002175 -0.002818 -0.003962 0.009519 -0.005926 0.027536
#
#
# Mechanical properties :
#
#
# Convention : Reuss Voigt Hill
#
# Bulk Modulus (GPa) = 24.32171 53.85557 39.08864
# Shear Modulus (GPa) = 31.58222 41.25724 36.41973
#
# Velocity S-wave (km/s) = 3.51844 4.02142 3.77831
# Velocity P-wave (km/s) = 5.10288 6.53241 5.86139
#
# Compressibility (1/GPa) = 0.04111554
#
# Stress axis : x y z
#
# Youngs Moduli (GPa) = 43.76003 72.31766 82.76466
#
# Poissons Ratio (x) = -0.08847 0.18659
# Poissons Ratio (y) = -0.05353 0.23109
# Poissons Ratio (z) = 0.09866 0.20192
#
# Static dielectric constant tensor:
#      x y z
#    x 2.113100 -0.102960 -0.029210 
#    y -0.102960 1.812600 -0.219450 
#    z -0.029210 -0.219450 1.820350 
# 
# From -- ./inp_files/491807.got.cif
#   From: 2010.05.17/outbox.cif.g08.bks.cpg/sg2_246_cif.got.tgz:491807.got - 2010.06.03 11:33:40.
