data_PCOD9061512
_publ_section_title
;
Structure prediction by ZEFSAII (Michael W. Deem and Ramdas Pophale) SiO2 
 PCOD9061512
Probable space group: P -1
;
_chemical_formula_sum "Si O2"
_cell_formula_units_Z 16
_cell_length_a 8.415277
_cell_length_b 8.592827
_cell_length_c 12.195902
_cell_angle_alpha 128.123706
_cell_angle_beta 104.467206
_cell_angle_gamma 76.619933
_cell_volume 668.315553
_symmetry_space_group_name_H-M "P -1"
_symmetry_group_IT_number 2
_symmetry_cell_setting 'triclinic'
loop_
_space_group_symop_operation_xyz
x,y,z
-x,-y,-z
loop_
_atom_site_type_symbol
_atom_site_label
_atom_site_fract_x
_atom_site_fract_y
_atom_site_fract_z
Si Si1 0.824906 0.965411 0.898295
Si Si2 0.816384 0.738590 0.088499
Si Si3 0.803594 0.563328 0.773405
Si Si4 0.523656 0.062214 0.199678
Si Si5 0.677263 0.400912 0.034813
Si Si6 0.590441 0.452169 0.294675
Si Si7 0.624281 0.889861 0.561367
Si Si8 0.932514 0.114744 0.645826
O O1 0.850481 0.729034 0.764184
O O2 0.639090 0.942904 0.907460
O O3 0.759810 0.178435 0.923364
O O4 0.000000 0.000000 0.000000
O O5 0.804348 0.544583 0.074291
O O6 0.940821 0.870380 0.226220
O O7 0.638779 0.862431 0.118118
O O8 0.848648 0.667028 0.940084
O O9 0.609537 0.529501 0.726366
O O10 0.885957 0.339580 0.692878
O O11 0.628962 0.246409 0.276322
O O12 0.454996 0.081835 0.319931
O O13 0.655593 0.417141 0.168130
O O14 0.500000 0.500000 0.000000
O O15 0.648590 0.654756 0.438594
O O16 0.500000 0.000000 0.500000
O O17 0.786125 0.000290 0.619513
O O18 0.000000 0.000000 0.500000
#
# Coordination Sequence:
#
# PCOD9061512 Si02
#       8
#     2   2   2   2   2   2   2   2
#     4  11  25  42  70 105 153 189 245 299 378 433
#     4  12  25  43  74 109 149 184 249 304 369 438
#     4  11  24  44  71 105 147 192 239 308 369 433
#     4  11  25  45  72 109 146 196 243 305 374 441
#     4  12  22  41  74 110 147 192 246 302 369 437
#     4  11  23  45  72 103 147 190 248 301 369 441
#     4  12  25  45  75 102 143 197 251 300 369 450
#     4  12  27  46  72 106 148 194 245 309 372 438
#
# _framework density 23.940788000000001
#
# number of rings (size 3 to 8) (size 9 to 14) (size 15 to 20)
#    0.000    0.500    3.750    4.500    3.500    2.000 
#    0.000    0.625    0.000    0.000    0.000    0.000 
#    0.000    0.000    0.000    0.000    0.000    0.000 
#
# Total GULP energy -89327.447826 kJ/mol
# GULP energy per Si atom -5582.965489 kJ/mol
# Density = 2.388630 g / cm^3
# Si number density = 23.940788 Si / 1000 Ang^3
#
#
#
# Elastic Constant Matrix: (Units=GPa)
#
#
# Indices 1 2 3 4 5 6 
#
# 1 75.9339 61.8116 46.2514 3.2259 20.4941 3.0245
# 2 61.8116 164.8936 74.7331 40.3829 -3.1341 14.2989
# 3 46.2514 74.7331 150.4407 22.8302 -2.2945 9.0266
# 4 3.2259 40.3829 22.8302 49.4116 6.6764 -2.3294
# 5 20.4941 -3.1341 -2.2945 6.6764 57.0966 0.6818
# 6 3.0245 14.2989 9.0266 -2.3294 0.6818 48.8161
#
#
#
# Elastic Compliance Matrix: (Units=1/GPa)
#
#
# Indices 1 2 3 4 5 6 
#
# 1 0.028847 -0.011999 -0.005157 0.012182 -0.012686 0.003439
# 2 -0.011999 0.014469 -0.001434 -0.011430 0.006426 -0.003865
# 3 -0.005157 -0.001434 0.009560 -0.003312 0.002558 -0.001222
# 4 0.012182 -0.011430 -0.003312 0.031745 -0.008903 0.004845
# 5 -0.012686 0.006426 0.002558 -0.008903 0.023592 -0.002324
# 6 0.003439 -0.003865 -0.001222 0.004845 -0.002324 0.021894
#
#
# Mechanical properties :
#
#
# Convention : Reuss Voigt Hill
#
# Bulk Modulus (GPa) = 63.71112 84.09558 73.90335
# Shear Modulus (GPa) = 28.98236 44.96300 36.97268
#
# Velocity S-wave (km/s) = 3.48312 4.33840 3.93407
# Velocity P-wave (km/s) = 6.54568 7.76520 7.18137
#
# Compressibility (1/GPa) = 0.01569585
#
# Stress axis : x y z
#
# Youngs Moduli (GPa) = 34.66540 69.11342 104.60528
#
# Poissons Ratio (x) = 0.82932 0.53940
# Poissons Ratio (y) = 0.41596 0.15002
# Poissons Ratio (z) = 0.17875 0.09912
#
# Static dielectric constant tensor:
#      x y z
#    x 1.931860 0.002260 0.055580 
#    y 0.002260 2.086870 -0.008090 
#    z 0.055580 -0.008090 1.998110 
# 
# From -- ./inp_files/495756.got.cif
#   From: 2010.05.17/outbox.cif.g08.bks.cpg/sg2_248_cif.got.tgz:495756.got - 2010.06.03 11:33:40.
