data_PCOD9061624
_publ_section_title
;
Structure prediction by ZEFSAII (Michael W. Deem and Ramdas Pophale) SiO2 
 PCOD9061624
Probable space group: P -1
;
_chemical_formula_sum "Si O2"
_cell_formula_units_Z 16
_cell_length_a 26.649759
_cell_length_b 12.585611
_cell_length_c 6.590660
_cell_angle_alpha 134.139183
_cell_angle_beta 133.020758
_cell_angle_gamma 29.049353
_cell_volume 752.977214
_symmetry_space_group_name_H-M "P -1"
_symmetry_group_IT_number 2
_symmetry_cell_setting 'triclinic'
loop_
_space_group_symop_operation_xyz
x,y,z
-x,-y,-z
loop_
_atom_site_type_symbol
_atom_site_label
_atom_site_fract_x
_atom_site_fract_y
_atom_site_fract_z
Si Si1 0.250902 0.538554 0.878564
Si Si2 0.766841 0.647316 0.074793
Si Si3 0.901499 0.047677 0.303839
Si Si4 0.003027 0.322040 0.217300
Si Si5 0.548620 0.504748 0.945982
Si Si6 0.186160 0.904440 0.443031
Si Si7 0.339648 0.864357 0.581505
Si Si8 0.609185 0.734658 0.452932
O O1 0.209438 0.470071 0.801775
O O2 0.179625 0.732561 0.770476
O O3 0.351924 0.322356 0.748027
O O4 0.257872 0.656763 0.217813
O O5 0.881826 0.473711 0.062636
O O6 0.711191 0.895053 0.291594
O O7 0.690108 0.679730 0.758631
O O8 0.846320 0.097338 0.427820
O O9 0.000000 0.000000 0.500000
O O10 0.937164 0.831112 0.022014
O O11 0.000000 0.500000 0.500000
O O12 0.072169 0.120583 0.308364
O O13 0.450787 0.699383 0.784390
O O14 0.633541 0.275898 0.734673
O O15 0.500000 0.500000 0.000000
O O16 0.594772 0.584364 0.256177
O O17 0.257185 0.927301 0.599630
O O18 0.500000 0.000000 0.500000
#
# Coordination Sequence:
#
# PCOD9061624 Si02
#       8
#     2   2   2   2   2   2   2   2
#     4  11  25  43  71  99 139 182 233 287 350 415
#     4  12  26  45  70 102 143 181 232 295 350 416
#     4  11  24  45  72 102 137 191 240 283 352 422
#     4  11  24  44  67 107 142 180 233 289 351 412
#     4  11  27  47  74 101 140 184 237 286 352 427
#     4  11  23  45  74  99 146 188 231 290 349 424
#     4  11  25  47  70 106 140 186 232 286 359 416
#     4  12  26  46  67 106 135 178 237 287 355 417
#
# _framework density 21.248982000000002
#
# number of rings (size 3 to 8) (size 9 to 14) (size 15 to 20)
#    0.000    0.750    3.750    3.000    5.250    3.000 
#    2.250    0.000    0.000    0.000    0.000    0.000 
#    0.000    0.000    0.000    0.000    0.000    0.000 
#
# Total GULP energy -89320.637167 kJ/mol
# GULP energy per Si atom -5582.539823 kJ/mol
# Density = 2.120062 g / cm^3
# Si number density = 21.248982 Si / 1000 Ang^3
#
#
#
# Elastic Constant Matrix: (Units=GPa)
#
#
# Indices 1 2 3 4 5 6 
#
# 1 111.4425 11.7422 66.6834 4.5969 -10.8513 -7.5556
# 2 11.7422 100.2927 56.9500 12.2821 -0.7848 -21.3004
# 3 66.6834 56.9500 117.9849 18.4410 -4.8933 -13.3700
# 4 4.5969 12.2821 18.4410 39.3293 -5.8384 1.9338
# 5 -10.8513 -0.7848 -4.8933 -5.8384 40.2126 1.8796
# 6 -7.5556 -21.3004 -13.3700 1.9338 1.8796 34.6149
#
#
#
# Elastic Compliance Matrix: (Units=1/GPa)
#
#
# Indices 1 2 3 4 5 6 
#
# 1 0.015321 0.004451 -0.010856 0.002300 0.003160 0.001590
# 2 0.004451 0.016636 -0.009418 -0.001711 -0.000227 0.007679
# 3 -0.010856 -0.009418 0.019921 -0.005343 -0.001461 -0.000092
# 4 0.002300 -0.001711 -0.005343 0.029065 0.004366 -0.004475
# 5 0.003160 -0.000227 -0.001461 0.004366 0.026251 -0.001684
# 6 0.001590 0.007679 -0.000092 -0.004475 -0.001684 0.034267
#
#
# Mechanical properties :
#
#
# Convention : Reuss Voigt Hill
#
# Bulk Modulus (GPa) = 49.42324 66.71903 58.07113
# Shear Modulus (GPa) = 27.80083 35.78766 31.79425
#
# Velocity S-wave (km/s) = 3.62102 4.10836 3.87236
# Velocity P-wave (km/s) = 6.38686 7.34654 6.88345
#
# Compressibility (1/GPa) = 0.02023340
#
# Stress axis : x y z
#
# Youngs Moduli (GPa) = 65.27133 60.11039 50.19767
#
# Poissons Ratio (x) = -0.26758 0.54495
# Poissons Ratio (y) = -0.29055 0.47275
# Poissons Ratio (z) = 0.70858 0.56611
#
# Static dielectric constant tensor:
#      x y z
#    x 1.867790 -0.031310 0.002790 
#    y -0.031310 1.778220 -0.000660 
#    z 0.002790 -0.000660 1.816500 
# 
# From -- ./inp_files/126958.got.cif
#   From: 2010.05.17/outbox.cif.g08.bks.cpg/sg2_64_cif.got.tgz:126958.got - 2010.06.03 11:33:40.
