data_PCOD9061447
_publ_section_title
;
Structure prediction by ZEFSAII (Michael W. Deem and Ramdas Pophale) SiO2 
 PCOD9061447
Probable space group: P -1
;
_chemical_formula_sum "Si O2"
_cell_formula_units_Z 14
_cell_length_a 7.808243
_cell_length_b 8.835287
_cell_length_c 11.585172
_cell_angle_alpha 53.227272
_cell_angle_beta 83.736689
_cell_angle_gamma 106.928095
_cell_volume 569.039425
_symmetry_space_group_name_H-M "P -1"
_symmetry_group_IT_number 2
_symmetry_cell_setting 'triclinic'
loop_
_space_group_symop_operation_xyz
x,y,z
-x,-y,-z
loop_
_atom_site_type_symbol
_atom_site_label
_atom_site_fract_x
_atom_site_fract_y
_atom_site_fract_z
Si Si1 0.683518 0.659524 0.484722
Si Si2 0.322006 0.106652 0.160447
Si Si3 0.056405 0.967990 0.879694
Si Si4 0.250110 0.651214 0.970768
Si Si5 0.776822 0.962727 0.537834
Si Si6 0.894890 0.408897 0.236582
Si Si7 0.130923 0.621816 0.327384
O O1 0.500000 0.500000 0.500000
O O2 0.834062 0.822329 0.305295
O O3 0.659157 0.811491 0.511405
O O4 0.748982 0.513418 0.625471
O O5 0.263679 0.866857 0.231254
O O6 0.154664 0.155200 0.102792
O O7 0.536361 0.264064 0.036661
O O8 0.309372 0.108226 0.298268
O O9 0.178172 0.833644 0.916746
O O10 0.000000 0.000000 0.000000
O O11 0.235618 0.603822 0.857064
O O12 0.093493 0.447601 0.140139
O O13 0.792458 0.191678 0.409270
O O14 0.000000 0.000000 0.500000
O O15 0.985625 0.584318 0.248876
O O16 0.000000 0.500000 0.500000
#
# Coordination Sequence:
#
# PCOD9061447 Si02
#       7
#     2   2   2   2   2   2   2
#     4  12  26  44  71 109 143 182 244 299 352 425
#     4  12  26  47  77 108 139 195 240 295 356 423
#     4  12  25  47  72 101 152 187 233 299 358 420
#     4  11  27  46  70 108 143 188 243 287 360 434
#     4  12  21  48  75 101 146 187 238 301 353 421
#     4  11  23  45  70  98 148 186 228 303 351 421
#     4  12  22  41  73 102 139 184 239 292 353 413
#
# _framework density 24.602865999999999
#
# number of rings (size 3 to 8) (size 9 to 14) (size 15 to 20)
#    0.000    0.286    7.143    1.714    0.000    5.143 
#    2.571    3.571    0.000    0.000    0.000    0.000 
#    0.000    0.000    0.000    0.000    0.000    0.000 
#
# Total GULP energy -78300.789710 kJ/mol
# GULP energy per Si atom -5592.913551 kJ/mol
# Density = 2.454687 g / cm^3
# Si number density = 24.602866 Si / 1000 Ang^3
#
#
#
# Elastic Constant Matrix: (Units=GPa)
#
#
# Indices 1 2 3 4 5 6 
#
# 1 84.9694 35.7393 10.5786 -15.0518 -10.0254 12.0261
# 2 35.7393 165.2340 30.7608 17.9504 1.4886 20.3745
# 3 10.5786 30.7608 47.9641 21.1297 6.7056 -8.0162
# 4 -15.0518 17.9504 21.1297 47.7065 6.8147 4.3590
# 5 -10.0254 1.4886 6.7056 6.8147 25.8446 -12.6514
# 6 12.0261 20.3745 -8.0162 4.3590 -12.6514 43.7516
#
#
#
# Elastic Compliance Matrix: (Units=1/GPa)
#
#
# Indices 1 2 3 4 5 6 
#
# 1 0.016559 -0.002725 -0.007298 0.009340 0.003837 -0.004441
# 2 -0.002725 0.008182 -0.004543 -0.001211 -0.002186 -0.004405
# 3 -0.007298 -0.004543 0.035028 -0.016991 -0.001386 0.011832
# 4 0.009340 -0.001211 -0.016991 0.033631 -0.005722 -0.010122
# 5 0.003837 -0.002186 -0.001386 -0.005722 0.049289 0.014532
# 6 -0.004441 -0.004405 0.011832 -0.010122 0.014532 0.033507
#
#
# Mechanical properties :
#
#
# Convention : Reuss Voigt Hill
#
# Bulk Modulus (GPa) = 32.63969 50.25833 41.44901
# Shear Modulus (GPa) = 23.19746 38.19979 30.69863
#
# Velocity S-wave (km/s) = 3.07396 3.94465 3.53621
# Velocity P-wave (km/s) = 5.08865 6.42022 5.79282
#
# Compressibility (1/GPa) = 0.03063755
#
# Stress axis : x y z
#
# Youngs Moduli (GPa) = 60.38883 122.22571 28.54846
#
# Poissons Ratio (x) = 0.33303 0.20834
# Poissons Ratio (y) = 0.16454 0.12970
# Poissons Ratio (z) = 0.44071 0.55529
#
# Static dielectric constant tensor:
#      x y z
#    x 2.036510 -0.055620 0.043200 
#    y -0.055620 2.050410 0.038470 
#    z 0.043200 0.038470 1.951140 
# 
# From -- ./inp_files/378292.got.cif
#   From: 2010.05.17/outbox.cif.g08.bks.cpg/sg2_190_cif.got.tgz:378292.got - 2010.06.03 11:33:40.
