data_PCOD9061002
_publ_section_title
;
Structure prediction by ZEFSAII (Michael W. Deem and Ramdas Pophale) SiO2 
 PCOD9061002
Probable space group: P -1
;
_chemical_formula_sum "Si O2"
_cell_formula_units_Z 16
_cell_length_a 8.199227
_cell_length_b 17.351923
_cell_length_c 11.398111
_cell_angle_alpha 131.110684
_cell_angle_beta 144.181827
_cell_angle_gamma 51.340328
_cell_volume 699.444739
_symmetry_space_group_name_H-M "P -1"
_symmetry_group_IT_number 2
_symmetry_cell_setting 'triclinic'
loop_
_space_group_symop_operation_xyz
x,y,z
-x,-y,-z
loop_
_atom_site_type_symbol
_atom_site_label
_atom_site_fract_x
_atom_site_fract_y
_atom_site_fract_z
Si Si1 0.375711 0.258388 0.389810
Si Si2 0.785999 0.575953 0.365193
Si Si3 0.227540 0.490800 0.963910
Si Si4 0.000033 0.836359 0.372883
Si Si5 0.005183 0.898424 0.981370
Si Si6 0.835320 0.989597 0.212530
Si Si7 0.482208 0.722173 0.961885
Si Si8 0.367859 0.397114 0.293101
O O1 0.228658 0.312679 0.474837
O O2 0.301744 0.334362 0.308636
O O3 0.712890 0.240703 0.575776
O O4 0.281266 0.147995 0.219927
O O5 0.877254 0.550907 0.261318
O O6 0.000000 0.500000 0.500000
O O7 0.458760 0.562555 0.158885
O O8 0.930465 0.558445 0.904365
O O9 0.423473 0.389836 0.034680
O O10 0.899133 0.916837 0.290030
O O11 0.751445 0.775791 0.185923
O O12 0.084354 0.900676 0.596758
O O13 0.034883 0.936336 0.169358
O O14 0.234191 0.802524 0.964435
O O15 0.000000 0.000000 0.000000
O O16 0.500000 0.000000 0.000000
O O17 0.444262 0.688570 0.770459
O O18 0.500000 0.500000 0.500000
#
# Coordination Sequence:
#
# PCOD9061002 Si02
#       8
#     2   2   2   2   2   2   2   2
#     4  12  25  45  78 106 144 205 245 296 382 447
#     4  11  23  44  71 105 145 188 246 303 373 440
#     4  11  25  44  73 107 149 189 243 311 371 454
#     4  11  26  46  79 103 139 198 251 301 367 452
#     4  12  29  46  74 110 153 193 247 317 365 437
#     4  11  24  51  75 101 144 193 250 310 372 432
#     4  12  27  45  72 115 150 191 255 306 377 443
#     4  12  26  47  78 110 155 200 245 309 375 457
#
# _framework density 22.875287
#
# number of rings (size 3 to 8) (size 9 to 14) (size 15 to 20)
#    0.000    0.500    2.500    4.875    8.750    1.500 
#    0.000    0.000    0.000    0.000    0.000    0.000 
#    0.000    0.000    0.000    0.000    0.000    0.000 
#
# Total GULP energy -89388.908003 kJ/mol
# GULP energy per Si atom -5586.806750 kJ/mol
# Density = 2.282322 g / cm^3
# Si number density = 22.875287 Si / 1000 Ang^3
#
#
#
# Elastic Constant Matrix: (Units=GPa)
#
#
# Indices 1 2 3 4 5 6 
#
# 1 88.3994 31.9812 34.7069 13.8029 -2.2819 -29.1876
# 2 31.9812 78.6041 17.8680 4.9981 -2.7418 -12.5291
# 3 34.7069 17.8680 97.6742 17.6836 3.0151 -8.1807
# 4 13.8029 4.9981 17.6836 51.6543 -5.5428 0.5206
# 5 -2.2819 -2.7418 3.0151 -5.5428 47.5317 7.8647
# 6 -29.1876 -12.5291 -8.1807 0.5206 7.8647 55.3232
#
#
#
# Elastic Compliance Matrix: (Units=1/GPa)
#
#
# Indices 1 2 3 4 5 6 
#
# 1 0.017731 -0.004859 -0.004193 -0.002997 -0.000799 0.007776
# 2 -0.004859 0.015036 -0.001041 0.000262 0.000632 0.000595
# 3 -0.004193 -0.001041 0.012510 -0.003204 -0.001367 -0.000374
# 4 -0.002997 0.000262 -0.003204 0.021583 0.003026 -0.002629
# 5 -0.000799 0.000632 -0.001367 0.003026 0.022080 -0.003648
# 6 0.007776 0.000595 -0.000374 -0.002629 -0.003648 0.022801
#
#
# Mechanical properties :
#
#
# Convention : Reuss Voigt Hill
#
# Bulk Modulus (GPa) = 39.85600 48.19889 44.02745
# Shear Modulus (GPa) = 35.64038 42.90993 39.27516
#
# Velocity S-wave (km/s) = 3.95147 4.33577 4.14807
# Velocity P-wave (km/s) = 6.18707 6.79568 6.49850
#
# Compressibility (1/GPa) = 0.02509032
#
# Stress axis : x y z
#
# Youngs Moduli (GPa) = 56.39777 66.50765 79.93899
#
# Poissons Ratio (x) = 0.32315 0.33520
# Poissons Ratio (y) = 0.27403 0.08322
# Poissons Ratio (z) = 0.23649 0.06924
#
# Static dielectric constant tensor:
#      x y z
#    x 1.906490 0.004160 -0.060650 
#    y 0.004160 1.882320 -0.040270 
#    z -0.060650 -0.040270 1.734680 
# 
# From -- ./inp_files/46668.got.cif
#   From: 2010.05.17/outbox.cif.g08.bks.cpg/sg2_24_cif.got.tgz:46668.got - 2010.06.03 11:33:40.
