data_PCOD9061029
_publ_section_title
;
Structure prediction by ZEFSAII (Michael W. Deem and Ramdas Pophale) SiO2 
 PCOD9061029
Probable space group: P -1
;
_chemical_formula_sum "Si O2"
_cell_formula_units_Z 14
_cell_length_a 13.173797
_cell_length_b 16.089664
_cell_length_c 25.908813
_cell_angle_alpha 17.379252
_cell_angle_beta 153.916732
_cell_angle_gamma 155.290942
_cell_volume 663.947149
_symmetry_space_group_name_H-M "P -1"
_symmetry_group_IT_number 2
_symmetry_cell_setting 'triclinic'
loop_
_space_group_symop_operation_xyz
x,y,z
-x,-y,-z
loop_
_atom_site_type_symbol
_atom_site_label
_atom_site_fract_x
_atom_site_fract_y
_atom_site_fract_z
Si Si1 0.244253 0.348689 0.553820
Si Si2 0.780066 0.617204 0.031311
Si Si3 0.046013 0.221493 0.840656
Si Si4 0.859673 0.724812 0.795154
Si Si5 0.027696 0.211904 0.435970
Si Si6 0.604281 0.717995 0.790746
Si Si7 0.454742 0.235059 0.462387
O O1 0.439841 0.535049 0.577379
O O2 0.116689 0.581958 0.344866
O O3 0.261288 0.258554 0.554176
O O4 0.064458 0.044830 0.679936
O O5 0.963193 0.482690 0.221646
O O6 0.500000 0.500000 0.000000
O O7 0.733992 0.564330 0.981094
O O8 0.923363 0.976429 0.886320
O O9 0.322278 0.461798 0.812724
O O10 0.000000 0.000000 0.000000
O O11 0.734251 0.764879 0.767228
O O12 0.642947 0.617634 0.716030
O O13 0.000000 0.500000 0.000000
O O14 0.787058 0.031146 0.467513
O O15 0.000000 0.000000 0.500000
O O16 0.600616 0.036750 0.621430
#
# Coordination Sequence:
#
# PCOD9061029 Si02
#       7
#     2   2   2   2   2   2   2
#     4  11  23  44  71  96 136 178 228 288 330 403
#     4  12  21  39  67 102 137 174 224 277 333 410
#     4  12  20  39  68 106 136 165 226 277 336 403
#     4  11  28  49  65  96 139 181 237 282 338 405
#     4  11  24  41  64 100 148 178 212 276 347 414
#     4  12  24  41  73  97 136 184 223 288 335 396
#     4  11  23  45  70  97 129 180 236 283 337 395
#
# _framework density 21.086015
#
# number of rings (size 3 to 8) (size 9 to 14) (size 15 to 20)
#    0.000    0.571    8.571    0.429    4.000    2.857 
#    2.571    0.000    0.000    0.000    0.000    0.000 
#    0.000    0.000    0.000    0.000    0.000    0.000 
#
# Total GULP energy -77939.430284 kJ/mol
# GULP energy per Si atom -5567.102163 kJ/mol
# Density = 2.103802 g / cm^3
# Si number density = 21.086015 Si / 1000 Ang^3
#
#
#
# Elastic Constant Matrix: (Units=GPa)
#
#
# Indices 1 2 3 4 5 6 
#
# 1 91.3913 25.1104 35.3220 14.5014 -9.2025 -30.1757
# 2 25.1104 111.6632 24.4718 1.5463 -12.8967 -36.4092
# 3 35.3220 24.4718 119.5174 3.9825 -18.6720 -15.3300
# 4 14.5014 1.5463 3.9825 34.4422 -12.3634 -9.5155
# 5 -9.2025 -12.8967 -18.6720 -12.3634 30.8853 1.6333
# 6 -30.1757 -36.4092 -15.3300 -9.5155 1.6333 35.6987
#
#
#
# Elastic Compliance Matrix: (Units=1/GPa)
#
#
# Indices 1 2 3 4 5 6 
#
# 1 0.016867 0.001765 -0.003116 -0.002118 0.002288 0.014050
# 2 0.001765 0.015642 -0.000180 0.006901 0.008716 0.018808
# 3 -0.003116 -0.000180 0.010515 0.003030 0.006449 0.002210
# 4 -0.002118 0.006901 0.003030 0.040859 0.019563 0.016545
# 5 0.002288 0.008716 0.006449 0.019563 0.047550 0.016632
# 6 0.014050 0.018808 0.002210 0.016545 0.016632 0.063669
#
#
# Mechanical properties :
#
#
# Convention : Reuss Voigt Hill
#
# Bulk Modulus (GPa) = 25.02459 54.70894 39.86676
# Shear Modulus (GPa) = 23.64246 36.04976 29.84611
#
# Velocity S-wave (km/s) = 3.35212 4.13928 3.76632
# Velocity P-wave (km/s) = 5.18420 6.98905 6.15316
#
# Compressibility (1/GPa) = 0.03996070
#
# Stress axis : x y z
#
# Youngs Moduli (GPa) = 59.28806 63.93102 95.10356
#
# Poissons Ratio (x) = -0.11282 0.29634
# Poissons Ratio (y) = -0.10462 0.01713
# Poissons Ratio (z) = 0.18474 0.01151
#
# Static dielectric constant tensor:
#      x y z
#    x 1.738770 -0.057950 0.042820 
#    y -0.057950 1.867000 0.007880 
#    z 0.042820 0.007880 1.813840 
# 
# From -- ./inp_files/455841.got.cif
#   From: 2010.05.17/outbox.cif.g08.bks.cpg/sg2_228_cif.got.tgz:455841.got - 2010.06.03 11:33:40.
