data_PCOD9061392
_publ_section_title
;
Structure prediction by ZEFSAII (Michael W. Deem and Ramdas Pophale) SiO2 
 PCOD9061392
Probable space group: P -1
;
_chemical_formula_sum "Si O2"
_cell_formula_units_Z 14
_cell_length_a 18.964521
_cell_length_b 7.713544
_cell_length_c 12.595484
_cell_angle_alpha 57.638047
_cell_angle_beta 150.795845
_cell_angle_gamma 136.652155
_cell_volume 589.240653
_symmetry_space_group_name_H-M "P -1"
_symmetry_group_IT_number 2
_symmetry_cell_setting 'triclinic'
loop_
_space_group_symop_operation_xyz
x,y,z
-x,-y,-z
loop_
_atom_site_type_symbol
_atom_site_label
_atom_site_fract_x
_atom_site_fract_y
_atom_site_fract_z
Si Si1 0.784108 0.872368 0.544366
Si Si2 0.507445 0.769774 0.825143
Si Si3 0.803323 0.826265 0.353342
Si Si4 0.872199 0.655236 0.061034
Si Si5 0.668041 0.902836 0.754133
Si Si6 0.553465 0.167224 0.906508
Si Si7 0.252850 0.589377 0.252169
O O1 0.844540 0.969502 0.472249
O O2 0.568222 0.737084 0.298943
O O3 0.811981 0.662497 0.681723
O O4 0.910360 0.121597 0.704960
O O5 0.307090 0.481576 0.663036
O O6 0.595738 0.826942 0.806441
O O7 0.493757 0.980826 0.787796
O O8 0.654629 0.802077 0.090064
O O9 0.000000 0.000000 0.500000
O O10 0.782223 0.804724 0.900966
O O11 0.766756 0.425068 0.087337
O O12 0.831173 0.514333 0.940837
O O13 0.478283 0.762739 0.484184
O O14 0.778486 0.218463 0.797124
O O15 0.500000 0.000000 0.000000
#
# Coordination Sequence:
#
# PCOD9061392 Si02
#       7
#     2   2   2   2   2   2   2
#     4  12  26  45  69 104 139 181 233 288 347 416
#     4  11  23  45  69  99 137 185 229 289 349 406
#     4  11  24  42  69  99 136 179 235 289 348 409
#     4  12  26  46  72 102 146 184 229 290 347 411
#     4  11  23  45  77  99 139 186 232 288 347 412
#     4  12  26  46  71  99 144 184 235 287 345 418
#     4  11  24  46  71 106 137 184 238 280 350 416
#
# _framework density 23.75939
#
# number of rings (size 3 to 8) (size 9 to 14) (size 15 to 20)
#    0.000    0.571    5.714    1.714    4.000    2.286 
#    2.571    0.000    0.000    0.000    0.000    0.000 
#    0.000    0.000    0.000    0.000    0.000    0.000 
#
# Total GULP energy -78326.033897 kJ/mol
# GULP energy per Si atom -5594.716707 kJ/mol
# Density = 2.370531 g / cm^3
# Si number density = 23.759390 Si / 1000 Ang^3
#
#
#
# Elastic Constant Matrix: (Units=GPa)
#
#
# Indices 1 2 3 4 5 6 
#
# 1 55.9767 -2.1993 19.0781 3.1722 -13.3576 -0.9625
# 2 -2.1993 79.1411 36.4642 2.7576 -7.4595 3.8295
# 3 19.0781 36.4642 90.9002 21.4395 -27.5080 13.9975
# 4 3.1722 2.7576 21.4395 30.7441 -3.2882 -4.7468
# 5 -13.3576 -7.4595 -27.5080 -3.2882 42.6542 0.9194
# 6 -0.9625 3.8295 13.9975 -4.7468 0.9194 37.0123
#
#
#
# Elastic Compliance Matrix: (Units=1/GPa)
#
#
# Indices 1 2 3 4 5 6 
#
# 1 0.020617 0.003202 -0.005368 0.002093 0.003664 0.002412
# 2 0.003202 0.016621 -0.009500 0.005010 -0.001888 0.002646
# 3 -0.005368 -0.009500 0.025130 -0.016564 0.011826 -0.011079
# 4 0.002093 0.005010 -0.016564 0.044575 -0.005966 0.011665
# 5 0.003664 -0.001888 0.011826 -0.005966 0.031552 -0.005731
# 6 0.002412 0.002646 -0.011079 0.011665 -0.005731 0.032635
#
#
# Mechanical properties :
#
#
# Convention : Reuss Voigt Hill
#
# Bulk Modulus (GPa) = 25.61714 36.96714 31.29214
# Shear Modulus (GPa) = 24.09933 33.59379 28.84656
#
# Velocity S-wave (km/s) = 3.18827 3.76429 3.48819
# Velocity P-wave (km/s) = 4.93546 5.87247 5.42424
#
# Compressibility (1/GPa) = 0.03903636
#
# Stress axis : x y z
#
# Youngs Moduli (GPa) = 48.50355 60.16425 39.79300
#
# Poissons Ratio (x) = -0.19264 0.21361
# Poissons Ratio (y) = -0.15530 0.37803
# Poissons Ratio (z) = 0.26036 0.57156
#
# Static dielectric constant tensor:
#      x y z
#    x 1.995410 -0.060930 0.096350 
#    y -0.060930 2.020690 -0.051860 
#    z 0.096350 -0.051860 1.924850 
# 
# From -- ./inp_files/469923.got.cif
#   From: 2010.05.17/outbox.cif.g08.bks.cpg/sg2_235_cif.got.tgz:469923.got - 2010.06.03 11:33:40.
