data_PCOD9061764
_publ_section_title
;
Structure prediction by ZEFSAII (Michael W. Deem and Ramdas Pophale) SiO2 
 PCOD9061764
Probable space group: P -1
;
_chemical_formula_sum "Si O2"
_cell_formula_units_Z 12
_cell_length_a 9.168644
_cell_length_b 6.869048
_cell_length_c 17.379603
_cell_angle_alpha 39.495005
_cell_angle_beta 59.745460
_cell_angle_gamma 61.250759
_cell_volume 592.812235
_symmetry_space_group_name_H-M "P -1"
_symmetry_group_IT_number 2
_symmetry_cell_setting 'triclinic'
loop_
_space_group_symop_operation_xyz
x,y,z
-x,-y,-z
loop_
_atom_site_type_symbol
_atom_site_label
_atom_site_fract_x
_atom_site_fract_y
_atom_site_fract_z
Si Si1 0.470800 0.181493 0.369958
Si Si2 0.647320 0.146988 0.872296
Si Si3 0.892349 0.906865 0.752414
Si Si4 0.188735 0.861478 0.459882
Si Si5 0.186627 0.147711 0.689808
Si Si6 0.038471 0.764670 0.130634
O O1 0.419964 0.553692 0.255955
O O2 0.319240 0.034719 0.416915
O O3 0.644109 0.085141 0.305038
O O4 0.500000 0.000000 0.500000
O O5 0.779488 0.242801 0.871859
O O6 0.763017 0.902943 0.859143
O O7 0.500000 0.000000 0.000000
O O8 0.799453 0.079079 0.651640
O O9 0.969368 0.571272 0.800589
O O10 0.040507 0.090380 0.685793
O O11 0.224654 0.494743 0.571955
O O12 0.000000 0.000000 0.500000
O O13 0.104533 0.121803 0.802409
O O14 0.000000 0.000000 0.000000
#
# Coordination Sequence:
#
# PCOD9061764 Si02
#       6
#     2   2   2   2   2   2
#     4  12  26  44  68 106 140 177 229 284 340 404
#     4  11  27  46  69 101 138 182 228 279 340 405
#     4  11  23  46  69  97 136 177 228 278 338 403
#     4  12  21  44  70  98 137 179 224 277 344 403
#     4  11  25  41  70 101 134 178 226 281 341 404
#     4  11  26  45  70  99 133 183 230 275 339 407
#
# _framework density 20.242497
#
# number of rings (size 3 to 8) (size 9 to 14) (size 15 to 20)
#    0.000    0.667    3.333    4.000    4.667    3.333 
#    0.000    0.000    0.000    0.000    0.000    0.000 
#    0.000    0.000    0.000    0.000    0.000    0.000 
#
# Total GULP energy -67041.024407 kJ/mol
# GULP energy per Si atom -5586.752034 kJ/mol
# Density = 2.019642 g / cm^3
# Si number density = 20.242497 Si / 1000 Ang^3
#
#
#
# Elastic Constant Matrix: (Units=GPa)
#
#
# Indices 1 2 3 4 5 6 
#
# 1 82.8629 27.9401 41.8526 16.3469 -7.5241 1.8633
# 2 27.9401 87.2745 20.4616 16.8501 -1.2897 -0.4151
# 3 41.8526 20.4616 113.3652 2.8485 11.6758 8.0652
# 4 16.3469 16.8501 2.8485 27.2393 -7.6122 1.6831
# 5 -7.5241 -1.2897 11.6758 -7.6122 38.0275 1.3763
# 6 1.8633 -0.4151 8.0652 1.6831 1.3763 33.0738
#
#
#
# Elastic Compliance Matrix: (Units=1/GPa)
#
#
# Indices 1 2 3 4 5 6 
#
# 1 0.018057 -0.002785 -0.006437 -0.007382 0.003951 0.000729
# 2 -0.002785 0.014042 -0.001278 -0.007276 -0.001177 0.001064
# 3 -0.006437 -0.001278 0.012007 0.002310 -0.004450 -0.002514
# 4 -0.007382 -0.007276 0.002310 0.047601 0.007219 -0.002961
# 5 0.003951 -0.001177 -0.004450 0.007219 0.029878 -0.000763
# 6 0.000729 0.001064 -0.002514 -0.002961 -0.000763 0.031003
#
#
# Mechanical properties :
#
#
# Convention : Reuss Voigt Hill
#
# Bulk Modulus (GPa) = 43.27745 51.55680 47.41713
# Shear Modulus (GPa) = 27.58024 32.55134 30.06579
#
# Velocity S-wave (km/s) = 3.69520 4.01442 3.85812
# Velocity P-wave (km/s) = 6.29539 6.85656 6.58196
#
# Compressibility (1/GPa) = 0.02310672
#
# Stress axis : x y z
#
# Youngs Moduli (GPa) = 55.38090 71.21664 83.28273
#
# Poissons Ratio (x) = 0.19831 0.53608
# Poissons Ratio (y) = 0.15421 0.10644
# Poissons Ratio (z) = 0.35648 0.09102
#
# Static dielectric constant tensor:
#      x y z
#    x 1.718910 -0.094760 0.072110 
#    y -0.094760 1.925420 -0.253010 
#    z 0.072110 -0.253010 2.078380 
# 
# From -- ./inp_files/486755.got.cif
#   From: 2010.05.17/outbox.cif.g08.bks.cpg/sg2_244_cif.got.tgz:486755.got - 2010.06.03 11:33:40.
