data_PCOD9061404
_publ_section_title
;
Structure prediction by ZEFSAII (Michael W. Deem and Ramdas Pophale) SiO2 
 PCOD9061404
Probable space group: P -1
;
_chemical_formula_sum "Si O2"
_cell_formula_units_Z 14
_cell_length_a 8.927650
_cell_length_b 7.886432
_cell_length_c 10.545892
_cell_angle_alpha 117.953449
_cell_angle_beta 129.745007
_cell_angle_gamma 72.314172
_cell_volume 504.294234
_symmetry_space_group_name_H-M "P -1"
_symmetry_group_IT_number 2
_symmetry_cell_setting 'triclinic'
loop_
_space_group_symop_operation_xyz
x,y,z
-x,-y,-z
loop_
_atom_site_type_symbol
_atom_site_label
_atom_site_fract_x
_atom_site_fract_y
_atom_site_fract_z
Si Si1 0.009066 0.219480 0.367894
Si Si2 0.115218 0.873994 0.135356
Si Si3 0.591149 0.958421 0.817441
Si Si4 0.673240 0.672566 0.208615
Si Si5 0.983266 0.522541 0.791016
Si Si6 0.419873 0.643995 0.762033
Si Si7 0.602101 0.307278 0.591665
O O1 0.177928 0.253218 0.573240
O O2 0.031698 0.364352 0.311580
O O3 0.796373 0.262869 0.325581
O O4 0.030164 0.009320 0.246001
O O5 0.323650 0.804671 0.283618
O O6 0.192964 0.983972 0.089642
O O7 0.007460 0.681672 0.968437
O O8 0.566578 0.817202 0.873606
O O9 0.503276 0.833360 0.610896
O O10 0.468096 0.151800 0.838231
O O11 0.576797 0.483671 0.153797
O O12 0.821855 0.603463 0.156865
O O13 0.799492 0.392802 0.671648
O O14 0.468870 0.483484 0.626711
#
# Coordination Sequence:
#
# PCOD9061404 Si02
#       7
#     2   2   2   2   2   2   2
#     4  11  23  45  70 101 138 182 236 284 339 419
#     4  12  25  45  70 102 144 185 227 284 353 413
#     4  12  24  43  76 103 138 183 235 286 342 409
#     4  11  23  46  70 105 140 181 233 289 340 412
#     4  11  26  44  71 101 144 184 226 287 357 404
#     4  11  24  41  68 106 134 175 233 290 336 400
#     4  12  23  45  69 104 141 182 236 282 340 419
#
# _framework density 27.761569999999999
#
# number of rings (size 3 to 8) (size 9 to 14) (size 15 to 20)
#    0.000    0.571    2.857    6.857    2.000    1.714 
#    0.000    3.571    0.000    0.000    0.000    0.000 
#    0.000    0.000    0.000    0.000    0.000    0.000 
#
# Total GULP energy -78715.558026 kJ/mol
# GULP energy per Si atom -5622.539859 kJ/mol
# Density = 2.769838 g / cm^3
# Si number density = 27.761570 Si / 1000 Ang^3
#
#
#
# Elastic Constant Matrix: (Units=GPa)
#
#
# Indices 1 2 3 4 5 6 
#
# 1 211.1722 77.3772 38.5565 36.7154 15.0644 -16.3075
# 2 77.3772 153.0189 46.9118 46.1727 -17.9632 -21.5600
# 3 38.5565 46.9118 117.7683 29.8366 -0.2496 -4.2541
# 4 36.7154 46.1727 29.8366 49.8858 0.0216 -11.6742
# 5 15.0644 -17.9632 -0.2496 0.0216 47.6223 14.7762
# 6 -16.3075 -21.5600 -4.2541 -11.6742 14.7762 67.7357
#
#
#
# Elastic Compliance Matrix: (Units=1/GPa)
#
#
# Indices 1 2 3 4 5 6 
#
# 1 0.006503 -0.002925 -0.000555 -0.001486 -0.003507 0.001108
# 2 -0.002925 0.011390 -0.001713 -0.007261 0.005075 0.000455
# 3 -0.000555 -0.001713 0.010450 -0.004431 -0.000182 -0.000746
# 4 -0.001486 -0.007261 -0.004431 0.031250 -0.003285 0.003156
# 5 -0.003507 0.005075 -0.000182 -0.003285 0.025702 -0.005413
# 6 0.001108 0.000455 -0.000746 0.003156 -0.005413 0.016853
#
#
# Mechanical properties :
#
#
# Convention : Reuss Voigt Hill
#
# Bulk Modulus (GPa) = 55.68585 89.73893 72.71239
# Shear Modulus (GPa) = 42.18700 54.32302 48.25501
#
# Velocity S-wave (km/s) = 3.90246 4.42834 4.17369
# Velocity P-wave (km/s) = 6.35671 7.65127 7.03384
#
# Compressibility (1/GPa) = 0.01795788
#
# Stress axis : x y z
#
# Youngs Moduli (GPa) = 153.78224 87.79419 95.68956
#
# Poissons Ratio (x) = 0.25683 0.05307
# Poissons Ratio (y) = 0.44987 0.16389
# Poissons Ratio (z) = 0.08530 0.15037
#
# Static dielectric constant tensor:
#      x y z
#    x 2.098210 0.018260 -0.011370 
#    y 0.018260 2.190900 -0.107750 
#    z -0.011370 -0.107750 2.186860 
# 
# From -- ./inp_files/205700.got.cif
#   From: 2010.05.17/outbox.cif.g08.bks.cpg/sg2_103_cif.got.tgz:205700.got - 2010.06.03 11:33:40.
