data_PCOD9061457
_publ_section_title
;
Structure prediction by ZEFSAII (Michael W. Deem and Ramdas Pophale) SiO2 
 PCOD9061457
Probable space group: P -1
;
_chemical_formula_sum "Si O2"
_cell_formula_units_Z 14
_cell_length_a 9.199287
_cell_length_b 11.074278
_cell_length_c 8.310750
_cell_angle_alpha 123.231256
_cell_angle_beta 70.005233
_cell_angle_gamma 122.192864
_cell_volume 597.828742
_symmetry_space_group_name_H-M "P -1"
_symmetry_group_IT_number 2
_symmetry_cell_setting 'triclinic'
loop_
_space_group_symop_operation_xyz
x,y,z
-x,-y,-z
loop_
_atom_site_type_symbol
_atom_site_label
_atom_site_fract_x
_atom_site_fract_y
_atom_site_fract_z
Si Si1 0.222473 0.511178 0.287403
Si Si2 0.887885 0.058985 0.478876
Si Si3 0.519795 0.841383 0.430119
Si Si4 0.019256 0.839225 0.842516
Si Si5 0.327331 0.517158 0.616906
Si Si6 0.376491 0.845095 0.836791
Si Si7 0.986439 0.376830 0.775543
O O1 0.399490 0.664317 0.275465
O O2 0.245734 0.518006 0.474780
O O3 0.079133 0.557928 0.304244
O O4 0.144257 0.319737 0.146532
O O5 0.963262 0.155154 0.354560
O O6 0.857428 0.188396 0.697083
O O7 0.720581 0.900730 0.376195
O O8 0.000000 0.000000 0.500000
O O9 0.473157 0.836273 0.631232
O O10 0.500000 0.000000 0.500000
O O11 0.194069 0.843086 0.855710
O O12 0.000000 0.000000 0.000000
O O13 0.500000 0.500000 0.500000
O O14 0.356294 0.682813 0.813142
O O15 0.175548 0.385069 0.682248
O O16 0.500000 0.000000 0.000000
O O17 0.000000 0.500000 0.000000
#
# Coordination Sequence:
#
# PCOD9061457 Si02
#       7
#     2   2   2   2   2   2   2
#     4  11  24  48  74 101 147 196 251 296 368 450
#     4  12  28  47  72 106 153 188 245 309 375 442
#     4  11  23  45  71 101 138 196 234 300 375 427
#     4  12  27  48  76 108 145 201 250 300 368 448
#     4  11  25  45  73 105 143 200 246 302 373 444
#     4  11  26  42  71 104 146 184 247 299 361 442
#     4  12  26  45  75 108 148 199 248 304 378 441
#
# _framework density 23.41808
#
# number of rings (size 3 to 8) (size 9 to 14) (size 15 to 20)
#    0.000    0.571    5.714    1.286   12.000    0.000 
#    0.000    1.429    0.000    0.000    0.000    0.000 
#    0.000    0.000    0.000    0.000    0.000    0.000 
#
# Total GULP energy -78084.015251 kJ/mol
# GULP energy per Si atom -5577.429661 kJ/mol
# Density = 2.336478 g / cm^3
# Si number density = 23.418080 Si / 1000 Ang^3
#
#
#
# Elastic Constant Matrix: (Units=GPa)
#
#
# Indices 1 2 3 4 5 6 
#
# 1 138.7240 60.2756 39.7511 15.4067 -0.8356 3.3345
# 2 60.2756 163.9878 31.7095 45.6889 -3.0126 21.8145
# 3 39.7511 31.7095 85.6587 35.7561 -1.7421 7.4390
# 4 15.4067 45.6889 35.7561 50.0705 1.0197 1.0389
# 5 -0.8356 -3.0126 -1.7421 1.0197 26.7966 3.6044
# 6 3.3345 21.8145 7.4390 1.0389 3.6044 38.4060
#
#
#
# Elastic Compliance Matrix: (Units=1/GPa)
#
#
# Indices 1 2 3 4 5 6 
#
# 1 0.009980 -0.004276 -0.005162 0.004485 -0.001017 0.002536
# 2 -0.004276 0.010992 0.003032 -0.010799 0.002572 -0.006409
# 3 -0.005162 0.003032 0.019810 -0.015277 0.002715 -0.004953
# 4 0.004485 -0.010799 -0.015277 0.039282 -0.004649 0.008077
# 5 -0.001017 0.002572 0.002715 -0.004649 0.038656 -0.005401
# 6 0.002536 -0.006409 -0.004953 0.008077 -0.005401 0.030705
#
#
# Mechanical properties :
#
#
# Convention : Reuss Voigt Hill
#
# Bulk Modulus (GPa) = 35.75206 72.42698 54.08952
# Shear Modulus (GPa) = 29.14435 40.16356 34.65396
#
# Velocity S-wave (km/s) = 3.53161 4.14583 3.85098
# Velocity P-wave (km/s) = 5.65064 7.34249 6.55141
#
# Compressibility (1/GPa) = 0.02797042
#
# Stress axis : x y z
#
# Youngs Moduli (GPa) = 100.19725 90.97657 50.48042
#
# Poissons Ratio (x) = 0.38900 0.26056
# Poissons Ratio (y) = 0.42843 -0.15305
# Poissons Ratio (z) = 0.51718 -0.27583
#
# Static dielectric constant tensor:
#      x y z
#    x 1.896360 0.055670 0.014300 
#    y 0.055670 1.955630 -0.016760 
#    z 0.014300 -0.016760 1.935260 
# 
# From -- ./inp_files/190619.got.cif
#   From: 2010.05.17/outbox.cif.g08.bks.cpg/sg2_96_cif.got.tgz:190619.got - 2010.06.03 11:33:40.
