data_PCOD9061945
_publ_section_title
;
Structure prediction by ZEFSAII (Michael W. Deem and Ramdas Pophale) SiO2 
 PCOD9061945
Probable space group: P -1
;
_chemical_formula_sum "Si O2"
_cell_formula_units_Z 15
_cell_length_a 15.803560
_cell_length_b 4.991205
_cell_length_c 24.950130
_cell_angle_alpha 92.846294
_cell_angle_beta 18.878621
_cell_angle_gamma 83.596251
_cell_volume 554.229697
_symmetry_space_group_name_H-M "P -1"
_symmetry_group_IT_number 2
_symmetry_cell_setting 'triclinic'
loop_
_space_group_symop_operation_xyz
x,y,z
-x,-y,-z
loop_
_atom_site_type_symbol
_atom_site_label
_atom_site_fract_x
_atom_site_fract_y
_atom_site_fract_z
Si Si1 0.985934 0.580997 0.839449
Si Si2 0.640341 0.182117 0.604902
Si Si3 0.500000 0.500000 0.500000
Si Si4 0.553804 0.977475 0.383657
Si Si5 0.454695 0.071141 0.234485
Si Si6 0.128382 0.728536 0.963086
Si Si7 0.490812 0.629439 0.064924
Si Si8 0.155971 0.308507 0.305405
O O1 0.121430 0.767233 0.729629
O O2 0.753667 0.770757 0.027989
O O3 0.800745 0.482993 0.910754
O O4 0.338282 0.312792 0.641738
O O5 0.695012 0.994325 0.625364
O O6 0.288158 0.422824 0.828167
O O7 0.830803 0.356507 0.487334
O O8 0.660958 0.016858 0.534716
O O9 0.449975 0.297542 0.476683
O O10 0.875025 0.843086 0.160899
O O11 0.588360 0.284880 0.175647
O O12 0.227671 0.215107 0.323515
O O13 0.000000 0.000000 0.000000
O O14 0.253407 0.559935 0.237219
O O15 0.376121 0.992597 0.138925
O O16 0.500000 0.500000 0.000000
#
# Coordination Sequence:
#
# PCOD9061945 Si02
#       8
#     2   2   1   2   2   2   2   2
#     4  11  25  47  73 104 148 198 256 317 390 457
#     4  12  27  43  77 113 159 200 261 324 381 477
#     4  12  28  44  74 104 146 196 260 322 370 470
#     4  12  25  46  68 110 147 198 251 318 397 454
#     4  11  23  46  74 109 158 206 246 323 396 465
#     4  12  23  42  74 105 155 199 254 312 394 464
#     4  11  27  52  79 105 156 210 261 322 392 463
#     4  11  28  48  77 119 153 205 268 320 386 466
#
# _framework density 27.064591
#
# number of rings (size 3 to 8) (size 9 to 14) (size 15 to 20)
#    0.000    0.533    4.000    3.200    7.467    1.600 
#    0.000    0.000    0.000    0.000    0.000    0.000 
#    0.000    0.000    0.000    0.000    0.000    0.000 
#
# Total GULP energy -83845.504136 kJ/mol
# GULP energy per Si atom -5589.700276 kJ/mol
# Density = 2.700299 g / cm^3
# Si number density = 27.064591 Si / 1000 Ang^3
#
#
#
# Elastic Constant Matrix: (Units=GPa)
#
#
# Indices 1 2 3 4 5 6 
#
# 1 165.9249 24.3850 58.0378 -1.5150 24.0152 32.7060
# 2 24.3850 60.7451 37.3575 -6.9321 17.6184 9.8725
# 3 58.0378 37.3575 146.2864 -27.7674 3.3834 8.6436
# 4 -1.5150 -6.9321 -27.7674 55.8332 13.5205 0.6893
# 5 24.0152 17.6184 3.3834 13.5205 44.2078 -2.2785
# 6 32.7060 9.8725 8.6436 0.6893 -2.2785 44.7318
#
#
#
# Elastic Compliance Matrix: (Units=1/GPa)
#
#
# Indices 1 2 3 4 5 6 
#
# 1 0.009133 0.001077 -0.003360 0.000125 -0.005509 -0.006549
# 2 0.001077 0.023700 -0.005327 0.003015 -0.010832 -0.005587
# 3 -0.003360 -0.005327 0.010085 0.003727 0.002126 0.001735
# 4 0.000125 0.003015 0.003727 0.022220 -0.008466 -0.002251
# 5 -0.005509 -0.010832 0.002126 -0.008466 0.032759 0.007807
# 6 -0.006549 -0.005587 0.001735 -0.002251 0.007807 0.028474
#
#
# Mechanical properties :
#
#
# Convention : Reuss Voigt Hill
#
# Bulk Modulus (GPa) = 36.10400 68.05745 52.08072
# Shear Modulus (GPa) = 33.15118 45.83294 39.49206
#
# Velocity S-wave (km/s) = 3.50364 4.11964 3.82406
# Velocity P-wave (km/s) = 5.45309 6.91588 6.22759
#
# Compressibility (1/GPa) = 0.02769776
#
# Stress axis : x y z
#
# Youngs Moduli (GPa) = 109.48813 42.19478 99.15609
#
# Poissons Ratio (x) = -0.04543 0.33321
# Poissons Ratio (y) = -0.11789 0.52816
# Poissons Ratio (z) = 0.36793 0.22475
#
# Static dielectric constant tensor:
#      x y z
#    x 2.533360 -0.339250 0.103550 
#    y -0.339250 2.376700 -0.058960 
#    z 0.103550 -0.058960 2.182260 
# 
# From -- ./inp_files/80993.got.cif
#   From: 2010.05.17/outbox.cif.g08.bks.cpg/sg2_41_cif.got.tgz:80993.got - 2010.06.03 11:33:40.
