data_PCOD9061783
_publ_section_title
;
Structure prediction by ZEFSAII (Michael W. Deem and Ramdas Pophale) SiO2 
 PCOD9061783
Probable space group: P -1
;
_chemical_formula_sum "Si O2"
_cell_formula_units_Z 12
_cell_length_a 8.436763
_cell_length_b 16.173424
_cell_length_c 7.777855
_cell_angle_alpha 41.071306
_cell_angle_beta 51.968131
_cell_angle_gamma 47.423268
_cell_volume 500.967022
_symmetry_space_group_name_H-M "P -1"
_symmetry_group_IT_number 2
_symmetry_cell_setting 'triclinic'
loop_
_space_group_symop_operation_xyz
x,y,z
-x,-y,-z
loop_
_atom_site_type_symbol
_atom_site_label
_atom_site_fract_x
_atom_site_fract_y
_atom_site_fract_z
Si Si1 0.109106 0.872175 0.503058
Si Si2 0.834185 0.564468 0.847705
Si Si3 0.572157 0.484684 0.671801
Si Si4 0.575519 0.777511 0.204695
Si Si5 0.699692 0.852202 0.632476
Si Si6 0.953484 0.326998 0.880259
O O1 0.328782 0.875365 0.269915
O O2 0.924932 0.870091 0.495728
O O3 0.151482 0.742144 0.803091
O O4 0.000000 0.000000 0.500000
O O5 0.760515 0.728919 0.646749
O O6 0.941050 0.466139 0.767476
O O7 0.610517 0.544704 0.057845
O O8 0.000000 0.500000 0.000000
O O9 0.500000 0.500000 0.500000
O O10 0.578434 0.629710 0.480221
O O11 0.806435 0.365275 0.749234
O O12 0.792771 0.776456 0.152205
O O13 0.625272 0.794818 0.944624
O O14 0.500000 0.000000 0.500000
#
# Coordination Sequence:
#
# PCOD9061783 Si02
#       6
#     2   2   2   2   2   2
#     4  11  26  46  71 100 147 194 243 299 366 441
#     4  12  21  45  72 107 148 186 239 303 355 432
#     4  12  23  41  72 109 141 185 240 307 364 426
#     4  11  23  46  70 103 142 189 248 295 366 436
#     4  11  26  45  71 108 151 193 239 299 368 432
#     4  11  25  43  72 110 141 190 246 303 364 427
#
# _framework density 23.953672999999998
#
# number of rings (size 3 to 8) (size 9 to 14) (size 15 to 20)
#    0.000    0.667    6.667    1.000    2.333    3.333 
#    0.000    5.000    0.000    0.000    0.000    0.000 
#    0.000    0.000    0.000    0.000    0.000    0.000 
#
# Total GULP energy -67141.741418 kJ/mol
# GULP energy per Si atom -5595.145118 kJ/mol
# Density = 2.389915 g / cm^3
# Si number density = 23.953673 Si / 1000 Ang^3
#
#
#
# Elastic Constant Matrix: (Units=GPa)
#
#
# Indices 1 2 3 4 5 6 
#
# 1 103.0442 44.6272 52.9567 5.3287 5.4836 -26.5841
# 2 44.6272 141.2215 50.6872 8.6696 -14.4883 -15.4045
# 3 52.9567 50.6872 73.1347 4.6951 -4.4136 -17.0067
# 4 5.3287 8.6696 4.6951 57.8033 -11.5869 -12.3407
# 5 5.4836 -14.4883 -4.4136 -11.5869 44.0439 0.9870
# 6 -26.5841 -15.4045 -17.0067 -12.3407 0.9870 44.7827
#
#
#
# Elastic Compliance Matrix: (Units=1/GPa)
#
#
# Indices 1 2 3 4 5 6 
#
# 1 0.017476 -0.001517 -0.010448 -0.000037 -0.003865 0.005960
# 2 -0.001517 0.009865 -0.005489 -0.000274 0.002806 0.000271
# 3 -0.010448 -0.005489 0.025535 0.000506 0.002149 0.001699
# 4 -0.000037 -0.000274 0.000506 0.019434 0.004959 0.005322
# 5 -0.003865 0.002806 0.002149 0.004959 0.025622 0.000289
# 6 0.005960 0.000271 0.001699 0.005322 0.000289 0.028067
#
#
# Mechanical properties :
#
#
# Convention : Reuss Voigt Hill
#
# Bulk Modulus (GPa) = 55.65193 68.21585 61.93389
# Shear Modulus (GPa) = 29.95892 40.60126 35.28009
#
# Velocity S-wave (km/s) = 3.54036 4.12149 3.84193
# Velocity P-wave (km/s) = 6.32423 7.15465 6.75222
#
# Compressibility (1/GPa) = 0.01796883
#
# Stress axis : x y z
#
# Youngs Moduli (GPa) = 57.22071 101.37293 39.16145
#
# Poissons Ratio (x) = 0.15375 0.40917
# Poissons Ratio (y) = 0.08679 0.21494
# Poissons Ratio (z) = 0.59786 0.55640
#
# Static dielectric constant tensor:
#      x y z
#    x 2.040210 -0.080720 0.022240 
#    y -0.080720 1.993180 -0.004670 
#    z 0.022240 -0.004670 1.968710 
# 
# From -- ./inp_files/173953.got.cif
#   From: 2010.05.17/outbox.cif.g08.bks.cpg/sg2_87_cif.got.tgz:173953.got - 2010.06.03 11:33:40.
