data_PCOD9061861
_publ_section_title
;
Structure prediction by ZEFSAII (Michael W. Deem and Ramdas Pophale) SiO2 
 PCOD9061861
Probable space group: P -1
;
_chemical_formula_sum "Si O2"
_cell_formula_units_Z 12
_cell_length_a 11.774899
_cell_length_b 6.069512
_cell_length_c 14.234947
_cell_angle_alpha 89.233171
_cell_angle_beta 151.979073
_cell_angle_gamma 81.750215
_cell_volume 451.025264
_symmetry_space_group_name_H-M "P -1"
_symmetry_group_IT_number 2
_symmetry_cell_setting 'triclinic'
loop_
_space_group_symop_operation_xyz
x,y,z
-x,-y,-z
loop_
_atom_site_type_symbol
_atom_site_label
_atom_site_fract_x
_atom_site_fract_y
_atom_site_fract_z
Si Si1 0.209529 0.844967 0.341357
Si Si2 0.408630 0.940912 0.779724
Si Si3 0.735891 0.511033 0.110213
Si Si4 0.967031 0.251176 0.591210
Si Si5 0.728599 0.533305 0.755256
Si Si6 0.269002 0.786544 0.076526
O O1 0.080411 0.878204 0.348677
O O2 0.514011 0.785133 0.581910
O O3 0.216078 0.597645 0.302911
O O4 0.024036 0.032950 0.134297
O O5 0.533369 0.075342 0.798910
O O6 0.201583 0.110916 0.696214
O O7 0.280251 0.757001 0.646901
O O8 0.648333 0.779638 0.013236
O O9 0.988948 0.503487 0.353560
O O10 0.500000 0.500000 0.000000
O O11 0.755770 0.355568 0.034450
O O12 0.633306 0.380028 0.761980
O O13 0.000000 0.500000 0.000000
#
# Coordination Sequence:
#
# PCOD9061861 Si02
#       6
#     2   2   2   2   2   2
#     4  11  25  49  74 108 143 198 256 300 373 454
#     4  11  25  46  69 115 158 191 251 304 367 460
#     4  12  23  43  71 109 154 200 243 298 371 446
#     4  11  23  46  72 106 157 194 240 309 366 449
#     4  11  27  51  76 108 147 194 258 321 371 441
#     4  12  25  49  80 110 153 201 243 317 378 439
#
# _framework density 26.606048999999999
#
# number of rings (size 3 to 8) (size 9 to 14) (size 15 to 20)
#    0.000    0.667    3.333    4.000    2.333    1.333 
#   18.000    0.000    0.000    0.000    0.000    0.000 
#    0.000    0.000    0.000    0.000    0.000    0.000 
#
# Total GULP energy -67115.419525 kJ/mol
# GULP energy per Si atom -5592.951627 kJ/mol
# Density = 2.654549 g / cm^3
# Si number density = 26.606049 Si / 1000 Ang^3
#
#
#
# Elastic Constant Matrix: (Units=GPa)
#
#
# Indices 1 2 3 4 5 6 
#
# 1 86.4677 26.3418 29.1804 -7.7149 -4.2599 7.0382
# 2 26.3418 70.9307 44.2534 14.2762 6.9420 6.0453
# 3 29.1804 44.2534 156.0376 -4.1965 14.1136 -5.5730
# 4 -7.7149 14.2762 -4.1965 66.9327 -0.1617 -2.1052
# 5 -4.2599 6.9420 14.1136 -0.1617 44.4174 4.3983
# 6 7.0382 6.0453 -5.5730 -2.1052 4.3983 35.8523
#
#
#
# Elastic Compliance Matrix: (Units=1/GPa)
#
#
# Indices 1 2 3 4 5 6 
#
# 1 0.014124 -0.004864 -0.001538 0.002501 0.002850 -0.002394
# 2 -0.004864 0.020593 -0.005037 -0.005380 -0.001767 -0.003399
# 3 -0.001538 -0.005037 0.008478 0.001512 -0.002330 0.002844
# 4 0.002501 -0.005380 0.001512 0.016521 0.000506 0.001559
# 5 0.002850 -0.001767 -0.002330 0.000506 0.024158 -0.003558
# 6 -0.002394 -0.003399 0.002844 0.001559 -0.003558 0.029905
#
#
# Mechanical properties :
#
#
# Convention : Reuss Voigt Hill
#
# Bulk Modulus (GPa) = 49.21953 56.99856 53.10905
# Shear Modulus (GPa) = 34.86053 43.68452 39.27252
#
# Velocity S-wave (km/s) = 3.62366 4.05643 3.84614
# Velocity P-wave (km/s) = 6.00395 6.58857 6.30304
#
# Compressibility (1/GPa) = 0.02031714
#
# Stress axis : x y z
#
# Youngs Moduli (GPa) = 70.80061 48.56123 117.95519
#
# Poissons Ratio (x) = 0.23620 0.18140
# Poissons Ratio (y) = 0.34437 0.59412
# Poissons Ratio (z) = 0.10888 0.24459
#
# Static dielectric constant tensor:
#      x y z
#    x 2.058770 0.021930 0.028240 
#    y 0.021930 2.092700 0.024690 
#    z 0.028240 0.024690 2.122820 
# 
# From -- ./inp_files/509792.got.cif
#   From: 2010.05.17/outbox.cif.g08.bks.cpg/sg2_255_cif.got.tgz:509792.got - 2010.06.03 11:33:40.
