data_PCOD9061024
_publ_section_title
;
Structure prediction by ZEFSAII (Michael W. Deem and Ramdas Pophale) SiO2 
 PCOD9061024
Probable space group: P -1
;
_chemical_formula_sum "Si O2"
_cell_formula_units_Z 12
_cell_length_a 9.423146
_cell_length_b 10.535942
_cell_length_c 15.408937
_cell_angle_alpha 26.695844
_cell_angle_beta 133.200334
_cell_angle_gamma 139.531817
_cell_volume 446.000325
_symmetry_space_group_name_H-M "P -1"
_symmetry_group_IT_number 2
_symmetry_cell_setting 'triclinic'
loop_
_space_group_symop_operation_xyz
x,y,z
-x,-y,-z
loop_
_atom_site_type_symbol
_atom_site_label
_atom_site_fract_x
_atom_site_fract_y
_atom_site_fract_z
Si Si1 0.218681 0.421126 0.176905
Si Si2 0.696854 0.600603 0.090277
Si Si3 0.990218 0.209925 0.045220
Si Si4 0.686285 0.464302 0.360453
Si Si5 0.358208 0.811846 0.308614
Si Si6 0.173373 0.119269 0.576055
O O1 0.442645 0.428449 0.294944
O O2 0.203898 0.410545 0.073538
O O3 0.187612 0.680654 0.062375
O O4 0.983214 0.112990 0.275503
O O5 0.905613 0.659615 0.084496
O O6 0.707490 0.937754 0.914810
O O7 0.500000 0.500000 0.000000
O O8 0.687394 0.403385 0.294056
O O9 0.872124 0.826619 0.229940
O O10 0.705553 0.248985 0.577964
O O11 0.250042 0.473568 0.423071
O O12 0.615621 0.921337 0.336595
O O13 0.000000 0.000000 0.500000
#
# Coordination Sequence:
#
# PCOD9061024 Si02
#       6
#     2   2   2   2   2   2
#     4  11  23  44  75 105 140 187 244 294 353 423
#     4  12  27  50  71 105 150 191 236 294 362 425
#     4  11  25  45  70 107 145 186 239 295 353 428
#     4  12  25  47  73 106 140 191 238 293 357 416
#     4  11  27  46  73 109 145 185 245 294 354 433
#     4  11  23  44  71 112 144 185 240 301 355 416
#
# _framework density 26.905808
#
# number of rings (size 3 to 8) (size 9 to 14) (size 15 to 20)
#    0.000    0.667    5.000    2.000    4.667    1.333 
#    3.000    0.000    0.000    0.000    0.000    0.000 
#    0.000    0.000    0.000    0.000    0.000    0.000 
#
# Total GULP energy -67153.017622 kJ/mol
# GULP energy per Si atom -5596.084802 kJ/mol
# Density = 2.684457 g / cm^3
# Si number density = 26.905808 Si / 1000 Ang^3
#
#
#
# Elastic Constant Matrix: (Units=GPa)
#
#
# Indices 1 2 3 4 5 6 
#
# 1 145.1660 39.7075 30.5103 9.7805 -11.6735 6.0677
# 2 39.7075 138.2747 16.6499 4.0949 -1.8874 13.9983
# 3 30.5103 16.6499 71.0658 6.7099 -18.4696 6.7808
# 4 9.7805 4.0949 6.7099 46.1689 -0.7473 -7.0405
# 5 -11.6735 -1.8874 -18.4696 -0.7473 42.4663 5.3290
# 6 6.0677 13.9983 6.7808 -7.0405 5.3290 34.3002
#
#
#
# Elastic Compliance Matrix: (Units=1/GPa)
#
#
# Indices 1 2 3 4 5 6 
#
# 1 0.008154 -0.001919 -0.002600 -0.001249 0.001075 -0.000569
# 2 -0.001919 0.008196 -0.000789 -0.000660 -0.000147 -0.002962
# 3 -0.002600 -0.000789 0.018019 -0.002559 0.007605 -0.004487
# 4 -0.001249 -0.000660 -0.002559 0.023248 -0.001836 0.006053
# 5 0.001075 -0.000147 0.007605 -0.001836 0.027909 -0.006347
# 6 -0.000569 -0.002962 -0.004487 0.006053 -0.006347 0.033579
#
#
# Mechanical properties :
#
#
# Convention : Reuss Voigt Hill
#
# Bulk Modulus (GPa) = 42.10173 58.69355 50.39764
# Shear Modulus (GPa) = 36.32696 42.42966 39.37831
#
# Velocity S-wave (km/s) = 3.67843 3.97542 3.82980
# Velocity P-wave (km/s) = 5.80714 6.55238 6.19099
#
# Compressibility (1/GPa) = 0.02375199
#
# Stress axis : x y z
#
# Youngs Moduli (GPa) = 122.63306 122.01712 55.49763
#
# Poissons Ratio (x) = 0.23420 0.14428
# Poissons Ratio (y) = 0.23538 0.04380
# Poissons Ratio (z) = 0.31881 0.09631
#
# Static dielectric constant tensor:
#      x y z
#    x 4.079980 -1.240680 -2.576690 
#    y -1.240680 2.859510 1.478630 
#    z -2.576690 1.478630 5.363080 
# 
# From -- ./inp_files/491877.got.cif
#   From: 2010.05.17/outbox.cif.g08.bks.cpg/sg2_246_cif.got.tgz:491877.got - 2010.06.03 11:33:40.
