data_PCOD9061766
_publ_section_title
;
Structure prediction by ZEFSAII (Michael W. Deem and Ramdas Pophale) SiO2 
 PCOD9061766
Probable space group: P -1
;
_chemical_formula_sum "Si O2"
_cell_formula_units_Z 15
_cell_length_a 17.437653
_cell_length_b 6.070839
_cell_length_c 7.634507
_cell_angle_alpha 113.782362
_cell_angle_beta 55.438570
_cell_angle_gamma 90.158569
_cell_volume 581.014886
_symmetry_space_group_name_H-M "P -1"
_symmetry_group_IT_number 2
_symmetry_cell_setting 'triclinic'
loop_
_space_group_symop_operation_xyz
x,y,z
-x,-y,-z
loop_
_atom_site_type_symbol
_atom_site_label
_atom_site_fract_x
_atom_site_fract_y
_atom_site_fract_z
Si Si1 0.033223 0.714608 0.803549
Si Si2 0.665688 0.295125 0.795228
Si Si3 0.500024 0.312621 0.279131
Si Si4 0.823495 0.006251 0.779890
Si Si5 0.871428 0.490395 0.024141
Si Si6 0.000000 0.500000 0.500000
Si Si7 0.652499 0.828630 0.063887
Si Si8 0.660264 0.852521 0.450045
O O1 0.085831 0.566626 0.854619
O O2 0.068784 0.677600 0.549028
O O3 0.942775 0.594174 0.838015
O O4 0.000000 0.000000 0.000000
O O5 0.755150 0.100747 0.725630
O O6 0.648430 0.141208 0.601399
O O7 0.563045 0.368629 0.057443
O O8 0.687112 0.559468 0.839282
O O9 0.500000 0.500000 0.500000
O O10 0.392660 0.284132 0.388351
O O11 0.562968 0.026900 0.152213
O O12 0.918154 0.763447 0.587356
O O13 0.742674 0.943133 0.989040
O O14 0.851021 0.244931 0.897172
O O15 0.773284 0.709252 0.245941
O O16 0.621198 0.809494 0.297351
#
# Coordination Sequence:
#
# PCOD9061766 Si02
#       8
#     2   2   2   2   2   1   2   2
#     4  11  25  45  67  99 132 173 225 274 335 401
#     4  11  25  44  67 100 135 175 228 274 333 402
#     4  11  23  46  69  97 141 175 216 279 337 394
#     4  11  24  46  67  98 139 177 223 281 334 397
#     4  11  24  47  68  94 140 178 217 279 342 394
#     4  12  24  42  70  98 132 176 226 278 330 394
#     4  11  24  46  66  97 137 175 223 275 334 398
#     4  12  23  43  71  97 132 179 222 277 333 395
#
# _framework density 25.816894999999999
#
# number of rings (size 3 to 8) (size 9 to 14) (size 15 to 20)
#    0.000    0.800    4.000    3.200    0.000    2.133 
#    9.600    0.000    0.000    0.000    0.000    0.000 
#    0.000    0.000    0.000    0.000    0.000    0.000 
#
# Total GULP energy -83789.098444 kJ/mol
# GULP energy per Si atom -5585.939896 kJ/mol
# Density = 2.575813 g / cm^3
# Si number density = 25.816895 Si / 1000 Ang^3
#
#
#
# Elastic Constant Matrix: (Units=GPa)
#
#
# Indices 1 2 3 4 5 6 
#
# 1 71.8028 33.9014 37.1140 -6.4719 19.8641 2.3585
# 2 33.9014 104.0377 42.9821 15.4572 2.9882 23.2866
# 3 37.1140 42.9821 128.0117 24.7515 -4.0032 18.7542
# 4 -6.4719 15.4572 24.7515 50.1599 19.1108 3.0304
# 5 19.8641 2.9882 -4.0032 19.1108 54.7858 5.3508
# 6 2.3585 23.2866 18.7542 3.0304 5.3508 55.6434
#
#
#
# Elastic Compliance Matrix: (Units=1/GPa)
#
#
# Indices 1 2 3 4 5 6 
#
# 1 0.030734 -0.009310 -0.011092 0.019034 -0.018779 0.007102
# 2 -0.009310 0.014876 0.000288 -0.007810 0.005903 -0.006070
# 3 -0.011092 0.000288 0.014236 -0.011945 0.009675 -0.004728
# 4 0.019034 -0.007810 -0.011945 0.038454 -0.021392 0.006451
# 5 -0.018779 0.005903 0.009675 -0.021392 0.033593 -0.007000
# 6 0.007102 -0.006070 -0.004728 0.006451 -0.007000 0.022127
#
#
# Mechanical properties :
#
#
# Convention : Reuss Voigt Hill
#
# Bulk Modulus (GPa) = 50.97522 59.09412 55.03467
# Shear Modulus (GPa) = 24.90203 44.77479 34.83841
#
# Velocity S-wave (km/s) = 3.10911 4.16904 3.67746
# Velocity P-wave (km/s) = 5.71634 6.79072 6.27656
#
# Compressibility (1/GPa) = 0.01961737
#
# Stress axis : x y z
#
# Youngs Moduli (GPa) = 32.53730 67.22199 70.24479
#
# Poissons Ratio (x) = 0.62585 0.77919
# Poissons Ratio (y) = 0.30293 -0.02026
# Poissons Ratio (z) = 0.36092 -0.01938
#
# Static dielectric constant tensor:
#      x y z
#    x 2.153370 -0.039230 0.129180 
#    y -0.039230 2.036540 -0.116190 
#    z 0.129180 -0.116190 2.332480 
# 
# From -- ./inp_files/56569.got.cif
#   From: 2010.05.17/outbox.cif.g08.bks.cpg/sg2_29_cif.got.tgz:56569.got - 2010.06.03 11:33:40.
