data_PCOD9061099
_publ_section_title
;
Structure prediction by ZEFSAII (Michael W. Deem and Ramdas Pophale) SiO2 
 PCOD9061099
Probable space group: P -1
;
_chemical_formula_sum "Si O2"
_cell_formula_units_Z 12
_cell_length_a 9.267501
_cell_length_b 10.423919
_cell_length_c 14.812443
_cell_angle_alpha 31.975417
_cell_angle_beta 49.294548
_cell_angle_gamma 64.110848
_cell_volume 549.677323
_symmetry_space_group_name_H-M "P -1"
_symmetry_group_IT_number 2
_symmetry_cell_setting 'triclinic'
loop_
_space_group_symop_operation_xyz
x,y,z
-x,-y,-z
loop_
_atom_site_type_symbol
_atom_site_label
_atom_site_fract_x
_atom_site_fract_y
_atom_site_fract_z
Si Si1 0.540311 0.416396 0.737203
Si Si2 0.488140 0.788661 0.318302
Si Si3 0.101881 0.593799 0.302940
Si Si4 0.082844 0.892078 0.443989
Si Si5 0.086627 0.290707 0.046273
Si Si6 0.821178 0.921967 0.232699
O O1 0.538223 0.223992 0.770828
O O2 0.664623 0.337904 0.813301
O O3 0.667631 0.702991 0.486820
O O4 0.314015 0.403807 0.854761
O O5 0.500000 0.500000 0.500000
O O6 0.680903 0.963417 0.185153
O O7 0.295684 0.846986 0.402491
O O8 0.000000 0.500000 0.500000
O O9 0.985617 0.794145 0.206227
O O10 0.050399 0.375041 0.380519
O O11 0.093354 0.083747 0.242485
O O12 0.000000 0.000000 0.500000
O O13 0.941960 0.154143 0.105706
O O14 0.000000 0.500000 0.000000
#
# Coordination Sequence:
#
# PCOD9061099 Si02
#       6
#     2   2   2   2   2   2
#     4  10  21  41  72  96 133 178 240 278 332 414
#     4  10  20  40  72 105 129 183 234 279 348 408
#     4  10  17  42  70  98 125 187 230 273 344 411
#     4  12  25  43  70 102 146 180 225 293 350 404
#     4  12  28  43  66 106 140 186 235 281 350 411
#     4  10  21  42  72  97 137 180 233 281 339 414
#
# _framework density 21.83099
#
# number of rings (size 3 to 8) (size 9 to 14) (size 15 to 20)
#    0.000    1.333    8.333    0.000    4.667    5.333 
#    0.000    3.333    0.000    0.000    0.000    0.000 
#    0.000    0.000    0.000    0.000    0.000    0.000 
#
# Total GULP energy -67086.983106 kJ/mol
# GULP energy per Si atom -5590.581926 kJ/mol
# Density = 2.178130 g / cm^3
# Si number density = 21.830990 Si / 1000 Ang^3
#
#
#
# Elastic Constant Matrix: (Units=GPa)
#
#
# Indices 1 2 3 4 5 6 
#
# 1 195.9358 83.1434 52.5044 -8.8333 -50.2026 -1.8924
# 2 83.1434 207.9375 56.9390 -11.7970 -45.0219 -12.3473
# 3 52.5044 56.9390 90.1830 -5.6599 -39.6678 -1.5796
# 4 -8.8333 -11.7970 -5.6599 34.8620 -1.3569 -6.2406
# 5 -50.2026 -45.0219 -39.6678 -1.3569 51.1815 -1.3667
# 6 -1.8924 -12.3473 -1.5796 -6.2406 -1.3667 36.0752
#
#
#
# Elastic Compliance Matrix: (Units=1/GPa)
#
#
# Indices 1 2 3 4 5 6 
#
# 1 0.007402 -0.001447 -0.000975 0.001488 0.005280 0.000308
# 2 -0.001447 0.006915 -0.001854 0.002293 0.003361 0.002734
# 3 -0.000975 -0.001854 0.018083 0.002691 0.011527 0.001008
# 4 0.001488 0.002293 0.002691 0.031733 0.006583 0.006720
# 5 0.005280 0.003361 0.011527 0.006583 0.036901 0.004469
# 6 0.000308 0.002734 0.001008 0.006720 0.004469 0.030048
#
#
# Mechanical properties :
#
#
# Convention : Reuss Voigt Hill
#
# Bulk Modulus (GPa) = 41.92899 97.69221 69.81060
# Shear Modulus (GPa) = 33.87940 44.52171 39.20056
#
# Velocity S-wave (km/s) = 3.94368 4.52085 4.24209
# Velocity P-wave (km/s) = 6.32335 8.49101 7.48605
#
# Compressibility (1/GPa) = 0.02384985
#
# Stress axis : x y z
#
# Youngs Moduli (GPa) = 135.10506 144.60567 55.30044
#
# Poissons Ratio (x) = 0.20922 0.05390
# Poissons Ratio (y) = 0.19547 0.10251
# Poissons Ratio (z) = 0.13168 0.26805
#
# Static dielectric constant tensor:
#      x y z
#    x 1.866990 0.025920 0.085170 
#    y 0.025920 1.730430 0.036570 
#    z 0.085170 0.036570 1.956670 
# 
# From -- ./inp_files/211941.got.cif
#   From: 2010.05.17/outbox.cif.g08.bks.cpg/sg2_106_cif.got.tgz:211941.got - 2010.06.03 11:33:40.
