data_PCOD9061901
_publ_section_title
;
Structure prediction by ZEFSAII (Michael W. Deem and Ramdas Pophale) SiO2 
 PCOD9061901
Probable space group: P -1
;
_chemical_formula_sum "Si O2"
_cell_formula_units_Z 16
_cell_length_a 11.178614
_cell_length_b 5.253785
_cell_length_c 15.953239
_cell_angle_alpha 112.301943
_cell_angle_beta 124.189017
_cell_angle_gamma 59.572939
_cell_volume 662.338742
_symmetry_space_group_name_H-M "P -1"
_symmetry_group_IT_number 2
_symmetry_cell_setting 'triclinic'
loop_
_space_group_symop_operation_xyz
x,y,z
-x,-y,-z
loop_
_atom_site_type_symbol
_atom_site_label
_atom_site_fract_x
_atom_site_fract_y
_atom_site_fract_z
Si Si1 0.389272 0.164737 0.171586
Si Si2 0.546581 0.569862 0.346030
Si Si3 0.910320 0.141861 0.147181
Si Si4 0.755839 0.872504 0.726074
Si Si5 0.136700 0.444135 0.978543
Si Si6 0.893424 0.832474 0.470716
Si Si7 0.688732 0.653467 0.242130
Si Si8 0.313005 0.606023 0.456769
O O1 0.466584 0.331083 0.284839
O O2 0.269447 0.102705 0.180050
O O3 0.534547 0.877251 0.162471
O O4 0.294666 0.367285 0.084424
O O5 0.618146 0.541154 0.278873
O O6 0.677864 0.513098 0.459500
O O7 0.405241 0.885540 0.342494
O O8 0.887101 0.295531 0.064870
O O9 0.802267 0.396033 0.197809
O O10 0.093202 0.058715 0.228038
O O11 0.862315 0.859044 0.100990
O O12 0.768906 0.555062 0.655422
O O13 0.000000 0.500000 0.000000
O O14 0.786700 0.817460 0.348469
O O15 0.000000 0.500000 0.500000
O O16 0.782704 0.042039 0.526232
O O17 0.000000 0.000000 0.500000
O O18 0.500000 0.500000 0.500000
#
# Coordination Sequence:
#
# PCOD9061901 Si02
#       8
#     2   2   2   2   2   2   2   2
#     4  11  24  46  75 101 151 191 242 313 373 433
#     4  11  23  46  73 104 155 194 242 310 371 438
#     4  12  29  47  76 109 145 188 254 303 364 461
#     4  11  24  43  73 111 141 198 247 309 369 437
#     4  12  27  49  77 108 146 186 245 313 383 428
#     4  12  27  48  72 105 156 203 240 304 371 439
#     4  11  27  47  70 107 148 197 244 298 375 443
#     4  12  23  44  74 112 145 194 260 301 363 446
#
# _framework density 24.156825999999999
#
# number of rings (size 3 to 8) (size 9 to 14) (size 15 to 20)
#    0.000    0.500    3.750    3.750    5.250    4.000 
#    0.000    0.000    0.000    0.000    0.000    0.000 
#    0.000    0.000    0.000    0.000    0.000    0.000 
#
# Total GULP energy -89617.904376 kJ/mol
# GULP energy per Si atom -5601.119024 kJ/mol
# Density = 2.410184 g / cm^3
# Si number density = 24.156826 Si / 1000 Ang^3
#
#
#
# Elastic Constant Matrix: (Units=GPa)
#
#
# Indices 1 2 3 4 5 6 
#
# 1 68.4901 32.5596 6.9758 -4.0803 3.1672 -22.6867
# 2 32.5596 121.6602 22.4876 1.8534 0.9687 -14.6341
# 3 6.9758 22.4876 77.8807 -6.5043 7.7424 -9.2511
# 4 -4.0803 1.8534 -6.5043 50.9418 0.6271 -6.5947
# 5 3.1672 0.9687 7.7424 0.6271 21.9431 4.5392
# 6 -22.6867 -14.6341 -9.2511 -6.5947 4.5392 42.4068
#
#
#
# Elastic Compliance Matrix: (Units=1/GPa)
#
#
# Indices 1 2 3 4 5 6 
#
# 1 0.020721 -0.004526 0.001630 0.003533 -0.005752 0.011044
# 2 -0.004526 0.009945 -0.002652 -0.001058 0.001150 0.000144
# 3 0.001630 -0.002652 0.014828 0.002754 -0.006318 0.004296
# 4 0.003533 -0.001058 0.002754 0.021088 -0.003227 0.005750
# 5 -0.005752 0.001150 -0.006318 -0.003227 0.050740 -0.009991
# 6 0.011044 0.000144 0.004296 0.005750 -0.009991 0.032440
#
#
# Mechanical properties :
#
#
# Convention : Reuss Voigt Hill
#
# Bulk Modulus (GPa) = 29.07173 43.56414 36.31793
# Shear Modulus (GPa) = 29.01488 36.79221 32.90355
#
# Velocity S-wave (km/s) = 3.46946 3.90687 3.69464
# Velocity P-wave (km/s) = 5.30191 6.19875 5.76779
#
# Compressibility (1/GPa) = 0.03439768
#
# Stress axis : x y z
#
# Youngs Moduli (GPa) = 48.25998 100.54806 67.43875
#
# Poissons Ratio (x) = 0.45512 -0.10990
# Poissons Ratio (y) = 0.21844 0.17884
# Poissons Ratio (z) = -0.07865 0.26664
#
# Static dielectric constant tensor:
#      x y z
#    x 2.054800 0.055460 0.010570 
#    y 0.055460 1.996050 -0.012790 
#    z 0.010570 -0.012790 1.994910 
# 
# From -- ./inp_files/96984.got.cif
#   From: 2010.05.17/outbox.cif.g08.bks.cpg/sg2_49_cif.got.tgz:96984.got - 2010.06.03 11:33:40.
