data_PCOD9061602
_publ_section_title
;
Structure prediction by ZEFSAII (Michael W. Deem and Ramdas Pophale) SiO2 
 PCOD9061602
Probable space group: P -1
;
_chemical_formula_sum "Si O2"
_cell_formula_units_Z 16
_cell_length_a 8.077864
_cell_length_b 9.018031
_cell_length_c 12.563855
_cell_angle_alpha 51.730914
_cell_angle_beta 69.225992
_cell_angle_gamma 71.999783
_cell_volume 666.847550
_symmetry_space_group_name_H-M "P -1"
_symmetry_group_IT_number 2
_symmetry_cell_setting 'triclinic'
loop_
_space_group_symop_operation_xyz
x,y,z
-x,-y,-z
loop_
_atom_site_type_symbol
_atom_site_label
_atom_site_fract_x
_atom_site_fract_y
_atom_site_fract_z
Si Si1 0.296804 0.713804 0.320840
Si Si2 0.197831 0.949730 0.028223
Si Si3 0.889025 0.362008 0.151188
Si Si4 0.214468 0.304581 0.573312
Si Si5 0.399067 0.940532 0.397226
Si Si6 0.427144 0.719002 0.893080
Si Si7 0.719578 0.658698 0.218522
Si Si8 0.088946 0.003095 0.592022
O O1 0.215559 0.516991 0.437892
O O2 0.295217 0.834560 0.376669
O O3 0.510075 0.651711 0.283493
O O4 0.217708 0.832758 0.184622
O O5 0.330380 0.832469 0.964903
O O6 0.262841 0.155555 0.938428
O O7 0.000000 0.000000 0.000000
O O8 0.727695 0.303872 0.144933
O O9 0.814203 0.473534 0.222802
O O10 0.989417 0.160828 0.251185
O O11 0.000000 0.500000 0.000000
O O12 0.412297 0.188280 0.574198
O O13 0.185413 0.313079 0.703040
O O14 0.091004 0.187634 0.581853
O O15 0.294148 0.952077 0.527094
O O16 0.437951 0.145854 0.250065
O O17 0.500000 0.500000 0.000000
O O18 0.000000 0.000000 0.500000
#
# Coordination Sequence:
#
# PCOD9061602 Si02
#       8
#     2   2   2   2   2   2   2   2
#     4  11  24  43  77 108 139 196 256 303 370 445
#     4  12  26  46  70 109 156 200 250 314 374 445
#     4  12  27  47  71 108 153 195 248 314 381 453
#     4  11  23  47  77 104 143 191 255 307 368 447
#     4  11  24  47  76 107 148 195 255 318 366 453
#     4  12  27  45  76 114 150 202 259 309 383 449
#     4  11  23  45  74 104 144 192 256 304 370 445
#     4  12  28  46  71 108 150 194 246 310 389 445
#
# _framework density 23.993490000000001
#
# number of rings (size 3 to 8) (size 9 to 14) (size 15 to 20)
#    0.000    0.500    3.750    5.250    7.000    3.000 
#    0.000    1.875    0.000    0.000    0.000    0.000 
#    0.000    0.000    0.000    0.000    0.000    0.000 
#
# Total GULP energy -89657.355728 kJ/mol
# GULP energy per Si atom -5603.584733 kJ/mol
# Density = 2.393888 g / cm^3
# Si number density = 23.993490 Si / 1000 Ang^3
#
#
#
# Elastic Constant Matrix: (Units=GPa)
#
#
# Indices 1 2 3 4 5 6 
#
# 1 82.8453 41.9623 36.6207 -4.2526 7.1071 27.7026
# 2 41.9623 149.3653 62.9745 -15.9106 -3.4029 24.9000
# 3 36.6207 62.9745 183.0308 -34.8795 -0.6755 28.6935
# 4 -4.2526 -15.9106 -34.8795 56.8613 4.6965 -2.6695
# 5 7.1071 -3.4029 -0.6755 4.6965 47.4612 4.5646
# 6 27.7026 24.9000 28.6935 -2.6695 4.5646 49.0813
#
#
#
# Elastic Compliance Matrix: (Units=1/GPa)
#
#
# Indices 1 2 3 4 5 6 
#
# 1 0.016669 -0.003086 -0.001305 -0.000576 -0.002013 -0.006924
# 2 -0.003086 0.008784 -0.001988 0.000838 0.001136 -0.001612
# 3 -0.001305 -0.001988 0.007525 0.003846 0.000015 -0.002446
# 4 -0.000576 0.000838 0.003846 0.020226 -0.001695 -0.001091
# 5 -0.002013 0.001136 0.000015 -0.001695 0.021771 -0.001566
# 6 -0.006924 -0.001612 -0.002446 -0.001091 -0.001566 0.026617
#
#
# Mechanical properties :
#
#
# Convention : Reuss Voigt Hill
#
# Bulk Modulus (GPa) = 49.45562 77.59514 63.52538
# Shear Modulus (GPa) = 41.29134 48.92635 45.10884
#
# Velocity S-wave (km/s) = 4.15292 4.52059 4.34065
# Velocity P-wave (km/s) = 6.60700 7.72386 7.18716
#
# Compressibility (1/GPa) = 0.02022015
#
# Stress axis : x y z
#
# Youngs Moduli (GPa) = 59.99163 113.84236 132.88553
#
# Poissons Ratio (x) = 0.35127 0.17345
# Poissons Ratio (y) = 0.18511 0.26421
# Poissons Ratio (z) = 0.07830 0.22635
#
# Static dielectric constant tensor:
#      x y z
#    x 2.065300 -0.052380 -0.055740 
#    y -0.052380 1.876460 -0.008990 
#    z -0.055740 -0.008990 1.916510 
# 
# From -- ./inp_files/380999.got.cif
#   From: 2010.05.17/outbox.cif.g08.bks.cpg/sg2_191_cif.got.tgz:380999.got - 2010.06.03 11:33:40.
