data_PCOD9061878
_publ_section_title
;
Structure prediction by ZEFSAII (Michael W. Deem and Ramdas Pophale) SiO2 
 PCOD9061878
Probable space group: P -1
;
_chemical_formula_sum "Si O2"
_cell_formula_units_Z 16
_cell_length_a 9.708212
_cell_length_b 10.864568
_cell_length_c 9.598557
_cell_angle_alpha 102.062689
_cell_angle_beta 43.872065
_cell_angle_gamma 101.543510
_cell_volume 684.330845
_symmetry_space_group_name_H-M "P -1"
_symmetry_group_IT_number 2
_symmetry_cell_setting 'triclinic'
loop_
_space_group_symop_operation_xyz
x,y,z
-x,-y,-z
loop_
_atom_site_type_symbol
_atom_site_label
_atom_site_fract_x
_atom_site_fract_y
_atom_site_fract_z
Si Si1 0.501004 0.264065 0.098104
Si Si2 0.968443 0.076982 0.401972
Si Si3 0.297682 0.728689 0.314761
Si Si4 0.803059 0.489384 0.042631
Si Si5 0.596248 0.722874 0.322670
Si Si6 0.191989 0.457172 0.266028
Si Si7 0.190805 0.061768 0.954574
Si Si8 0.423473 0.092956 0.369359
O O1 0.321205 0.349458 0.207340
O O2 0.422000 0.154124 0.232876
O O3 0.585734 0.201459 0.881425
O O4 0.681638 0.353349 0.063982
O O5 0.917922 0.218984 0.509736
O O6 0.758258 0.008290 0.487502
O O7 0.000000 0.000000 0.500000
O O8 0.129537 0.071991 0.162873
O O9 0.386780 0.737064 0.404477
O O10 0.329622 0.586843 0.212957
O O11 0.855638 0.548812 0.865152
O O12 0.652170 0.579903 0.246930
O O13 0.000000 0.500000 0.000000
O O14 0.748416 0.804284 0.129526
O O15 0.595846 0.790383 0.485546
O O16 0.000000 0.500000 0.500000
O O17 0.373686 0.975190 0.778644
O O18 0.000000 0.000000 0.000000
#
# Coordination Sequence:
#
# PCOD9061878 Si02
#       8
#     2   2   2   2   2   2   2   2
#     4  11  25  48  69 101 145 183 227 295 349 411
#     4  12  28  44  70 106 137 183 240 285 348 419
#     4  11  23  46  72  96 138 188 232 280 354 419
#     4  11  26  45  71 106 138 180 236 287 347 421
#     4  12  24  46  73  98 142 186 232 287 354 414
#     4  11  25  45  70 102 140 184 234 285 349 419
#     4  12  26  48  71 101 142 184 231 293 354 409
#     4  12  28  45  70 105 144 181 235 296 344 414
#
# _framework density 23.380504999999999
#
# number of rings (size 3 to 8) (size 9 to 14) (size 15 to 20)
#    0.000    0.500    5.000    2.625    8.750    3.500 
#    0.000    0.000    0.000    0.000    0.000    0.000 
#    0.000    0.000    0.000    0.000    0.000    0.000 
#
# Total GULP energy -89484.219242 kJ/mol
# GULP energy per Si atom -5592.763703 kJ/mol
# Density = 2.332729 g / cm^3
# Si number density = 23.380505 Si / 1000 Ang^3
#
#
#
# Elastic Constant Matrix: (Units=GPa)
#
#
# Indices 1 2 3 4 5 6 
#
# 1 102.7214 -3.1592 4.2167 1.3051 -6.4592 -7.0747
# 2 -3.1592 34.1643 -18.9655 6.6080 -8.8391 -0.0448
# 3 4.2167 -18.9655 107.4607 2.5866 -1.5279 3.9941
# 4 1.3051 6.6080 2.5866 40.6610 1.3693 1.4601
# 5 -6.4592 -8.8391 -1.5279 1.3693 40.9231 -1.2571
# 6 -7.0747 -0.0448 3.9941 1.4601 -1.2571 21.2688
#
#
#
# Elastic Compliance Matrix: (Units=1/GPa)
#
#
# Indices 1 2 3 4 5 6 
#
# 1 0.010178 0.001502 -0.000221 -0.000755 0.002059 0.003604
# 2 0.001502 0.036658 0.006685 -0.006732 0.008639 0.000294
# 3 -0.000221 0.006685 0.010630 -0.001751 0.001808 -0.001828
# 4 -0.000755 -0.006732 -0.001751 0.025977 -0.002565 -0.001872
# 5 0.002059 0.008639 0.001808 -0.002565 0.026846 0.002126
# 6 0.003604 0.000294 -0.001828 -0.001872 0.002126 0.048814
#
#
# Mechanical properties :
#
#
# Convention : Reuss Voigt Hill
#
# Bulk Modulus (GPa) = 13.62454 23.17004 18.39729
# Shear Modulus (GPa) = 29.82660 38.05420 33.94040
#
# Velocity S-wave (km/s) = 3.57557 4.03873 3.81419
# Velocity P-wave (km/s) = 4.78396 5.62850 5.22333
#
# Compressibility (1/GPa) = 0.07339696
#
# Stress axis : x y z
#
# Youngs Moduli (GPa) = 98.25539 27.27943 94.07374
#
# Poissons Ratio (x) = -0.04097 0.02077
# Poissons Ratio (y) = -0.14758 -0.62885
# Poissons Ratio (z) = 0.02169 -0.18235
#
# Static dielectric constant tensor:
#      x y z
#    x 1.981050 0.041660 0.039200 
#    y 0.041660 2.050760 -0.168760 
#    z 0.039200 -0.168760 1.988870 
# 
# From -- ./inp_files/188159.got.cif
#   From: 2010.05.17/outbox.cif.g08.bks.cpg/sg2_95_cif.got.tgz:188159.got - 2010.06.03 11:33:40.
