data_PCOD9061045
_publ_section_title
;
Structure prediction by ZEFSAII (Michael W. Deem and Ramdas Pophale) SiO2 
 PCOD9061045
Probable space group: P -1
;
_chemical_formula_sum "Si O2"
_cell_formula_units_Z 16
_cell_length_a 11.625299
_cell_length_b 9.206442
_cell_length_c 9.644683
_cell_angle_alpha 118.953017
_cell_angle_beta 52.899268
_cell_angle_gamma 103.923275
_cell_volume 718.442322
_symmetry_space_group_name_H-M "P -1"
_symmetry_group_IT_number 2
_symmetry_cell_setting 'triclinic'
loop_
_space_group_symop_operation_xyz
x,y,z
-x,-y,-z
loop_
_atom_site_type_symbol
_atom_site_label
_atom_site_fract_x
_atom_site_fract_y
_atom_site_fract_z
Si Si1 0.938817 0.003452 0.845786
Si Si2 0.222177 0.126404 0.642168
Si Si3 0.489310 0.164528 0.989586
Si Si4 0.346807 0.987493 0.766037
Si Si5 0.913841 0.337629 0.508713
Si Si6 0.188825 0.873320 0.294633
Si Si7 0.413350 0.516357 0.215336
Si Si8 0.544204 0.652160 0.447417
O O1 0.017549 0.817176 0.703656
O O2 0.869580 0.037527 0.759855
O O3 0.062467 0.132789 0.825996
O O4 0.811567 0.023570 0.057643
O O5 0.293536 0.294002 0.627935
O O6 0.325893 0.041980 0.647321
O O7 0.212889 0.007341 0.460454
O O8 0.653570 0.213248 0.888402
O O9 0.427623 0.115061 0.862787
O O10 0.394394 0.325080 0.186828
O O11 0.500000 0.000000 0.000000
O O12 0.438391 0.813096 0.634190
O O13 0.913611 0.259662 0.628273
O O14 0.743905 0.385348 0.626809
O O15 0.000000 0.500000 0.500000
O O16 0.513536 0.602902 0.290067
O O17 0.500000 0.500000 0.000000
O O18 0.500000 0.500000 0.500000
#
# Coordination Sequence:
#
# PCOD9061045 Si02
#       8
#     2   2   2   2   2   2   2   2
#     4  11  25  46  73 101 138 189 236 278 344 434
#     4  11  24  43  68 101 137 180 231 284 347 407
#     4  12  23  42  75 104 131 183 239 281 337 420
#     4  12  24  45  74 100 136 184 233 285 347 417
#     4  11  24  42  66 105 140 171 227 294 345 392
#     4  11  23  44  72 101 136 184 237 278 336 426
#     4  12  26  45  69 102 140 178 232 293 345 401
#     4  12  27  43  66 103 143 178 227 293 348 400
#
# _framework density 22.270403999999999
#
# number of rings (size 3 to 8) (size 9 to 14) (size 15 to 20)
#    0.000    0.500    3.750    6.000    0.000    1.000 
#    0.000    0.625    0.000    0.000    0.000    0.000 
#    0.000    0.000    0.000    0.000    0.000    0.000 
#
# Total GULP energy -89521.936720 kJ/mol
# GULP energy per Si atom -5595.121045 kJ/mol
# Density = 2.221972 g / cm^3
# Si number density = 22.270404 Si / 1000 Ang^3
#
#
#
# Elastic Constant Matrix: (Units=GPa)
#
#
# Indices 1 2 3 4 5 6 
#
# 1 106.5543 34.8151 31.6045 -1.9794 1.4494 7.1006
# 2 34.8151 139.9968 35.7385 -7.0124 -1.7897 19.1633
# 3 31.6045 35.7385 87.5055 1.7387 -9.9581 4.5897
# 4 -1.9794 -7.0124 1.7387 39.5334 -0.1398 -3.7449
# 5 1.4494 -1.7897 -9.9581 -0.1398 46.7929 -4.9801
# 6 7.1006 19.1633 4.5897 -3.7449 -4.9801 37.8012
#
#
#
# Elastic Compliance Matrix: (Units=1/GPa)
#
#
# Indices 1 2 3 4 5 6 
#
# 1 0.011042 -0.001764 -0.003365 0.000298 -0.001221 -0.000903
# 2 -0.001764 0.008893 -0.002892 0.001256 -0.000620 -0.003783
# 3 -0.003365 -0.002892 0.014164 -0.001231 0.003075 0.000662
# 4 0.000298 0.001256 -0.001231 0.025778 0.000069 0.002020
# 5 -0.001221 -0.000620 0.003075 0.000069 0.022372 0.003124
# 6 -0.000903 -0.003783 0.000662 0.002020 0.003124 0.029073
#
#
# Mechanical properties :
#
#
# Convention : Reuss Voigt Hill
#
# Bulk Modulus (GPa) = 55.38144 59.81920 57.60032
# Shear Modulus (GPa) = 37.48633 40.28539 38.88586
#
# Velocity S-wave (km/s) = 4.10718 4.25775 4.18314
# Velocity P-wave (km/s) = 6.88575 7.14773 7.01796
#
# Compressibility (1/GPa) = 0.01805659
#
# Stress axis : x y z
#
# Youngs Moduli (GPa) = 90.56653 112.45138 70.60201
#
# Poissons Ratio (x) = 0.19836 0.23757
# Poissons Ratio (y) = 0.15976 0.20417
# Poissons Ratio (z) = 0.30475 0.32519
#
# Static dielectric constant tensor:
#      x y z
#    x 1.843780 -0.007670 -0.009250 
#    y -0.007670 1.882680 -0.032560 
#    z -0.009250 -0.032560 1.827510 
# 
# From -- ./inp_files/245350.got.cif
#   From: 2010.05.17/outbox.cif.g08.bks.cpg/sg2_123_cif.got.tgz:245350.got - 2010.06.03 11:33:40.
