data_PCOD9061152
_publ_section_title
;
Structure prediction by ZEFSAII (Michael W. Deem and Ramdas Pophale) SiO2 
 PCOD9061152
Probable space group: P -1
;
_chemical_formula_sum "Si O2"
_cell_formula_units_Z 16
_cell_length_a 16.980413
_cell_length_b 15.119725
_cell_length_c 12.199585
_cell_angle_alpha 50.890446
_cell_angle_beta 148.197481
_cell_angle_gamma 153.066098
_cell_volume 633.301191
_symmetry_space_group_name_H-M "P -1"
_symmetry_group_IT_number 2
_symmetry_cell_setting 'triclinic'
loop_
_space_group_symop_operation_xyz
x,y,z
-x,-y,-z
loop_
_atom_site_type_symbol
_atom_site_label
_atom_site_fract_x
_atom_site_fract_y
_atom_site_fract_z
Si Si1 0.441689 0.589251 0.990471
Si Si2 0.163151 0.784224 0.225305
Si Si3 0.831266 0.185601 0.041220
Si Si4 0.905626 0.964370 0.668637
Si Si5 0.182086 0.228891 0.084387
Si Si6 0.916683 0.378638 0.191523
Si Si7 0.136115 0.800148 0.528286
Si Si8 0.337002 0.119301 0.775343
O O1 0.730856 0.809035 0.085130
O O2 0.427153 0.445903 0.121646
O O3 0.486521 0.687375 0.079529
O O4 0.132815 0.418572 0.698145
O O5 0.075030 0.760274 0.014975
O O6 0.078475 0.594407 0.266160
O O7 0.500000 0.000000 0.500000
O O8 0.022427 0.794703 0.119938
O O9 0.977303 0.379954 0.138383
O O10 0.467399 0.966846 0.770789
O O11 0.874399 0.100061 0.229150
O O12 0.846525 0.052462 0.574794
O O13 0.735411 0.763285 0.703362
O O14 0.806281 0.902269 0.473160
O O15 0.000000 0.000000 0.000000
O O16 0.959550 0.302507 0.383597
O O17 0.567813 0.186509 0.935663
#
# Coordination Sequence:
#
# PCOD9061152 Si02
#       8
#     2   2   2   2   2   2   2   2
#     4  12  26  45  72 106 143 198 243 304 370 432
#     4  12  28  45  73 113 145 191 252 307 367 440
#     4  11  23  46  74 103 146 190 241 310 372 434
#     4  12  25  47  73 103 149 195 249 294 372 450
#     4  12  28  49  72 108 154 192 245 310 367 443
#     4  11  23  45  75 101 147 189 243 303 374 435
#     4  11  23  44  73 108 136 192 245 309 366 438
#     4  11  23  46  70 102 145 188 249 298 369 442
#
# _framework density 25.26444
#
# number of rings (size 3 to 8) (size 9 to 14) (size 15 to 20)
#    0.000    0.500    5.000    3.375    3.500    1.500 
#    2.250    0.000    0.000    0.000    0.000    0.000 
#    0.000    0.000    0.000    0.000    0.000    0.000 
#
# Total GULP energy -89490.482853 kJ/mol
# GULP energy per Si atom -5593.155178 kJ/mol
# Density = 2.520694 g / cm^3
# Si number density = 25.264440 Si / 1000 Ang^3
#
#
#
# Elastic Constant Matrix: (Units=GPa)
#
#
# Indices 1 2 3 4 5 6 
#
# 1 80.8057 1.3582 16.0423 4.8533 -7.1414 -29.5231
# 2 1.3582 104.2504 13.4893 -6.9845 -15.5904 -19.9142
# 3 16.0423 13.4893 100.7474 -4.9728 -13.5669 -10.8077
# 4 4.8533 -6.9845 -4.9728 29.2692 5.6213 -14.4366
# 5 -7.1414 -15.5904 -13.5669 5.6213 33.3371 -3.7530
# 6 -29.5231 -19.9142 -10.8077 -14.4366 -3.7530 41.2382
#
#
#
# Elastic Compliance Matrix: (Units=1/GPa)
#
#
# Indices 1 2 3 4 5 6 
#
# 1 0.019665 0.004959 -0.000450 0.005810 0.007516 0.019073
# 2 0.004959 0.013814 0.000278 0.007785 0.007869 0.013735
# 3 -0.000450 0.000278 0.011194 0.003303 0.004518 0.004313
# 4 0.005810 0.007785 0.003303 0.048112 0.001012 0.025719
# 5 0.007516 0.007869 0.004518 0.001012 0.038557 0.014228
# 6 0.019073 0.013735 0.004313 0.025719 0.014228 0.055966
#
#
# Mechanical properties :
#
#
# Convention : Reuss Voigt Hill
#
# Bulk Modulus (GPa) = 18.43433 38.62035 28.52734
# Shear Modulus (GPa) = 25.53404 37.76315 31.64860
#
# Velocity S-wave (km/s) = 3.18255 3.87035 3.54318
# Velocity P-wave (km/s) = 4.56259 5.94074 5.29668
#
# Compressibility (1/GPa) = 0.05424662
#
# Stress axis : x y z
#
# Youngs Moduli (GPa) = 50.85112 72.39161 89.33046
#
# Poissons Ratio (x) = -0.35897 0.04023
# Poissons Ratio (y) = -0.25216 -0.02485
# Poissons Ratio (z) = 0.02290 -0.02014
#
# Static dielectric constant tensor:
#      x y z
#    x 2.059960 0.048000 -0.006560 
#    y 0.048000 2.064650 0.019840 
#    z -0.006560 0.019840 1.993520 
# 
# From -- ./inp_files/466071.got.cif
#   From: 2010.05.17/outbox.cif.g08.bks.cpg/sg2_234_cif.got.tgz:466071.got - 2010.06.03 11:33:40.
