data_PCOD9061657
_publ_section_title
;
Structure prediction by ZEFSAII (Michael W. Deem and Ramdas Pophale) SiO2 
 PCOD9061657
Probable space group: P -1
;
_chemical_formula_sum "Si O2"
_cell_formula_units_Z 16
_cell_length_a 15.098523
_cell_length_b 11.461238
_cell_length_c 9.228058
_cell_angle_alpha 111.733964
_cell_angle_beta 129.664461
_cell_angle_gamma 107.669747
_cell_volume 748.757282
_symmetry_space_group_name_H-M "P -1"
_symmetry_group_IT_number 2
_symmetry_cell_setting 'triclinic'
loop_
_space_group_symop_operation_xyz
x,y,z
-x,-y,-z
loop_
_atom_site_type_symbol
_atom_site_label
_atom_site_fract_x
_atom_site_fract_y
_atom_site_fract_z
Si Si1 0.649553 0.220713 0.303732
Si Si2 0.076418 0.185502 0.576418
Si Si3 0.699505 0.233227 0.688235
Si Si4 0.650231 0.947797 0.638902
Si Si5 0.332371 0.503908 0.470295
Si Si6 0.001202 0.422418 0.616691
Si Si7 0.570639 0.459149 0.740475
Si Si8 0.979771 0.851736 0.831582
O O1 0.731377 0.290367 0.582915
O O2 0.580996 0.307618 0.268192
O O3 0.818118 0.321763 0.437448
O O4 0.500000 0.000000 0.000000
O O5 0.998608 0.266253 0.542531
O O6 0.089049 0.175921 0.413175
O O7 0.268312 0.358376 0.919629
O O8 0.000000 0.000000 0.500000
O O9 0.493327 0.096668 0.435757
O O10 0.709841 0.091713 0.645247
O O11 0.832471 0.399648 0.024376
O O12 0.536866 0.735616 0.377147
O O13 0.828008 0.050009 0.946356
O O14 0.435007 0.458957 0.576290
O O15 0.352228 0.531372 0.327856
O O16 0.144763 0.332550 0.276449
O O17 0.000000 0.500000 0.500000
O O18 0.000000 0.000000 0.000000
#
# Coordination Sequence:
#
# PCOD9061657 Si02
#       8
#     2   2   2   2   2   2   2   2
#     4  12  28  43  72 110 146 187 242 293 354 434
#     4  12  28  44  73 108 144 185 243 298 360 422
#     4  11  25  45  75 100 147 187 238 293 358 428
#     4  11  23  45  76 101 135 188 240 286 359 420
#     4  11  24  47  73 104 142 190 235 291 361 425
#     4  12  27  50  76 103 146 196 239 298 364 431
#     4  11  24  47  78  99 145 186 238 297 359 422
#     4  12  26  46  70 102 141 186 231 293 358 426
#
# _framework density 21.368741
#
# number of rings (size 3 to 8) (size 9 to 14) (size 15 to 20)
#    0.000    0.500    3.750    3.375    8.750    3.500 
#    0.000    0.000    0.000    0.000    0.000    0.000 
#    0.000    0.000    0.000    0.000    0.000    0.000 
#
# Total GULP energy -89141.379995 kJ/mol
# GULP energy per Si atom -5571.336250 kJ/mol
# Density = 2.132010 g / cm^3
# Si number density = 21.368741 Si / 1000 Ang^3
#
#
#
# Elastic Constant Matrix: (Units=GPa)
#
#
# Indices 1 2 3 4 5 6 
#
# 1 100.1076 42.0495 51.5885 11.1973 -6.1436 11.1979
# 2 42.0495 99.1897 26.6411 19.9682 -7.6247 -17.2331
# 3 51.5885 26.6411 111.4127 18.4507 0.8807 2.9158
# 4 11.1973 19.9682 18.4507 30.4976 -6.6528 -6.7336
# 5 -6.1436 -7.6247 0.8807 -6.6528 30.9972 12.6836
# 6 11.1979 -17.2331 2.9158 -6.7336 12.6836 31.2310
#
#
#
# Elastic Compliance Matrix: (Units=1/GPa)
#
#
# Indices 1 2 3 4 5 6 
#
# 1 0.018614 -0.008092 -0.006586 0.001156 0.007602 -0.013362
# 2 -0.008092 0.016438 0.000574 -0.006309 -0.003899 0.012141
# 3 -0.006586 0.000574 0.012898 -0.006179 -0.003496 0.001562
# 4 0.001156 -0.006309 -0.006179 0.042376 0.006677 0.003106
# 5 0.007602 -0.003899 -0.003496 0.006677 0.042712 -0.020457
# 6 -0.013362 0.012141 0.001562 0.003106 -0.020457 0.052342
#
#
# Mechanical properties :
#
#
# Convention : Reuss Voigt Hill
#
# Bulk Modulus (GPa) = 50.65378 61.25201 55.95289
# Shear Modulus (GPa) = 22.70995 31.24057 26.97526
#
# Velocity S-wave (km/s) = 3.26354 3.82773 3.55684
# Velocity P-wave (km/s) = 6.16093 6.94708 6.56578
#
# Compressibility (1/GPa) = 0.01974187
#
# Stress axis : x y z
#
# Youngs Moduli (GPa) = 53.72268 60.83571 77.53201
#
# Poissons Ratio (x) = 0.49229 0.51062
# Poissons Ratio (y) = 0.43473 -0.04452
# Poissons Ratio (z) = 0.35382 -0.03493
#
# Static dielectric constant tensor:
#      x y z
#    x 1.786760 -0.035920 -0.011610 
#    y -0.035920 1.959890 -0.041390 
#    z -0.011610 -0.041390 1.763750 
# 
# From -- ./inp_files/308207.got.cif
#   From: 2010.05.17/outbox.cif.g08.bks.cpg/sg2_155_cif.got.tgz:308207.got - 2010.06.03 11:33:40.
