data_PCOD9061955
_publ_section_title
;
Structure prediction by ZEFSAII (Michael W. Deem and Ramdas Pophale) SiO2 
 PCOD9061955
Probable space group: P -1
;
_chemical_formula_sum "Si O2"
_cell_formula_units_Z 14
_cell_length_a 11.999624
_cell_length_b 7.723099
_cell_length_c 9.321553
_cell_angle_alpha 67.622628
_cell_angle_beta 118.583439
_cell_angle_gamma 69.320578
_cell_volume 527.461685
_symmetry_space_group_name_H-M "P -1"
_symmetry_group_IT_number 2
_symmetry_cell_setting 'triclinic'
loop_
_space_group_symop_operation_xyz
x,y,z
-x,-y,-z
loop_
_atom_site_type_symbol
_atom_site_label
_atom_site_fract_x
_atom_site_fract_y
_atom_site_fract_z
Si Si1 0.329507 0.196846 0.240969
Si Si2 0.364533 0.787099 0.872511
Si Si3 0.830839 0.363145 0.192616
Si Si4 0.229251 0.976976 0.019869
Si Si5 0.207003 0.078418 0.422696
Si Si6 0.111516 0.566796 0.482646
Si Si7 0.314466 0.640298 0.409511
O O1 0.290864 0.079363 0.133132
O O2 0.500000 0.000000 0.500000
O O3 0.199070 0.271253 0.261578
O O4 0.296468 0.422254 0.068838
O O5 0.192364 0.834453 0.753444
O O6 0.327660 0.976456 0.669224
O O7 0.500000 0.500000 0.000000
O O8 0.369260 0.843564 0.021172
O O9 0.802375 0.457806 0.306584
O O10 0.017497 0.230483 0.304446
O O11 0.211224 0.804366 0.153903
O O12 0.046253 0.189108 0.774662
O O13 0.275496 0.834301 0.448871
O O14 0.260543 0.491618 0.486708
O O15 0.000000 0.500000 0.500000
O O16 0.500000 0.500000 0.500000
#
# Coordination Sequence:
#
# PCOD9061955 Si02
#       7
#     2   2   2   2   2   2   2
#     4  11  26  50  72 110 156 201 253 327 403 458
#     4  12  24  44  74 111 148 200 258 323 384 462
#     4  12  24  47  76 109 153 197 259 326 389 463
#     4  11  25  47  76 111 152 206 264 315 389 477
#     4  11  23  46  75 104 151 200 260 308 388 470
#     4  12  24  48  79 118 152 201 264 323 388 467
#     4  11  25  48  75 113 158 204 256 319 389 466
#
# _framework density 26.542211999999999
#
# number of rings (size 3 to 8) (size 9 to 14) (size 15 to 20)
#    0.000    0.571    4.286    3.857    0.000    2.286 
#    7.714    3.571    0.000    0.000    0.000    0.000 
#    0.000    0.000    0.000    0.000    0.000    0.000 
#
# Total GULP energy -78157.096329 kJ/mol
# GULP energy per Si atom -5582.649738 kJ/mol
# Density = 2.648180 g / cm^3
# Si number density = 26.542212 Si / 1000 Ang^3
#
#
#
# Elastic Constant Matrix: (Units=GPa)
#
#
# Indices 1 2 3 4 5 6 
#
# 1 162.7854 37.2284 67.7847 -6.4439 -35.3217 -28.9382
# 2 37.2284 65.4562 10.7596 33.4331 -13.5398 -16.1655
# 3 67.7847 10.7596 171.9667 2.8555 -35.9195 -15.2423
# 4 -6.4439 33.4331 2.8555 37.3298 -8.8035 5.1403
# 5 -35.3217 -13.5398 -35.9195 -8.8035 59.9169 -4.2117
# 6 -28.9382 -16.1655 -15.2423 5.1403 -4.2117 47.0792
#
#
#
# Elastic Compliance Matrix: (Units=1/GPa)
#
#
# Indices 1 2 3 4 5 6 
#
# 1 0.012092 -0.012676 -0.003187 0.014642 0.004565 0.000858
# 2 -0.012676 0.052830 0.004222 -0.052096 0.000569 0.017455
# 3 -0.003187 0.004222 0.007820 -0.004540 0.003294 0.002813
# 4 0.014642 -0.052096 -0.004540 0.079972 0.004575 -0.018680
# 5 0.004565 0.000569 0.003294 0.004575 0.022549 0.005586
# 6 0.000858 0.017455 0.002813 -0.018680 0.005586 0.031211
#
#
# Mechanical properties :
#
#
# Convention : Reuss Voigt Hill
#
# Bulk Modulus (GPa) = 20.21809 70.19486 45.20648
# Shear Modulus (GPa) = 20.30525 47.82756 34.06641
#
# Velocity S-wave (km/s) = 2.76890 4.24954 3.58646
# Velocity P-wave (km/s) = 4.22567 7.11210 5.84971
#
# Compressibility (1/GPa) = 0.04946065
#
# Stress axis : x y z
#
# Youngs Moduli (GPa) = 82.70240 18.92853 127.88078
#
# Poissons Ratio (x) = 0.23994 0.40751
# Poissons Ratio (y) = 1.04833 -0.53993
# Poissons Ratio (z) = 0.26354 -0.07992
#
# Static dielectric constant tensor:
#      x y z
#    x 1.960270 -0.010530 -0.018030 
#    y -0.010530 2.172990 -0.021970 
#    z -0.018030 -0.021970 2.137510 
# 
# From -- ./inp_files/243083.got.cif
#   From: 2010.05.17/outbox.cif.g08.bks.cpg/sg2_122_cif.got.tgz:243083.got - 2010.06.03 11:33:40.
