data_PCOD9061904
_publ_section_title
;
Structure prediction by ZEFSAII (Michael W. Deem and Ramdas Pophale) SiO2 
 PCOD9061904
Probable space group: P -1
;
_chemical_formula_sum "Si O2"
_cell_formula_units_Z 14
_cell_length_a 14.675941
_cell_length_b 19.842079
_cell_length_c 11.932511
_cell_angle_alpha 139.235909
_cell_angle_beta 31.818623
_cell_angle_gamma 161.392570
_cell_volume 560.364823
_symmetry_space_group_name_H-M "P -1"
_symmetry_group_IT_number 2
_symmetry_cell_setting 'triclinic'
loop_
_space_group_symop_operation_xyz
x,y,z
-x,-y,-z
loop_
_atom_site_type_symbol
_atom_site_label
_atom_site_fract_x
_atom_site_fract_y
_atom_site_fract_z
Si Si1 0.038651 0.943816 0.164449
Si Si2 0.550904 0.551444 0.335051
Si Si3 0.820943 0.117481 0.244162
Si Si4 0.726645 0.198389 0.096292
Si Si5 0.597717 0.317556 0.234902
Si Si6 0.850715 0.831374 0.836608
Si Si7 0.071282 0.439359 0.268611
O O1 0.277669 0.115823 0.231000
O O2 0.938184 0.979530 0.226988
O O3 0.717749 0.704588 0.249183
O O4 0.295742 0.002711 0.897880
O O5 0.449502 0.587177 0.571680
O O6 0.207424 0.303586 0.343563
O O7 0.865514 0.634832 0.144451
O O8 0.970374 0.109375 0.160935
O O9 0.100819 0.355384 0.213613
O O10 0.500000 0.000000 0.500000
O O11 0.581757 0.233605 0.252343
O O12 0.768777 0.241999 0.242438
O O13 0.500000 0.000000 0.000000
O O14 0.000000 0.500000 0.000000
O O15 0.440950 0.652313 0.077244
O O16 0.000000 0.500000 0.500000
#
# Coordination Sequence:
#
# PCOD9061904 Si02
#       7
#     2   2   2   2   2   2   2
#     4  12  25  49  70 107 144 189 251 295 373 440
#     4  11  26  50  72 108 150 191 246 304 368 444
#     4  12  26  45  71 107 145 191 244 302 365 442
#     4  11  23  46  73 105 147 194 244 301 371 436
#     4  12  27  45  78 108 145 194 246 305 372 443
#     4  11  26  47  74 102 148 192 241 304 371 434
#     4  11  24  45  73 107 146 191 247 304 371 437
#
# _framework density 24.983723999999999
#
# number of rings (size 3 to 8) (size 9 to 14) (size 15 to 20)
#    0.000    0.571    4.286    3.857    4.000    3.429 
#    0.000    0.000    0.000    0.000    0.000    0.000 
#    0.000    0.000    0.000    0.000    0.000    0.000 
#
# Total GULP energy -78217.275743 kJ/mol
# GULP energy per Si atom -5586.948267 kJ/mol
# Density = 2.492686 g / cm^3
# Si number density = 24.983724 Si / 1000 Ang^3
#
#
#
# Elastic Constant Matrix: (Units=GPa)
#
#
# Indices 1 2 3 4 5 6 
#
# 1 146.4816 30.0675 20.7203 14.6758 -0.3934 -1.7265
# 2 30.0675 65.1723 22.4488 26.0623 4.8831 6.0907
# 3 20.7203 22.4488 143.6228 40.6754 1.4171 10.0808
# 4 14.6758 26.0623 40.6754 46.1830 2.3748 10.2093
# 5 -0.3934 4.8831 1.4171 2.3748 26.6342 1.5111
# 6 -1.7265 6.0907 10.0808 10.2093 1.5111 44.6022
#
#
#
# Elastic Compliance Matrix: (Units=1/GPa)
#
#
# Indices 1 2 3 4 5 6 
#
# 1 0.007637 -0.003360 -0.000573 -0.000267 0.000731 0.000920
# 2 -0.003360 0.021483 0.000330 -0.011082 -0.002989 -0.000500
# 3 -0.000573 0.000330 0.009324 -0.008156 0.000180 -0.000314
# 4 -0.000267 -0.011082 -0.008156 0.036294 -0.000494 -0.004944
# 5 0.000731 -0.002989 0.000180 -0.000494 0.038184 -0.000785
# 6 0.000920 -0.000500 -0.000314 -0.004944 -0.000785 0.023754
#
#
# Mechanical properties :
#
#
# Convention : Reuss Voigt Hill
#
# Bulk Modulus (GPa) = 32.01192 55.75001 43.88097
# Shear Modulus (GPa) = 32.40599 42.28657 37.34628
#
# Velocity S-wave (km/s) = 3.60541 4.11854 3.87049
# Velocity P-wave (km/s) = 5.49299 6.70668 6.12994
#
# Compressibility (1/GPa) = 0.03123836
#
# Stress axis : x y z
#
# Youngs Moduli (GPa) = 130.93995 46.54896 107.25186
#
# Poissons Ratio (x) = 0.15640 0.06142
# Poissons Ratio (y) = 0.43996 -0.03539
# Poissons Ratio (z) = 0.07499 -0.01536
#
# Static dielectric constant tensor:
#      x y z
#    x 2.030740 -0.025230 0.030530 
#    y -0.025230 2.054730 0.021830 
#    z 0.030530 0.021830 1.978300 
# 
# From -- ./inp_files/457704.got.cif
#   From: 2010.05.17/outbox.cif.g08.bks.cpg/sg2_229_cif.got.tgz:457704.got - 2010.06.03 11:33:40.
