data_PCOD9061473
_publ_section_title
;
Structure prediction by ZEFSAII (Michael W. Deem and Ramdas Pophale) SiO2 
 PCOD9061473
Probable space group: P -1
;
_chemical_formula_sum "Si O2"
_cell_formula_units_Z 14
_cell_length_a 12.197383
_cell_length_b 12.039378
_cell_length_c 8.472545
_cell_angle_alpha 50.630418
_cell_angle_beta 63.559526
_cell_angle_gamma 43.314278
_cell_volume 659.512812
_symmetry_space_group_name_H-M "P -1"
_symmetry_group_IT_number 2
_symmetry_cell_setting 'triclinic'
loop_
_space_group_symop_operation_xyz
x,y,z
-x,-y,-z
loop_
_atom_site_type_symbol
_atom_site_label
_atom_site_fract_x
_atom_site_fract_y
_atom_site_fract_z
Si Si1 0.205732 0.429025 0.813781
Si Si2 0.089800 0.407718 0.363845
Si Si3 0.373883 0.702791 0.822130
Si Si4 0.639196 0.977264 0.336993
Si Si5 0.486979 0.670765 0.424647
Si Si6 0.734110 0.923973 0.965133
Si Si7 0.884700 0.328396 0.041163
O O1 0.336812 0.395032 0.643630
O O2 0.176089 0.565533 0.847428
O O3 0.037470 0.527906 0.748365
O O4 0.267104 0.222150 0.007038
O O5 0.206550 0.189571 0.514469
O O6 0.000000 0.500000 0.500000
O O7 0.170501 0.499171 0.191616
O O8 0.427184 0.705515 0.609890
O O9 0.204020 0.750236 0.875703
O O10 0.374936 0.842647 0.801113
O O11 0.500000 0.500000 0.000000
O O12 0.500000 0.000000 0.500000
O O13 0.666989 0.927728 0.177498
O O14 0.500000 0.500000 0.500000
O O15 0.369534 0.867760 0.226720
O O16 0.921964 0.825833 0.948868
#
# Coordination Sequence:
#
# PCOD9061473 Si02
#       7
#     2   2   2   2   2   2   2
#     4  11  24  45  73  99 139 178 228 283 334 412
#     4  11  23  45  71 104 133 180 230 279 340 401
#     4  12  28  45  70 102 139 181 228 286 344 406
#     4  12  26  44  73 103 138 182 229 283 340 407
#     4  12  26  45  68 101 138 181 228 282 345 403
#     4  11  25  46  69 104 135 181 231 280 341 408
#     4  11  25  46  70 101 141 179 226 283 344 406
#
# _framework density 21.227792000000001
#
# number of rings (size 3 to 8) (size 9 to 14) (size 15 to 20)
#    0.000    0.571    4.286    4.714    8.000    2.286 
#    0.000    0.000    0.000    0.000    0.000    0.000 
#    0.000    0.000    0.000    0.000    0.000    0.000 
#
# Total GULP energy -78290.727204 kJ/mol
# GULP energy per Si atom -5592.194800 kJ/mol
# Density = 2.117948 g / cm^3
# Si number density = 21.227792 Si / 1000 Ang^3
#
#
#
# Elastic Constant Matrix: (Units=GPa)
#
#
# Indices 1 2 3 4 5 6 
#
# 1 73.3954 29.3141 14.3568 -0.3124 -27.0378 0.8914
# 2 29.3141 86.0761 25.7987 -16.2990 -7.5772 -5.0217
# 3 14.3568 25.7987 104.9554 -8.2083 -2.1505 -14.9619
# 4 -0.3124 -16.2990 -8.2083 55.9812 -3.1968 -4.4200
# 5 -27.0378 -7.5772 -2.1505 -3.1968 38.0500 2.5011
# 6 0.8914 -5.0217 -14.9619 -4.4200 2.5011 35.2761
#
#
#
# Elastic Compliance Matrix: (Units=1/GPa)
#
#
# Indices 1 2 3 4 5 6 
#
# 1 0.021643 -0.006043 -0.001765 -0.001351 0.014181 -0.003330
# 2 -0.006043 0.015162 -0.002328 0.004124 -0.001187 0.001925
# 3 -0.001765 -0.002328 0.011075 0.001230 -0.001294 0.004656
# 4 -0.001351 0.004124 0.001230 0.019590 0.001347 0.003502
# 5 0.014181 -0.001187 -0.001294 0.001347 0.036391 -0.003488
# 6 -0.003330 0.001925 0.004656 0.003502 -0.003488 0.031367
#
#
# Mechanical properties :
#
#
# Convention : Reuss Voigt Hill
#
# Bulk Modulus (GPa) = 36.22164 44.81845 40.52005
# Shear Modulus (GPa) = 30.35789 38.85862 34.60825
#
# Velocity S-wave (km/s) = 3.78577 4.28314 4.04211
# Velocity P-wave (km/s) = 6.01745 6.75421 6.39645
#
# Compressibility (1/GPa) = 0.02760780
#
# Stress axis : x y z
#
# Youngs Moduli (GPa) = 46.20520 65.95408 90.29436
#
# Poissons Ratio (x) = 0.39858 0.15935
# Poissons Ratio (y) = 0.27923 0.21018
# Poissons Ratio (z) = 0.08154 0.15352
#
# Static dielectric constant tensor:
#      x y z
#    x 1.778760 0.000910 -0.004120 
#    y 0.000910 1.812660 0.010530 
#    z -0.004120 0.010530 1.740040 
# 
# From -- ./inp_files/155390.got.cif
#   From: 2010.05.17/outbox.cif.g08.bks.cpg/sg2_78_cif.got.tgz:155390.got - 2010.06.03 11:33:40.
