data_PCOD9061075
_publ_section_title
;
Structure prediction by ZEFSAII (Michael W. Deem and Ramdas Pophale) SiO2 
 PCOD9061075
Probable space group: P -1
;
_chemical_formula_sum "Si O2"
_cell_formula_units_Z 14
_cell_length_a 15.185347
_cell_length_b 8.939284
_cell_length_c 14.651829
_cell_angle_alpha 30.994480
_cell_angle_beta 139.137444
_cell_angle_gamma 139.897280
_cell_volume 628.680457
_symmetry_space_group_name_H-M "P -1"
_symmetry_group_IT_number 2
_symmetry_cell_setting 'triclinic'
loop_
_space_group_symop_operation_xyz
x,y,z
-x,-y,-z
loop_
_atom_site_type_symbol
_atom_site_label
_atom_site_fract_x
_atom_site_fract_y
_atom_site_fract_z
Si Si1 0.620809 0.758731 0.401894
Si Si2 0.448804 0.184833 0.067536
Si Si3 0.160924 0.886680 0.093504
Si Si4 0.942952 0.820331 0.642847
Si Si5 0.414579 0.487180 0.702547
Si Si6 0.271441 0.003270 0.320332
Si Si7 0.006473 0.849605 0.308650
O O1 0.500000 0.500000 0.500000
O O2 0.779631 0.805312 0.534065
O O3 0.613239 0.662364 0.340479
O O4 0.579764 0.063652 0.221325
O O5 0.319129 0.941874 0.148353
O O6 0.500000 0.500000 0.000000
O O7 0.393220 0.247192 0.893150
O O8 0.062133 0.531786 0.184602
O O9 0.184229 0.957989 0.181160
O O10 0.099575 0.113677 0.871744
O O11 0.024724 0.003252 0.699317
O O12 0.000000 0.000000 0.500000
O O13 0.318455 0.703049 0.527982
O O14 0.580911 0.710790 0.719897
O O15 0.167162 0.031936 0.302937
O O16 0.000000 0.500000 0.500000
#
# Coordination Sequence:
#
# PCOD9061075 Si02
#       7
#     2   2   2   2   2   2   2
#     4  12  25  48  75 103 145 190 242 294 363 427
#     4  12  26  44  73 111 143 184 240 303 360 428
#     4  12  25  49  70 103 148 189 241 300 359 432
#     4  12  28  49  73 104 146 193 244 300 357 432
#     4  11  24  43  72 106 143 182 238 299 356 425
#     4  11  23  44  72 105 139 185 238 295 357 423
#     4  12  28  45  73 103 143 192 240 294 369 432
#
# _framework density 22.268865000000002
#
# number of rings (size 3 to 8) (size 9 to 14) (size 15 to 20)
#    0.000    0.286    4.286    3.857    8.000    1.143 
#    0.000    0.000    0.000    0.000    0.000    0.000 
#    0.000    0.000    0.000    0.000    0.000    0.000 
#
# Total GULP energy -78455.361619 kJ/mol
# GULP energy per Si atom -5603.954401 kJ/mol
# Density = 2.221818 g / cm^3
# Si number density = 22.268865 Si / 1000 Ang^3
#
#
#
# Elastic Constant Matrix: (Units=GPa)
#
#
# Indices 1 2 3 4 5 6 
#
# 1 88.6476 -0.9527 0.9665 9.4775 -12.7957 -2.6168
# 2 -0.9527 64.3716 13.6861 5.3312 -3.1286 -14.3799
# 3 0.9665 13.6861 104.5447 8.5106 -0.9359 -9.4161
# 4 9.4775 5.3312 8.5106 35.8370 0.0233 -2.5423
# 5 -12.7957 -3.1286 -0.9359 0.0233 42.6172 5.3492
# 6 -2.6168 -14.3799 -9.4161 -2.5423 5.3492 43.2947
#
#
#
# Elastic Compliance Matrix: (Units=1/GPa)
#
#
# Indices 1 2 3 4 5 6 
#
# 1 0.012183 0.000683 0.000133 -0.003333 0.003670 0.000343
# 2 0.000683 0.017257 -0.001627 -0.001993 0.000784 0.005205
# 3 0.000133 -0.001627 0.010085 -0.002078 -0.000051 0.001545
# 4 -0.003333 -0.001993 -0.002078 0.029618 -0.001282 0.000582
# 5 0.003670 0.000784 -0.000051 -0.001282 0.024961 -0.002688
# 6 0.000343 0.005205 0.001545 0.000582 -0.002688 0.025549
#
#
# Mechanical properties :
#
#
# Convention : Reuss Voigt Hill
#
# Bulk Modulus (GPa) = 26.38391 31.66263 29.02327
# Shear Modulus (GPa) = 37.33869 40.60737 38.97303
#
# Velocity S-wave (km/s) = 4.09922 4.27488 4.18797
# Velocity P-wave (km/s) = 5.85478 6.21413 6.03713
#
# Compressibility (1/GPa) = 0.03790189
#
# Stress axis : x y z
#
# Youngs Moduli (GPa) = 82.08378 57.94810 99.15709
#
# Poissons Ratio (x) = -0.03958 -0.01319
# Poissons Ratio (y) = -0.05607 0.16137
# Poissons Ratio (z) = -0.01092 0.09430
#
# Static dielectric constant tensor:
#      x y z
#    x 1.820070 0.008380 0.013310 
#    y 0.008380 1.803870 -0.001760 
#    z 0.013310 -0.001760 1.805220 
# 
# From -- ./inp_files/157393.got.cif
#   From: 2010.05.17/outbox.cif.g08.bks.cpg/sg2_79_cif.got.tgz:157393.got - 2010.06.03 11:33:40.
