data_PCOD9061055
_publ_section_title
;
Structure prediction by ZEFSAII (Michael W. Deem and Ramdas Pophale) SiO2 
 PCOD9061055
Probable space group: P -1
;
_chemical_formula_sum "Si O2"
_cell_formula_units_Z 16
_cell_length_a 11.554703
_cell_length_b 11.720191
_cell_length_c 11.765402
_cell_angle_alpha 141.079826
_cell_angle_beta 108.848462
_cell_angle_gamma 99.475984
_cell_volume 676.815575
_symmetry_space_group_name_H-M "P -1"
_symmetry_group_IT_number 2
_symmetry_cell_setting 'triclinic'
loop_
_space_group_symop_operation_xyz
x,y,z
-x,-y,-z
loop_
_atom_site_type_symbol
_atom_site_label
_atom_site_fract_x
_atom_site_fract_y
_atom_site_fract_z
Si Si1 0.011928 0.164324 0.531546
Si Si2 0.305382 0.271112 0.297566
Si Si3 0.184289 0.545596 0.468256
Si Si4 0.411805 0.155930 0.640658
Si Si5 0.333285 0.398003 0.656691
Si Si6 0.335739 0.043414 0.791571
Si Si7 0.253972 0.710583 0.094780
Si Si8 0.796230 0.232621 0.121522
O O1 0.163530 0.285552 0.582199
O O2 0.077811 0.417684 0.809481
O O3 0.000000 0.000000 0.500000
O O4 0.836779 0.016622 0.292539
O O5 0.500000 0.500000 0.500000
O O6 0.208954 0.359069 0.304167
O O7 0.286708 0.245775 0.408694
O O8 0.252334 0.016954 0.040139
O O9 0.212176 0.627093 0.673068
O O10 0.991172 0.408114 0.279244
O O11 0.306177 0.808185 0.642097
O O12 0.421775 0.363674 0.752504
O O13 0.351369 0.070299 0.682267
O O14 0.600381 0.265319 0.784960
O O15 0.271955 0.909300 0.327372
O O16 0.488959 0.693074 0.900359
O O17 0.301744 0.810328 0.056809
#
# Coordination Sequence:
#
# PCOD9061055 Si02
#       8
#     2   2   2   2   2   2   2   2
#     4  12  24  44  73 106 145 195 249 298 378 449
#     4  12  28  47  76 110 147 202 251 310 380 442
#     4  11  27  47  77 107 147 197 252 314 370 452
#     4  11  24  43  72 105 148 190 235 306 372 446
#     4  12  25  48  72 107 152 189 247 316 362 449
#     4  12  25  44  73 109 144 197 248 299 383 446
#     4  11  23  44  72 102 145 194 235 306 375 440
#     4  11  24  51  74 106 149 194 255 313 377 437
#
# _framework density 23.640117
#
# number of rings (size 3 to 8) (size 9 to 14) (size 15 to 20)
#    0.000    0.500    5.000    3.000    3.500    1.500 
#    4.500    0.000    0.000    0.000    0.000    0.000 
#    0.000    0.000    0.000    0.000    0.000    0.000 
#
# Total GULP energy -89494.299337 kJ/mol
# GULP energy per Si atom -5593.393709 kJ/mol
# Density = 2.358631 g / cm^3
# Si number density = 23.640117 Si / 1000 Ang^3
#
#
#
# Elastic Constant Matrix: (Units=GPa)
#
#
# Indices 1 2 3 4 5 6 
#
# 1 72.4039 5.7875 20.0449 7.2338 15.3520 -9.9410
# 2 5.7875 98.5979 2.9666 15.1518 5.9039 -12.3916
# 3 20.0449 2.9666 76.1561 14.1741 8.4156 1.1013
# 4 7.2338 15.1518 14.1741 47.5491 1.3624 -0.1980
# 5 15.3520 5.9039 8.4156 1.3624 31.1943 -0.4022
# 6 -9.9410 -12.3916 1.1013 -0.1980 -0.4022 37.3650
#
#
#
# Elastic Compliance Matrix: (Units=1/GPa)
#
#
# Indices 1 2 3 4 5 6 
#
# 1 0.017112 0.000356 -0.003497 -0.001442 -0.007422 0.004686
# 2 0.000356 0.011282 0.000338 -0.003671 -0.002192 0.003783
# 3 -0.003497 0.000338 0.015050 -0.004003 -0.002245 -0.001307
# 4 -0.001442 -0.003671 -0.004003 0.023567 0.001438 -0.001343
# 5 -0.007422 -0.002192 -0.002245 0.001438 0.036639 -0.002234
# 6 0.004686 0.003783 -0.001307 -0.001343 -0.002234 0.029272
#
#
# Mechanical properties :
#
#
# Convention : Reuss Voigt Hill
#
# Bulk Modulus (GPa) = 26.42885 33.86176 30.14531
# Shear Modulus (GPa) = 33.08146 37.77893 35.43020
#
# Velocity S-wave (km/s) = 3.74488 4.00194 3.87555
# Velocity P-wave (km/s) = 5.46835 5.97570 5.72764
#
# Compressibility (1/GPa) = 0.03783743
#
# Stress axis : x y z
#
# Youngs Moduli (GPa) = 58.43720 88.63612 66.44379
#
# Poissons Ratio (x) = -0.03153 0.23236
# Poissons Ratio (y) = -0.02079 -0.02244
# Poissons Ratio (z) = 0.20436 -0.02994
#
# Static dielectric constant tensor:
#      x y z
#    x 1.960250 -0.033900 -0.021870 
#    y -0.033900 1.900930 0.025090 
#    z -0.021870 0.025090 1.913590 
# 
# From -- ./inp_files/429119.got.cif
#   From: 2010.05.17/outbox.cif.g08.bks.cpg/sg2_215_cif.got.tgz:429119.got - 2010.06.03 11:33:40.
