data_PCOD9061477
_publ_section_title
;
Structure prediction by ZEFSAII (Michael W. Deem and Ramdas Pophale) SiO2 
 PCOD9061477
Probable space group: P -1
;
_chemical_formula_sum "Si O2"
_cell_formula_units_Z 16
_cell_length_a 12.725720
_cell_length_b 6.283001
_cell_length_c 11.066647
_cell_angle_alpha 78.480573
_cell_angle_beta 75.803067
_cell_angle_gamma 58.156886
_cell_volume 726.052094
_symmetry_space_group_name_H-M "P -1"
_symmetry_group_IT_number 2
_symmetry_cell_setting 'triclinic'
loop_
_space_group_symop_operation_xyz
x,y,z
-x,-y,-z
loop_
_atom_site_type_symbol
_atom_site_label
_atom_site_fract_x
_atom_site_fract_y
_atom_site_fract_z
Si Si1 0.374178 0.268864 0.485449
Si Si2 0.243600 0.064971 0.207046
Si Si3 0.089995 0.863612 0.164800
Si Si4 0.658857 0.663295 0.236657
Si Si5 0.466923 0.522198 0.241384
Si Si6 0.909044 0.385415 0.059463
Si Si7 0.118587 0.440065 0.390878
Si Si8 0.454199 0.156207 0.118937
O O1 0.324235 0.375224 0.620801
O O2 0.429029 0.408286 0.375126
O O3 0.252112 0.308198 0.440422
O O4 0.500000 0.000000 0.500000
O O5 0.191273 0.956529 0.133877
O O6 0.363604 0.813682 0.248338
O O7 0.134545 0.231061 0.312139
O O8 0.309472 0.229525 0.149478
O O9 0.098915 0.689427 0.296086
O O10 0.105377 0.710943 0.056097
O O11 0.964014 0.134979 0.155891
O O12 0.601042 0.498037 0.220538
O O13 0.782622 0.593310 0.135271
O O14 0.551711 0.951905 0.209817
O O15 0.456108 0.402569 0.132499
O O16 0.000000 0.500000 0.000000
O O17 0.000000 0.500000 0.500000
O O18 0.500000 0.000000 0.000000
#
# Coordination Sequence:
#
# PCOD9061477 Si02
#       8
#     2   2   2   2   2   2   2   2
#     4  12  23  48  70 104 149 192 243 311 376 443
#     4  11  23  45  71 104 141 185 238 302 367 436
#     4  11  26  48  73 102 148 194 249 303 378 439
#     4  11  27  41  72 105 139 191 246 302 373 447
#     4  11  23  46  70 105 143 189 242 302 376 444
#     4  11  28  48  73 105 150 197 249 312 371 452
#     4  12  28  47  77 111 149 198 254 313 376 452
#     4  11  25  41  71 105 143 183 237 303 372 443
#
# _framework density 22.036984
#
# number of rings (size 3 to 8) (size 9 to 14) (size 15 to 20)
#    0.000    0.750    3.750    1.875   10.500    4.500 
#    0.000    0.000    0.000    0.000    0.000    0.000 
#    0.000    0.000    0.000    0.000    0.000    0.000 
#
# Total GULP energy -89277.718530 kJ/mol
# GULP energy per Si atom -5579.857408 kJ/mol
# Density = 2.198683 g / cm^3
# Si number density = 22.036984 Si / 1000 Ang^3
#
#
#
# Elastic Constant Matrix: (Units=GPa)
#
#
# Indices 1 2 3 4 5 6 
#
# 1 138.5136 42.7048 50.1733 11.5347 -6.3258 4.9375
# 2 42.7048 107.1205 34.0221 0.1586 6.0764 -4.2840
# 3 50.1733 34.0221 106.3373 13.8099 0.5240 8.1665
# 4 11.5347 0.1586 13.8099 48.6306 -6.1076 10.4509
# 5 -6.3258 6.0764 0.5240 -6.1076 38.3805 7.6201
# 6 4.9375 -4.2840 8.1665 10.4509 7.6201 36.3669
#
#
#
# Elastic Compliance Matrix: (Units=1/GPa)
#
#
# Indices 1 2 3 4 5 6 
#
# 1 0.009548 -0.002891 -0.003405 -0.000778 0.002173 -0.001104
# 2 -0.002891 0.011581 -0.002599 0.000440 -0.002759 0.002792
# 3 -0.003405 -0.002599 0.012287 -0.002310 -0.000313 -0.001874
# 4 -0.000778 0.000440 -0.002310 0.023566 0.005002 -0.007144
# 5 0.002173 -0.002759 -0.000313 0.005002 0.029262 -0.008119
# 6 -0.001104 0.002792 -0.001874 -0.007144 -0.008119 0.032151
#
#
# Mechanical properties :
#
#
# Convention : Reuss Voigt Hill
#
# Bulk Modulus (GPa) = 63.99540 67.30798 65.65169
# Shear Modulus (GPa) = 35.36235 39.68038 37.52136
#
# Velocity S-wave (km/s) = 4.01019 4.24798 4.13080
# Velocity P-wave (km/s) = 7.10952 7.39391 7.25311
#
# Compressibility (1/GPa) = 0.01562612
#
# Stress axis : x y z
#
# Youngs Moduli (GPa) = 104.73903 86.34950 81.38383
#
# Poissons Ratio (x) = 0.24965 0.27709
# Poissons Ratio (y) = 0.30282 0.21152
# Poissons Ratio (z) = 0.35660 0.22442
#
# Static dielectric constant tensor:
#      x y z
#    x 1.870480 0.033610 -0.002020 
#    y 0.033610 1.883700 -0.053900 
#    z -0.002020 -0.053900 1.878130 
# 
# From -- ./inp_files/410533.got.cif
#   From: 2010.05.17/outbox.cif.g08.bks.cpg/sg2_206_cif.got.tgz:410533.got - 2010.06.03 11:33:40.
