data_PCOD9061195
_publ_section_title
;
Structure prediction by ZEFSAII (Michael W. Deem and Ramdas Pophale) SiO2 
 PCOD9061195
Probable space group: P -1
;
_chemical_formula_sum "Si O2"
_cell_formula_units_Z 14
_cell_length_a 11.602170
_cell_length_b 17.192181
_cell_length_c 9.155500
_cell_angle_alpha 50.400162
_cell_angle_beta 114.918743
_cell_angle_gamma 152.598260
_cell_volume 591.334715
_symmetry_space_group_name_H-M "P -1"
_symmetry_group_IT_number 2
_symmetry_cell_setting 'triclinic'
loop_
_space_group_symop_operation_xyz
x,y,z
-x,-y,-z
loop_
_atom_site_type_symbol
_atom_site_label
_atom_site_fract_x
_atom_site_fract_y
_atom_site_fract_z
Si Si1 0.806478 0.720734 0.967615
Si Si2 0.791838 0.932895 0.781089
Si Si3 0.539003 0.148549 0.497573
Si Si4 0.908244 0.334426 0.232100
Si Si5 0.278633 0.400442 0.600334
Si Si6 0.389241 0.034399 0.871010
Si Si7 0.523614 0.299591 0.823905
O O1 0.759246 0.653287 0.188996
O O2 0.500000 0.500000 0.000000
O O3 0.893682 0.901310 0.797225
O O4 0.062895 0.832445 0.914136
O O5 0.569217 0.833953 0.680102
O O6 0.690328 0.824443 0.016819
O O7 0.001431 0.169320 0.650015
O O8 0.812941 0.301892 0.381610
O O9 0.544148 0.177942 0.634634
O O10 0.328490 0.904686 0.667390
O O11 0.191146 0.474578 0.216647
O O12 0.000000 0.500000 0.000000
O O13 0.500000 0.500000 0.500000
O O14 0.415393 0.605857 0.411214
O O15 0.463021 0.144012 0.929176
O O16 0.500000 0.000000 0.000000
#
# Coordination Sequence:
#
# PCOD9061195 Si02
#       7
#     2   2   2   2   2   2   2
#     4  12  30  49  78 114 157 199 252 321 382 450
#     4  12  25  50  77 113 150 194 262 313 374 463
#     4  11  27  44  75 111 151 200 252 313 377 450
#     4  11  23  44  74 107 147 200 254 306 371 457
#     4  12  25  47  78 107 145 201 252 309 383 449
#     4  12  30  51  73 112 163 199 251 320 381 454
#     4  12  25  46  77 109 150 202 251 311 382 454
#
# _framework density 23.675255
#
# number of rings (size 3 to 8) (size 9 to 14) (size 15 to 20)
#    0.000    0.286    5.714    2.143   10.000    2.286 
#    0.000    0.000    0.000    0.000    0.000    0.000 
#    0.000    0.000    0.000    0.000    0.000    0.000 
#
# Total GULP energy -78042.573119 kJ/mol
# GULP energy per Si atom -5574.469508 kJ/mol
# Density = 2.362137 g / cm^3
# Si number density = 23.675255 Si / 1000 Ang^3
#
#
#
# Elastic Constant Matrix: (Units=GPa)
#
#
# Indices 1 2 3 4 5 6 
#
# 1 119.8540 16.9173 29.7937 -4.7400 0.9398 4.0397
# 2 16.9173 67.2800 8.8967 -8.3152 -2.1263 6.5329
# 3 29.7937 8.8967 108.2317 -6.3986 -0.0002 3.4051
# 4 -4.7400 -8.3152 -6.3986 34.8150 2.3715 -6.9079
# 5 0.9398 -2.1263 -0.0002 2.3715 43.5013 -1.6981
# 6 4.0397 6.5329 3.4051 -6.9079 -1.6981 29.4867
#
#
#
# Elastic Compliance Matrix: (Units=1/GPa)
#
#
# Indices 1 2 3 4 5 6 
#
# 1 0.009232 -0.001936 -0.002349 0.000283 -0.000330 -0.000517
# 2 -0.001936 0.016045 -0.000534 0.002934 0.000568 -0.002508
# 3 -0.002349 -0.000534 0.010021 0.001317 -0.000063 -0.000412
# 4 0.000283 0.002934 0.001317 0.031055 -0.001307 0.006359
# 5 -0.000330 0.000568 -0.000063 -0.001307 0.023131 0.000952
# 6 -0.000517 -0.002508 -0.000412 0.006359 0.000952 0.036132
#
#
# Mechanical properties :
#
#
# Convention : Reuss Voigt Hill
#
# Bulk Modulus (GPa) = 38.97127 45.17568 42.07347
# Shear Modulus (GPa) = 34.76881 37.54449 36.15665
#
# Velocity S-wave (km/s) = 3.83635 3.98654 3.91217
# Velocity P-wave (km/s) = 6.00999 6.34924 6.18194
#
# Compressibility (1/GPa) = 0.02565993
#
# Stress axis : x y z
#
# Youngs Moduli (GPa) = 108.31991 62.32579 99.79238
#
# Poissons Ratio (x) = 0.12066 0.23443
# Poissons Ratio (y) = 0.20970 0.05325
# Poissons Ratio (z) = 0.25447 0.03326
#
# Static dielectric constant tensor:
#      x y z
#    x 1.336380 0.258280 -0.579920 
#    y 0.258280 1.922000 0.222400 
#    z -0.579920 0.222400 1.135710 
# 
# From -- ./inp_files/279081.got.cif
#   From: 2010.05.17/outbox.cif.g08.bks.cpg/sg2_140_cif.got.tgz:279081.got - 2010.06.03 11:33:40.
