data_PCOD9061035
_publ_section_title
;
Structure prediction by ZEFSAII (Michael W. Deem and Ramdas Pophale) SiO2 
 PCOD9061035
Probable space group: P -1
;
_chemical_formula_sum "Si O2"
_cell_formula_units_Z 12
_cell_length_a 16.945138
_cell_length_b 19.775392
_cell_length_c 11.882529
_cell_angle_alpha 156.918785
_cell_angle_beta 32.381255
_cell_angle_gamma 159.097336
_cell_volume 553.767525
_symmetry_space_group_name_H-M "P -1"
_symmetry_group_IT_number 2
_symmetry_cell_setting 'triclinic'
loop_
_space_group_symop_operation_xyz
x,y,z
-x,-y,-z
loop_
_atom_site_type_symbol
_atom_site_label
_atom_site_fract_x
_atom_site_fract_y
_atom_site_fract_z
Si Si1 0.843775 0.052556 0.883765
Si Si2 0.427395 0.259177 0.662305
Si Si3 0.678799 0.649621 0.288960
Si Si4 0.501621 0.142249 0.814270
Si Si5 0.104824 0.697892 0.279387
Si Si6 0.706729 0.248135 0.208758
O O1 0.724857 0.784381 0.558156
O O2 0.716399 0.014395 0.086781
O O3 0.096987 0.215959 0.838655
O O4 0.832319 0.190456 0.014209
O O5 0.419320 0.299277 0.601393
O O6 0.609467 0.268118 0.461553
O O7 0.209929 0.971784 0.532146
O O8 0.500000 0.500000 0.000000
O O9 0.544174 0.361206 0.037056
O O10 0.703050 0.253470 0.822367
O O11 0.500000 0.000000 0.500000
O O12 0.892982 0.529057 0.356765
O O13 0.000000 0.500000 0.000000
O O14 0.500000 0.000000 0.000000
#
# Coordination Sequence:
#
# PCOD9061035 Si02
#       6
#     2   2   2   2   2   2
#     4  11  23  44  71  99 137 184 234 290 343 425
#     4  12  27  45  70 108 148 178 233 306 354 412
#     4  11  25  43  69 104 138 178 239 287 348 421
#     4  12  26  44  71 105 140 185 235 297 363 417
#     4  12  24  44  77 102 137 192 241 277 353 438
#     4  12  22  45  73 101 138 190 239 286 352 430
#
# _framework density 21.669744000000001
#
# number of rings (size 3 to 8) (size 9 to 14) (size 15 to 20)
#    0.000    0.333    6.667    1.500    2.333    4.000 
#    0.000    0.000    0.000    0.000    0.000    0.000 
#    0.000    0.000    0.000    0.000    0.000    0.000 
#
# Total GULP energy -67017.802049 kJ/mol
# GULP energy per Si atom -5584.816837 kJ/mol
# Density = 2.162042 g / cm^3
# Si number density = 21.669744 Si / 1000 Ang^3
#
#
#
# Elastic Constant Matrix: (Units=GPa)
#
#
# Indices 1 2 3 4 5 6 
#
# 1 54.6512 11.6935 10.5279 9.2353 -12.5257 -5.7787
# 2 11.6935 99.6364 46.1240 -4.3446 0.1265 -30.3020
# 3 10.5279 46.1240 134.1273 6.1733 -7.7453 -21.4248
# 4 9.2353 -4.3446 6.1733 44.2428 -15.1150 -15.4841
# 5 -12.5257 0.1265 -7.7453 -15.1150 37.1817 1.1729
# 6 -5.7787 -30.3020 -21.4248 -15.4841 1.1729 39.0970
#
#
#
# Elastic Compliance Matrix: (Units=1/GPa)
#
#
# Indices 1 2 3 4 5 6 
#
# 1 0.020642 -0.002451 -0.000360 -0.002590 0.005842 -0.000247
# 2 -0.002451 0.016391 -0.003599 0.007667 0.001064 0.013373
# 3 -0.000360 -0.003599 0.009148 -0.000304 0.001610 0.002002
# 4 -0.002590 0.007667 -0.000304 0.034826 0.012602 0.018807
# 5 0.005842 0.001064 0.001610 0.012602 0.034111 0.006538
# 6 -0.000247 0.013373 0.002002 0.018807 0.006538 0.044255
#
#
# Mechanical properties :
#
#
# Convention : Reuss Voigt Hill
#
# Bulk Modulus (GPa) = 29.97671 47.23395 38.60533
# Shear Modulus (GPa) = 27.27539 38.77560 33.02550
#
# Velocity S-wave (km/s) = 3.55164 4.23471 3.90813
# Velocity P-wave (km/s) = 5.53917 6.76423 6.18212
#
# Compressibility (1/GPa) = 0.03335923
#
# Stress axis : x y z
#
# Youngs Moduli (GPa) = 48.44429 61.01074 109.31017
#
# Poissons Ratio (x) = 0.14957 0.03937
# Poissons Ratio (y) = 0.11876 0.39344
# Poissons Ratio (z) = 0.01745 0.21959
#
# Static dielectric constant tensor:
#      x y z
#    x 1.857810 -0.052060 0.052360 
#    y -0.052060 1.850620 0.011940 
#    z 0.052360 0.011940 1.704630 
# 
# From -- ./inp_files/150553.got.cif
#   From: 2010.05.17/outbox.cif.g08.bks.cpg/sg2_76_cif.got.tgz:150553.got - 2010.06.03 11:33:40.
