data_PCOD9061715
_publ_section_title
;
Structure prediction by ZEFSAII (Michael W. Deem and Ramdas Pophale) SiO2 
 PCOD9061715
Probable space group: P -1
;
_chemical_formula_sum "Si O2"
_cell_formula_units_Z 16
_cell_length_a 11.697182
_cell_length_b 5.340399
_cell_length_c 12.030965
_cell_angle_alpha 72.888908
_cell_angle_beta 60.597484
_cell_angle_gamma 78.237382
_cell_volume 624.164490
_symmetry_space_group_name_H-M "P -1"
_symmetry_group_IT_number 2
_symmetry_cell_setting 'triclinic'
loop_
_space_group_symop_operation_xyz
x,y,z
-x,-y,-z
loop_
_atom_site_type_symbol
_atom_site_label
_atom_site_fract_x
_atom_site_fract_y
_atom_site_fract_z
Si Si1 0.059838 0.956502 0.856059
Si Si2 0.332720 0.216709 0.656322
Si Si3 0.241602 0.502636 0.871346
Si Si4 0.062664 0.254310 0.383876
Si Si5 0.806317 0.937487 0.870612
Si Si6 0.207359 0.515983 0.485258
Si Si7 0.462973 0.808477 0.788730
Si Si8 0.611774 0.234252 0.783003
O O1 0.191756 0.095304 0.752564
O O2 0.109099 0.648685 0.867878
O O3 0.944977 0.053289 0.815369
O O4 0.000000 0.000000 0.000000
O O5 0.332093 0.422230 0.732206
O O6 0.316693 0.355413 0.527827
O O7 0.444825 0.990219 0.662226
O O8 0.316526 0.707832 0.883789
O O9 0.221026 0.254955 0.990356
O O10 0.159240 0.220101 0.238373
O O11 0.145588 0.378893 0.425963
O O12 0.925169 0.409676 0.392278
O O13 0.000000 0.000000 0.500000
O O14 0.689431 0.147101 0.868162
O O15 0.281017 0.757717 0.368370
O O16 0.549321 0.532297 0.782140
O O17 0.515213 0.010054 0.826764
#
# Coordination Sequence:
#
# PCOD9061715 Si02
#       8
#     2   2   2   2   2   2   2   2
#     4  11  24  40  72 114 151 189 246 301 382 457
#     4  11  24  49  74 107 150 200 249 316 373 438
#     4  11  25  49  75 110 150 197 249 311 381 441
#     4  11  23  46  66 113 160 187 245 297 386 462
#     4  12  25  45  78 111 152 197 237 315 382 460
#     4  11  26  43  77 107 150 200 245 312 376 450
#     4  11  27  54  73 108 148 201 268 310 365 437
#     4  12  27  50  74 111 148 203 260 306 374 442
#
# _framework density 25.634267999999999
#
# number of rings (size 3 to 8) (size 9 to 14) (size 15 to 20)
#    0.000    0.750    3.750    2.625    3.500    4.000 
#    0.000    0.000    0.000    0.000    0.000    0.000 
#    0.000    0.000    0.000    0.000    0.000    0.000 
#
# Total GULP energy -89520.927895 kJ/mol
# GULP energy per Si atom -5595.057993 kJ/mol
# Density = 2.557592 g / cm^3
# Si number density = 25.634268 Si / 1000 Ang^3
#
#
#
# Elastic Constant Matrix: (Units=GPa)
#
#
# Indices 1 2 3 4 5 6 
#
# 1 146.9777 62.9842 22.1634 -18.1676 25.5429 -11.8598
# 2 62.9842 125.4039 20.2400 -10.5602 15.7821 -20.0645
# 3 22.1634 20.2400 77.6409 -8.9632 12.5749 -5.1601
# 4 -18.1676 -10.5602 -8.9632 34.7295 -4.3663 -0.6172
# 5 25.5429 15.7821 12.5749 -4.3663 41.4446 -15.9124
# 6 -11.8598 -20.0645 -5.1601 -0.6172 -15.9124 48.8222
#
#
#
# Elastic Compliance Matrix: (Units=1/GPa)
#
#
# Indices 1 2 3 4 5 6 
#
# 1 0.009716 -0.004092 -0.000721 0.003117 -0.004157 -0.000713
# 2 -0.004092 0.010842 -0.001363 0.000890 0.000204 0.003396
# 3 -0.000721 -0.001363 0.014227 0.002476 -0.003184 -0.000238
# 4 0.003117 0.000890 0.002476 0.031515 0.001136 0.002153
# 5 -0.004157 0.000204 -0.003184 0.001136 0.031112 0.008892
# 6 -0.000713 0.003396 -0.000238 0.002153 0.008892 0.024605
#
#
# Mechanical properties :
#
#
# Convention : Reuss Voigt Hill
#
# Bulk Modulus (GPa) = 44.57825 62.31087 53.44456
# Shear Modulus (GPa) = 35.24921 41.30825 38.27873
#
# Velocity S-wave (km/s) = 3.71223 4.01864 3.86847
# Velocity P-wave (km/s) = 5.98348 6.77444 6.39121
#
# Compressibility (1/GPa) = 0.02243246
#
# Stress axis : x y z
#
# Youngs Moduli (GPa) = 102.92109 92.23410 70.29101
#
# Poissons Ratio (x) = 0.37743 0.05069
# Poissons Ratio (y) = 0.42116 0.09580
# Poissons Ratio (z) = 0.07423 0.12570
#
# Static dielectric constant tensor:
#      x y z
#    x 2.081120 -0.030130 0.017710 
#    y -0.030130 2.135070 0.046950 
#    z 0.017710 0.046950 2.047300 
# 
# From -- ./inp_files/410020.got.cif
#   From: 2010.05.17/outbox.cif.g08.bks.cpg/sg2_206_cif.got.tgz:410020.got - 2010.06.03 11:33:40.
