data_PCOD9061301
_publ_section_title
;
Structure prediction by ZEFSAII (Michael W. Deem and Ramdas Pophale) SiO2 
 PCOD9061301
Probable space group: P -1
;
_chemical_formula_sum "Si O2"
_cell_formula_units_Z 16
_cell_length_a 6.164832
_cell_length_b 19.300911
_cell_length_c 16.395666
_cell_angle_alpha 159.180887
_cell_angle_beta 81.322703
_cell_angle_gamma 96.915570
_cell_volume 684.258456
_symmetry_space_group_name_H-M "P -1"
_symmetry_group_IT_number 2
_symmetry_cell_setting 'triclinic'
loop_
_space_group_symop_operation_xyz
x,y,z
-x,-y,-z
loop_
_atom_site_type_symbol
_atom_site_label
_atom_site_fract_x
_atom_site_fract_y
_atom_site_fract_z
Si Si1 0.000642 0.423731 0.048678
Si Si2 0.683480 0.638437 0.174414
Si Si3 0.615354 0.323791 0.055124
Si Si4 0.567381 0.986634 0.387243
Si Si5 0.419273 0.740189 0.574164
Si Si6 0.884184 0.154762 0.439880
Si Si7 0.756109 0.404360 0.409078
Si Si8 0.287784 0.930539 0.082348
O O1 0.822982 0.507616 0.085672
O O2 0.869964 0.311707 0.000230
O O3 0.096388 0.616252 0.292220
O O4 0.174694 0.308333 0.854315
O O5 0.594408 0.833483 0.439090
O O6 0.500000 0.500000 0.000000
O O7 0.549277 0.550756 0.320166
O O8 0.580613 0.209843 0.015082
O O9 0.483197 0.215310 0.873984
O O10 0.798536 0.056766 0.419427
O O11 0.500000 0.000000 0.500000
O O12 0.286032 0.848967 0.629026
O O13 0.276702 0.658496 0.564939
O O14 0.574599 0.900012 0.776786
O O15 0.102352 0.046253 0.273732
O O16 0.500000 0.500000 0.500000
O O17 0.000000 0.500000 0.500000
O O18 0.792331 0.215556 0.141571
#
# Coordination Sequence:
#
# PCOD9061301 Si02
#       8
#     2   2   2   2   2   2   2   2
#     4  11  25  42  72 100 143 200 265 329 401 472
#     4  11  23  45  66  97 144 202 263 331 404 475
#     4  12  26  48  75 109 157 203 273 332 398 484
#     4  12  27  43  69 108 155 208 268 335 401 474
#     4  12  28  54  82 114 167 209 265 338 416 495
#     4  12  27  46  78 112 152 215 268 331 413 482
#     4  12  31  55  91 130 170 214 273 335 420 507
#     4  12  28  53  81 118 161 211 272 327 418 496
#
# _framework density 23.382978000000001
#
# number of rings (size 3 to 8) (size 9 to 14) (size 15 to 20)
#    0.000    0.250    5.000    2.625   12.250    1.000 
#    0.000    0.000    0.000    0.000    0.000    0.000 
#    0.000    0.000    0.000    0.000    0.000    0.000 
#
# Total GULP energy -89420.120197 kJ/mol
# GULP energy per Si atom -5588.757512 kJ/mol
# Density = 2.332976 g / cm^3
# Si number density = 23.382978 Si / 1000 Ang^3
#
#
#
# Elastic Constant Matrix: (Units=GPa)
#
#
# Indices 1 2 3 4 5 6 
#
# 1 70.0912 19.9038 30.7614 4.5188 8.8718 12.3887
# 2 19.9038 124.1233 10.3459 -2.8446 7.9234 30.0699
# 3 30.7614 10.3459 112.4104 -1.0124 20.0431 4.7252
# 4 4.5188 -2.8446 -1.0124 38.6146 -1.9902 7.0313
# 5 8.8718 7.9234 20.0431 -1.9902 37.9676 6.2197
# 6 12.3887 30.0699 4.7252 7.0313 6.2197 45.3898
#
#
#
# Elastic Compliance Matrix: (Units=1/GPa)
#
#
# Indices 1 2 3 4 5 6 
#
# 1 0.017387 -0.001746 -0.004308 -0.001839 -0.001077 -0.002708
# 2 -0.001746 0.009964 -0.000066 0.002072 -0.000484 -0.006372
# 3 -0.004308 -0.000066 0.010918 0.000412 -0.004833 0.000682
# 4 -0.001839 0.002072 0.000412 0.027375 0.002106 -0.005443
# 5 -0.001077 -0.000484 -0.004833 0.002106 0.029894 -0.003305
# 6 -0.002708 -0.006372 0.000682 -0.005443 -0.003305 0.028217
#
#
# Mechanical properties :
#
#
# Convention : Reuss Voigt Hill
#
# Bulk Modulus (GPa) = 38.42093 47.62745 43.02419
# Shear Modulus (GPa) = 34.56069 40.76865 37.66467
#
# Velocity S-wave (km/s) = 3.84868 4.18008 4.01780
# Velocity P-wave (km/s) = 6.01803 6.61136 6.32166
#
# Compressibility (1/GPa) = 0.02602748
#
# Stress axis : x y z
#
# Youngs Moduli (GPa) = 57.51354 100.35956 91.59356
#
# Poissons Ratio (x) = 0.17527 0.39459
# Poissons Ratio (y) = 0.10044 0.00608
# Poissons Ratio (z) = 0.24777 0.00666
#
# Static dielectric constant tensor:
#      x y z
#    x 1.996710 -0.001230 -0.034870 
#    y -0.001230 1.893610 -0.005680 
#    z -0.034870 -0.005680 1.871490 
# 
# From -- ./inp_files/551013.got.cif
#   From: 2010.05.17/outbox.cif.g08.bks.cpg/sg2_276_cif.got.tgz:551013.got - 2010.06.03 11:33:40.
