data_PCOD9061730
_publ_section_title
;
Structure prediction by ZEFSAII (Michael W. Deem and Ramdas Pophale) SiO2 
 PCOD9061730
Probable space group: P -1
;
_chemical_formula_sum "Si O2"
_cell_formula_units_Z 14
_cell_length_a 9.763731
_cell_length_b 5.470295
_cell_length_c 14.257671
_cell_angle_alpha 73.439349
_cell_angle_beta 90.817497
_cell_angle_gamma 98.499255
_cell_volume 721.592737
_symmetry_space_group_name_H-M "P -1"
_symmetry_group_IT_number 2
_symmetry_cell_setting 'triclinic'
loop_
_space_group_symop_operation_xyz
x,y,z
-x,-y,-z
loop_
_atom_site_type_symbol
_atom_site_label
_atom_site_fract_x
_atom_site_fract_y
_atom_site_fract_z
Si Si1 0.540271 0.576218 0.386706
Si Si2 0.364793 0.821344 0.705420
Si Si3 0.287050 0.548554 0.023580
Si Si4 0.363182 0.138264 0.928988
Si Si5 0.587383 0.511577 0.785360
Si Si6 0.090670 0.638498 0.846053
Si Si7 0.044810 0.094880 0.886128
O O1 0.500000 0.500000 0.500000
O O2 0.631788 0.373790 0.362133
O O3 0.404969 0.530604 0.321119
O O4 0.611198 0.875247 0.350241
O O5 0.500120 0.750495 0.770102
O O6 0.225872 0.734158 0.773566
O O7 0.357370 0.330290 0.995458
O O8 0.289651 0.480536 0.140568
O O9 0.367172 0.841450 0.984696
O O10 0.150799 0.566734 0.957477
O O11 0.475741 0.268944 0.843995
O O12 0.211990 0.136480 0.881170
O O13 0.006930 0.374023 0.836330
O O14 0.002955 0.866985 0.838090
O O15 0.000000 0.000000 0.000000
#
# Coordination Sequence:
#
# PCOD9061730 Si02
#       7
#     2   2   2   2   2   2   2
#     4  10  20  31  42  60  84 116 151 178 213 248
#     4  10  19  30  45  60  84 116 148 176 212 242
#     4  10  18  26  41  61  87 113 144 176 193 244
#     4  10  19  28  40  63  88 113 147 172 203 241
#     4  10  20  26  46  59  87 117 149 166 210 241
#     4  10  18  31  42  66  87 114 149 175 204 250
#     4  10  18  29  43  59  86 121 146 174 211 244
#
# _framework density 19.401523000000001
#
# number of rings (size 3 to 8) (size 9 to 14) (size 15 to 20)
#    0.857    1.143    2.857    4.286    2.000    0.000 
#    0.000    0.000    0.000    0.000    0.000    0.000 
#    0.000    0.000    0.000  174.857    0.000    0.000 
#
# Total GULP energy -77960.119891 kJ/mol
# GULP energy per Si atom -5568.579992 kJ/mol
# Density = 1.935736 g / cm^3
# Si number density = 19.401523 Si / 1000 Ang^3
#
#
#
# Elastic Constant Matrix: (Units=GPa)
#
#
# Indices 1 2 3 4 5 6 
#
# 1 40.6955 23.1003 21.7536 1.2433 -9.8985 -1.0405
# 2 23.1003 203.8410 53.3354 -7.2570 -12.3492 -21.6346
# 3 21.7536 53.3354 122.2947 10.7836 -3.5367 -1.2433
# 4 1.2433 -7.2570 10.7836 30.9994 1.2086 -4.7777
# 5 -9.8985 -12.3492 -3.5367 1.2086 18.1775 2.3309
# 6 -1.0405 -21.6346 -1.2433 -4.7777 2.3309 22.7518
#
#
#
# Elastic Compliance Matrix: (Units=1/GPa)
#
#
# Indices 1 2 3 4 5 6 
#
# 1 0.031664 -0.001807 -0.004316 -0.001159 0.015553 -0.002342
# 2 -0.001807 0.006830 -0.002851 0.003636 0.001986 0.006816
# 3 -0.004316 -0.002851 0.010515 -0.004576 -0.001535 -0.003138
# 4 -0.001159 0.003636 -0.004576 0.036578 -0.002911 0.011134
# 5 0.015553 0.001986 -0.001535 -0.002911 0.065340 -0.004790
# 6 -0.002342 0.006816 -0.003138 0.011134 -0.004790 0.052984
#
#
# Mechanical properties :
#
#
# Convention : Reuss Voigt Hill
#
# Bulk Modulus (GPa) = 32.19476 62.57888 47.38682
# Shear Modulus (GPa) = 21.53201 32.29520 26.91361
#
# Velocity S-wave (km/s) = 3.33500 4.08434 3.72854
# Velocity P-wave (km/s) = 5.60888 7.38695 6.55845
#
# Compressibility (1/GPa) = 0.03106096
#
# Stress axis : x y z
#
# Youngs Moduli (GPa) = 31.58169 146.41965 95.09858
#
# Poissons Ratio (x) = 0.26452 0.41047
# Poissons Ratio (y) = 0.05706 0.27114
# Poissons Ratio (z) = 0.13632 0.41746
#
# Static dielectric constant tensor:
#      x y z
#    x 1.759690 -0.009590 0.001980 
#    y -0.009590 1.830320 0.008480 
#    z 0.001980 0.008480 1.676630 
# 
# From -- ./inp_files/79610.got.cif
#   From: 2010.05.17/outbox.cif.g08.bks.cpg/sg2_40_cif.got.tgz:79610.got - 2010.06.03 11:33:40.
