data_PCOD9061926
_publ_section_title
;
Structure prediction by ZEFSAII (Michael W. Deem and Ramdas Pophale) SiO2 
 PCOD9061926
Probable space group: P -1
;
_chemical_formula_sum "Si O2"
_cell_formula_units_Z 14
_cell_length_a 9.372951
_cell_length_b 15.613455
_cell_length_c 9.727542
_cell_angle_alpha 128.962051
_cell_angle_beta 107.541438
_cell_angle_gamma 37.135032
_cell_volume 604.619158
_symmetry_space_group_name_H-M "P -1"
_symmetry_group_IT_number 2
_symmetry_cell_setting 'triclinic'
loop_
_space_group_symop_operation_xyz
x,y,z
-x,-y,-z
loop_
_atom_site_type_symbol
_atom_site_label
_atom_site_fract_x
_atom_site_fract_y
_atom_site_fract_z
Si Si1 0.468809 0.592522 0.952139
Si Si2 0.744536 0.369841 0.340096
Si Si3 0.893186 0.710733 0.788490
Si Si4 0.640025 0.064603 0.230033
Si Si5 0.841660 0.528636 0.094884
Si Si6 0.364656 0.970634 0.488991
Si Si7 0.000849 0.948153 0.717187
O O1 0.740129 0.491218 0.931408
O O2 0.500000 0.500000 0.000000
O O3 0.394728 0.560270 0.774680
O O4 0.236256 0.822054 0.114441
O O5 0.500000 0.500000 0.500000
O O6 0.937752 0.155994 0.231397
O O7 0.914551 0.376772 0.371171
O O8 0.661618 0.772475 0.731230
O O9 0.011484 0.592762 0.845370
O O10 0.785440 0.896040 0.993987
O O11 0.681440 0.995727 0.327473
O O12 0.752980 0.120637 0.314183
O O13 0.586889 0.745940 0.295163
O O14 0.000000 0.500000 0.000000
O O15 0.500000 0.000000 0.500000
O O16 0.102948 0.082524 0.450735
#
# Coordination Sequence:
#
# PCOD9061926 Si02
#       7
#     2   2   2   2   2   2   2
#     4  11  23  46  74 101 146 188 240 294 357 432
#     4  12  27  44  70 108 150 191 241 297 358 430
#     4  11  25  46  68 106 145 186 236 297 367 430
#     4  11  24  43  74  99 143 183 237 297 359 430
#     4  11  25  42  71 101 140 191 236 292 365 427
#     4  11  25  45  69 101 140 186 242 302 354 426
#     4  11  25  45  73 103 140 190 244 288 367 422
#
# _framework density 23.155072000000001
#
# number of rings (size 3 to 8) (size 9 to 14) (size 15 to 20)
#    0.000    0.857    2.857    2.571    4.000    7.429 
#    0.000    0.000    0.000    0.000    0.000    0.000 
#    0.000    0.000    0.000    0.000    0.000    0.000 
#
# Total GULP energy -78195.915271 kJ/mol
# GULP energy per Si atom -5585.422519 kJ/mol
# Density = 2.310237 g / cm^3
# Si number density = 23.155072 Si / 1000 Ang^3
#
#
#
# Elastic Constant Matrix: (Units=GPa)
#
#
# Indices 1 2 3 4 5 6 
#
# 1 217.6780 79.2563 16.0512 -19.9393 -14.0579 -24.8310
# 2 79.2563 155.6281 17.2261 -27.2603 -6.3007 -2.7152
# 3 16.0512 17.2261 53.2139 -5.4504 -8.0156 -2.1123
# 4 -19.9393 -27.2603 -5.4504 30.5667 0.7107 4.3862
# 5 -14.0579 -6.3007 -8.0156 0.7107 39.4985 -10.8667
# 6 -24.8310 -2.7152 -2.1123 4.3862 -10.8667 49.1402
#
#
#
# Elastic Compliance Matrix: (Units=1/GPa)
#
#
# Indices 1 2 3 4 5 6 
#
# 1 0.006317 -0.002841 -0.000344 0.000957 0.002678 0.003527
# 2 -0.002841 0.009090 -0.001582 0.006219 -0.000450 -0.001656
# 3 -0.000344 -0.001582 0.020249 0.001685 0.004078 0.001361
# 4 0.000957 0.006219 0.001685 0.039550 0.000255 -0.002574
# 5 0.002678 -0.000450 0.004078 0.000255 0.029206 0.007940
# 6 0.003527 -0.001656 0.001361 -0.002574 0.007940 0.024085
#
#
# Mechanical properties :
#
#
# Convention : Reuss Voigt Hill
#
# Bulk Modulus (GPa) = 38.28364 72.39856 55.34110
# Shear Modulus (GPa) = 34.07424 44.77350 39.42387
#
# Velocity S-wave (km/s) = 3.84026 4.40208 4.13074
# Velocity P-wave (km/s) = 6.01938 7.56125 6.83394
#
# Compressibility (1/GPa) = 0.02612082
#
# Stress axis : x y z
#
# Youngs Moduli (GPa) = 158.30893 110.01204 49.38525
#
# Poissons Ratio (x) = 0.31257 0.01700
# Poissons Ratio (y) = 0.44980 0.07813
# Poissons Ratio (z) = 0.05448 0.17404
#
# Static dielectric constant tensor:
#      x y z
#    x 1.752310 -0.030330 -0.015590 
#    y -0.030330 1.842670 0.073490 
#    z -0.015590 0.073490 1.954410 
# 
# From -- ./inp_files/156766.got.cif
#   From: 2010.05.17/outbox.cif.g08.bks.cpg/sg2_79_cif.got.tgz:156766.got - 2010.06.03 11:33:40.
