data_PCOD9061609
_publ_section_title
;
Structure prediction by ZEFSAII (Michael W. Deem and Ramdas Pophale) SiO2 
 PCOD9061609
Probable space group: P -1
;
_chemical_formula_sum "Si O2"
_cell_formula_units_Z 10
_cell_length_a 5.070035
_cell_length_b 14.160892
_cell_length_c 15.484121
_cell_angle_alpha 19.752243
_cell_angle_beta 106.109187
_cell_angle_gamma 108.004852
_cell_volume 356.992713
_symmetry_space_group_name_H-M "P -1"
_symmetry_group_IT_number 2
_symmetry_cell_setting 'triclinic'
loop_
_space_group_symop_operation_xyz
x,y,z
-x,-y,-z
loop_
_atom_site_type_symbol
_atom_site_label
_atom_site_fract_x
_atom_site_fract_y
_atom_site_fract_z
Si Si1 0.268438 0.512438 0.072882
Si Si2 0.982060 0.093091 0.820118
Si Si3 0.545387 0.673050 0.466872
Si Si4 0.049967 0.571253 0.189911
Si Si5 0.449545 0.914704 0.434883
O O1 0.378076 0.220666 0.358436
O O2 0.170584 0.615641 0.068033
O O3 0.000000 0.500000 0.000000
O O4 0.505496 0.748181 0.851557
O O5 0.771347 0.319090 0.593140
O O6 0.868427 0.805832 0.003430
O O7 0.268896 0.193989 0.709801
O O8 0.000000 0.000000 0.000000
O O9 0.567975 0.830446 0.425875
O O10 0.695912 0.410543 0.734464
O O11 0.855491 0.267103 0.434974
#
# Coordination Sequence:
#
# PCOD9061609 Si02
#       5
#     2   2   2   2   2
#     4  11  25  44  74 114 150 198 256 314 384 461
#     4  12  26  46  74 110 151 200 258 317 380 455
#     4  11  24  46  71 107 151 197 254 307 386 450
#     4  11  26  45  76 103 156 202 251 317 384 452
#     4  11  23  45  74 106 153 199 249 312 383 455
#
# _framework density 28.011778
#
# number of rings (size 3 to 8) (size 9 to 14) (size 15 to 20)
#    0.000    0.800    4.000    2.400    2.800    3.200 
#    0.000    0.000    0.000    3.600    0.000    0.000 
#    0.000    0.000    0.000    0.000    0.000    0.000 
#
# Total GULP energy -56094.135828 kJ/mol
# GULP energy per Si atom -5609.413583 kJ/mol
# Density = 2.794802 g / cm^3
# Si number density = 28.011778 Si / 1000 Ang^3
#
#
#
# Elastic Constant Matrix: (Units=GPa)
#
#
# Indices 1 2 3 4 5 6 
#
# 1 178.6398 39.7704 62.6299 20.3320 -6.4155 16.3996
# 2 39.7704 108.1177 64.6846 39.4852 2.2167 -0.5594
# 3 62.6299 64.6846 163.7425 16.6373 -0.7633 3.9402
# 4 20.3320 39.4852 16.6373 61.0756 5.9760 -5.6293
# 5 -6.4155 2.2167 -0.7633 5.9760 58.7933 14.6338
# 6 16.3996 -0.5594 3.9402 -5.6293 14.6338 50.0005
#
#
#
# Elastic Compliance Matrix: (Units=1/GPa)
#
#
# Indices 1 2 3 4 5 6 
#
# 1 0.007025 -0.000721 -0.002153 -0.001706 0.001640 -0.002814
# 2 -0.000721 0.015634 -0.005027 -0.008535 0.000186 -0.000208
# 3 -0.002153 -0.005027 0.008748 0.001615 -0.000142 0.000184
# 4 -0.001706 -0.008535 0.001615 0.022671 -0.003092 0.003794
# 5 0.001640 0.000186 -0.000142 -0.003092 0.019102 -0.006463
# 6 -0.002814 -0.000208 0.000184 0.003794 -0.006463 0.023225
#
#
# Mechanical properties :
#
#
# Convention : Reuss Voigt Hill
#
# Bulk Modulus (GPa) = 64.08845 87.18555 75.63700
# Shear Modulus (GPa) = 42.58607 52.86823 47.72715
#
# Velocity S-wave (km/s) = 3.90332 4.34909 4.13222
# Velocity P-wave (km/s) = 6.57597 7.51076 7.05886
#
# Compressibility (1/GPa) = 0.01560344
#
# Stress axis : x y z
#
# Youngs Moduli (GPa) = 142.35478 63.96143 114.31674
#
# Poissons Ratio (x) = 0.04611 0.24617
# Poissons Ratio (y) = 0.10262 0.57471
# Poissons Ratio (z) = 0.30655 0.32156
#
# Static dielectric constant tensor:
#      x y z
#    x 2.119830 0.053660 0.030710 
#    y 0.053660 2.192540 -0.058940 
#    z 0.030710 -0.058940 2.170890 
# 
# From -- ./inp_files/3531.got.cif
#   From: 2010.05.17/outbox.cif.g08.bks.cpg/sg2_2_cif.got.tgz:3531.got - 2010.06.03 11:33:40.
