data_PCOD9061143
_publ_section_title
;
Structure prediction by ZEFSAII (Michael W. Deem and Ramdas Pophale) SiO2 
 PCOD9061143
Probable space group: P -1
;
_chemical_formula_sum "Si O2"
_cell_formula_units_Z 12
_cell_length_a 7.704670
_cell_length_b 16.183718
_cell_length_c 9.824991
_cell_angle_alpha 45.985800
_cell_angle_beta 117.098280
_cell_angle_gamma 145.444440
_cell_volume 478.830095
_symmetry_space_group_name_H-M "P -1"
_symmetry_group_IT_number 2
_symmetry_cell_setting 'triclinic'
loop_
_space_group_symop_operation_xyz
x,y,z
-x,-y,-z
loop_
_atom_site_type_symbol
_atom_site_label
_atom_site_fract_x
_atom_site_fract_y
_atom_site_fract_z
Si Si1 0.735158 0.949130 0.379636
Si Si2 0.068119 0.299293 0.713149
Si Si3 0.924459 0.679106 0.821130
Si Si4 0.320981 0.560157 0.727225
Si Si5 0.710397 0.467878 0.738902
Si Si6 0.711642 0.923530 0.071933
O O1 0.406514 0.733608 0.551418
O O2 0.763587 0.943897 0.231579
O O3 0.000000 0.000000 0.500000
O O4 0.794657 0.106913 0.270745
O O5 0.081156 0.408033 0.699602
O O6 0.365976 0.355305 0.795211
O O7 0.165838 0.391915 0.496431
O O8 0.753383 0.076479 0.872095
O O9 0.652022 0.645260 0.721695
O O10 0.955383 0.605764 0.791081
O O11 0.792786 0.541481 0.054391
O O12 0.602430 0.293837 0.839498
O O13 0.000000 0.000000 0.000000
#
# Coordination Sequence:
#
# PCOD9061143 Si02
#       6
#     2   2   2   2   2   2
#     4  10  18  23  29  36  41  48  55  59  66  74
#     4   9  15  23  30  34  42  49  53  60  67  72
#     4   9  17  23  29  36  42  47  54  61  66  72
#     4   9  15  23  30  34  42  49  53  60  67  72
#     4   9  17  23  29  36  42  47  54  61  66  72
#     4  10  18  23  29  36  41  48  55  59  66  74
#
# _framework density 25.061081000000001
#
# number of rings (size 3 to 8) (size 9 to 14) (size 15 to 20)
#    0.000    2.667    3.333    0.000   14.000    0.000 
#    0.000    0.000    0.000    0.000    0.000    0.000 
#    0.000    0.000    0.000    0.000    0.000    0.000 
#
# Total GULP energy -66988.833004 kJ/mol
# GULP energy per Si atom -5582.402750 kJ/mol
# Density = 2.500404 g / cm^3
# Si number density = 25.061081 Si / 1000 Ang^3
#
#
#
# Elastic Constant Matrix: (Units=GPa)
#
#
# Indices 1 2 3 4 5 6 
#
# 1 75.5737 48.7891 0.1343 0.8527 -0.1220 0.3668
# 2 48.7891 214.2226 96.7523 -12.7108 29.7565 -75.2572
# 3 0.1343 96.7523 132.2520 -38.5682 13.2569 -58.7428
# 4 0.8527 -12.7108 -38.5682 41.4566 -31.1221 16.8262
# 5 -0.1220 29.7565 13.2569 -31.1221 -2.0889 8.9557
# 6 0.3668 -75.2572 -58.7428 16.8262 8.9557 50.7405
#
#
#
# Elastic Compliance Matrix: (Units=1/GPa)
#
#
# Indices 1 2 3 4 5 6 
#
# 1 0.016333 -0.004734 0.001803 -0.004098 -0.006673 -0.002515
# 2 -0.004734 0.007240 -0.003136 0.005870 0.010432 0.003354
# 3 0.001803 -0.003136 0.019570 0.009781 -0.001752 0.015058
# 4 -0.004098 0.005870 0.009781 0.015936 -0.016018 0.017603
# 5 -0.006673 0.010432 -0.001752 -0.016018 -0.012272 0.020971
# 6 -0.002515 0.003354 0.015058 0.017603 0.020971 0.032595
#
#
# Mechanical properties :
#
#
# Convention : Reuss Voigt Hill
#
# Bulk Modulus (GPa) = 32.24796 79.26665 55.75730
# Shear Modulus (GPa) = 49.08158 36.44648 42.76403
#
# Velocity S-wave (km/s) = 4.43027 3.81767 4.13533
# Velocity P-wave (km/s) = 6.25023 7.15059 6.71552
#
# Compressibility (1/GPa) = 0.03100971
#
# Stress axis : x y z
#
# Youngs Moduli (GPa) = 61.22620 138.11990 51.09874
#
# Poissons Ratio (x) = 0.65388 -0.09215
# Poissons Ratio (y) = 0.28986 0.16024
# Poissons Ratio (z) = -0.11042 0.43312
#
# Static dielectric constant tensor:
#      x y z
#    x 1.658930 0.575910 0.044160 
#    y 0.575910 1.204250 -0.050470 
#    z 0.044160 -0.050470 1.945940 
# 
# From -- ./inp_files/247221.got.cif
#   From: 2010.05.17/outbox.cif.g08.bks.cpg/sg2_124_cif.got.tgz:247221.got - 2010.06.03 11:33:40.
