data_PCOD9061880
_publ_section_title
;
Structure prediction by ZEFSAII (Michael W. Deem and Ramdas Pophale) SiO2 
 PCOD9061880
Probable space group: P -1
;
_chemical_formula_sum "Si O2"
_cell_formula_units_Z 16
_cell_length_a 15.871935
_cell_length_b 9.366114
_cell_length_c 11.389928
_cell_angle_alpha 75.619225
_cell_angle_beta 67.860832
_cell_angle_gamma 25.883192
_cell_volume 667.210969
_symmetry_space_group_name_H-M "P -1"
_symmetry_group_IT_number 2
_symmetry_cell_setting 'triclinic'
loop_
_space_group_symop_operation_xyz
x,y,z
-x,-y,-z
loop_
_atom_site_type_symbol
_atom_site_label
_atom_site_fract_x
_atom_site_fract_y
_atom_site_fract_z
Si Si1 0.391487 0.500317 0.578844
Si Si2 0.040681 0.966356 0.184869
Si Si3 0.997304 0.719670 0.691911
Si Si4 0.396598 0.896314 0.230445
Si Si5 0.399599 0.228142 0.161813
Si Si6 0.331609 0.720843 0.935540
Si Si7 0.208849 0.217435 0.877318
Si Si8 0.340276 0.337670 0.447814
O O1 0.500000 0.500000 0.500000
O O2 0.554346 0.178128 0.641570
O O3 0.355043 0.471695 0.480361
O O4 0.176688 0.789526 0.708248
O O5 0.201994 0.603336 0.145282
O O6 0.090545 0.003036 0.260568
O O7 0.107030 0.985303 0.042832
O O8 0.157340 0.411120 0.763480
O O9 0.115869 0.596293 0.538999
O O10 0.822267 0.857458 0.731110
O O11 0.562439 0.551658 0.148654
O O12 0.405584 0.051817 0.158784
O O13 0.381544 0.276647 0.302232
O O14 0.622256 0.975238 0.077881
O O15 0.289975 0.938723 0.851981
O O16 0.500000 0.500000 0.000000
O O17 0.000000 0.500000 0.000000
O O18 0.500000 0.000000 0.500000
#
# Coordination Sequence:
#
# PCOD9061880 Si02
#       8
#     2   2   2   2   2   2   2   2
#     4  11  28  46  70 105 140 181 242 299 347 414
#     4  11  25  49  71 102 144 189 232 284 362 412
#     4  11  24  44  73 104 138 188 233 287 350 424
#     4  12  27  45  68 107 145 177 242 290 341 421
#     4  12  26  45  71 105 141 188 231 293 347 420
#     4  12  24  47  74 103 141 186 232 288 349 421
#     4  12  23  44  76  99 140 187 234 280 362 417
#     4  11  23  46  72  97 143 184 233 285 360 414
#
# _framework density 23.980419999999999
#
# number of rings (size 3 to 8) (size 9 to 14) (size 15 to 20)
#    0.000    0.500    6.250    0.750    5.250    4.500 
#    0.000    0.000    0.000    0.000    0.000    0.000 
#    0.000    0.000    0.000    0.000    0.000    0.000 
#
# Total GULP energy -89454.645050 kJ/mol
# GULP energy per Si atom -5590.915316 kJ/mol
# Density = 2.392584 g / cm^3
# Si number density = 23.980420 Si / 1000 Ang^3
#
#
#
# Elastic Constant Matrix: (Units=GPa)
#
#
# Indices 1 2 3 4 5 6 
#
# 1 173.1188 54.1821 37.0615 23.0600 -26.3198 13.0526
# 2 54.1821 78.7003 0.0553 10.9955 -4.4538 17.4894
# 3 37.0615 0.0553 77.7438 10.5367 -2.7212 -5.8578
# 4 23.0600 10.9955 10.5367 36.3197 -9.2755 -5.9202
# 5 -26.3198 -4.4538 -2.7212 -9.2755 47.2009 4.8869
# 6 13.0526 17.4894 -5.8578 -5.9202 4.8869 42.1990
#
#
#
# Elastic Compliance Matrix: (Units=1/GPa)
#
#
# Indices 1 2 3 4 5 6 
#
# 1 0.009540 -0.005523 -0.004225 -0.002401 0.004299 -0.002083
# 2 -0.005523 0.018326 0.002686 -0.004144 -0.001396 -0.005934
# 3 -0.004225 0.002686 0.015339 -0.002733 -0.001980 0.002169
# 4 -0.002401 -0.004144 -0.002733 0.033142 0.003976 0.006270
# 5 0.004299 -0.001396 -0.001980 0.003976 0.024460 -0.003301
# 6 -0.002083 -0.005934 0.002169 0.006270 -0.003301 0.028364
#
#
# Mechanical properties :
#
#
# Convention : Reuss Voigt Hill
#
# Bulk Modulus (GPa) = 34.38800 56.90676 45.64738
# Shear Modulus (GPa) = 32.68189 41.02819 36.85504
#
# Velocity S-wave (km/s) = 3.69569 4.14079 3.92456
# Velocity P-wave (km/s) = 5.70807 6.82961 6.29387
#
# Compressibility (1/GPa) = 0.02907991
#
# Stress axis : x y z
#
# Youngs Moduli (GPa) = 104.82274 54.56814 65.19140
#
# Poissons Ratio (x) = 0.30140 0.27543
# Poissons Ratio (y) = 0.57897 -0.17508
# Poissons Ratio (z) = 0.44287 -0.14655
#
# Static dielectric constant tensor:
#      x y z
#    x 1.889420 -0.027010 -0.015000 
#    y -0.027010 1.940390 0.008720 
#    z -0.015000 0.008720 1.968790 
# 
# From -- ./inp_files/307238.got.cif
#   From: 2010.05.17/outbox.cif.g08.bks.cpg/sg2_154_cif.got.tgz:307238.got - 2010.06.03 11:33:40.
