data_PCOD9061548
_publ_section_title
;
Structure prediction by ZEFSAII (Michael W. Deem and Ramdas Pophale) SiO2 
 PCOD9061548
Probable space group: P -1
;
_chemical_formula_sum "Si O2"
_cell_formula_units_Z 14
_cell_length_a 16.968675
_cell_length_b 11.289151
_cell_length_c 16.457203
_cell_angle_alpha 33.687936
_cell_angle_beta 157.371634
_cell_angle_gamma 148.463606
_cell_volume 618.090395
_symmetry_space_group_name_H-M "P -1"
_symmetry_group_IT_number 2
_symmetry_cell_setting 'triclinic'
loop_
_space_group_symop_operation_xyz
x,y,z
-x,-y,-z
loop_
_atom_site_type_symbol
_atom_site_label
_atom_site_fract_x
_atom_site_fract_y
_atom_site_fract_z
Si Si1 0.226816 0.819612 0.033378
Si Si2 0.550376 0.257453 0.550344
Si Si3 0.888904 0.043316 0.603917
Si Si4 0.253751 0.358707 0.877870
Si Si5 0.661273 0.229482 0.159880
Si Si6 0.114798 0.892078 0.105818
Si Si7 0.706784 0.442109 0.909882
O O1 0.300049 0.715789 0.241711
O O2 0.231038 0.668325 0.046404
O O3 0.415485 0.076621 0.047305
O O4 0.000250 0.857941 0.806189
O O5 0.682974 0.192559 0.641025
O O6 0.492846 0.476091 0.347991
O O7 0.315766 0.055404 0.470679
O O8 0.801961 0.088719 0.408557
O O9 0.067194 0.282599 0.674038
O O10 0.231015 0.520168 0.836316
O O11 0.500000 0.500000 0.000000
O O12 0.227174 0.108900 0.028699
O O13 0.654175 0.269426 0.035066
O O14 0.912892 0.672487 0.003013
O O15 0.000000 0.000000 0.000000
#
# Coordination Sequence:
#
# PCOD9061548 Si02
#       7
#     2   2   2   2   2   2   2
#     4  11  24  46  71 101 139 189 245 283 345 422
#     4  11  24  46  72 101 137 188 235 291 347 422
#     4  11  23  45  73 102 138 187 239 286 342 425
#     4  12  21  47  74 101 138 184 238 287 347 424
#     4  11  25  42  68 104 142 184 232 295 358 411
#     4  12  26  47  69 107 143 178 237 294 362 412
#     4  12  26  45  69 103 147 183 232 300 352 413
#
# _framework density 22.650407999999999
#
# number of rings (size 3 to 8) (size 9 to 14) (size 15 to 20)
#    0.000    0.571    5.714    2.143    0.000    6.857 
#    0.000    0.000    0.000    0.000    0.000    0.000 
#    0.000    0.000    0.000    0.000    0.000    0.000 
#
# Total GULP energy -78270.475525 kJ/mol
# GULP energy per Si atom -5590.748252 kJ/mol
# Density = 2.259885 g / cm^3
# Si number density = 22.650408 Si / 1000 Ang^3
#
#
#
# Elastic Constant Matrix: (Units=GPa)
#
#
# Indices 1 2 3 4 5 6 
#
# 1 129.8406 34.6553 68.3102 4.0042 15.9181 -11.3239
# 2 34.6553 77.1259 29.1708 -5.5619 0.8521 -8.5830
# 3 68.3102 29.1708 148.5483 -7.1867 20.3601 -3.1329
# 4 4.0042 -5.5619 -7.1867 22.4523 0.1889 4.4752
# 5 15.9181 0.8521 20.3601 0.1889 41.9569 -13.5106
# 6 -11.3239 -8.5830 -3.1329 4.4752 -13.5106 41.7314
#
#
#
# Elastic Compliance Matrix: (Units=1/GPa)
#
#
# Indices 1 2 3 4 5 6 
#
# 1 0.011592 -0.003551 -0.004636 -0.004847 -0.001364 0.002146
# 2 -0.003551 0.015672 -0.001581 0.003465 0.002624 0.002619
# 3 -0.004636 -0.001581 0.009843 0.004120 -0.003816 -0.002522
# 4 -0.004847 0.003465 0.004120 0.048865 -0.002493 -0.006341
# 5 -0.001364 0.002624 -0.003816 -0.002493 0.029260 0.009623
# 6 0.002146 0.002619 -0.002522 -0.006341 0.009623 0.028690
#
#
# Mechanical properties :
#
#
# Convention : Reuss Voigt Hill
#
# Bulk Modulus (GPa) = 56.91162 68.86528 62.88845
# Shear Modulus (GPa) = 29.53054 36.12000 32.82527
#
# Velocity S-wave (km/s) = 3.61467 3.99767 3.81098
# Velocity P-wave (km/s) = 6.52700 7.19569 6.86949
#
# Compressibility (1/GPa) = 0.01757110
#
# Stress axis : x y z
#
# Youngs Moduli (GPa) = 86.26448 63.80842 101.59188
#
# Poissons Ratio (x) = 0.22660 0.47095
# Poissons Ratio (y) = 0.30634 0.16065
# Poissons Ratio (z) = 0.39990 0.10090
#
# Static dielectric constant tensor:
#      x y z
#    x 1.894790 -0.012830 0.001930 
#    y -0.012830 1.841230 0.005530 
#    z 0.001930 0.005530 1.876620 
# 
# From -- ./inp_files/473430.got.cif
#   From: 2010.05.17/outbox.cif.g08.bks.cpg/sg2_237_cif.got.tgz:473430.got - 2010.06.03 11:33:40.
