data_PCOD9061646
_publ_section_title
;
Structure prediction by ZEFSAII (Michael W. Deem and Ramdas Pophale) SiO2 
 PCOD9061646
Probable space group: P -1
;
_chemical_formula_sum "Si O2"
_cell_formula_units_Z 16
_cell_length_a 23.793494
_cell_length_b 5.152872
_cell_length_c 5.079247
_cell_angle_alpha 90.919469
_cell_angle_beta 106.900783
_cell_angle_gamma 109.891460
_cell_volume 555.702657
_symmetry_space_group_name_H-M "P -1"
_symmetry_group_IT_number 2
_symmetry_cell_setting 'triclinic'
loop_
_space_group_symop_operation_xyz
x,y,z
-x,-y,-z
loop_
_atom_site_type_symbol
_atom_site_label
_atom_site_fract_x
_atom_site_fract_y
_atom_site_fract_z
Si Si1 0.164293 0.513487 0.058520
Si Si2 0.397522 0.379370 0.705965
Si Si3 0.631825 0.174502 0.607055
Si Si4 0.770710 0.010591 0.536962
Si Si5 0.944661 0.824991 0.731025
Si Si6 0.525470 0.831302 0.812364
Si Si7 0.903581 0.244716 0.422343
Si Si8 0.260782 0.352573 0.985354
O O1 0.123076 0.684370 0.885750
O O2 0.198014 0.426245 0.857111
O O3 0.224185 0.699014 0.318609
O O4 0.116970 0.277846 0.167132
O O5 0.368450 0.616895 0.627006
O O6 0.269965 0.154796 0.767162
O O7 0.358241 0.099820 0.489703
O O8 0.419135 0.269567 0.998042
O O9 0.533126 0.453018 0.320940
O O10 0.562642 0.043566 0.640883
O O11 0.679357 0.370927 0.884736
O O12 0.840719 0.117233 0.509892
O O13 0.758091 0.813727 0.769449
O O14 0.946740 0.538318 0.612903
O O15 0.936224 0.019671 0.488714
O O16 0.000000 0.000000 0.000000
O O17 0.500000 0.000000 0.000000
#
# Coordination Sequence:
#
# PCOD9061646 Si02
#       8
#     2   2   2   2   2   2   2   2
#     4  11  26  48  79 109 156 211 264 316 400 464
#     4  11  26  47  72 106 144 193 242 307 382 454
#     4  12  29  46  72 111 150 192 252 316 385 458
#     4  11  25  48  76 110 152 208 262 318 393 462
#     4  11  25  44  73 116 158 200 263 327 388 465
#     4  11  25  47  78 105 146 194 249 310 385 461
#     4  11  23  45  75 108 152 206 261 314 393 462
#     4  12  28  50  77 113 161 203 264 327 389 473
#
# _framework density 28.792380000000001
#
# number of rings (size 3 to 8) (size 9 to 14) (size 15 to 20)
#    0.000    0.750    3.750    1.875    8.750    1.000 
#    2.250    0.000    0.000    2.250    0.000    0.000 
#    0.000    0.000    0.000    0.000    0.000    0.000 
#
# Total GULP energy -89700.919450 kJ/mol
# GULP energy per Si atom -5606.307466 kJ/mol
# Density = 2.872685 g / cm^3
# Si number density = 28.792380 Si / 1000 Ang^3
#
#
#
# Elastic Constant Matrix: (Units=GPa)
#
#
# Indices 1 2 3 4 5 6 
#
# 1 89.3765 44.1278 25.1207 3.7563 -8.2243 -8.2189
# 2 44.1278 223.8040 83.8680 21.7687 5.6121 2.7970
# 3 25.1207 83.8680 144.9476 15.0950 -2.6228 2.1777
# 4 3.7563 21.7687 15.0950 85.0605 2.7996 11.3389
# 5 -8.2243 5.6121 -2.6228 2.7996 48.3392 -0.9505
# 6 -8.2189 2.7970 2.1777 11.3389 -0.9505 56.4404
#
#
#
# Elastic Compliance Matrix: (Units=1/GPa)
#
#
# Indices 1 2 3 4 5 6 
#
# 1 0.013007 -0.002301 -0.000890 -0.000192 0.002485 0.002123
# 2 -0.002301 0.006210 -0.003124 -0.000843 -0.001241 -0.000374
# 3 -0.000890 -0.003124 0.008955 -0.000754 0.000738 -0.000156
# 4 -0.000192 -0.000843 -0.000754 0.012469 -0.000747 -0.002475
# 5 0.002485 -0.001241 0.000738 -0.000747 0.021355 0.000904
# 6 0.002123 -0.000374 -0.000156 -0.002475 0.000904 0.018564
#
#
# Mechanical properties :
#
#
# Convention : Reuss Voigt Hill
#
# Bulk Modulus (GPa) = 64.33775 84.92902 74.63339
# Shear Modulus (GPa) = 50.82893 58.30211 54.56552
#
# Velocity S-wave (km/s) = 4.20618 4.50479 4.35804
# Velocity P-wave (km/s) = 6.78109 7.52453 7.16246
#
# Compressibility (1/GPa) = 0.01554297
#
# Stress axis : x y z
#
# Youngs Moduli (GPa) = 76.88267 161.02514 111.67314
#
# Poissons Ratio (x) = 0.37058 0.09933
# Poissons Ratio (y) = 0.17694 0.34881
# Poissons Ratio (z) = 0.06839 0.50296
#
# Static dielectric constant tensor:
#      x y z
#    x 2.294070 -0.056670 0.069440 
#    y -0.056670 2.181810 0.046040 
#    z 0.069440 0.046040 2.255930 
# 
# From -- ./inp_files/125792.got.cif
#   From: 2010.05.17/outbox.cif.g08.bks.cpg/sg2_63_cif.got.tgz:125792.got - 2010.06.03 11:33:40.
