data_PCOD9061091
_publ_section_title
;
Structure prediction by ZEFSAII (Michael W. Deem and Ramdas Pophale) SiO2 
 PCOD9061091
Probable space group: P -1
;
_chemical_formula_sum "Si O2"
_cell_formula_units_Z 15
_cell_length_a 14.304525
_cell_length_b 13.669041
_cell_length_c 7.823368
_cell_angle_alpha 84.127648
_cell_angle_beta 84.033240
_cell_angle_gamma 23.634535
_cell_volume 609.838701
_symmetry_space_group_name_H-M "P -1"
_symmetry_group_IT_number 2
_symmetry_cell_setting 'triclinic'
loop_
_space_group_symop_operation_xyz
x,y,z
-x,-y,-z
loop_
_atom_site_type_symbol
_atom_site_label
_atom_site_fract_x
_atom_site_fract_y
_atom_site_fract_z
Si Si1 0.587237 0.969891 0.247942
Si Si2 0.873090 0.538939 0.126993
Si Si3 0.500000 0.500000 0.500000
Si Si4 0.218536 0.188232 0.426171
Si Si5 0.282980 0.647859 0.090869
Si Si6 0.348597 0.853619 0.345630
Si Si7 0.579671 0.681482 0.971991
Si Si8 0.961867 0.093283 0.262716
O O1 0.354487 0.158945 0.356447
O O2 0.636311 0.823391 0.162135
O O3 0.799590 0.784075 0.372186
O O4 0.551349 0.102238 0.126379
O O5 0.820255 0.495194 0.032571
O O6 0.003741 0.387970 0.302847
O O7 0.000000 0.500000 0.000000
O O8 0.488236 0.631875 0.447054
O O9 0.737314 0.267510 0.370261
O O10 0.354942 0.954404 0.412701
O O11 0.500000 0.500000 0.000000
O O12 0.371343 0.453932 0.141665
O O13 0.104908 0.813567 0.935436
O O14 0.169898 0.811953 0.244789
O O15 0.443533 0.772935 0.147776
O O16 0.084706 0.065488 0.339921
#
# Coordination Sequence:
#
# PCOD9061091 Si02
#       8
#     2   2   1   2   2   2   2   2
#     4  11  25  45  69 109 151 192 241 309 369 446
#     4  12  23  45  74 106 143 197 247 302 367 450
#     4  12  26  48  68 108 142 190 250 308 378 444
#     4  11  25  45  70 104 151 191 242 305 376 446
#     4  11  23  44  72 108 148 189 249 314 372 440
#     4  12  25  46  75 102 145 199 246 311 378 451
#     4  12  23  46  75 108 149 197 254 304 373 454
#     4  11  24  46  74 102 145 197 248 314 372 455
#
# _framework density 24.59667
#
# number of rings (size 3 to 8) (size 9 to 14) (size 15 to 20)
#    0.000    0.533    5.333    2.800    0.000    2.133 
#    2.400    0.000    0.000    0.000    0.000    0.000 
#    0.000    0.000    0.000    0.000    0.000    0.000 
#
# Total GULP energy -83691.734747 kJ/mol
# GULP energy per Si atom -5579.448983 kJ/mol
# Density = 2.454069 g / cm^3
# Si number density = 24.596670 Si / 1000 Ang^3
#
#
#
# Elastic Constant Matrix: (Units=GPa)
#
#
# Indices 1 2 3 4 5 6 
#
# 1 130.0005 40.5643 37.9406 -0.7339 -13.9392 25.1682
# 2 40.5643 77.5598 18.3898 8.9556 -14.7288 24.3255
# 3 37.9406 18.3898 84.7265 -1.8594 -13.4730 10.6558
# 4 -0.7339 8.9556 -1.8594 44.6492 0.5595 -3.4854
# 5 -13.9392 -14.7288 -13.4730 0.5595 44.1567 -6.2224
# 6 25.1682 24.3255 10.6558 -3.4854 -6.2224 53.1004
#
#
#
# Elastic Compliance Matrix: (Units=1/GPa)
#
#
# Indices 1 2 3 4 5 6 
#
# 1 0.010421 -0.003845 -0.003421 0.000607 0.000620 -0.002379
# 2 -0.003845 0.018292 -0.000962 -0.004304 0.003774 -0.006204
# 3 -0.003421 -0.000962 0.014055 0.000657 0.002825 -0.000384
# 4 0.000607 -0.004304 0.000657 0.023542 -0.000921 0.002990
# 5 0.000620 0.003774 0.002825 -0.000921 0.025015 0.000281
# 6 -0.002379 -0.006204 -0.000384 0.002990 0.000281 0.023108
#
#
# Mechanical properties :
#
#
# Convention : Reuss Voigt Hill
#
# Bulk Modulus (GPa) = 38.00606 54.00846 46.00726
# Shear Modulus (GPa) = 35.80098 41.40739 38.60418
#
# Velocity S-wave (km/s) = 3.81927 4.10744 3.96597
# Velocity P-wave (km/s) = 5.91053 6.67084 6.30216
#
# Compressibility (1/GPa) = 0.02631160
#
# Stress axis : x y z
#
# Youngs Moduli (GPa) = 95.96046 54.66830 71.14717
#
# Poissons Ratio (x) = 0.21022 0.24338
# Poissons Ratio (y) = 0.36900 0.06847
# Poissons Ratio (z) = 0.32826 0.05261
#
# Static dielectric constant tensor:
#      x y z
#    x 1.903840 -0.043030 0.035720 
#    y -0.043030 2.227980 0.002820 
#    z 0.035720 0.002820 2.120310 
# 
# From -- ./inp_files/262391.got.cif
#   From: 2010.05.17/outbox.cif.g08.bks.cpg/sg2_132_cif.got.tgz:262391.got - 2010.06.03 11:33:40.
