data_PCOD9061997
_publ_section_title
;
Structure prediction by ZEFSAII (Michael W. Deem and Ramdas Pophale) SiO2 
 PCOD9061997
Probable space group: P -1
;
_chemical_formula_sum "Si O2"
_cell_formula_units_Z 14
_cell_length_a 9.827509
_cell_length_b 7.337858
_cell_length_c 9.288029
_cell_angle_alpha 111.095774
_cell_angle_beta 121.704601
_cell_angle_gamma 88.045435
_cell_volume 521.401668
_symmetry_space_group_name_H-M "P -1"
_symmetry_group_IT_number 2
_symmetry_cell_setting 'triclinic'
loop_
_space_group_symop_operation_xyz
x,y,z
-x,-y,-z
loop_
_atom_site_type_symbol
_atom_site_label
_atom_site_fract_x
_atom_site_fract_y
_atom_site_fract_z
Si Si1 0.712668 0.414211 0.191145
Si Si2 0.401685 0.918087 0.778954
Si Si3 0.139059 0.158152 0.695187
Si Si4 0.373625 0.175949 0.384535
Si Si5 0.933875 0.175618 0.835809
Si Si6 0.173239 0.455446 0.226450
Si Si7 0.573069 0.371216 0.808999
O O1 0.735864 0.264932 0.288059
O O2 0.841897 0.614695 0.284546
O O3 0.553823 0.495606 0.177078
O O4 0.658620 0.304017 0.978468
O O5 0.307310 0.090711 0.729985
O O6 0.514952 0.850945 0.699380
O O7 0.500000 0.000000 0.000000
O O8 0.217926 0.997990 0.265605
O O9 0.088519 0.122407 0.824108
O O10 0.000000 0.000000 0.500000
O O11 0.287832 0.369801 0.376797
O O12 0.489997 0.214201 0.599074
O O13 0.872616 0.327911 0.732318
O O14 0.010035 0.295944 0.053443
O O15 0.282447 0.484242 0.151715
#
# Coordination Sequence:
#
# PCOD9061997 Si02
#       7
#     2   2   2   2   2   2   2
#     4  11  25  49  76 107 158 201 249 321 389 454
#     4  12  28  47  82 114 153 206 261 317 387 464
#     4  12  28  50  73 114 159 205 255 316 397 467
#     4  12  27  46  79 120 146 194 271 322 370 466
#     4  11  27  46  72 108 157 200 246 318 394 457
#     4  11  24  47  73 106 150 199 249 315 390 448
#     4  11  23  46  77 109 148 196 257 316 378 454
#
# _framework density 26.850702999999999
#
# number of rings (size 3 to 8) (size 9 to 14) (size 15 to 20)
#    0.000    0.571    2.857    4.286    6.000    2.286 
#    0.000    0.000    0.000    0.000    0.000    0.000 
#    0.000    0.000    0.000    0.000    0.000    0.000 
#
# Total GULP energy -78438.647112 kJ/mol
# GULP energy per Si atom -5602.760508 kJ/mol
# Density = 2.678959 g / cm^3
# Si number density = 26.850703 Si / 1000 Ang^3
#
#
#
# Elastic Constant Matrix: (Units=GPa)
#
#
# Indices 1 2 3 4 5 6 
#
# 1 161.3603 26.0060 54.3709 5.3986 -0.6432 16.4207
# 2 26.0060 112.8537 31.5977 -7.6089 -2.0291 15.6576
# 3 54.3709 31.5977 139.3005 16.0574 6.1452 19.2307
# 4 5.3986 -7.6089 16.0574 30.1601 3.9926 -1.8959
# 5 -0.6432 -2.0291 6.1452 3.9926 42.9963 8.1399
# 6 16.4207 15.6576 19.2307 -1.8959 8.1399 57.8012
#
#
#
# Elastic Compliance Matrix: (Units=1/GPa)
#
#
# Indices 1 2 3 4 5 6 
#
# 1 0.007302 -0.000840 -0.002493 -0.000351 0.000671 -0.001123
# 2 -0.000840 0.010177 -0.002192 0.003670 0.000777 -0.001778
# 3 -0.002493 -0.002192 0.009551 -0.005228 -0.000650 -0.001955
# 4 -0.000351 0.003670 -0.005228 0.037488 -0.003040 0.002503
# 5 0.000671 0.000777 -0.000650 -0.003040 0.024384 -0.003718
# 6 -0.001123 -0.001778 -0.001955 0.002503 -0.003718 0.019358
#
#
# Mechanical properties :
#
#
# Convention : Reuss Voigt Hill
#
# Bulk Modulus (GPa) = 62.59143 70.82930 66.71036
# Shear Modulus (GPa) = 40.11686 46.29418 43.20552
#
# Velocity S-wave (km/s) = 3.86951 4.15677 4.01571
# Velocity P-wave (km/s) = 6.58223 7.03381 6.81176
#
# Compressibility (1/GPa) = 0.01597663
#
# Stress axis : x y z
#
# Youngs Moduli (GPa) = 136.95609 98.26519 104.70616
#
# Poissons Ratio (x) = 0.08256 0.26108
# Poissons Ratio (y) = 0.11507 0.22956
# Poissons Ratio (z) = 0.34149 0.21543
#
# Static dielectric constant tensor:
#      x y z
#    x 2.799280 -0.072170 -0.772210 
#    y -0.072170 2.184630 0.148820 
#    z -0.772210 0.148820 2.853610 
# 
# From -- ./inp_files/260732.got.cif
#   From: 2010.05.17/outbox.cif.g08.bks.cpg/sg2_131_cif.got.tgz:260732.got - 2010.06.03 11:33:40.
