data_PCOD9061474
_publ_section_title
;
Structure prediction by ZEFSAII (Michael W. Deem and Ramdas Pophale) SiO2 
 PCOD9061474
Probable space group: P -1
;
_chemical_formula_sum "Si O2"
_cell_formula_units_Z 16
_cell_length_a 16.728249
_cell_length_b 16.544695
_cell_length_c 16.845168
_cell_angle_alpha 162.837738
_cell_angle_beta 145.528511
_cell_angle_gamma 37.782087
_cell_volume 778.540930
_symmetry_space_group_name_H-M "P -1"
_symmetry_group_IT_number 2
_symmetry_cell_setting 'triclinic'
loop_
_space_group_symop_operation_xyz
x,y,z
-x,-y,-z
loop_
_atom_site_type_symbol
_atom_site_label
_atom_site_fract_x
_atom_site_fract_y
_atom_site_fract_z
Si Si1 0.855158 0.561257 0.484532
Si Si2 0.673242 0.723164 0.058598
Si Si3 0.484807 0.815982 0.533609
Si Si4 0.398325 0.255889 0.162124
Si Si5 0.120456 0.312270 0.085231
Si Si6 0.188909 0.029006 0.036680
Si Si7 0.987385 0.877634 0.464114
Si Si8 0.550228 0.712377 0.307318
O O1 0.875536 0.829783 0.805838
O O2 0.715416 0.631538 0.383278
O O3 0.000000 0.500000 0.500000
O O4 0.822288 0.298066 0.267395
O O5 0.838342 0.735742 0.224560
O O6 0.601907 0.940357 0.264999
O O7 0.581577 0.453583 0.737937
O O8 0.671939 0.754255 0.991527
O O9 0.647046 0.885443 0.749803
O O10 0.483025 0.743292 0.369783
O O11 0.500000 0.500000 0.500000
O O12 0.274605 0.237828 0.107468
O O13 0.500000 0.000000 0.000000
O O14 0.116214 0.181646 0.046390
O O15 0.097604 0.636419 0.354187
O O16 0.008076 0.143409 0.784259
O O17 0.000000 0.000000 0.500000
O O18 0.500000 0.000000 0.500000
O O19 0.500000 0.500000 0.000000
#
# Coordination Sequence:
#
# PCOD9061474 Si02
#       8
#     2   2   2   2   2   2   2   2
#     4  11  24  46  72 102 141 180 223 281 354 420
#     4  12  24  43  64  96 134 176 229 271 341 401
#     4  11  24  44  70  98 135 174 221 286 341 395
#     4  12  25  39  66  98 127 169 228 284 325 396
#     4  12  25  44  68  95 134 179 233 274 343 404
#     4  11  23  45  71  99 135 175 223 285 342 397
#     4  12  26  45  65  91 142 190 220 278 345 405
#     4  11  23  45  71 104 138 179 223 278 350 422
#
# _framework density 20.551262999999999
#
# number of rings (size 3 to 8) (size 9 to 14) (size 15 to 20)
#    0.000    0.500    1.250    9.000    1.750    0.000 
#   13.500    0.000    0.000    0.000    0.000    0.000 
#    0.000    0.000    0.000    0.000    0.000    0.000 
#
# Total GULP energy -89218.420479 kJ/mol
# GULP energy per Si atom -5576.151280 kJ/mol
# Density = 2.050449 g / cm^3
# Si number density = 20.551263 Si / 1000 Ang^3
#
#
#
# Elastic Constant Matrix: (Units=GPa)
#
#
# Indices 1 2 3 4 5 6 
#
# 1 67.0388 31.8485 0.5680 -5.3674 -4.8121 -14.3140
# 2 31.8485 88.7261 15.5678 9.8921 -3.2962 4.9900
# 3 0.5680 15.5678 107.0282 14.9534 -10.0361 -2.8244
# 4 -5.3674 9.8921 14.9534 43.7157 6.0528 -6.9951
# 5 -4.8121 -3.2962 -10.0361 6.0528 50.1743 -1.5551
# 6 -14.3140 4.9900 -2.8244 -6.9951 -1.5551 43.8060
#
#
#
# Elastic Compliance Matrix: (Units=1/GPa)
#
#
# Indices 1 2 3 4 5 6 
#
# 1 0.021695 -0.009027 0.000752 0.005739 0.001229 0.009126
# 2 -0.009027 0.015689 -0.001655 -0.005031 0.000266 -0.005638
# 3 0.000752 -0.001655 0.010285 -0.003283 0.002437 0.000660
# 4 0.005739 -0.005031 -0.003283 0.027368 -0.003537 0.006482
# 5 0.001229 0.000266 0.002437 -0.003537 0.021002 0.000709
# 6 0.009126 -0.005638 0.000660 0.006482 0.000709 0.027555
#
#
# Mechanical properties :
#
#
# Convention : Reuss Voigt Hill
#
# Bulk Modulus (GPa) = 35.95945 39.86243 37.91094
# Shear Modulus (GPa) = 32.73889 41.85978 37.29934
#
# Velocity S-wave (km/s) = 3.99561 4.51804 4.26483
# Velocity P-wave (km/s) = 6.23073 6.83049 6.53749
#
# Compressibility (1/GPa) = 0.02780910
#
# Stress axis : x y z
#
# Youngs Moduli (GPa) = 46.09332 63.73819 97.23188
#
# Poissons Ratio (x) = 0.57536 -0.07312
# Poissons Ratio (y) = 0.41608 0.16092
# Poissons Ratio (z) = -0.03466 0.10549
#
# Static dielectric constant tensor:
#      x y z
#    x 1.787280 0.037890 -0.006230 
#    y 0.037890 1.784420 0.001960 
#    z -0.006230 0.001960 1.697390 
# 
# From -- ./inp_files/534681.got.cif
#   From: 2010.05.17/outbox.cif.g08.bks.cpg/sg2_268_cif.got.tgz:534681.got - 2010.06.03 11:33:40.
