data_PCOD9061054
_publ_section_title
;
Structure prediction by ZEFSAII (Michael W. Deem and Ramdas Pophale) SiO2 
 PCOD9061054
Probable space group: P -1
;
_chemical_formula_sum "Si O2"
_cell_formula_units_Z 16
_cell_length_a 7.468148
_cell_length_b 16.395043
_cell_length_c 8.860562
_cell_angle_alpha 133.957896
_cell_angle_beta 66.957304
_cell_angle_gamma 114.494486
_cell_volume 701.725819
_symmetry_space_group_name_H-M "P -1"
_symmetry_group_IT_number 2
_symmetry_cell_setting 'triclinic'
loop_
_space_group_symop_operation_xyz
x,y,z
-x,-y,-z
loop_
_atom_site_type_symbol
_atom_site_label
_atom_site_fract_x
_atom_site_fract_y
_atom_site_fract_z
Si Si1 0.046723 0.500572 0.305115
Si Si2 0.609257 0.727350 0.474490
Si Si3 0.860580 0.852265 0.002199
Si Si4 0.635163 0.655843 0.036199
Si Si5 0.643582 0.498321 0.307868
Si Si6 0.564123 0.991261 0.143537
Si Si7 0.151659 0.015887 0.333225
Si Si8 0.203395 0.756155 0.613584
O O1 0.837861 0.456302 0.237783
O O2 0.303843 0.368519 0.591926
O O3 0.000000 0.500000 0.500000
O O4 0.197417 0.420399 0.112958
O O5 0.392504 0.734280 0.622753
O O6 0.135584 0.633181 0.396212
O O7 0.755994 0.851518 0.571840
O O8 0.570099 0.682633 0.258254
O O9 0.731857 0.775353 0.074538
O O10 0.999331 0.776127 0.779134
O O11 0.705170 0.902385 0.015329
O O12 0.026217 0.952933 0.153416
O O13 0.466477 0.581456 0.891151
O O14 0.500000 0.500000 0.500000
O O15 0.343199 0.964063 0.252009
O O16 0.688763 0.116965 0.322943
O O17 0.500000 0.000000 0.000000
O O18 0.000000 0.000000 0.500000
#
# Coordination Sequence:
#
# PCOD9061054 Si02
#       8
#     2   2   2   2   2   2   2   2
#     4  12  24  44  71 105 141 194 244 296 362 434
#     4  11  26  48  76 108 151 188 244 314 363 435
#     4  12  25  45  76 105 145 197 241 300 369 436
#     4  12  26  49  70 109 151 186 246 308 361 440
#     4  12  25  45  75 104 144 195 241 297 366 430
#     4  11  26  44  71 108 142 187 247 305 355 433
#     4  11  25  49  72 107 147 192 240 299 373 436
#     4  11  23  44  72 102 145 186 244 301 355 433
#
# _framework density 22.800930000000001
#
# number of rings (size 3 to 8) (size 9 to 14) (size 15 to 20)
#    0.000    0.500    6.250    0.750    1.750    6.000 
#    0.000    0.000    0.000    0.000    0.000    0.000 
#    0.000    0.000    0.000    0.000    0.000    0.000 
#
# Total GULP energy -89472.338867 kJ/mol
# GULP energy per Si atom -5592.021179 kJ/mol
# Density = 2.274903 g / cm^3
# Si number density = 22.800930 Si / 1000 Ang^3
#
#
#
# Elastic Constant Matrix: (Units=GPa)
#
#
# Indices 1 2 3 4 5 6 
#
# 1 173.7452 50.2569 43.0067 1.7467 -4.3534 -5.2958
# 2 50.2569 96.4520 39.7434 5.2126 2.2241 2.4175
# 3 43.0067 39.7434 84.0442 10.3505 -3.1866 -7.9391
# 4 1.7467 5.2126 10.3505 29.9339 13.0330 0.1055
# 5 -4.3534 2.2241 -3.1866 13.0330 31.8858 -0.9769
# 6 -5.2958 2.4175 -7.9391 0.1055 -0.9769 30.2919
#
#
#
# Elastic Compliance Matrix: (Units=1/GPa)
#
#
# Indices 1 2 3 4 5 6 
#
# 1 0.007192 -0.002883 -0.002266 0.000528 0.000769 0.000916
# 2 -0.002883 0.014357 -0.005798 0.000715 -0.002366 -0.003248
# 3 -0.002266 -0.005798 0.017289 -0.006947 0.004809 0.004777
# 4 0.000528 0.000715 -0.006947 0.043780 -0.018645 -0.002539
# 5 0.000769 -0.002366 0.004809 -0.018645 0.039823 0.002933
# 6 0.000916 -0.003248 0.004777 -0.002539 0.002933 0.034787
#
#
# Mechanical properties :
#
#
# Convention : Reuss Voigt Hill
#
# Bulk Modulus (GPa) = 59.02227 68.91729 63.96978
# Shear Modulus (GPa) = 27.06034 33.17126 30.11580
#
# Velocity S-wave (km/s) = 3.44875 3.81835 3.63824
# Velocity P-wave (km/s) = 6.46534 7.05202 6.76504
#
# Compressibility (1/GPa) = 0.01694276
#
# Stress axis : x y z
#
# Youngs Moduli (GPa) = 139.03632 69.65417 57.83898
#
# Poissons Ratio (x) = 0.20081 0.13109
# Poissons Ratio (y) = 0.40084 0.33537
# Poissons Ratio (z) = 0.31512 0.40388
#
# Static dielectric constant tensor:
#      x y z
#    x 1.832760 0.008700 -0.005570 
#    y 0.008700 1.860870 -0.001540 
#    z -0.005570 -0.001540 1.927610 
# 
# From -- ./inp_files/140829.got.cif
#   From: 2010.05.17/outbox.cif.g08.bks.cpg/sg2_71_cif.got.tgz:140829.got - 2010.06.03 11:33:40.
