data_PCOD9061366
_publ_section_title
;
Structure prediction by ZEFSAII (Michael W. Deem and Ramdas Pophale) SiO2 
 PCOD9061366
Probable space group: P -1
;
_chemical_formula_sum "Si O2"
_cell_formula_units_Z 13
_cell_length_a 8.541329
_cell_length_b 8.815738
_cell_length_c 11.905325
_cell_angle_alpha 42.243895
_cell_angle_beta 70.447057
_cell_angle_gamma 66.856880
_cell_volume 552.784356
_symmetry_space_group_name_H-M "P -1"
_symmetry_group_IT_number 2
_symmetry_cell_setting 'triclinic'
loop_
_space_group_symop_operation_xyz
x,y,z
-x,-y,-z
loop_
_atom_site_type_symbol
_atom_site_label
_atom_site_fract_x
_atom_site_fract_y
_atom_site_fract_z
Si Si1 0.259518 0.888103 0.905573
Si Si2 0.645392 0.258759 0.262560
Si Si3 0.317647 0.291789 0.450703
Si Si4 0.868489 0.586264 0.082808
Si Si5 0.969333 0.314127 0.774662
Si Si6 0.500000 0.500000 0.500000
Si Si7 0.415357 0.993758 0.144382
O O1 0.283560 0.708455 0.896316
O O2 0.450274 0.915177 0.860994
O O3 0.177712 0.811621 0.079232
O O4 0.120949 0.128691 0.779845
O O5 0.446210 0.339245 0.294710
O O6 0.745233 0.408740 0.232147
O O7 0.686633 0.978795 0.417275
O O8 0.132191 0.459778 0.388344
O O9 0.410048 0.350016 0.510006
O O10 0.948821 0.621232 0.164339
O O11 0.762006 0.827287 0.926046
O O12 0.000000 0.500000 0.000000
O O13 0.411023 0.740316 0.324774
O O14 0.500000 0.000000 0.000000
#
# Coordination Sequence:
#
# PCOD9061366 Si02
#       7
#     2   2   2   2   2   1   2
#     4  11  23  45  69 102 143 191 247 293 369 434
#     4  11  25  47  69 106 145 194 238 296 376 436
#     4  11  27  47  72 105 148 189 249 305 359 447
#     4  12  26  43  72 110 147 193 239 301 378 435
#     4  11  25  44  72 109 143 193 246 304 372 436
#     4  12  26  48  78 108 136 198 256 296 364 438
#     4  12  25  48  76 104 145 197 248 302 362 452
#
# _framework density 23.517306999999999
#
# number of rings (size 3 to 8) (size 9 to 14) (size 15 to 20)
#    0.000    0.615    4.615    2.769    4.308    2.462 
#    2.769    0.000    0.000    0.000    0.000    0.000 
#    0.000    0.000    0.000    0.000    0.000    0.000 
#
# Total GULP energy -72419.721055 kJ/mol
# GULP energy per Si atom -5570.747773 kJ/mol
# Density = 2.346378 g / cm^3
# Si number density = 23.517307 Si / 1000 Ang^3
#
#
#
# Elastic Constant Matrix: (Units=GPa)
#
#
# Indices 1 2 3 4 5 6 
#
# 1 82.1008 39.7585 43.4844 -12.1440 13.8184 7.7817
# 2 39.7585 95.1874 35.4306 -11.9185 20.4153 -13.9629
# 3 43.4844 35.4306 117.8429 -34.9135 24.4293 -4.6156
# 4 -12.1440 -11.9185 -34.9135 36.0235 -4.8141 -6.5487
# 5 13.8184 20.4153 24.4293 -4.8141 48.4921 -12.6512
# 6 7.7817 -13.9629 -4.6156 -6.5487 -12.6512 51.6777
#
#
#
# Elastic Compliance Matrix: (Units=1/GPa)
#
#
# Indices 1 2 3 4 5 6 
#
# 1 0.018777 -0.006600 -0.005615 -0.002553 -0.001512 -0.005806
# 2 -0.006600 0.015075 -0.000546 0.002729 -0.002692 0.004705
# 3 -0.005615 -0.000546 0.015471 0.012888 -0.003969 0.002741
# 4 -0.002553 0.002729 0.012888 0.041505 -0.000885 0.007316
# 5 -0.001512 -0.002692 -0.003969 -0.000885 0.025473 0.005269
# 6 -0.005806 0.004705 0.002741 0.007316 0.005269 0.023958
#
#
# Mechanical properties :
#
#
# Convention : Reuss Voigt Hill
#
# Bulk Modulus (GPa) = 42.01567 59.16422 50.58995
# Shear Modulus (GPa) = 28.78292 39.00249 33.89271
#
# Velocity S-wave (km/s) = 3.50223 4.07684 3.80041
# Velocity P-wave (km/s) = 5.85310 6.88282 6.38874
#
# Compressibility (1/GPa) = 0.02380064
#
# Stress axis : x y z
#
# Youngs Moduli (GPa) = 53.25548 66.33527 64.63881
#
# Poissons Ratio (x) = 0.43783 0.36294
# Poissons Ratio (y) = 0.35150 0.03530
# Poissons Ratio (z) = 0.29902 0.03622
#
# Static dielectric constant tensor:
#      x y z
#    x 1.990400 0.072390 -0.096840 
#    y 0.072390 1.873390 0.028000 
#    z -0.096840 0.028000 1.926780 
# 
# From -- ./inp_files/150774.got.cif
#   From: 2010.05.17/outbox.cif.g08.bks.cpg/sg2_76_cif.got.tgz:150774.got - 2010.06.03 11:33:40.
