data_PCOD9061025
_publ_section_title
;
Structure prediction by ZEFSAII (Michael W. Deem and Ramdas Pophale) SiO2 
 PCOD9061025
Probable space group: P -1
;
_chemical_formula_sum "Si O2"
_cell_formula_units_Z 15
_cell_length_a 11.467310
_cell_length_b 5.363755
_cell_length_c 13.787683
_cell_angle_alpha 122.331363
_cell_angle_beta 55.118045
_cell_angle_gamma 102.998306
_cell_volume 583.810222
_symmetry_space_group_name_H-M "P -1"
_symmetry_group_IT_number 2
_symmetry_cell_setting 'triclinic'
loop_
_space_group_symop_operation_xyz
x,y,z
-x,-y,-z
loop_
_atom_site_type_symbol
_atom_site_label
_atom_site_fract_x
_atom_site_fract_y
_atom_site_fract_z
Si Si1 0.541723 0.721280 0.109123
Si Si2 0.272985 0.745035 0.691832
Si Si3 0.695005 0.299531 0.116673
Si Si4 0.318425 0.755827 0.370157
Si Si5 0.994019 0.125777 0.849062
Si Si6 0.104417 0.412092 0.342334
Si Si7 0.909381 0.725146 0.360688
Si Si8 0.500000 0.000000 0.500000
O O1 0.623023 0.518198 0.113783
O O2 0.396653 0.860593 0.259937
O O3 0.632025 0.979574 0.081883
O O4 0.500000 0.500000 0.000000
O O5 0.320881 0.600504 0.742264
O O6 0.208964 0.495798 0.605841
O O7 0.132689 0.988168 0.814740
O O8 0.403059 0.884605 0.611903
O O9 0.863175 0.257571 0.003131
O O10 0.265430 0.439728 0.303768
O O11 0.174302 0.960801 0.510797
O O12 0.417444 0.797023 0.422044
O O13 0.929625 0.880767 0.759075
O O14 0.051889 0.328739 0.781098
O O15 0.000000 0.500000 0.500000
O O16 0.053967 0.660422 0.337429
#
# Coordination Sequence:
#
# PCOD9061025 Si02
#       8
#     2   2   2   2   2   2   2   1
#     4  12  30  53  76 114 157 218 263 320 390 475
#     4  11  26  48  75 117 155 204 259 322 402 467
#     4  12  29  50  80 110 160 209 272 317 392 470
#     4  12  25  46  78 108 155 197 258 320 394 464
#     4  11  25  47  76 109 154 200 262 326 387 467
#     4  11  23  44  71 114 145 195 255 330 392 458
#     4  11  25  44  78 111 149 197 260 328 392 459
#     4  12  24  50  68 108 160 190 252 312 394 466
#
# _framework density 25.693282
#
# number of rings (size 3 to 8) (size 9 to 14) (size 15 to 20)
#    0.000    0.533    4.000    2.800    9.333    3.200 
#    0.000    0.000    0.000    0.000    0.000    0.000 
#    0.000    0.000    0.000    0.000    0.000    0.000 
#
# Total GULP energy -83746.807032 kJ/mol
# GULP energy per Si atom -5583.120469 kJ/mol
# Density = 2.563480 g / cm^3
# Si number density = 25.693282 Si / 1000 Ang^3
#
#
#
# Elastic Constant Matrix: (Units=GPa)
#
#
# Indices 1 2 3 4 5 6 
#
# 1 145.6346 63.1900 18.4668 0.2137 23.3231 14.6943
# 2 63.1900 109.4328 22.8114 -29.3683 -14.8994 10.8321
# 3 18.4668 22.8114 90.2524 -24.7192 6.7878 0.0893
# 4 0.2137 -29.3683 -24.7192 35.1360 12.3396 3.8261
# 5 23.3231 -14.8994 6.7878 12.3396 37.3177 -2.3394
# 6 14.6943 10.8321 0.0893 3.8261 -2.3394 56.6399
#
#
#
# Elastic Compliance Matrix: (Units=1/GPa)
#
#
# Indices 1 2 3 4 5 6 
#
# 1 0.013234 -0.010170 -0.000782 -0.005255 -0.010550 -0.001568
# 2 -0.010170 0.020190 -0.000008 0.013686 0.009784 -0.001743
# 3 -0.000782 -0.000008 0.015403 0.013327 -0.006786 -0.001001
# 4 -0.005255 0.013686 0.013327 0.054076 -0.011896 -0.005419
# 5 -0.010550 0.009784 -0.006786 -0.011896 0.042681 0.003443
# 6 -0.001568 -0.001743 -0.001001 -0.005419 0.003443 0.018905
#
#
# Mechanical properties :
#
#
# Convention : Reuss Voigt Hill
#
# Bulk Modulus (GPa) = 37.16426 61.58401 49.37413
# Shear Modulus (GPa) = 25.59142 41.87549 33.73345
#
# Velocity S-wave (km/s) = 3.15943 4.04149 3.62737
# Velocity P-wave (km/s) = 5.27307 6.76750 6.06648
#
# Compressibility (1/GPa) = 0.02690757
#
# Stress axis : x y z
#
# Youngs Moduli (GPa) = 75.56331 49.53000 64.92040
#
# Poissons Ratio (x) = 0.50374 0.05075
# Poissons Ratio (y) = 0.76851 0.00050
# Poissons Ratio (z) = 0.05907 0.00038
#
# Static dielectric constant tensor:
#      x y z
#    x 2.002480 -0.068270 -0.032170 
#    y -0.068270 2.121210 0.061410 
#    z -0.032170 0.061410 2.012900 
# 
# From -- ./inp_files/71193.got.cif
#   From: 2010.05.17/outbox.cif.g08.bks.cpg/sg2_36_cif.got.tgz:71193.got - 2010.06.03 11:33:40.
