data_PCOD9061877
_publ_section_title
;
Structure prediction by ZEFSAII (Michael W. Deem and Ramdas Pophale) SiO2 
 PCOD9061877
Probable space group: P -1
;
_chemical_formula_sum "Si O2"
_cell_formula_units_Z 16
_cell_length_a 15.049739
_cell_length_b 9.813196
_cell_length_c 9.824825
_cell_angle_alpha 104.725260
_cell_angle_beta 55.450720
_cell_angle_gamma 64.077754
_cell_volume 790.273779
_symmetry_space_group_name_H-M "P -1"
_symmetry_group_IT_number 2
_symmetry_cell_setting 'triclinic'
loop_
_space_group_symop_operation_xyz
x,y,z
-x,-y,-z
loop_
_atom_site_type_symbol
_atom_site_label
_atom_site_fract_x
_atom_site_fract_y
_atom_site_fract_z
Si Si1 0.416746 0.691678 0.717994
Si Si2 0.887226 0.507108 0.195431
Si Si3 0.486465 0.084975 0.386887
Si Si4 0.090979 0.838868 0.003073
Si Si5 0.065471 0.565925 0.546606
Si Si6 0.063888 0.876497 0.553598
Si Si7 0.566742 0.547253 0.852532
Si Si8 0.407009 0.186042 0.026951
O O1 0.500000 0.500000 0.500000
O O2 0.443732 0.822964 0.666891
O O3 0.241357 0.793380 0.898070
O O4 0.497571 0.613836 0.777070
O O5 0.703553 0.730226 0.426521
O O6 0.878401 0.354211 0.107084
O O7 0.950815 0.438849 0.278328
O O8 0.000000 0.500000 0.000000
O O9 0.500000 0.000000 0.500000
O O10 0.585103 0.896544 0.145753
O O11 0.000000 0.000000 0.000000
O O12 0.979230 0.963088 0.260355
O O13 0.994296 0.785990 0.622820
O O14 0.246210 0.380923 0.292612
O O15 0.000000 0.500000 0.500000
O O16 0.247874 0.666481 0.359422
O O17 0.000000 0.000000 0.500000
O O18 0.511712 0.741755 0.024990
O O19 0.500000 0.500000 0.000000
O O20 0.500000 0.000000 0.000000
#
# Coordination Sequence:
#
# PCOD9061877 Si02
#       8
#     2   2   2   2   2   2   2   2
#     4  12  25  46  72  98 145 188 235 294 348 420
#     4  12  28  49  69 107 149 185 233 298 355 428
#     4  12  28  46  72 110 142 186 242 289 358 422
#     4  12  26  46  73 101 143 189 236 290 362 419
#     4  11  26  46  70 100 140 184 232 286 353 419
#     4  11  25  44  70 105 139 180 236 290 349 425
#     4  11  25  45  70 103 139 183 238 290 349 419
#     4  11  23  46  72  95 141 185 234 290 344 417
#
# _framework density 20.24615
#
# number of rings (size 3 to 8) (size 9 to 14) (size 15 to 20)
#    0.000    0.500    5.000    2.250    8.750    3.000 
#    0.000    0.000    0.000    0.000    0.000    0.000 
#    0.000    0.000    0.000    0.000    0.000    0.000 
#
# Total GULP energy -89199.962749 kJ/mol
# GULP energy per Si atom -5574.997672 kJ/mol
# Density = 2.020007 g / cm^3
# Si number density = 20.246150 Si / 1000 Ang^3
#
#
#
# Elastic Constant Matrix: (Units=GPa)
#
#
# Indices 1 2 3 4 5 6 
#
# 1 116.0089 75.5233 37.7534 -8.1921 17.1459 12.7200
# 2 75.5233 165.2199 49.7520 -22.3458 17.7934 7.5074
# 3 37.7534 49.7520 107.7786 -2.5569 27.8036 8.6420
# 4 -8.1921 -22.3458 -2.5569 41.3014 -3.8439 2.5346
# 5 17.1459 17.7934 27.8036 -3.8439 49.7256 1.4508
# 6 12.7200 7.5074 8.6420 2.5346 1.4508 46.6393
#
#
#
# Elastic Compliance Matrix: (Units=1/GPa)
#
#
# Indices 1 2 3 4 5 6 
#
# 1 0.013018 -0.005253 -0.001510 -0.000370 -0.001724 -0.002351
# 2 -0.005253 0.009777 -0.002607 0.004087 0.000083 0.000117
# 3 -0.001510 -0.002607 0.012528 -0.001382 -0.005622 -0.001240
# 4 -0.000370 0.004087 -0.001382 0.026518 0.001540 -0.001790
# 5 -0.001724 0.000083 -0.005622 0.001540 0.023918 0.000671
# 6 -0.002351 0.000117 -0.001240 -0.001790 0.000671 0.022370
#
#
# Mechanical properties :
#
#
# Convention : Reuss Voigt Hill
#
# Bulk Modulus (GPa) = 60.30809 79.45164 69.87987
# Shear Modulus (GPa) = 37.76503 42.59851 40.18177
#
# Velocity S-wave (km/s) = 4.32359 4.59195 4.45979
# Velocity P-wave (km/s) = 7.40113 8.21235 7.81727
#
# Compressibility (1/GPa) = 0.01658152
#
# Stress axis : x y z
#
# Youngs Moduli (GPa) = 76.81600 102.27625 79.82323
#
# Poissons Ratio (x) = 0.53729 0.12057
# Poissons Ratio (y) = 0.40354 0.20810
# Poissons Ratio (z) = 0.11603 0.26664
#
# Static dielectric constant tensor:
#      x y z
#    x 1.877470 0.167980 0.121900 
#    y 0.167980 1.786870 0.076270 
#    z 0.121900 0.076270 1.739770 
# 
# From -- ./inp_files/298725.got.cif
#   From: 2010.05.17/outbox.cif.g08.bks.cpg/sg2_150_cif.got.tgz:298725.got - 2010.06.03 11:33:40.
