data_PCOD9061497
_publ_section_title
;
Structure prediction by ZEFSAII (Michael W. Deem and Ramdas Pophale) SiO2 
 PCOD9061497
Probable space group: P -1
;
_chemical_formula_sum "Si O2"
_cell_formula_units_Z 16
_cell_length_a 10.138818
_cell_length_b 13.832936
_cell_length_c 9.107951
_cell_angle_alpha 42.761068
_cell_angle_beta 81.014138
_cell_angle_gamma 55.611226
_cell_volume 634.977185
_symmetry_space_group_name_H-M "P -1"
_symmetry_group_IT_number 2
_symmetry_cell_setting 'triclinic'
loop_
_space_group_symop_operation_xyz
x,y,z
-x,-y,-z
loop_
_atom_site_type_symbol
_atom_site_label
_atom_site_fract_x
_atom_site_fract_y
_atom_site_fract_z
Si Si1 0.500054 0.961140 0.370628
Si Si2 0.157939 0.346861 0.929231
Si Si3 0.256697 0.972519 0.890861
Si Si4 0.346080 0.461021 0.257533
Si Si5 0.883000 0.385823 0.590021
Si Si6 0.143786 0.572508 0.911111
Si Si7 0.675843 0.284476 0.584374
Si Si8 0.981116 0.954273 0.391387
O O1 0.500000 0.000000 0.500000
O O2 0.620858 0.990880 0.233864
O O3 0.579381 0.748898 0.563391
O O4 0.300090 0.118120 0.161223
O O5 0.126528 0.453430 0.665774
O O6 0.241207 0.401716 0.969366
O O7 0.976072 0.430991 0.949568
O O8 0.189264 0.918481 0.828931
O O9 0.076104 0.173242 0.767587
O O10 0.354803 0.809511 0.179028
O O11 0.184352 0.564146 0.287728
O O12 0.508788 0.422715 0.352222
O O13 0.273338 0.572342 0.991755
O O14 0.740731 0.383885 0.535707
O O15 0.012131 0.763141 0.625021
O O16 0.849074 0.110196 0.656201
O O17 0.000000 0.000000 0.500000
#
# Coordination Sequence:
#
# PCOD9061497 Si02
#       8
#     2   2   2   2   2   2   2   2
#     4  12  26  44  70 106 143 178 232 297 351 405
#     4  11  23  45  71  96 144 182 226 290 346 410
#     4  11  25  47  75  98 143 189 226 289 352 408
#     4  12  28  43  71 106 137 185 233 287 349 415
#     4  11  24  48  70 101 140 184 236 280 345 423
#     4  11  24  44  71 103 136 185 230 281 349 411
#     4  11  26  47  68 104 145 183 232 286 351 415
#     4  11  25  43  73 108 139 184 236 284 348 418
#
# _framework density 25.197758
#
# number of rings (size 3 to 8) (size 9 to 14) (size 15 to 20)
#    0.000    0.750    3.750    4.125    7.000    4.500 
#    0.000    0.000    0.000    0.000    0.000    0.000 
#    0.000    0.000    0.000    0.000    0.000    0.000 
#
# Total GULP energy -89667.126231 kJ/mol
# GULP energy per Si atom -5604.195389 kJ/mol
# Density = 2.514041 g / cm^3
# Si number density = 25.197758 Si / 1000 Ang^3
#
#
#
# Elastic Constant Matrix: (Units=GPa)
#
#
# Indices 1 2 3 4 5 6 
#
# 1 53.9062 10.5360 7.1576 8.8779 11.2477 6.3864
# 2 10.5360 106.9472 8.3022 5.3013 3.4888 14.6519
# 3 7.1576 8.3022 104.4779 8.1465 8.2642 -0.8769
# 4 8.8779 5.3013 8.1465 41.3316 0.7713 5.8966
# 5 11.2477 3.4888 8.2642 0.7713 45.5379 8.4494
# 6 6.3864 14.6519 -0.8769 5.8966 8.4494 28.0108
#
#
#
# Elastic Compliance Matrix: (Units=1/GPa)
#
#
# Indices 1 2 3 4 5 6 
#
# 1 0.020690 -0.001398 -0.000673 -0.003783 -0.004472 -0.001862
# 2 -0.001398 0.010254 -0.000808 -0.000119 0.000683 -0.005251
# 3 -0.000673 -0.000808 0.010000 -0.001955 -0.001901 0.001874
# 4 -0.003783 -0.000119 -0.001955 0.026113 0.001817 -0.005182
# 5 -0.004472 0.000683 -0.001901 0.001817 0.024666 -0.007220
# 6 -0.001862 -0.005251 0.001874 -0.005182 -0.007220 0.042199
#
#
# Mechanical properties :
#
#
# Convention : Reuss Voigt Hill
#
# Bulk Modulus (GPa) = 28.41984 35.25811 31.83898
# Shear Modulus (GPa) = 33.02331 38.93176 35.97754
#
# Velocity S-wave (km/s) = 3.62410 3.93498 3.78273
# Velocity P-wave (km/s) = 5.36799 5.88798 5.63399
#
# Compressibility (1/GPa) = 0.03518668
#
# Stress axis : x y z
#
# Youngs Moduli (GPa) = 48.33271 97.52441 99.99735
#
# Poissons Ratio (x) = 0.13629 0.06733
# Poissons Ratio (y) = 0.06755 0.08078
# Poissons Ratio (z) = 0.03254 0.07878
#
# Static dielectric constant tensor:
#      x y z
#    x 2.014830 0.023160 0.028350 
#    y 0.023160 2.018100 -0.027390 
#    z 0.028350 -0.027390 1.950240 
# 
# From -- ./inp_files/271502.got.cif
#   From: 2010.05.17/outbox.cif.g08.bks.cpg/sg2_136_cif.got.tgz:271502.got - 2010.06.03 11:33:40.
