data_PCOD9061413
_publ_section_title
;
Structure prediction by ZEFSAII (Michael W. Deem and Ramdas Pophale) SiO2 
 PCOD9061413
Probable space group: P -1
;
_chemical_formula_sum "Si O2"
_cell_formula_units_Z 13
_cell_length_a 15.281365
_cell_length_b 12.248041
_cell_length_c 8.775618
_cell_angle_alpha 134.837789
_cell_angle_beta 53.020605
_cell_angle_gamma 151.852108
_cell_volume 548.449480
_symmetry_space_group_name_H-M "P -1"
_symmetry_group_IT_number 2
_symmetry_cell_setting 'triclinic'
loop_
_space_group_symop_operation_xyz
x,y,z
-x,-y,-z
loop_
_atom_site_type_symbol
_atom_site_label
_atom_site_fract_x
_atom_site_fract_y
_atom_site_fract_z
Si Si1 0.294325 0.941077 0.603082
Si Si2 0.312278 0.597423 0.251810
Si Si3 0.132899 0.347972 0.526197
Si Si4 0.666806 0.716019 0.700235
Si Si5 0.285608 0.155566 0.550101
Si Si6 0.984905 0.250693 0.060030
Si Si7 0.000000 0.500000 0.000000
O O1 0.316026 0.785040 0.407752
O O2 0.107754 0.768693 0.718073
O O3 0.472731 0.206183 0.771373
O O4 0.295706 0.020816 0.515883
O O5 0.228194 0.471582 0.383278
O O6 0.170376 0.380872 0.057914
O O7 0.261422 0.373933 0.509497
O O8 0.928881 0.041948 0.419050
O O9 0.098468 0.472948 0.764726
O O10 0.455156 0.457056 0.718410
O O11 0.674446 0.832323 0.657875
O O12 0.821494 0.950836 0.883770
O O13 0.017746 0.406597 0.041533
#
# Coordination Sequence:
#
# PCOD9061413 Si02
#       7
#     2   2   2   2   2   2   1
#     4  11  23  45  70 103 140 185 233 282 344 414
#     4  11  24  43  74 102 140 184 227 291 350 402
#     4  12  23  49  71 102 140 182 231 292 346 413
#     4  11  27  44  70 103 144 186 229 283 350 411
#     4  11  23  45  71  94 144 190 226 283 342 409
#     4  12  25  45  69 107 139 180 234 282 347 416
#     4  12  26  44  76 104 132 182 240 284 346 414
#
# _framework density 23.703185999999999
#
# number of rings (size 3 to 8) (size 9 to 14) (size 15 to 20)
#    0.000    0.615    6.154    1.846    0.000    2.462 
#    2.769    1.538    0.000    0.000    0.000    0.000 
#    0.000    0.000    0.000    0.000    0.000    0.000 
#
# Total GULP energy -72430.182646 kJ/mol
# GULP energy per Si atom -5571.552511 kJ/mol
# Density = 2.364924 g / cm^3
# Si number density = 23.703186 Si / 1000 Ang^3
#
#
#
# Elastic Constant Matrix: (Units=GPa)
#
#
# Indices 1 2 3 4 5 6 
#
# 1 102.4106 50.5168 10.7230 -15.0263 13.7503 6.6841
# 2 50.5168 129.1213 6.8781 4.1343 15.7477 10.4225
# 3 10.7230 6.8781 65.1463 17.4050 -2.0954 12.8786
# 4 -15.0263 4.1343 17.4050 4.8908 21.1101 20.0112
# 5 13.7503 15.7477 -2.0954 21.1101 22.9661 -4.9610
# 6 6.6841 10.4225 12.8786 20.0112 -4.9610 62.0111
#
#
#
# Elastic Compliance Matrix: (Units=1/GPa)
#
#
# Indices 1 2 3 4 5 6 
#
# 1 0.009557 -0.004499 0.000903 -0.008889 0.006243 0.002906
# 2 -0.004499 0.010095 0.000007 -0.000761 -0.003803 -0.001272
# 3 0.000903 0.000007 0.014229 0.007173 -0.007123 -0.005938
# 4 -0.008889 -0.000761 0.007173 -0.024760 0.031439 0.010102
# 5 0.006243 -0.003803 -0.007123 0.031439 0.011177 -0.007806
# 6 0.002906 -0.001272 -0.005938 0.010102 -0.007806 0.013376
#
#
# Mechanical properties :
#
#
# Convention : Reuss Voigt Hill
#
# Bulk Modulus (GPa) = 37.44709 48.10158 42.77433
# Shear Modulus (GPa) = 100.49715 33.21096 66.85405
#
# Velocity S-wave (km/s) = 6.51845 3.74721 5.31657
# Velocity P-wave (km/s) = 8.51388 6.24976 7.46812
#
# Compressibility (1/GPa) = 0.02670435
#
# Stress axis : x y z
#
# Youngs Moduli (GPa) = 104.63671 99.05776 70.27834
#
# Poissons Ratio (x) = 0.44561 -0.06346
# Poissons Ratio (y) = 0.47071 -0.00050
# Poissons Ratio (z) = -0.09449 -0.00071
#
# Static dielectric constant tensor:
#      x y z
#    x 1.862760 0.017790 0.028110 
#    y 0.017790 1.896390 0.070300 
#    z 0.028110 0.070300 1.951890 
# 
# From -- ./inp_files/173795.got.cif
#   From: 2010.05.17/outbox.cif.g08.bks.cpg/sg2_87_cif.got.tgz:173795.got - 2010.06.03 11:33:40.
