data_PCOD9061036
_publ_section_title
;
Structure prediction by ZEFSAII (Michael W. Deem and Ramdas Pophale) SiO2 
 PCOD9061036
Probable space group: P -1
;
_chemical_formula_sum "Si O2"
_cell_formula_units_Z 16
_cell_length_a 11.702592
_cell_length_b 11.883683
_cell_length_c 8.690431
_cell_angle_alpha 123.087911
_cell_angle_beta 53.142522
_cell_angle_gamma 88.721304
_cell_volume 691.176078
_symmetry_space_group_name_H-M "P -1"
_symmetry_group_IT_number 2
_symmetry_cell_setting 'triclinic'
loop_
_space_group_symop_operation_xyz
x,y,z
-x,-y,-z
loop_
_atom_site_type_symbol
_atom_site_label
_atom_site_fract_x
_atom_site_fract_y
_atom_site_fract_z
Si Si1 0.189867 0.586840 0.552408
Si Si2 0.603273 0.778978 0.868451
Si Si3 0.724004 0.966197 0.503524
Si Si4 0.907984 0.809113 0.756553
Si Si5 0.767481 0.118254 0.280484
Si Si6 0.583378 0.766677 0.502909
Si Si7 0.040195 0.824798 0.340007
Si Si8 0.314608 0.556938 0.757084
O O1 0.319961 0.402730 0.275047
O O2 0.232196 0.721261 0.577976
O O3 0.194158 0.589567 0.734839
O O4 0.008370 0.661128 0.678892
O O5 0.730875 0.830511 0.866948
O O6 0.596663 0.783954 0.690343
O O7 0.419036 0.899507 0.171859
O O8 0.759374 0.049494 0.399337
O O9 0.647960 0.863044 0.431555
O O10 0.892567 0.842611 0.363657
O O11 0.013525 0.775124 0.490800
O O12 0.895922 0.962828 0.960862
O O13 0.602446 0.172501 0.353838
O O14 0.681005 0.581642 0.254221
O O15 0.226403 0.713251 0.043683
O O16 0.000000 0.000000 0.500000
O O17 0.500000 0.500000 0.500000
#
# Coordination Sequence:
#
# PCOD9061036 Si02
#       8
#     2   2   2   2   2   2   2   2
#     4  11  25  45  70 102 141 184 234 293 353 410
#     4  11  25  44  73  99 146 190 230 294 347 418
#     4  12  25  44  68 107 138 188 239 282 352 417
#     4  12  24  47  67 103 146 184 237 286 353 412
#     4  12  24  42  72 101 141 188 235 291 345 418
#     4  11  23  44  71  99 137 185 239 283 346 419
#     4  12  27  43  73 104 141 183 238 290 348 424
#     4  11  25  48  73 101 138 183 230 291 354 416
#
# _framework density 23.148949999999999
#
# number of rings (size 3 to 8) (size 9 to 14) (size 15 to 20)
#    0.000    0.500    3.750    4.500    3.500    2.000 
#    2.250    0.000    0.000    0.000    0.000    0.000 
#    0.000    0.000    0.000    0.000    0.000    0.000 
#
# Total GULP energy -89460.419804 kJ/mol
# GULP energy per Si atom -5591.276238 kJ/mol
# Density = 2.309626 g / cm^3
# Si number density = 23.148950 Si / 1000 Ang^3
#
#
#
# Elastic Constant Matrix: (Units=GPa)
#
#
# Indices 1 2 3 4 5 6 
#
# 1 85.9217 -2.6956 13.3698 0.1517 -4.9852 -5.5846
# 2 -2.6956 87.0446 15.4471 20.1131 2.3410 11.7337
# 3 13.3698 15.4471 118.6305 8.2820 -4.3246 11.9322
# 4 0.1517 20.1131 8.2820 26.7601 5.7714 5.6157
# 5 -4.9852 2.3410 -4.3246 5.7714 21.9622 7.8858
# 6 -5.5846 11.7337 11.9322 5.6157 7.8858 47.9184
#
#
#
# Elastic Compliance Matrix: (Units=1/GPa)
#
#
# Indices 1 2 3 4 5 6 
#
# 1 0.012094 0.000573 -0.001443 -0.000797 0.002116 0.001374
# 2 0.000573 0.014339 -0.000895 -0.010448 0.002007 -0.002327
# 3 -0.001443 -0.000895 0.009233 -0.002321 0.003088 -0.002484
# 4 -0.000797 -0.010448 -0.002321 0.048691 -0.012077 -0.000675
# 5 0.002116 0.002007 0.003088 -0.012077 0.052542 -0.008245
# 6 0.001374 -0.002327 -0.002484 -0.000675 -0.008245 0.023653
#
#
# Mechanical properties :
#
#
# Convention : Reuss Voigt Hill
#
# Bulk Modulus (GPa) = 31.11782 38.20439 34.66111
# Shear Modulus (GPa) = 28.60491 37.02650 32.81570
#
# Velocity S-wave (km/s) = 3.51905 4.00370 3.76917
# Velocity P-wave (km/s) = 5.47570 6.15730 5.82647
#
# Compressibility (1/GPa) = 0.03213592
#
# Stress axis : x y z
#
# Youngs Moduli (GPa) = 82.68224 69.74073 108.30459
#
# Poissons Ratio (x) = -0.03994 0.15628
# Poissons Ratio (y) = -0.04735 0.09693
# Poissons Ratio (z) = 0.11931 0.06242
#
# Static dielectric constant tensor:
#      x y z
#    x 2.758770 0.216900 -0.203980 
#    y 0.216900 1.897380 -0.017240 
#    z -0.203980 -0.017240 1.952580 
# 
# From -- ./inp_files/262929.got.cif
#   From: 2010.05.17/outbox.cif.g08.bks.cpg/sg2_132_cif.got.tgz:262929.got - 2010.06.03 11:33:40.
