data_PCOD9061431
_publ_section_title
;
Structure prediction by ZEFSAII (Michael W. Deem and Ramdas Pophale) SiO2 
 PCOD9061431
Probable space group: P -1
;
_chemical_formula_sum "Si O2"
_cell_formula_units_Z 13
_cell_length_a 9.047430
_cell_length_b 8.765495
_cell_length_c 7.805198
_cell_angle_alpha 89.792585
_cell_angle_beta 82.480906
_cell_angle_gamma 51.342513
_cell_volume 476.765478
_symmetry_space_group_name_H-M "P -1"
_symmetry_group_IT_number 2
_symmetry_cell_setting 'triclinic'
loop_
_space_group_symop_operation_xyz
x,y,z
-x,-y,-z
loop_
_atom_site_type_symbol
_atom_site_label
_atom_site_fract_x
_atom_site_fract_y
_atom_site_fract_z
Si Si1 0.363622 0.461953 0.102942
Si Si2 0.658115 0.232053 0.348687
Si Si3 0.763904 0.891085 0.785766
Si Si4 0.000000 0.500000 0.500000
Si Si5 0.296840 0.452500 0.604174
Si Si6 0.951194 0.086743 0.814730
Si Si7 0.687132 0.788313 0.136366
O O1 0.508460 0.297284 0.220627
O O2 0.177397 0.682243 0.164809
O O3 0.500000 0.500000 0.000000
O O4 0.319485 0.362622 0.971388
O O5 0.523401 0.300721 0.534124
O O6 0.728088 0.363021 0.318534
O O7 0.847676 0.011965 0.310565
O O8 0.878363 0.699241 0.651432
O O9 0.838374 0.015469 0.750762
O O10 0.533388 0.025666 0.793375
O O11 0.787022 0.836534 0.987328
O O12 0.169112 0.519521 0.456362
O O13 0.223358 0.338519 0.701108
O O14 0.000000 0.000000 0.000000
#
# Coordination Sequence:
#
# PCOD9061431 Si02
#       7
#     2   2   2   1   2   2   2
#     4  12  21  42  78 110 140 183 256 316 366 436
#     4  11  23  45  70 108 149 187 244 310 372 433
#     4  11  25  46  75 110 149 191 247 307 373 448
#     4  12  26  46  68 108 154 190 242 296 370 446
#     4  11  24  46  70 101 150 198 239 303 366 443
#     4  12  22  43  77 112 140 191 253 309 370 440
#     4  11  24  49  75 105 149 196 246 307 375 438
#
# _framework density 27.267074000000001
#
# number of rings (size 3 to 8) (size 9 to 14) (size 15 to 20)
#    0.000    0.615    6.154    0.923    0.000    2.462 
#    8.308    2.308    0.000    0.000    0.000    0.000 
#    0.000    0.000    0.000    0.000    0.000    0.000 
#
# Total GULP energy -72558.367936 kJ/mol
# GULP energy per Si atom -5581.412918 kJ/mol
# Density = 2.720501 g / cm^3
# Si number density = 27.267074 Si / 1000 Ang^3
#
#
#
# Elastic Constant Matrix: (Units=GPa)
#
#
# Indices 1 2 3 4 5 6 
#
# 1 55.7383 36.3615 9.0130 32.6187 -23.9883 -14.2930
# 2 36.3615 167.7401 64.9958 39.4583 -19.6721 -26.1179
# 3 9.0130 64.9958 61.2779 21.2213 -6.8162 -4.8901
# 4 32.6187 39.4583 21.2213 68.8780 -0.7449 -15.0950
# 5 -23.9883 -19.6721 -6.8162 -0.7449 32.7013 18.2075
# 6 -14.2930 -26.1179 -4.8901 -15.0950 18.2075 39.7760
#
#
#
# Elastic Compliance Matrix: (Units=1/GPa)
#
#
# Indices 1 2 3 4 5 6 
#
# 1 0.051180 -0.006883 0.012808 -0.027013 0.043703 -0.014811
# 2 -0.006883 0.012670 -0.012771 0.001309 -0.003646 0.006441
# 3 0.012808 -0.012771 0.032475 -0.010863 0.013975 -0.010310
# 4 -0.027013 0.001309 -0.010863 0.033051 -0.029329 0.015785
# 5 0.043703 -0.003646 0.013975 -0.029329 0.081220 -0.033281
# 6 -0.014811 0.006441 -0.010310 0.015785 -0.033281 0.044005
#
#
# Mechanical properties :
#
#
# Convention : Reuss Voigt Hill
#
# Bulk Modulus (GPa) = 12.10194 56.16631 34.13412
# Shear Modulus (GPa) = 16.90124 39.89678 28.39901
#
# Velocity S-wave (km/s) = 2.49236 3.82931 3.23075
# Velocity P-wave (km/s) = 3.56797 6.33994 5.14418
#
# Compressibility (1/GPa) = 0.08263141
#
# Stress axis : x y z
#
# Youngs Moduli (GPa) = 19.53900 78.92924 30.79336
#
# Poissons Ratio (x) = 0.54330 -0.39440
# Poissons Ratio (y) = 0.13450 0.39325
# Poissons Ratio (z) = -0.25025 1.00797
#
# Static dielectric constant tensor:
#      x y z
#    x 1.207730 1.362020 -0.567170 
#    y 1.362020 -0.169850 0.938220 
#    z -0.567170 0.938220 1.741850 
# 
# From -- ./inp_files/155224.got.cif
#   From: 2010.05.17/outbox.cif.g08.bks.cpg/sg2_78_cif.got.tgz:155224.got - 2010.06.03 11:33:40.
