data_PCOD9061073
_publ_section_title
;
Structure prediction by ZEFSAII (Michael W. Deem and Ramdas Pophale) SiO2 
 PCOD9061073
Probable space group: P -1
;
_chemical_formula_sum "Si O2"
_cell_formula_units_Z 13
_cell_length_a 9.352193
_cell_length_b 10.056447
_cell_length_c 9.909289
_cell_angle_alpha 85.625324
_cell_angle_beta 132.331197
_cell_angle_gamma 61.168208
_cell_volume 473.926965
_symmetry_space_group_name_H-M "P -1"
_symmetry_group_IT_number 2
_symmetry_cell_setting 'triclinic'
loop_
_space_group_symop_operation_xyz
x,y,z
-x,-y,-z
loop_
_atom_site_type_symbol
_atom_site_label
_atom_site_fract_x
_atom_site_fract_y
_atom_site_fract_z
Si Si1 0.289491 0.779477 0.703953
Si Si2 0.953377 0.332661 0.276586
Si Si3 0.896907 0.401381 0.930706
Si Si4 0.289960 0.280416 0.828490
Si Si5 0.796133 0.924954 0.025741
Si Si6 0.600319 0.263196 0.533958
Si Si7 0.500000 0.000000 0.500000
O O1 0.227473 0.670284 0.742213
O O2 0.380587 0.725556 0.613863
O O3 0.496390 0.767281 0.921453
O O4 0.000000 0.000000 0.500000
O O5 0.940203 0.486033 0.325750
O O6 0.825074 0.395001 0.037626
O O7 0.247918 0.118112 0.448234
O O8 0.687908 0.502583 0.660571
O O9 0.175104 0.175615 0.086661
O O10 0.000000 0.500000 0.000000
O O11 0.187618 0.189505 0.830104
O O12 0.506211 0.147300 0.851818
O O13 0.083020 0.868035 0.203712
O O14 0.511779 0.158453 0.517803
#
# Coordination Sequence:
#
# PCOD9061073 Si02
#       7
#     2   2   2   2   2   2   1
#     4  12  23  45  77 101 140 197 243 294 356 442
#     4  12  25  42  76 108 136 193 250 285 363 440
#     4  12  23  45  77 103 144 193 239 303 361 430
#     4  11  23  44  72 104 147 191 241 290 363 436
#     4  11  24  43  73 107 150 189 235 304 368 418
#     4  12  24  44  75 108 145 189 244 299 362 428
#     4  12  24  42  72 110 140 182 246 300 358 432
#
# _framework density 27.430388000000001
#
# number of rings (size 3 to 8) (size 9 to 14) (size 15 to 20)
#    0.000    0.308    7.692    0.923    0.000    0.000 
#    0.000    3.846    3.385    0.000    0.000    0.000 
#    0.000    0.000    0.000    0.000    0.000    0.000 
#
# Total GULP energy -72527.387410 kJ/mol
# GULP energy per Si atom -5579.029801 kJ/mol
# Density = 2.736796 g / cm^3
# Si number density = 27.430388 Si / 1000 Ang^3
#
#
#
# Elastic Constant Matrix: (Units=GPa)
#
#
# Indices 1 2 3 4 5 6 
#
# 1 148.6175 19.9996 1.6096 1.6145 -1.6573 10.7354
# 2 19.9996 108.4668 31.0768 -19.6624 -4.0324 -30.0098
# 3 1.6096 31.0768 96.5531 -16.0203 13.6742 7.9915
# 4 1.6145 -19.6624 -16.0203 50.2509 5.5105 3.1481
# 5 -1.6573 -4.0324 13.6742 5.5105 32.0491 -0.8106
# 6 10.7354 -30.0098 7.9915 3.1481 -0.8106 62.1074
#
#
#
# Elastic Compliance Matrix: (Units=1/GPa)
#
#
# Indices 1 2 3 4 5 6 
#
# 1 0.007222 -0.002365 0.000745 -0.000747 -0.000175 -0.002451
# 2 -0.002365 0.013906 -0.005055 0.003047 0.003454 0.007669
# 3 0.000745 -0.005055 0.013976 0.003544 -0.007287 -0.004644
# 4 -0.000747 0.003047 0.003544 0.022809 -0.005091 -0.000077
# 5 -0.000175 0.003454 -0.007287 -0.005091 0.035697 0.003361
# 6 -0.002451 0.007669 -0.004644 -0.000077 0.003361 0.020876
#
#
# Mechanical properties :
#
#
# Convention : Reuss Voigt Hill
#
# Bulk Modulus (GPa) = 45.96989 51.00105 48.48547
# Shear Modulus (GPa) = 37.01244 48.94490 42.97867
#
# Velocity S-wave (km/s) = 3.67730 4.22872 3.96261
# Velocity P-wave (km/s) = 5.90128 6.51736 6.21696
#
# Compressibility (1/GPa) = 0.02175337
#
# Stress axis : x y z
#
# Youngs Moduli (GPa) = 138.46290 71.90910 71.55076
#
# Poissons Ratio (x) = 0.17008 -0.05328
# Poissons Ratio (y) = 0.32750 0.36169
# Poissons Ratio (z) = -0.10310 0.36350
#
# Static dielectric constant tensor:
#      x y z
#    x 1.895590 0.090080 -0.202910 
#    y 0.090080 2.015640 0.121820 
#    z -0.202910 0.121820 1.800120 
# 
# From -- ./inp_files/375483.got.cif
#   From: 2010.05.17/outbox.cif.g08.bks.cpg/sg2_188_cif.got.tgz:375483.got - 2010.06.03 11:33:40.
