data_PCOD9061976
_publ_section_title
;
Structure prediction by ZEFSAII (Michael W. Deem and Ramdas Pophale) SiO2 
 PCOD9061976
Probable space group: P -1
;
_chemical_formula_sum "Si O2"
_cell_formula_units_Z 16
_cell_length_a 19.202882
_cell_length_b 6.573094
_cell_length_c 7.513263
_cell_angle_alpha 94.761300
_cell_angle_beta 122.676026
_cell_angle_gamma 64.270233
_cell_volume 704.633783
_symmetry_space_group_name_H-M "P -1"
_symmetry_group_IT_number 2
_symmetry_cell_setting 'triclinic'
loop_
_space_group_symop_operation_xyz
x,y,z
-x,-y,-z
loop_
_atom_site_type_symbol
_atom_site_label
_atom_site_fract_x
_atom_site_fract_y
_atom_site_fract_z
Si Si1 0.905728 0.729639 0.430782
Si Si2 0.425670 0.909538 0.934151
Si Si3 0.258272 0.334897 0.886237
Si Si4 0.828658 0.235296 0.463947
Si Si5 0.288412 0.203770 0.299618
Si Si6 0.543266 0.769244 0.419001
Si Si7 0.092711 0.483304 0.217481
Si Si8 0.659987 0.265087 0.491995
O O1 0.830034 0.708415 0.202266
O O2 0.884277 0.691858 0.600736
O O3 0.000000 0.500000 0.500000
O O4 0.887337 0.990758 0.428607
O O5 0.408753 0.759565 0.751006
O O6 0.326226 0.126560 0.843040
O O7 0.465383 0.791382 0.171049
O O8 0.500000 0.000000 0.000000
O O9 0.223720 0.571123 0.747044
O O10 0.307434 0.286648 0.141164
O O11 0.903346 0.295669 0.673434
O O12 0.748992 0.248838 0.496627
O O13 0.365462 0.219281 0.534668
O O14 0.183027 0.377608 0.211906
O O15 0.303931 0.946580 0.334873
O O16 0.595611 0.500537 0.525666
O O17 0.500000 0.000000 0.500000
O O18 0.000000 0.500000 0.000000
#
# Coordination Sequence:
#
# PCOD9061976 Si02
#       8
#     2   2   2   2   2   2   2   2
#     4  11  24  47  71 105 146 184 241 298 356 434
#     4  12  23  45  72 102 144 198 245 295 360 431
#     4  11  25  43  71 103 148 187 239 302 357 429
#     4  11  23  46  76 104 139 195 235 287 369 430
#     4  12  24  47  69 108 151 184 237 306 359 427
#     4  12  26  45  68 108 152 187 243 305 358 426
#     4  11  24  45  75 105 146 184 235 297 365 435
#     4  12  24  47  77 104 144 197 244 295 365 430
#
# _framework density 22.706831000000001
#
# number of rings (size 3 to 8) (size 9 to 14) (size 15 to 20)
#    0.000    0.500    6.250    2.625    0.000    4.000 
#    0.000    0.000    0.000    0.000    0.000    0.000 
#    0.000    0.000    0.000    0.000    0.000    0.000 
#
# Total GULP energy -89200.417694 kJ/mol
# GULP energy per Si atom -5575.026106 kJ/mol
# Density = 2.265515 g / cm^3
# Si number density = 22.706831 Si / 1000 Ang^3
#
#
#
# Elastic Constant Matrix: (Units=GPa)
#
#
# Indices 1 2 3 4 5 6 
#
# 1 63.9190 29.8991 24.1959 -1.0906 11.4543 -6.9764
# 2 29.8991 177.9550 42.8743 -13.4673 8.7146 -10.3051
# 3 24.1959 42.8743 122.6484 15.4155 16.5855 2.7775
# 4 -1.0906 -13.4673 15.4155 28.0556 0.5181 5.1285
# 5 11.4543 8.7146 16.5855 0.5181 51.9267 -4.1470
# 6 -6.9764 -10.3051 2.7775 5.1285 -4.1470 37.0841
#
#
#
# Elastic Compliance Matrix: (Units=1/GPa)
#
#
# Indices 1 2 3 4 5 6 
#
# 1 0.018430 -0.002105 -0.002697 0.000746 -0.002644 0.002685
# 2 -0.002105 0.007014 -0.002657 0.004532 0.000182 0.001145
# 3 -0.002697 -0.002657 0.010865 -0.007056 -0.002468 -0.001360
# 4 0.000746 0.004532 -0.007056 0.042422 0.000596 -0.003872
# 5 -0.002644 0.000182 -0.002468 0.000596 0.020751 0.001976
# 6 0.002685 0.001145 -0.001360 -0.003872 0.001976 0.028648
#
#
# Mechanical properties :
#
#
# Convention : Reuss Voigt Hill
#
# Bulk Modulus (GPa) = 46.74770 62.05122 54.39946
# Shear Modulus (GPa) = 33.29404 41.25015 37.27210
#
# Velocity S-wave (km/s) = 3.83333 4.26683 4.05587
# Velocity P-wave (km/s) = 6.34230 7.18755 6.77811
#
# Compressibility (1/GPa) = 0.02139143
#
# Stress axis : x y z
#
# Youngs Moduli (GPa) = 54.25913 142.58148 92.03475
#
# Poissons Ratio (x) = 0.30019 0.24821
# Poissons Ratio (y) = 0.11424 0.24449
# Poissons Ratio (z) = 0.14633 0.37877
#
# Static dielectric constant tensor:
#      x y z
#    x 1.892590 0.020210 -0.073510 
#    y 0.020210 1.910430 0.017600 
#    z -0.073510 0.017600 1.906690 
# 
# From -- ./inp_files/106686.got.cif
#   From: 2010.05.17/outbox.cif.g08.bks.cpg/sg2_54_cif.got.tgz:106686.got - 2010.06.03 11:33:40.
