data_PCOD9061684
_publ_section_title
;
Structure prediction by ZEFSAII (Michael W. Deem and Ramdas Pophale) SiO2 
 PCOD9061684
Probable space group: P -1
;
_chemical_formula_sum "Si O2"
_cell_formula_units_Z 14
_cell_length_a 11.538314
_cell_length_b 9.187987
_cell_length_c 19.817894
_cell_angle_alpha 28.505003
_cell_angle_beta 144.349951
_cell_angle_gamma 140.810539
_cell_volume 570.167939
_symmetry_space_group_name_H-M "P -1"
_symmetry_group_IT_number 2
_symmetry_cell_setting 'triclinic'
loop_
_space_group_symop_operation_xyz
x,y,z
-x,-y,-z
loop_
_atom_site_type_symbol
_atom_site_label
_atom_site_fract_x
_atom_site_fract_y
_atom_site_fract_z
Si Si1 0.778407 0.424787 0.389522
Si Si2 0.859309 0.637660 0.188430
Si Si3 0.657760 0.746145 0.555379
Si Si4 0.231241 0.312045 0.514568
Si Si5 0.072023 0.633499 0.087283
Si Si6 0.277985 0.758519 0.840707
Si Si7 0.551597 0.214278 0.872307
O O1 0.782847 0.574540 0.255137
O O2 0.604321 0.556206 0.292250
O O3 0.000000 0.500000 0.500000
O O4 0.714786 0.053017 0.502057
O O5 0.722709 0.467760 0.130987
O O6 0.052265 0.478566 0.345453
O O7 0.931850 0.004186 0.058109
O O8 0.424522 0.571579 0.523267
O O9 0.696720 0.833872 0.459798
O O10 0.792743 0.497621 0.739315
O O11 0.168008 0.032049 0.651505
O O12 0.213193 0.613236 0.096630
O O13 0.848673 0.427451 0.081559
O O14 0.490847 0.964481 0.883897
O O15 0.500000 0.000000 0.000000
#
# Coordination Sequence:
#
# PCOD9061684 Si02
#       7
#     2   2   2   2   2   2   2
#     4  12  27  50  79 109 151 208 245 307 380 448
#     4  12  25  47  77 113 145 198 256 304 385 434
#     4  11  24  46  75 112 151 193 256 305 373 444
#     4  11  23  45  77 114 149 191 249 320 365 439
#     4  12  26  48  75 110 148 198 249 307 381 440
#     4  12  25  49  81 106 154 196 250 322 364 446
#     4  12  28  53  71 108 156 197 251 307 382 448
#
# _framework density 24.554168000000001
#
# number of rings (size 3 to 8) (size 9 to 14) (size 15 to 20)
#    0.000    0.286    5.714    3.429    0.000    2.857 
#    7.714    0.000    0.000    0.000    0.000    0.000 
#    0.000    0.000    0.000    0.000    0.000    0.000 
#
# Total GULP energy -78370.990094 kJ/mol
# GULP energy per Si atom -5597.927864 kJ/mol
# Density = 2.449828 g / cm^3
# Si number density = 24.554168 Si / 1000 Ang^3
#
#
#
# Elastic Constant Matrix: (Units=GPa)
#
#
# Indices 1 2 3 4 5 6 
#
# 1 131.2503 34.0838 23.8987 -14.3279 -13.6594 -1.1693
# 2 34.0838 139.3412 37.6511 -18.5546 7.9257 3.3199
# 3 23.8987 37.6511 121.5948 -31.3892 -6.5700 0.5999
# 4 -14.3279 -18.5546 -31.3892 36.8747 2.2308 -2.7231
# 5 -13.6594 7.9257 -6.5700 2.2308 47.6184 -3.5002
# 6 -1.1693 3.3199 0.5999 -2.7231 -3.5002 41.1951
#
#
#
# Elastic Compliance Matrix: (Units=1/GPa)
#
#
# Indices 1 2 3 4 5 6 
#
# 1 0.008702 -0.001918 -0.000484 0.001896 0.002716 0.000765
# 2 -0.001918 0.008581 -0.001872 0.002066 -0.002391 -0.000785
# 3 -0.000484 -0.001872 0.011110 0.008292 0.001364 0.000639
# 4 0.001896 0.002066 0.008292 0.036123 -0.000191 0.002138
# 5 0.002716 -0.002391 0.001364 -0.000191 0.022533 0.002152
# 6 0.000765 -0.000785 0.000639 0.002138 0.002152 0.024675
#
#
# Mechanical properties :
#
#
# Convention : Reuss Voigt Hill
#
# Bulk Modulus (GPa) = 50.39107 64.82817 57.60962
# Shear Modulus (GPa) = 39.40530 44.90782 42.15656
#
# Velocity S-wave (km/s) = 4.01038 4.28124 4.14802
# Velocity P-wave (km/s) = 6.48160 7.13429 6.81576
#
# Compressibility (1/GPa) = 0.01984479
#
# Stress axis : x y z
#
# Youngs Moduli (GPa) = 114.92052 116.53010 90.00946
#
# Poissons Ratio (x) = 0.22350 0.04355
# Poissons Ratio (y) = 0.22041 0.16853
# Poissons Ratio (z) = 0.05561 0.21818
#
# Static dielectric constant tensor:
#      x y z
#    x 2.024310 -0.023000 -0.005630 
#    y -0.023000 1.923610 0.033540 
#    z -0.005630 0.033540 1.931480 
# 
# From -- ./inp_files/593366.got.cif
#   From: 2010.05.17/outbox.cif.g08.bks.cpg/sg2_297_cif.got.tgz:593366.got - 2010.06.03 11:33:40.
