data_PCOD9061206
_publ_section_title
;
Structure prediction by ZEFSAII (Michael W. Deem and Ramdas Pophale) SiO2 
 PCOD9061206
Probable space group: P -1
;
_chemical_formula_sum "Si O2"
_cell_formula_units_Z 14
_cell_length_a 8.199782
_cell_length_b 10.061748
_cell_length_c 13.167150
_cell_angle_alpha 42.569754
_cell_angle_beta 61.453929
_cell_angle_gamma 58.983648
_cell_volume 620.688057
_symmetry_space_group_name_H-M "P -1"
_symmetry_group_IT_number 2
_symmetry_cell_setting 'triclinic'
loop_
_space_group_symop_operation_xyz
x,y,z
-x,-y,-z
loop_
_atom_site_type_symbol
_atom_site_label
_atom_site_fract_x
_atom_site_fract_y
_atom_site_fract_z
Si Si1 0.673261 0.096910 0.409592
Si Si2 0.965947 0.929059 0.911972
Si Si3 0.966985 0.283449 0.424540
Si Si4 0.849947 0.779113 0.814015
Si Si5 0.301589 0.602345 0.947467
Si Si6 0.582219 0.187945 0.603048
Si Si7 0.146578 0.251091 0.764114
O O1 0.681309 0.245771 0.232274
O O2 0.605082 0.229977 0.454919
O O3 0.500000 0.000000 0.500000
O O4 0.638336 0.745132 0.335789
O O5 0.158205 0.750775 0.983646
O O6 0.905794 0.869091 0.852268
O O7 0.030363 0.136471 0.788227
O O8 0.823887 0.887847 0.063791
O O9 0.764141 0.265820 0.542947
O O10 0.971579 0.512959 0.317085
O O11 0.999710 0.253421 0.307927
O O12 0.137047 0.094629 0.523276
O O13 0.660395 0.945053 0.735255
O O14 0.796635 0.568885 0.965540
O O15 0.500000 0.500000 0.000000
#
# Coordination Sequence:
#
# PCOD9061206 Si02
#       7
#     2   2   2   2   2   2   2
#     4  11  24  43  72 106 137 180 240 292 348 418
#     4  11  24  43  71 103 141 183 240 293 350 413
#     4  11  23  46  72 102 140 185 235 294 350 414
#     4  11  23  44  75 101 133 186 246 289 344 414
#     4  12  23  42  75 104 135 179 241 297 343 412
#     4  11  24  44  68 105 143 183 232 291 353 425
#     4  11  25  44  69 100 152 186 226 291 360 423
#
# _framework density 22.555613999999998
#
# number of rings (size 3 to 8) (size 9 to 14) (size 15 to 20)
#    0.000    0.857    1.429    7.714    2.000    0.571 
#    0.000    7.857    0.000    0.000    0.000    0.000 
#    0.000    0.000    0.000    0.000    0.000    0.000 
#
# Total GULP energy -78137.855904 kJ/mol
# GULP energy per Si atom -5581.275422 kJ/mol
# Density = 2.250428 g / cm^3
# Si number density = 22.555614 Si / 1000 Ang^3
#
#
#
# Elastic Constant Matrix: (Units=GPa)
#
#
# Indices 1 2 3 4 5 6 
#
# 1 117.4785 55.0997 74.1456 6.3744 -15.9955 2.8731
# 2 55.0997 133.7366 59.9548 -16.6240 -8.0784 9.5811
# 3 74.1456 59.9548 174.3128 -10.5410 -25.6327 3.5004
# 4 6.3744 -16.6240 -10.5410 41.7046 2.3962 -9.3909
# 5 -15.9955 -8.0784 -25.6327 2.3962 34.0626 1.3591
# 6 2.8731 9.5811 3.5004 -9.3909 1.3591 35.3386
#
#
#
# Elastic Compliance Matrix: (Units=1/GPa)
#
#
# Indices 1 2 3 4 5 6 
#
# 1 0.013924 -0.004190 -0.004390 -0.005302 0.002657 -0.001072
# 2 -0.004190 0.010513 -0.001704 0.004191 -0.001004 -0.001189
# 3 -0.004390 -0.001704 0.008909 0.002084 0.004079 0.000333
# 4 -0.005302 0.004191 0.002084 0.028641 -0.002213 0.006785
# 5 0.002657 -0.001004 0.004079 -0.002213 0.033682 -0.002231
# 6 -0.001072 -0.001189 0.000333 0.006785 -0.002231 0.030563
#
#
# Mechanical properties :
#
#
# Convention : Reuss Voigt Hill
#
# Bulk Modulus (GPa) = 78.25913 89.32535 83.79224
# Shear Modulus (GPa) = 33.09967 37.97633 35.53800
#
# Velocity S-wave (km/s) = 3.83491 4.10771 3.97365
# Velocity P-wave (km/s) = 7.37429 7.88581 7.63433
#
# Compressibility (1/GPa) = 0.01277806
#
# Stress axis : x y z
#
# Youngs Moduli (GPa) = 71.81915 95.11897 112.24319
#
# Poissons Ratio (x) = 0.39860 0.49271
# Poissons Ratio (y) = 0.30096 0.19125
# Poissons Ratio (z) = 0.31526 0.16207
#
# Static dielectric constant tensor:
#      x y z
#    x 2.146080 0.256520 -0.058980 
#    y 0.256520 2.081250 -0.010400 
#    z -0.058980 -0.010400 1.866990 
# 
# From -- ./inp_files/377652.got.cif
#   From: 2010.05.17/outbox.cif.g08.bks.cpg/sg2_189_cif.got.tgz:377652.got - 2010.06.03 11:33:40.
