data_PCOD9061884
_publ_section_title
;
Structure prediction by ZEFSAII (Michael W. Deem and Ramdas Pophale) SiO2 
 PCOD9061884
Probable space group: P -1
;
_chemical_formula_sum "Si O2"
_cell_formula_units_Z 16
_cell_length_a 32.596341
_cell_length_b 12.307133
_cell_length_c 10.112603
_cell_angle_alpha 138.534859
_cell_angle_beta 154.402844
_cell_angle_gamma 26.429862
_cell_volume 743.511205
_symmetry_space_group_name_H-M "P -1"
_symmetry_group_IT_number 2
_symmetry_cell_setting 'triclinic'
loop_
_space_group_symop_operation_xyz
x,y,z
-x,-y,-z
loop_
_atom_site_type_symbol
_atom_site_label
_atom_site_fract_x
_atom_site_fract_y
_atom_site_fract_z
Si Si1 0.101379 0.905826 0.331307
Si Si2 0.069550 0.981899 0.822122
Si Si3 0.597580 0.491559 0.683472
Si Si4 0.080521 0.474522 0.086080
Si Si5 0.621071 0.731160 0.175675
Si Si6 0.117451 0.263079 0.724811
Si Si7 0.545755 0.128980 0.633832
Si Si8 0.590083 0.694302 0.327730
O O1 0.236858 0.595086 0.439126
O O2 0.995625 0.047561 0.281139
O O3 0.149319 0.030610 0.576490
O O4 0.000000 0.000000 0.000000
O O5 0.999957 0.246152 0.904717
O O6 0.000000 0.000000 0.500000
O O7 0.244990 0.785106 0.159894
O O8 0.500000 0.500000 0.500000
O O9 0.501744 0.697361 0.472092
O O10 0.664510 0.545605 0.021186
O O11 0.250427 0.311410 0.448368
O O12 0.068772 0.372092 0.832185
O O13 0.000000 0.500000 0.000000
O O14 0.555985 0.709483 0.087876
O O15 0.500000 0.000000 0.000000
O O16 0.000000 0.500000 0.500000
O O17 0.280825 0.119020 0.057469
O O18 0.467761 0.299499 0.695706
O O19 0.516939 0.975287 0.379476
#
# Coordination Sequence:
#
# PCOD9061884 Si02
#       8
#     2   2   2   2   2   2   2   2
#     4  12  25  46  73 100 141 186 244 301 365 432
#     4  12  24  45  73 106 142 192 243 292 363 430
#     4  12  28  46  73 109 150 193 242 301 364 441
#     4  12  26  45  72 106 147 187 243 301 362 432
#     4  12  24  47  72 104 147 194 238 296 367 430
#     4  12  27  47  72 105 142 190 245 305 361 439
#     4  11  25  46  72 104 145 188 242 297 373 434
#     4  11  23  46  72  99 142 185 236 298 360 439
#
# _framework density 21.519515999999999
#
# number of rings (size 3 to 8) (size 9 to 14) (size 15 to 20)
#    0.000    0.250    5.000    3.000    7.000    2.500 
#    2.250    0.000    0.000    0.000    0.000    0.000 
#    0.000    0.000    0.000    0.000    0.000    0.000 
#
# Total GULP energy -89105.995145 kJ/mol
# GULP energy per Si atom -5569.124697 kJ/mol
# Density = 2.147054 g / cm^3
# Si number density = 21.519516 Si / 1000 Ang^3
#
#
#
# Elastic Constant Matrix: (Units=GPa)
#
#
# Indices 1 2 3 4 5 6 
#
# 1 140.2507 15.3977 38.2980 -18.9544 -22.6632 -14.7088
# 2 15.3977 85.0913 30.7044 -23.5415 -8.6786 -7.2923
# 3 38.2980 30.7044 60.1668 -18.1533 -29.4083 -9.7435
# 4 -18.9544 -23.5415 -18.1533 46.4746 -1.8714 0.2316
# 5 -22.6632 -8.6786 -29.4083 -1.8714 32.5069 -0.0043
# 6 -14.7088 -7.2923 -9.7435 0.2316 -0.0043 40.1398
#
#
#
# Elastic Compliance Matrix: (Units=1/GPa)
#
#
# Indices 1 2 3 4 5 6 
#
# 1 0.009238 0.000932 -0.002723 0.003340 0.004419 0.002875
# 2 0.000932 0.015753 -0.007735 0.005257 -0.001840 0.001295
# 3 -0.002723 -0.007735 0.048318 0.015435 0.040639 0.009241
# 4 0.003340 0.005257 0.015435 0.032330 0.019558 0.005741
# 5 0.004419 -0.001840 0.040639 0.019558 0.071245 0.011044
# 6 0.002875 0.001295 0.009241 0.005741 0.011044 0.028413
#
#
# Mechanical properties :
#
#
# Convention : Reuss Voigt Hill
#
# Bulk Modulus (GPa) = 18.43116 50.47877 34.45496
# Shear Modulus (GPa) = 20.62410 37.23151 28.92781
#
# Velocity S-wave (km/s) = 3.09915 4.16399 3.67039
# Velocity P-wave (km/s) = 4.62490 6.82837 5.83165
#
# Compressibility (1/GPa) = 0.05425594
#
# Stress axis : x y z
#
# Youngs Moduli (GPa) = 108.24599 63.48183 20.69617
#
# Poissons Ratio (x) = -0.05916 0.05635
# Poissons Ratio (y) = -0.10087 0.16009
# Poissons Ratio (z) = 0.29475 0.49106
#
# Static dielectric constant tensor:
#      x y z
#    x 1.881360 -0.000180 0.125900 
#    y -0.000180 1.782770 0.144010 
#    z 0.125900 0.144010 1.948400 
# 
# From -- ./inp_files/358630.got.cif
#   From: 2010.05.17/outbox.cif.g08.bks.cpg/sg2_180_cif.got.tgz:358630.got - 2010.06.03 11:33:40.
