data_PCOD9061793
_publ_section_title
;
Structure prediction by ZEFSAII (Michael W. Deem and Ramdas Pophale) SiO2 
 PCOD9061793
Probable space group: P -1
;
_chemical_formula_sum "Si O2"
_cell_formula_units_Z 14
_cell_length_a 5.272135
_cell_length_b 5.252750
_cell_length_c 24.243299
_cell_angle_alpha 90.148248
_cell_angle_beta 53.589213
_cell_angle_gamma 92.586966
_cell_volume 539.515003
_symmetry_space_group_name_H-M "P -1"
_symmetry_group_IT_number 2
_symmetry_cell_setting 'triclinic'
loop_
_space_group_symop_operation_xyz
x,y,z
-x,-y,-z
loop_
_atom_site_type_symbol
_atom_site_label
_atom_site_fract_x
_atom_site_fract_y
_atom_site_fract_z
Si Si1 0.107994 0.690882 0.218574
Si Si2 0.321048 0.743119 0.505514
Si Si3 0.827934 0.244486 0.998799
Si Si4 0.854192 0.965926 0.887544
Si Si5 0.547592 0.823511 0.355288
Si Si6 0.691262 0.685228 0.656979
Si Si7 0.373027 0.623913 0.800696
O O1 0.141373 0.938377 0.175752
O O2 0.441399 0.576565 0.188296
O O3 0.905491 0.743625 0.299927
O O4 0.886260 0.500173 0.208889
O O5 0.500000 0.500000 0.500000
O O6 0.349191 0.757498 0.436048
O O7 0.002149 0.737427 0.581143
O O8 0.500000 0.000000 0.500000
O O9 0.840186 0.205360 0.931036
O O10 0.458798 0.211918 0.061522
O O11 0.000000 0.500000 0.000000
O O12 0.000000 0.000000 0.000000
O O13 0.171936 0.823590 0.858674
O O14 0.373327 0.619856 0.336574
O O15 0.538435 0.121830 0.343626
O O16 0.646327 0.756235 0.726492
#
# Coordination Sequence:
#
# PCOD9061793 Si02
#       7
#     2   2   2   2   2   2   2
#     4  11  27  48  80 118 164 213 274 337 413 487
#     4  12  24  40  68 104 152 212 269 335 404 473
#     4  11  30  53  87 120 168 214 274 332 414 498
#     4  11  28  52  82 123 166 212 278 337 414 502
#     4  11  23  46  70 108 152 210 271 335 402 481
#     4  11  23  46  70 108 152 210 271 335 402 481
#     4  11  27  48  80 118 164 213 274 337 413 487
#
# _framework density 25.949234000000001
#
# number of rings (size 3 to 8) (size 9 to 14) (size 15 to 20)
#    0.000    0.857    1.429    3.429    8.000    3.429 
#    0.000    2.143    0.000    0.000    0.000    0.000 
#    0.000    0.000    0.000    0.000    0.000    0.000 
#
# Total GULP energy -78396.151279 kJ/mol
# GULP energy per Si atom -5599.725091 kJ/mol
# Density = 2.589017 g / cm^3
# Si number density = 25.949234 Si / 1000 Ang^3
#
#
#
# Elastic Constant Matrix: (Units=GPa)
#
#
# Indices 1 2 3 4 5 6 
#
# 1 111.3321 59.1781 39.8840 15.7261 -21.8096 2.2632
# 2 59.1781 136.9805 37.1229 15.1050 -17.9085 -8.7889
# 3 39.8840 37.1229 180.2278 15.6629 -33.2947 -1.7808
# 4 15.7261 15.1050 15.6629 38.3449 -9.2750 -0.1483
# 5 -21.8096 -17.9085 -33.2947 -9.2750 24.6949 7.2077
# 6 2.2632 -8.7889 -1.7808 -0.1483 7.2077 60.8069
#
#
#
# Elastic Compliance Matrix: (Units=1/GPa)
#
#
# Indices 1 2 3 4 5 6 
#
# 1 0.013404 -0.004595 -0.000436 -0.001598 0.007937 -0.002121
# 2 -0.004595 0.009876 -0.000641 -0.001427 0.001288 0.001424
# 3 -0.000436 -0.000641 0.007550 -0.000364 0.009479 -0.000980
# 4 -0.001598 -0.001427 -0.000364 0.029486 0.008456 -0.001088
# 5 0.007937 0.001288 0.009479 0.008456 0.066644 -0.007711
# 6 -0.002121 0.001424 -0.000980 -0.001088 -0.007711 0.017613
#
#
# Mechanical properties :
#
#
# Convention : Reuss Voigt Hill
#
# Bulk Modulus (GPa) = 51.31751 77.87894 64.59823
# Shear Modulus (GPa) = 30.78553 44.25970 37.52261
#
# Velocity S-wave (km/s) = 3.44812 4.13440 3.80676
# Velocity P-wave (km/s) = 5.97258 7.27106 6.65357
#
# Compressibility (1/GPa) = 0.01948652
#
# Stress axis : x y z
#
# Youngs Moduli (GPa) = 74.60248 101.25202 132.44896
#
# Poissons Ratio (x) = 0.46526 0.05770
# Poissons Ratio (y) = 0.34280 0.08496
# Poissons Ratio (z) = 0.03250 0.06495
#
# Static dielectric constant tensor:
#      x y z
#    x 2.121250 0.072140 0.125510 
#    y 0.072140 2.042500 0.080950 
#    z 0.125510 0.080950 2.293090 
# 
# From -- ./inp_files/121277.got.cif
#   From: 2010.05.17/outbox.cif.g08.bks.cpg/sg2_61_cif.got.tgz:121277.got - 2010.06.03 11:33:40.
