data_PCOD9061950
_publ_section_title
;
Structure prediction by ZEFSAII (Michael W. Deem and Ramdas Pophale) SiO2 
 PCOD9061950
Probable space group: P -1
;
_chemical_formula_sum "Si O2"
_cell_formula_units_Z 16
_cell_length_a 8.161444
_cell_length_b 20.803076
_cell_length_c 11.442559
_cell_angle_alpha 38.403846
_cell_angle_beta 41.553884
_cell_angle_gamma 67.577410
_cell_volume 694.428736
_symmetry_space_group_name_H-M "P -1"
_symmetry_group_IT_number 2
_symmetry_cell_setting 'triclinic'
loop_
_space_group_symop_operation_xyz
x,y,z
-x,-y,-z
loop_
_atom_site_type_symbol
_atom_site_label
_atom_site_fract_x
_atom_site_fract_y
_atom_site_fract_z
Si Si1 0.825577 0.226719 0.551489
Si Si2 0.770827 0.119628 0.133975
Si Si3 0.709696 0.617577 0.286539
Si Si4 0.449535 0.049614 0.191179
Si Si5 0.819716 0.367062 0.843170
Si Si6 0.918389 0.836492 0.699500
Si Si7 0.384718 0.271886 0.601266
Si Si8 0.332240 0.362713 0.247946
O O1 0.016444 0.188931 0.428003
O O2 0.671130 0.270648 0.479909
O O3 0.024257 0.318000 0.416569
O O4 0.565827 0.116579 0.912336
O O5 0.724039 0.086063 0.070690
O O6 0.500000 0.000000 0.500000
O O7 0.778251 0.247138 0.969913
O O8 0.084542 0.151645 0.964440
O O9 0.500000 0.500000 0.500000
O O10 0.606401 0.630126 0.452513
O O11 0.009160 0.626335 0.140135
O O12 0.745369 0.722313 0.034760
O O13 0.258076 0.094798 0.296160
O O14 0.230222 0.912524 0.482896
O O15 0.000000 0.500000 0.500000
O O16 0.519248 0.347825 0.069677
O O17 0.337328 0.296706 0.458239
O O18 0.500000 0.500000 0.000000
#
# Coordination Sequence:
#
# PCOD9061950 Si02
#       8
#     2   2   2   2   2   2   2   2
#     4  12  26  46  73 107 149 184 246 304 373 437
#     4  11  24  46  76 105 147 199 246 305 369 438
#     4  11  25  43  73 101 140 188 243 295 366 432
#     4  11  23  46  75 100 150 188 247 300 365 442
#     4  11  26  46  71 105 144 188 249 301 369 453
#     4  11  25  44  73 109 141 197 241 300 371 435
#     4  11  25  47  69 106 148 190 241 307 367 435
#     4  12  27  46  71 107 145 194 247 305 374 447
#
# _framework density 23.040521999999999
#
# number of rings (size 3 to 8) (size 9 to 14) (size 15 to 20)
#    0.000    0.750    2.500    4.875    8.750    0.500 
#    2.250    1.250    0.000    0.000    0.000    0.000 
#    0.000    0.000    0.000    0.000    0.000    0.000 
#
# Total GULP energy -89379.221896 kJ/mol
# GULP energy per Si atom -5586.201369 kJ/mol
# Density = 2.298808 g / cm^3
# Si number density = 23.040522 Si / 1000 Ang^3
#
#
#
# Elastic Constant Matrix: (Units=GPa)
#
#
# Indices 1 2 3 4 5 6 
#
# 1 93.3371 23.6877 38.1581 -8.9849 -19.0896 21.7340
# 2 23.6877 76.4016 36.3451 0.0497 -7.9345 15.2988
# 3 38.1581 36.3451 103.9693 -15.4376 1.5447 13.6155
# 4 -8.9849 0.0497 -15.4376 42.5067 6.5026 -9.5849
# 5 -19.0896 -7.9345 1.5447 6.5026 37.9787 -6.0543
# 6 21.7340 15.2988 13.6155 -9.5849 -6.0543 33.3632
#
#
#
# Elastic Compliance Matrix: (Units=1/GPa)
#
#
# Indices 1 2 3 4 5 6 
#
# 1 0.015893 -0.000337 -0.005060 -0.001194 0.007185 -0.007173
# 2 -0.000337 0.017559 -0.005895 -0.004114 0.003491 -0.005975
# 3 -0.005060 -0.005895 0.014271 0.005060 -0.005110 0.000702
# 4 -0.001194 -0.004114 0.005060 0.027621 -0.005184 0.007594
# 5 0.007185 0.003491 -0.005110 -0.005184 0.031780 0.000082
# 6 -0.007173 -0.005975 0.000702 0.007594 0.000082 0.039296
#
#
# Mechanical properties :
#
#
# Convention : Reuss Voigt Hill
#
# Bulk Modulus (GPa) = 39.77758 52.23219 46.00489
# Shear Modulus (GPa) = 28.18764 34.47088 31.32926
#
# Velocity S-wave (km/s) = 3.50150 3.87214 3.69147
# Velocity P-wave (km/s) = 5.80078 6.53530 6.17896
#
# Compressibility (1/GPa) = 0.02513979
#
# Stress axis : x y z
#
# Youngs Moduli (GPa) = 62.92229 56.95059 70.07100
#
# Poissons Ratio (x) = 0.01920 0.35454
# Poissons Ratio (y) = 0.02122 0.41305
# Poissons Ratio (z) = 0.31837 0.33571
#
# Static dielectric constant tensor:
#      x y z
#    x 1.832580 -0.085000 -0.017860 
#    y -0.085000 1.839620 -0.014420 
#    z -0.017860 -0.014420 1.896960 
# 
# From -- ./inp_files/405370.got.cif
#   From: 2010.05.17/outbox.cif.g08.bks.cpg/sg2_203_cif.got.tgz:405370.got - 2010.06.03 11:33:40.
