data_PCOD9061281
_publ_section_title
;
Structure prediction by ZEFSAII (Michael W. Deem and Ramdas Pophale) SiO2 
 PCOD9061281
Probable space group: P -1
;
_chemical_formula_sum "Si O2"
_cell_formula_units_Z 16
_cell_length_a 9.547701
_cell_length_b 13.332501
_cell_length_c 6.668617
_cell_angle_alpha 98.008231
_cell_angle_beta 102.479875
_cell_angle_gamma 108.878092
_cell_volume 763.861448
_symmetry_space_group_name_H-M "P -1"
_symmetry_group_IT_number 2
_symmetry_cell_setting 'triclinic'
loop_
_space_group_symop_operation_xyz
x,y,z
-x,-y,-z
loop_
_atom_site_type_symbol
_atom_site_label
_atom_site_fract_x
_atom_site_fract_y
_atom_site_fract_z
Si Si1 0.464008 0.751522 0.369523
Si Si2 0.965077 0.118012 0.302649
Si Si3 0.227813 0.120995 0.697253
Si Si4 0.118754 0.251058 0.019682
Si Si5 0.202665 0.721486 0.571196
Si Si6 0.420862 0.386632 0.332325
Si Si7 0.032000 0.422391 0.824762
Si Si8 0.662431 0.391312 0.091422
O O1 0.598368 0.844441 0.318877
O O2 0.337525 0.778577 0.467560
O O3 0.549244 0.701998 0.542331
O O4 0.376295 0.658171 0.155325
O O5 0.893922 0.204607 0.383968
O O6 0.112859 0.122638 0.481171
O O7 0.018525 0.153186 0.102976
O O8 0.839319 0.997994 0.258841
O O9 0.211552 0.206002 0.879017
O O10 0.240418 0.344913 0.219113
O O11 0.020136 0.309043 0.889783
O O12 0.274943 0.686789 0.779019
O O13 0.089137 0.610516 0.401632
O O14 0.500000 0.500000 0.500000
O O15 0.512032 0.394294 0.155859
O O16 0.206400 0.489141 0.830623
O O17 0.000000 0.500000 0.000000
#
# Coordination Sequence:
#
# PCOD9061281 Si02
#       8
#     2   2   2   2   2   2   2   2
#     4  11  23  45  63  96 134 168 218 267 326 389
#     4  11  25  45  70  96 126 171 224 276 331 375
#     4  11  24  46  71  94 127 172 220 281 327 380
#     4  12  24  42  68  99 131 170 219 270 325 389
#     4  11  25  43  65  97 133 175 217 268 320 391
#     4  11  25  37  63  97 132 172 211 264 325 391
#     4  12  24  40  64  96 134 177 212 258 321 395
#     4  11  24  41  64  91 137 175 212 262 321 390
#
# _framework density 20.946206
#
# number of rings (size 3 to 8) (size 9 to 14) (size 15 to 20)
#    0.000    0.750    5.000    2.250    5.250    1.500 
#    0.000    0.625    0.000    0.000    0.000    0.000 
#    0.000    0.000    0.000    0.000    0.000    0.000 
#
# Total GULP energy -89504.210074 kJ/mol
# GULP energy per Si atom -5594.013130 kJ/mol
# Density = 2.089853 g / cm^3
# Si number density = 20.946206 Si / 1000 Ang^3
#
#
#
# Elastic Constant Matrix: (Units=GPa)
#
#
# Indices 1 2 3 4 5 6 
#
# 1 54.6538 10.7884 2.9613 -11.9847 -1.9580 19.4958
# 2 10.7884 75.7838 -5.2227 -12.6359 -5.9371 23.3530
# 3 2.9613 -5.2227 53.3768 -8.4150 -5.3783 4.8008
# 4 -11.9847 -12.6359 -8.4150 34.1902 7.0884 -4.6883
# 5 -1.9580 -5.9371 -5.3783 7.0884 23.3456 0.2319
# 6 19.4958 23.3530 4.8008 -4.6883 0.2319 39.5234
#
#
#
# Elastic Compliance Matrix: (Units=1/GPa)
#
#
# Indices 1 2 3 4 5 6 
#
# 1 0.023853 0.001680 0.001159 0.007510 0.000534 -0.012012
# 2 0.001680 0.017995 0.004005 0.005855 0.003974 -0.011276
# 3 0.001159 0.004005 0.020790 0.005448 0.004299 -0.004843
# 4 0.007510 0.005855 0.005448 0.036503 -0.007675 -0.003450
# 5 0.000534 0.003974 0.004299 -0.007675 0.047254 -0.004322
# 6 -0.012012 -0.011276 -0.004843 -0.003450 -0.004322 0.038094
#
#
# Mechanical properties :
#
#
# Convention : Reuss Voigt Hill
#
# Bulk Modulus (GPa) = 13.10180 22.31874 17.71027
# Shear Modulus (GPa) = 25.47862 31.09766 28.28814
#
# Velocity S-wave (km/s) = 3.49145 3.85729 3.67892
# Velocity P-wave (km/s) = 4.74576 5.52419 5.14970
#
# Compressibility (1/GPa) = 0.07632540
#
# Stress axis : x y z
#
# Youngs Moduli (GPa) = 41.92301 55.57188 48.10011
#
# Poissons Ratio (x) = -0.09334 -0.05575
# Poissons Ratio (y) = -0.07041 -0.19265
# Poissons Ratio (z) = -0.04859 -0.22258
#
# Static dielectric constant tensor:
#      x y z
#    x 1.749170 0.031000 -0.005320 
#    y 0.031000 1.739830 -0.007760 
#    z -0.005320 -0.007760 1.741950 
# 
# From -- ./inp_files/39461.got.cif
#   From: 2010.05.17/outbox.cif.g08.bks.cpg/sg2_20_cif.got.tgz:39461.got - 2010.06.03 11:33:40.
