data_PCOD9061882
_publ_section_title
;
Structure prediction by ZEFSAII (Michael W. Deem and Ramdas Pophale) SiO2 
 PCOD9061882
Probable space group: P -1
;
_chemical_formula_sum "Si O2"
_cell_formula_units_Z 12
_cell_length_a 9.569151
_cell_length_b 11.098380
_cell_length_c 12.384350
_cell_angle_alpha 26.341976
_cell_angle_beta 107.366124
_cell_angle_gamma 92.792288
_cell_volume 476.935067
_symmetry_space_group_name_H-M "P -1"
_symmetry_group_IT_number 2
_symmetry_cell_setting 'triclinic'
loop_
_space_group_symop_operation_xyz
x,y,z
-x,-y,-z
loop_
_atom_site_type_symbol
_atom_site_label
_atom_site_fract_x
_atom_site_fract_y
_atom_site_fract_z
Si Si1 0.630551 0.510802 0.380551
Si Si2 0.709667 0.116838 0.459667
Si Si3 0.302723 0.517564 0.052723
Si Si4 0.481046 0.907599 0.231046
Si Si5 0.137316 0.491263 0.387316
Si Si6 0.026307 0.992525 0.776307
O O1 0.478991 0.761083 0.228991
O O2 0.606936 0.214256 0.611229
O O3 0.796965 0.434446 0.546965
O O4 0.606936 0.722842 0.102643
O O5 0.507250 0.341501 0.257250
O O6 0.738498 0.764157 0.738990
O O7 0.738498 0.265143 0.238005
O O8 0.851120 0.085928 0.601120
O O9 0.187682 0.746695 0.937681
O O10 0.678589 0.753924 0.428589
O O11 0.044429 0.299609 0.542265
O O12 0.044429 0.795282 0.046592
#
# Coordination Sequence:
#
# PCOD9061882 Si02
#       6
#     2   2   2   2   2   2
#     4   8  13  24  39  58  95 130 155 186 219 272
#     4  10  21  37  53  68  92 128 163 192 232 290
#     4  10  21  37  53  68  92 128 163 192 232 290
#     4   8  13  24  39  58  95 130 155 186 219 272
#     4  10  18  26  42  74 104 122 152 202 240 272
#     4  12  20  30  50  76 100 118 154 204 246 274
#
# _framework density 25.160657
#
# number of rings (size 3 to 8) (size 9 to 14) (size 15 to 20)
#    1.000    1.333    0.000    5.000    0.000    0.000 
#    0.000    0.000    0.000    0.000    0.000    0.000 
#    0.000  106.667    0.000    0.000    0.000    0.000 
#
# Total GULP energy -67181.261770 kJ/mol
# GULP energy per Si atom -5598.438481 kJ/mol
# Density = 2.510339 g / cm^3
# Si number density = 25.160657 Si / 1000 Ang^3
#
#
#
# Elastic Constant Matrix: (Units=GPa)
#
#
# Indices 1 2 3 4 5 6 
#
# 1 128.7342 53.4427 98.2418 -17.6508 -33.3951 14.5584
# 2 53.4427 56.2454 73.5372 -2.0668 -22.8215 28.7816
# 3 98.2418 73.5372 235.4234 3.5908 -64.6485 26.3191
# 4 -17.6508 -2.0668 3.5908 38.0112 4.0118 6.8432
# 5 -33.3951 -22.8215 -64.6485 4.0118 56.2577 -20.2294
# 6 14.5584 28.7816 26.3191 6.8432 -20.2294 51.9572
#
#
#
# Elastic Compliance Matrix: (Units=1/GPa)
#
#
# Indices 1 2 3 4 5 6 
#
# 1 0.015999 -0.012626 -0.002619 0.006027 0.002361 0.003963
# 2 -0.012626 0.052941 -0.010557 0.002958 -0.006804 -0.023480
# 3 -0.002619 -0.010557 0.010414 -0.004576 0.008305 0.005143
# 4 0.006027 0.002958 -0.004576 0.031568 -0.005337 -0.007245
# 5 0.002361 -0.006804 0.008305 -0.005337 0.030464 0.011464
# 6 0.003963 -0.023480 0.005143 -0.007245 0.011464 0.033956
#
#
# Mechanical properties :
#
#
# Convention : Reuss Voigt Hill
#
# Bulk Modulus (GPa) = 36.03557 96.76071 66.39814
# Shear Modulus (GPa) = 21.16899 42.25730 31.71315
#
# Velocity S-wave (km/s) = 2.90375 4.10262 3.55410
# Velocity P-wave (km/s) = 5.05922 7.80913 6.57945
#
# Compressibility (1/GPa) = 0.02775036
#
# Stress axis : x y z
#
# Youngs Moduli (GPa) = 62.50418 18.88888 96.02772
#
# Poissons Ratio (x) = 0.23849 0.25152
# Poissons Ratio (y) = 0.78918 1.01372
# Poissons Ratio (z) = 0.16371 0.19940
#
# Static dielectric constant tensor:
#      x y z
#    x 1.976380 -0.063710 -0.014050 
#    y -0.063710 2.041330 -0.028620 
#    z -0.014050 -0.028620 1.963530 
# 
# From -- ./inp_files/503526.got.cif
#   From: 2010.05.17/outbox.cif.g08.bks.cpg/sg2_252_cif.got.tgz:503526.got - 2010.06.03 11:33:40.
