data_PCOD9061165
_publ_section_title
;
Structure prediction by ZEFSAII (Michael W. Deem and Ramdas Pophale) SiO2 
 PCOD9061165
Probable space group: P -1
;
_chemical_formula_sum "Si O2"
_cell_formula_units_Z 16
_cell_length_a 11.707715
_cell_length_b 8.995541
_cell_length_c 29.660363
_cell_angle_alpha 32.177619
_cell_angle_beta 149.308046
_cell_angle_gamma 126.933389
_cell_volume 750.807111
_symmetry_space_group_name_H-M "P -1"
_symmetry_group_IT_number 2
_symmetry_cell_setting 'triclinic'
loop_
_space_group_symop_operation_xyz
x,y,z
-x,-y,-z
loop_
_atom_site_type_symbol
_atom_site_label
_atom_site_fract_x
_atom_site_fract_y
_atom_site_fract_z
Si Si1 0.090693 0.233296 0.991464
Si Si2 0.974973 0.469859 0.279807
Si Si3 0.891044 0.227905 0.483980
Si Si4 0.337484 0.349673 0.962041
Si Si5 0.634326 0.645974 0.204785
Si Si6 0.410902 0.658011 0.380284
Si Si7 0.751670 0.617021 0.855749
Si Si8 0.388305 0.283464 0.657126
O O1 0.345323 0.018938 0.161810
O O2 0.152493 0.383452 0.931201
O O3 0.862654 0.485218 0.878415
O O4 0.000000 0.000000 0.000000
O O5 0.814509 0.492623 0.175095
O O6 0.789323 0.643022 0.214062
O O7 0.157297 0.626795 0.292690
O O8 0.122078 0.098638 0.436704
O O9 0.814258 0.392291 0.367254
O O10 0.707843 0.471138 0.396947
O O11 0.173599 0.174269 0.604385
O O12 0.500000 0.500000 0.000000
O O13 0.505450 0.983274 0.099246
O O14 0.424339 0.535815 0.149485
O O15 0.500000 0.500000 0.500000
O O16 0.581184 0.546854 0.421280
O O17 0.378099 0.008823 0.283799
O O18 0.000000 0.500000 0.000000
#
# Coordination Sequence:
#
# PCOD9061165 Si02
#       8
#     2   2   2   2   2   2   2   2
#     4  12  23  46  70 100 135 181 237 279 333 417
#     4  12  27  44  68 106 145 174 227 294 350 402
#     4  11  24  45  75  97 132 190 231 280 340 417
#     4  12  27  42  69 103 140 176 225 290 348 396
#     4  12  25  48  70 103 138 184 234 277 345 428
#     4  12  26  44  69 108 143 179 226 291 355 403
#     4  12  25  43  76  97 135 188 229 278 338 413
#     4  11  23  44  73  98 136 180 240 278 336 419
#
# _framework density 21.310400999999999
#
# number of rings (size 3 to 8) (size 9 to 14) (size 15 to 20)
#    0.000    0.250    3.750    5.250    5.250    1.500 
#    0.000    0.000    0.000    0.000    0.000    0.000 
#    0.000    0.000    0.000    0.000    0.000    0.000 
#
# Total GULP energy -89539.414000 kJ/mol
# GULP energy per Si atom -5596.213375 kJ/mol
# Density = 2.126190 g / cm^3
# Si number density = 21.310401 Si / 1000 Ang^3
#
#
#
# Elastic Constant Matrix: (Units=GPa)
#
#
# Indices 1 2 3 4 5 6 
#
# 1 135.0284 18.3740 -15.2492 0.8579 -0.0369 0.6686
# 2 18.3740 127.9206 -0.0075 4.9179 8.3835 13.7170
# 3 -15.2492 -0.0075 47.7409 10.9498 -14.3726 0.4421
# 4 0.8579 4.9179 10.9498 30.4191 -4.8372 -9.8028
# 5 -0.0369 8.3835 -14.3726 -4.8372 38.3260 7.8605
# 6 0.6686 13.7170 0.4421 -9.8028 7.8605 31.1779
#
#
#
# Elastic Compliance Matrix: (Units=1/GPa)
#
#
# Indices 1 2 3 4 5 6 
#
# 1 0.007934 -0.001145 0.003216 -0.001106 0.001410 -0.000415
# 2 -0.001145 0.008656 -0.000063 -0.002974 -0.001398 -0.004365
# 3 0.003216 -0.000063 0.027517 -0.010374 0.010318 -0.006294
# 4 -0.001106 -0.002974 -0.010374 0.041747 -0.001020 0.014862
# 5 0.001410 -0.001398 0.010318 -0.001020 0.031758 -0.007889
# 6 -0.000415 -0.004365 -0.006294 0.014862 -0.007889 0.040754
#
#
# Mechanical properties :
#
#
# Convention : Reuss Voigt Hill
#
# Bulk Modulus (GPa) = 20.77942 35.21382 27.99662
# Shear Modulus (GPa) = 29.34421 40.48945 34.91683
#
# Velocity S-wave (km/s) = 3.71481 4.36361 4.05222
# Velocity P-wave (km/s) = 5.30771 6.47675 5.92115
#
# Compressibility (1/GPa) = 0.04812453
#
# Stress axis : x y z
#
# Youngs Moduli (GPa) = 126.03508 115.52948 36.34066
#
# Poissons Ratio (x) = 0.13226 -0.11687
# Poissons Ratio (y) = 0.14428 0.00228
# Poissons Ratio (z) = -0.40534 0.00725
#
# Static dielectric constant tensor:
#      x y z
#    x 1.905330 -0.311180 0.129600 
#    y -0.311180 2.231170 -0.204540 
#    z 0.129600 -0.204540 1.889250 
# 
# From -- ./inp_files/279973.got.cif
#   From: 2010.05.17/outbox.cif.g08.bks.cpg/sg2_140_cif.got.tgz:279973.got - 2010.06.03 11:33:40.
