data_PCOD9061874
_publ_section_title
;
Structure prediction by ZEFSAII (Michael W. Deem and Ramdas Pophale) SiO2 
 PCOD9061874
Probable space group: P -1
;
_chemical_formula_sum "Si O2"
_cell_formula_units_Z 11
_cell_length_a 8.304831
_cell_length_b 10.700798
_cell_length_c 8.108264
_cell_angle_alpha 42.118652
_cell_angle_beta 95.711983
_cell_angle_gamma 75.632860
_cell_volume 421.197596
_symmetry_space_group_name_H-M "P -1"
_symmetry_group_IT_number 2
_symmetry_cell_setting 'triclinic'
loop_
_space_group_symop_operation_xyz
x,y,z
-x,-y,-z
loop_
_atom_site_type_symbol
_atom_site_label
_atom_site_fract_x
_atom_site_fract_y
_atom_site_fract_z
Si Si1 0.875077 0.115439 0.711328
Si Si2 0.547535 0.252397 0.742089
Si Si3 0.221580 0.926114 0.725340
Si Si4 0.814024 0.585649 0.299739
Si Si5 0.500000 0.500000 0.000000
Si Si6 0.792045 0.680599 0.844172
O O1 0.674392 0.141840 0.706610
O O2 0.820105 0.365920 0.455850
O O3 0.011110 0.996279 0.691078
O O4 0.000000 0.000000 0.000000
O O5 0.500000 0.500000 0.500000
O O6 0.348948 0.273807 0.728018
O O7 0.662485 0.148451 0.019851
O O8 0.676671 0.275738 0.182879
O O9 0.761091 0.880057 0.538217
O O10 0.799225 0.712587 0.009848
O O11 0.000000 0.500000 0.500000
O O12 0.630135 0.619065 0.865545
O O13 0.000000 0.500000 0.000000
#
# Coordination Sequence:
#
# PCOD9061874 Si02
#       6
#     2   2   2   2   1   2
#     4   9  20  43  72 104 153 196 264 325 387 479
#     4   9  20  42  78 104 155 202 260 324 393 480
#     4  11  23  49  79 119 156 208 277 327 402 483
#     4  11  23  46  72 113 159 207 259 328 401 481
#     4  12  28  48  84 110 160 220 258 338 410 466
#     4  12  27  51  80 120 163 205 276 336 404 485
#
# _framework density 26.116008999999998
#
# number of rings (size 3 to 8) (size 9 to 14) (size 15 to 20)
#    0.000    1.455    3.636    0.545    0.000    5.091 
#    3.273    3.636    4.000    0.000    0.000    0.000 
#    0.000    0.000    0.000    0.000    0.000    0.000 
#
# Total GULP energy -61395.361193 kJ/mol
# GULP energy per Si atom -5581.396472 kJ/mol
# Density = 2.605657 g / cm^3
# Si number density = 26.116009 Si / 1000 Ang^3
#
#
#
# Elastic Constant Matrix: (Units=GPa)
#
#
# Indices 1 2 3 4 5 6 
#
# 1 189.0288 104.6124 79.2620 -8.2798 8.6650 -63.2652
# 2 104.6124 159.8019 83.7919 -52.4033 -2.8211 -53.8914
# 3 79.2620 83.7919 177.3773 -8.1821 -27.9058 -19.5992
# 4 -8.2798 -52.4033 -8.1821 45.5939 -10.9225 9.5222
# 5 8.6650 -2.8211 -27.9058 -10.9225 58.1488 -21.1931
# 6 -63.2652 -53.8914 -19.5992 9.5222 -21.1931 61.1377
#
#
#
# Elastic Compliance Matrix: (Units=1/GPa)
#
#
# Indices 1 2 3 4 5 6 
#
# 1 0.012176 -0.008792 -0.001731 -0.009964 -0.003219 0.004731
# 2 -0.008792 0.031368 -0.005737 0.033019 0.012016 0.015736
# 3 -0.001731 -0.005737 0.009098 -0.004135 0.002714 -0.002347
# 4 -0.009964 0.033019 -0.004135 0.058482 0.017323 0.014366
# 5 -0.003219 0.012016 0.002714 0.017323 0.028382 0.015271
# 6 0.004731 0.015736 -0.002347 0.014366 0.015271 0.037427
#
#
# Mechanical properties :
#
#
# Convention : Reuss Voigt Hill
#
# Bulk Modulus (GPa) = 49.69618 117.94895 83.82256
# Shear Modulus (GPa) = 23.13085 50.21219 36.67152
#
# Velocity S-wave (km/s) = 2.97929 4.38957 3.75130
# Velocity P-wave (km/s) = 5.55925 8.42334 7.13645
#
# Compressibility (1/GPa) = 0.02012227
#
# Stress axis : x y z
#
# Youngs Moduli (GPa) = 82.12613 31.87912 109.91135
#
# Poissons Ratio (x) = 0.28029 0.19025
# Poissons Ratio (y) = 0.72208 0.63058
# Poissons Ratio (z) = 0.14216 0.18289
#
# Static dielectric constant tensor:
#      x y z
#    x 2.161140 0.085790 0.043640 
#    y 0.085790 2.084900 0.114450 
#    z 0.043640 0.114450 2.214310 
# 
# From -- ./inp_files/161486.got.cif
#   From: 2010.05.17/outbox.cif.g08.bks.cpg/sg2_81_cif.got.tgz:161486.got - 2010.06.03 11:33:40.
