data_PCOD9061582
_publ_section_title
;
Structure prediction by ZEFSAII (Michael W. Deem and Ramdas Pophale) SiO2 
 PCOD9061582
Probable space group: P -1
;
_chemical_formula_sum "Si O2"
_cell_formula_units_Z 14
_cell_length_a 5.181867
_cell_length_b 15.177420
_cell_length_c 11.573106
_cell_angle_alpha 38.627905
_cell_angle_beta 76.892424
_cell_angle_gamma 81.056900
_cell_volume 553.041300
_symmetry_space_group_name_H-M "P -1"
_symmetry_group_IT_number 2
_symmetry_cell_setting 'triclinic'
loop_
_space_group_symop_operation_xyz
x,y,z
-x,-y,-z
loop_
_atom_site_type_symbol
_atom_site_label
_atom_site_fract_x
_atom_site_fract_y
_atom_site_fract_z
Si Si1 0.240188 0.904999 0.103709
Si Si2 0.732080 0.236960 0.519731
Si Si3 0.320100 0.405344 0.528690
Si Si4 0.706317 0.983918 0.601296
Si Si5 0.558442 0.296168 0.083546
Si Si6 0.899936 0.312547 0.831800
Si Si7 0.819996 0.578660 0.838531
O O1 0.157376 0.827119 0.309066
O O2 0.291174 0.790186 0.118001
O O3 0.500000 0.000000 0.000000
O O4 0.000000 0.000000 0.000000
O O5 0.480789 0.318948 0.507621
O O6 0.952246 0.343894 0.336662
O O7 0.675533 0.110304 0.565657
O O8 0.500000 0.500000 0.500000
O O9 0.156475 0.522658 0.356195
O O10 0.165839 0.302758 0.740072
O O11 0.626327 0.830855 0.820949
O O12 0.500000 0.000000 0.500000
O O13 0.000000 0.000000 0.500000
O O14 0.380431 0.306726 0.208564
O O15 0.839267 0.268223 0.015981
O O16 0.628041 0.465575 0.907689
O O17 0.000000 0.500000 0.000000
#
# Coordination Sequence:
#
# PCOD9061582 Si02
#       7
#     2   2   2   2   2   2   2
#     4  12  28  51  75 116 159 213 274 331 408 494
#     4  12  25  50  85 115 165 220 268 349 413 493
#     4  11  23  45  73 114 152 202 268 327 410 485
#     4  12  28  52  78 117 163 214 271 326 412 496
#     4  11  25  45  72 108 152 201 262 337 395 486
#     4  11  25  44  73 109 156 200 262 336 404 482
#     4  11  24  47  74 113 153 205 272 333 413 479
#
# _framework density 25.314563
#
# number of rings (size 3 to 8) (size 9 to 14) (size 15 to 20)
#    0.000    0.571    2.857    4.286    2.000    4.571 
#    5.143    0.000    0.000    0.000    0.000    0.000 
#    0.000    0.000    0.000    0.000    0.000    0.000 
#
# Total GULP energy -77978.172334 kJ/mol
# GULP energy per Si atom -5569.869452 kJ/mol
# Density = 2.525695 g / cm^3
# Si number density = 25.314563 Si / 1000 Ang^3
#
#
#
# Elastic Constant Matrix: (Units=GPa)
#
#
# Indices 1 2 3 4 5 6 
#
# 1 94.4432 36.5261 55.0496 -4.6299 -16.9751 -18.5986
# 2 36.5261 201.8256 46.7096 -12.2658 -28.1013 -24.4531
# 3 55.0496 46.7096 147.0445 2.5800 -32.2093 -21.0951
# 4 -4.6299 -12.2658 2.5800 55.6955 0.8188 -16.2315
# 5 -16.9751 -28.1013 -32.2093 0.8188 67.5902 7.3313
# 6 -18.5986 -24.4531 -21.0951 -16.2315 7.3313 35.7551
#
#
#
# Elastic Compliance Matrix: (Units=1/GPa)
#
#
# Indices 1 2 3 4 5 6 
#
# 1 0.014843 -0.000680 -0.004403 0.002991 0.000673 0.005878
# 2 -0.000680 0.006139 -0.000805 0.002538 0.001510 0.004213
# 3 -0.004403 -0.000805 0.009651 -0.000435 0.002941 0.002053
# 4 0.002991 0.002538 -0.000435 0.022676 -0.000124 0.013355
# 5 0.000673 0.001510 0.002941 -0.000124 0.017042 -0.000432
# 6 0.005878 0.004213 0.002053 0.013355 -0.000432 0.041269
#
#
# Mechanical properties :
#
#
# Convention : Reuss Voigt Hill
#
# Bulk Modulus (GPa) = 53.02655 79.98709 66.50682
# Shear Modulus (GPa) = 38.55624 52.14336 45.34980
#
# Velocity S-wave (km/s) = 3.90691 4.54344 4.23715
# Velocity P-wave (km/s) = 6.42996 7.69348 7.08993
#
# Compressibility (1/GPa) = 0.01885848
#
# Stress axis : x y z
#
# Youngs Moduli (GPa) = 67.37345 162.89202 103.61671
#
# Poissons Ratio (x) = 0.11069 0.45617
# Poissons Ratio (y) = 0.04578 0.08342
# Poissons Ratio (z) = 0.29661 0.13114
#
# Static dielectric constant tensor:
#      x y z
#    x 2.029780 -0.017350 0.018370 
#    y -0.017350 1.892120 -0.070080 
#    z 0.018370 -0.070080 2.100460 
# 
# From -- ./inp_files/367377.got.cif
#   From: 2010.05.17/outbox.cif.g08.bks.cpg/sg2_184_cif.got.tgz:367377.got - 2010.06.03 11:33:40.
