data_PCOD9061521
_publ_section_title
;
Structure prediction by ZEFSAII (Michael W. Deem and Ramdas Pophale) SiO2 
 PCOD9061521
Probable space group: P -1
;
_chemical_formula_sum "Si O2"
_cell_formula_units_Z 16
_cell_length_a 6.888257
_cell_length_b 14.588635
_cell_length_c 8.746510
_cell_angle_alpha 69.732296
_cell_angle_beta 101.028824
_cell_angle_gamma 70.782774
_cell_volume 730.863479
_symmetry_space_group_name_H-M "P -1"
_symmetry_group_IT_number 2
_symmetry_cell_setting 'triclinic'
loop_
_space_group_symop_operation_xyz
x,y,z
-x,-y,-z
loop_
_atom_site_type_symbol
_atom_site_label
_atom_site_fract_x
_atom_site_fract_y
_atom_site_fract_z
Si Si1 0.519952 0.400830 0.166553
Si Si2 0.065887 0.769126 0.528653
Si Si3 0.324322 0.954785 0.960622
Si Si4 0.851119 0.669751 0.316432
Si Si5 0.689149 0.530075 0.575345
Si Si6 0.741808 0.918232 0.639024
Si Si7 0.395928 0.224699 0.090796
Si Si8 0.832881 0.091109 0.743437
O O1 0.772814 0.335127 0.293643
O O2 0.372928 0.438242 0.275960
O O3 0.452183 0.317420 0.114429
O O4 0.500000 0.500000 0.000000
O O5 0.222010 0.810884 0.436309
O O6 0.923532 0.737628 0.406699
O O7 0.907528 0.866078 0.555401
O O8 0.388433 0.882722 0.860703
O O9 0.311725 0.883411 0.142217
O O10 0.084792 0.051474 0.853294
O O11 0.500000 0.000000 0.000000
O O12 0.709621 0.621393 0.418894
O O13 0.075068 0.571330 0.348543
O O14 0.731340 0.735353 0.110770
O O15 0.500000 0.500000 0.500000
O O16 0.730335 0.818713 0.786333
O O17 0.500000 0.000000 0.500000
O O18 0.816886 0.989742 0.718651
#
# Coordination Sequence:
#
# PCOD9061521 Si02
#       8
#     2   2   2   2   2   2   2   2
#     4  12  28  47  74 106 150 193 242 309 365 437
#     4  12  26  46  72 109 144 194 248 291 375 440
#     4  11  23  45  72 108 146 184 244 302 362 430
#     4  11  27  44  77 107 138 190 247 301 360 441
#     4  11  24  51  73 101 146 190 242 307 369 420
#     4  12  26  46  72 105 153 192 242 305 365 436
#     4  12  26  44  75 109 144 193 242 301 368 435
#     4  11  25  43  73 102 144 192 237 298 359 437
#
# _framework density 21.891912999999999
#
# number of rings (size 3 to 8) (size 9 to 14) (size 15 to 20)
#    0.000    0.500    2.500    4.875    8.750    1.500 
#    0.000    0.000    0.000    0.000    0.000    0.000 
#    0.000    0.000    0.000    0.000    0.000    0.000 
#
# Total GULP energy -89626.681164 kJ/mol
# GULP energy per Si atom -5601.667573 kJ/mol
# Density = 2.184209 g / cm^3
# Si number density = 21.891913 Si / 1000 Ang^3
#
#
#
# Elastic Constant Matrix: (Units=GPa)
#
#
# Indices 1 2 3 4 5 6 
#
# 1 108.9383 31.7772 41.1902 -0.0318 -9.0456 13.9937
# 2 31.7772 88.1916 23.5583 15.6493 -9.6558 21.7847
# 3 41.1902 23.5583 120.0953 -11.2125 -7.4078 14.0246
# 4 -0.0318 15.6493 -11.2125 47.0838 5.4914 -2.2591
# 5 -9.0456 -9.6558 -7.4078 5.4914 41.2172 2.7319
# 6 13.9937 21.7847 14.0246 -2.2591 2.7319 52.7755
#
#
#
# Elastic Compliance Matrix: (Units=1/GPa)
#
#
# Indices 1 2 3 4 5 6 
#
# 1 0.011462 -0.002871 -0.003158 0.000001 0.001347 -0.001085
# 2 -0.002871 0.015871 -0.001807 -0.006453 0.004007 -0.005793
# 3 -0.003158 -0.001807 0.010181 0.002929 0.000390 -0.001017
# 4 0.000001 -0.006453 0.002929 0.024757 -0.004494 0.003177
# 5 0.001347 0.004007 0.000390 -0.004494 0.026408 -0.003674
# 6 -0.001085 -0.005793 -0.001017 0.003177 -0.003674 0.022224
#
#
# Mechanical properties :
#
#
# Convention : Reuss Voigt Hill
#
# Bulk Modulus (GPa) = 45.78657 56.69740 51.24198
# Shear Modulus (GPa) = 37.35317 42.92861 40.14089
#
# Velocity S-wave (km/s) = 4.13516 4.43305 4.28669
# Velocity P-wave (km/s) = 6.61511 7.22202 6.92522
#
# Compressibility (1/GPa) = 0.02184047
#
# Stress axis : x y z
#
# Youngs Moduli (GPa) = 87.24182 63.00794 98.22465
#
# Poissons Ratio (x) = 0.18091 0.31023
# Poissons Ratio (y) = 0.25049 0.17752
# Poissons Ratio (z) = 0.27554 0.11387
#
# Static dielectric constant tensor:
#      x y z
#    x 1.800060 -0.025180 0.016140 
#    y -0.025180 1.787910 -0.031940 
#    z 0.016140 -0.031940 1.832600 
# 
# From -- ./inp_files/47789.got.cif
#   From: 2010.05.17/outbox.cif.g08.bks.cpg/sg2_24_cif.got.tgz:47789.got - 2010.06.03 11:33:40.
