data_PCOD9061659
_publ_section_title
;
Structure prediction by ZEFSAII (Michael W. Deem and Ramdas Pophale) SiO2 
 PCOD9061659
Probable space group: P -1
;
_chemical_formula_sum "Si O2"
_cell_formula_units_Z 14
_cell_length_a 18.859602
_cell_length_b 11.793884
_cell_length_c 9.235771
_cell_angle_alpha 142.443125
_cell_angle_beta 136.683444
_cell_angle_gamma 27.913507
_cell_volume 583.557494
_symmetry_space_group_name_H-M "P -1"
_symmetry_group_IT_number 2
_symmetry_cell_setting 'triclinic'
loop_
_space_group_symop_operation_xyz
x,y,z
-x,-y,-z
loop_
_atom_site_type_symbol
_atom_site_label
_atom_site_fract_x
_atom_site_fract_y
_atom_site_fract_z
Si Si1 0.637255 0.338779 0.698550
Si Si2 0.729325 0.748481 0.488426
Si Si3 0.694893 0.246024 0.260382
Si Si4 0.847202 0.976746 0.911342
Si Si5 0.185030 0.554201 0.979074
Si Si6 0.606180 0.765219 0.625630
Si Si7 0.702394 0.937102 0.167516
O O1 0.480399 0.577639 0.791314
O O2 0.767623 0.133070 0.801866
O O3 0.623444 0.180595 0.411380
O O4 0.695058 0.443210 0.804798
O O5 0.853466 0.744845 0.682877
O O6 0.785948 0.530054 0.232067
O O7 0.689199 0.721051 0.557528
O O8 0.568505 0.042941 0.486151
O O9 0.694467 0.466945 0.509935
O O10 0.783638 0.981008 0.225829
O O11 0.742725 0.159795 0.078766
O O12 0.012603 0.844923 0.040353
O O13 0.208231 0.332590 0.877898
O O14 0.607708 0.926291 0.909509
#
# Coordination Sequence:
#
# PCOD9061659 Si02
#       7
#     2   2   2   2   2   2   2
#     4  12  26  45  75 107 138 183 238 295 348 408
#     4  11  23  45  76 104 138 185 238 292 348 407
#     4  12  25  45  73 105 142 178 239 292 343 415
#     4  12  25  49  72 105 141 186 238 289 347 416
#     4  12  27  47  73 101 147 189 230 286 351 424
#     4  11  24  45  75 108 137 181 237 299 347 405
#     4  12  26  46  71 106 147 183 232 285 360 416
#
# _framework density 23.990781999999999
#
# number of rings (size 3 to 8) (size 9 to 14) (size 15 to 20)
#    0.000    0.286    4.286    4.286    2.000    4.571 
#    0.000    1.429    0.000    0.000    0.000    0.000 
#    0.000    0.000    0.000    0.000    0.000    0.000 
#
# Total GULP energy -78348.670900 kJ/mol
# GULP energy per Si atom -5596.333636 kJ/mol
# Density = 2.393618 g / cm^3
# Si number density = 23.990782 Si / 1000 Ang^3
#
#
#
# Elastic Constant Matrix: (Units=GPa)
#
#
# Indices 1 2 3 4 5 6 
#
# 1 119.1263 53.0054 60.2223 -5.7616 -0.0252 16.0159
# 2 53.0054 68.9146 47.3361 0.6463 -10.6576 7.1251
# 3 60.2223 47.3361 140.2113 -5.8239 8.9679 14.4399
# 4 -5.7616 0.6463 -5.8239 10.7143 18.7015 11.0162
# 5 -0.0252 -10.6576 8.9679 18.7015 37.9546 4.1020
# 6 16.0159 7.1251 14.4399 11.0162 4.1020 15.3758
#
#
#
# Elastic Compliance Matrix: (Units=1/GPa)
#
#
# Indices 1 2 3 4 5 6 
#
# 1 0.011109 -0.003926 -0.005474 -0.018921 0.008808 0.006595
# 2 -0.003926 0.019672 -0.001354 0.026346 -0.004834 -0.021341
# 3 -0.005474 -0.001354 0.008008 -0.016315 0.004766 0.009227
# 4 -0.018921 0.026346 -0.016315 -0.098277 0.051060 0.079611
# 5 0.008808 -0.004834 0.004766 0.051060 0.004013 -0.049064
# 6 0.006595 -0.021341 0.009227 0.079611 -0.049064 0.015443
#
#
# Mechanical properties :
#
#
# Convention : Reuss Voigt Hill
#
# Bulk Modulus (GPa) = 57.86996 72.15331 65.01164
# Shear Modulus (GPa) = -391.79843 23.98817 -183.90513
#
# Velocity S-wave (km/s) = -12.79323 3.16554 -8.76487
# Velocity P-wave (km/s) = 13.93011 6.59557 8.67602
#
# Compressibility (1/GPa) = 0.01728012
#
# Stress axis : x y z
#
# Youngs Moduli (GPa) = 90.01632 50.83270 124.87969
#
# Poissons Ratio (x) = 0.19959 0.68364
# Poissons Ratio (y) = 0.35345 0.16904
# Poissons Ratio (z) = 0.49278 0.06881
#
# Static dielectric constant tensor:
#      x y z
#    x 1.923040 0.062580 0.020560 
#    y 0.062580 1.931650 0.003900 
#    z 0.020560 0.003900 1.906830 
# 
# From -- ./inp_files/333946.got.cif
#   From: 2010.05.17/outbox.cif.g08.bks.cpg/sg2_167_cif.got.tgz:333946.got - 2010.06.03 11:33:40.
