data_PCOD9061083
_publ_section_title
;
Structure prediction by ZEFSAII (Michael W. Deem and Ramdas Pophale) SiO2 
 PCOD9061083
Probable space group: P -1
;
_chemical_formula_sum "Si O2"
_cell_formula_units_Z 16
_cell_length_a 12.322738
_cell_length_b 9.209318
_cell_length_c 7.717860
_cell_angle_alpha 108.807781
_cell_angle_beta 119.765861
_cell_angle_gamma 59.758905
_cell_volume 653.764549
_symmetry_space_group_name_H-M "P -1"
_symmetry_group_IT_number 2
_symmetry_cell_setting 'triclinic'
loop_
_space_group_symop_operation_xyz
x,y,z
-x,-y,-z
loop_
_atom_site_type_symbol
_atom_site_label
_atom_site_fract_x
_atom_site_fract_y
_atom_site_fract_z
Si Si1 0.006715 0.316113 0.915287
Si Si2 0.820259 0.026053 0.547267
Si Si3 0.370505 0.153216 0.553743
Si Si4 0.820968 0.475201 0.513028
Si Si5 0.543174 0.645027 0.011689
Si Si6 0.129878 0.963626 0.817261
Si Si7 0.391108 0.652712 0.577918
Si Si8 0.179069 0.640190 0.894792
O O1 0.932281 0.345979 0.681367
O O2 0.924108 0.299067 0.007471
O O3 0.136599 0.136624 0.947203
O O4 0.000000 0.500000 0.000000
O O5 0.839156 0.045126 0.364410
O O6 0.709953 0.212133 0.583363
O O7 0.737331 0.914206 0.477946
O O8 0.972642 0.979161 0.723052
O O9 0.258244 0.324361 0.433344
O O10 0.438630 0.231631 0.783062
O O11 0.500000 0.000000 0.500000
O O12 0.695643 0.422438 0.409297
O O13 0.876871 0.424377 0.343088
O O14 0.693722 0.527788 0.012342
O O15 0.500000 0.500000 0.000000
O O16 0.457008 0.729769 0.804215
O O17 0.216751 0.793093 0.922409
O O18 0.500000 0.500000 0.500000
#
# Coordination Sequence:
#
# PCOD9061083 Si02
#       8
#     2   2   2   2   2   2   2   2
#     4  12  28  44  70 110 139 190 249 306 369 455
#     4  11  24  44  73 107 143 199 245 302 377 449
#     4  11  26  45  73 112 149 199 248 312 379 439
#     4  11  23  49  67 104 147 192 239 301 383 434
#     4  11  23  44  72 106 144 191 250 299 368 447
#     4  11  23  48  71 104 148 194 244 303 377 444
#     4  12  22  44  75 101 148 199 245 306 367 449
#     4  11  24  46  74 103 141 194 244 298 373 445
#
# _framework density 24.473642999999999
#
# number of rings (size 3 to 8) (size 9 to 14) (size 15 to 20)
#    0.000    0.750    5.000    2.625    5.250    1.000 
#    4.500    0.000    0.000    0.000    0.000    0.000 
#    0.000    0.000    0.000    0.000    0.000    0.000 
#
# Total GULP energy -89310.629417 kJ/mol
# GULP energy per Si atom -5581.914339 kJ/mol
# Density = 2.441794 g / cm^3
# Si number density = 24.473643 Si / 1000 Ang^3
#
#
#
# Elastic Constant Matrix: (Units=GPa)
#
#
# Indices 1 2 3 4 5 6 
#
# 1 57.7682 23.0416 8.5932 6.5873 0.3487 12.3869
# 2 23.0416 163.4363 14.3575 16.0274 2.1584 -1.4662
# 3 8.5932 14.3575 67.1645 4.9560 4.2731 4.2441
# 4 6.5873 16.0274 4.9560 43.3266 4.8552 0.5806
# 5 0.3487 2.1584 4.2731 4.8552 23.1233 4.8777
# 6 12.3869 -1.4662 4.2441 0.5806 4.8777 45.7434
#
#
#
# Elastic Compliance Matrix: (Units=1/GPa)
#
#
# Indices 1 2 3 4 5 6 
#
# 1 0.019971 -0.002546 -0.001629 -0.002039 0.001827 -0.005507
# 2 -0.002546 0.006775 -0.001029 -0.001992 -0.000207 0.001049
# 3 -0.001629 -0.001029 0.015584 -0.000874 -0.002414 -0.000769
# 4 -0.002039 -0.001992 -0.000874 0.024776 -0.004990 0.000787
# 5 0.001827 -0.000207 -0.002414 -0.004990 0.045808 -0.005099
# 6 -0.005507 0.001049 -0.000769 0.000787 -0.005099 0.023991
#
#
# Mechanical properties :
#
#
# Convention : Reuss Voigt Hill
#
# Bulk Modulus (GPa) = 31.32522 42.26149 36.79336
# Shear Modulus (GPa) = 31.65506 38.59711 35.12608
#
# Velocity S-wave (km/s) = 3.60034 3.97557 3.79259
# Velocity P-wave (km/s) = 5.48731 6.19509 5.85191
#
# Compressibility (1/GPa) = 0.03192316
#
# Stress axis : x y z
#
# Youngs Moduli (GPa) = 50.07322 147.59172 64.16949
#
# Poissons Ratio (x) = 0.37577 0.10451
# Poissons Ratio (y) = 0.12749 0.06601
# Poissons Ratio (z) = 0.08155 0.15183
#
# Static dielectric constant tensor:
#      x y z
#    x 1.909620 0.350790 -0.087240 
#    y 0.350790 -0.063870 0.626060 
#    z -0.087240 0.626060 1.948270 
# 
# From -- ./inp_files/245207.got.cif
#   From: 2010.05.17/outbox.cif.g08.bks.cpg/sg2_123_cif.got.tgz:245207.got - 2010.06.03 11:33:40.
