data_PCOD9061500
_publ_section_title
;
Structure prediction by ZEFSAII (Michael W. Deem and Ramdas Pophale) SiO2 
 PCOD9061500
Probable space group: P -1
;
_chemical_formula_sum "Si O2"
_cell_formula_units_Z 16
_cell_length_a 17.861569
_cell_length_b 11.611994
_cell_length_c 9.398880
_cell_angle_alpha 97.091283
_cell_angle_beta 131.519377
_cell_angle_gamma 44.504060
_cell_volume 763.582877
_symmetry_space_group_name_H-M "P -1"
_symmetry_group_IT_number 2
_symmetry_cell_setting 'triclinic'
loop_
_space_group_symop_operation_xyz
x,y,z
-x,-y,-z
loop_
_atom_site_type_symbol
_atom_site_label
_atom_site_fract_x
_atom_site_fract_y
_atom_site_fract_z
Si Si1 0.115161 0.326605 0.404082
Si Si2 0.028550 0.155726 0.630292
Si Si3 0.178848 0.768757 0.876115
Si Si4 0.416956 0.614796 0.566659
Si Si5 0.239756 0.181551 0.850952
Si Si6 0.787550 0.421395 0.628173
Si Si7 0.059351 0.128013 0.184069
Si Si8 0.587500 0.852787 0.449239
O O1 0.236583 0.217949 0.686224
O O2 0.070861 0.236357 0.301184
O O3 0.227659 0.266591 0.401722
O O4 0.920653 0.584818 0.234445
O O5 0.923156 0.204874 0.370274
O O6 0.868901 0.363478 0.565485
O O7 0.171990 0.115056 0.763589
O O8 0.133600 0.947080 0.812018
O O9 0.080355 0.824593 0.905832
O O10 0.402937 0.528748 0.132724
O O11 0.500000 0.500000 0.500000
O O12 0.313483 0.603523 0.497201
O O13 0.264318 0.866903 0.396918
O O14 0.432788 0.005893 0.152391
O O15 0.646435 0.663066 0.530558
O O16 0.965492 0.244757 0.931960
O O17 0.500000 0.000000 0.500000
#
# Coordination Sequence:
#
# PCOD9061500 Si02
#       8
#     2   2   2   2   2   2   2   2
#     4  11  26  46  70  98 132 184 222 277 335 394
#     4  11  23  45  71  98 135 174 215 285 332 388
#     4  11  24  45  68 100 136 169 224 271 335 394
#     4  12  25  42  69  98 132 180 217 269 329 400
#     4  11  24  48  72  95 136 180 224 274 339 397
#     4  12  25  44  69  99 136 176 223 272 334 397
#     4  12  25  44  68  99 136 176 221 270 330 399
#     4  12  28  44  68 105 135 174 228 281 329 396
#
# _framework density 20.953848000000001
#
# number of rings (size 3 to 8) (size 9 to 14) (size 15 to 20)
#    0.000    0.500    5.000    3.000    3.500    3.500 
#    0.000    0.000    0.000    0.000    0.000    0.000 
#    0.000    0.000    0.000    0.000    0.000    0.000 
#
# Total GULP energy -89568.526626 kJ/mol
# GULP energy per Si atom -5598.032914 kJ/mol
# Density = 2.090616 g / cm^3
# Si number density = 20.953848 Si / 1000 Ang^3
#
#
#
# Elastic Constant Matrix: (Units=GPa)
#
#
# Indices 1 2 3 4 5 6 
#
# 1 58.7858 15.8747 -3.9026 -1.2903 2.5478 -0.1219
# 2 15.8747 98.5505 16.3988 -12.9916 -0.6850 13.2474
# 3 -3.9026 16.3988 88.3916 -19.8966 7.5928 12.2734
# 4 -1.2903 -12.9916 -19.8966 23.4281 -1.0372 -8.2822
# 5 2.5478 -0.6850 7.5928 -1.0372 22.2631 -0.2142
# 6 -0.1219 13.2474 12.2734 -8.2822 -0.2142 35.5054
#
#
#
# Elastic Compliance Matrix: (Units=1/GPa)
#
#
# Indices 1 2 3 4 5 6 
#
# 1 0.018133 -0.003228 0.001701 0.000837 -0.002707 0.000857
# 2 -0.003228 0.011846 -0.001012 0.004520 0.001260 -0.003019
# 3 0.001701 -0.001012 0.014789 0.011116 -0.004772 -0.002165
# 4 0.000837 0.004520 0.011116 0.057411 -0.000997 0.007860
# 5 -0.002707 0.001260 -0.004772 -0.000997 0.046859 0.001220
# 6 0.000857 -0.003019 -0.002165 0.007860 0.001220 0.031883
#
#
# Mechanical properties :
#
#
# Convention : Reuss Voigt Hill
#
# Bulk Modulus (GPa) = 25.19446 33.60774 29.40110
# Shear Modulus (GPa) = 25.09690 30.72977 27.91334
#
# Velocity S-wave (km/s) = 3.46457 3.83370 3.65380
# Velocity P-wave (km/s) = 5.29662 5.97245 5.64466
#
# Compressibility (1/GPa) = 0.03969126
#
# Stress axis : x y z
#
# Youngs Moduli (GPa) = 55.14816 84.41752 67.61902
#
# Poissons Ratio (x) = 0.27248 -0.11504
# Poissons Ratio (y) = 0.17800 0.06841
# Poissons Ratio (z) = -0.09382 0.08541
#
# Static dielectric constant tensor:
#      x y z
#    x 1.737290 0.003870 -0.010410 
#    y 0.003870 1.736140 0.006410 
#    z -0.010410 0.006410 1.731490 
# 
# From -- ./inp_files/333425.got.cif
#   From: 2010.05.17/outbox.cif.g08.bks.cpg/sg2_167_cif.got.tgz:333425.got - 2010.06.03 11:33:40.
