data_PCOD9061908
_publ_section_title
;
Structure prediction by ZEFSAII (Michael W. Deem and Ramdas Pophale) SiO2 
 PCOD9061908
Probable space group: P -1
;
_chemical_formula_sum "Si O2"
_cell_formula_units_Z 12
_cell_length_a 9.028344
_cell_length_b 9.105840
_cell_length_c 11.926384
_cell_angle_alpha 142.771985
_cell_angle_beta 99.276018
_cell_angle_gamma 62.722959
_cell_volume 487.914222
_symmetry_space_group_name_H-M "P -1"
_symmetry_group_IT_number 2
_symmetry_cell_setting 'triclinic'
loop_
_space_group_symop_operation_xyz
x,y,z
-x,-y,-z
loop_
_atom_site_type_symbol
_atom_site_label
_atom_site_fract_x
_atom_site_fract_y
_atom_site_fract_z
Si Si1 0.227759 0.288453 0.514222
Si Si2 0.834149 0.656770 0.725888
Si Si3 0.665730 0.336626 0.506843
Si Si4 0.747169 0.266232 0.068780
Si Si5 0.962965 0.246443 0.862902
Si Si6 0.357820 0.713398 0.280741
O O1 0.200491 0.316935 0.395974
O O2 0.261372 0.522273 0.708906
O O3 0.036187 0.386310 0.605344
O O4 0.364858 0.958193 0.362423
O O5 0.696873 0.581796 0.707673
O O6 0.818870 0.949684 0.934020
O O7 0.500000 0.500000 0.500000
O O8 0.644371 0.210296 0.542468
O O9 0.847714 0.068058 0.310829
O O10 0.541345 0.406489 0.091938
O O11 0.864866 0.262602 0.977809
O O12 0.819794 0.273826 0.770622
O O13 0.000000 0.500000 0.000000
#
# Coordination Sequence:
#
# PCOD9061908 Si02
#       6
#     2   2   2   2   2   2
#     4  11  23  46  73 106 147 200 242 306 367 445
#     4  11  24  45  72 107 158 187 247 307 373 437
#     4  12  28  49  74 110 154 198 246 312 377 436
#     4  12  26  45  79 111 146 199 252 299 378 446
#     4  12  27  48  78 110 151 195 256 307 370 445
#     4  12  26  50  76 109 153 196 249 310 371 444
#
# _framework density 24.594488999999999
#
# number of rings (size 3 to 8) (size 9 to 14) (size 15 to 20)
#    0.000    0.333    3.333    5.000    4.667    2.000 
#    0.000    0.000    0.000    0.000    0.000    0.000 
#    0.000    0.000    0.000    0.000    0.000    0.000 
#
# Total GULP energy -67204.630078 kJ/mol
# GULP energy per Si atom -5600.385840 kJ/mol
# Density = 2.453851 g / cm^3
# Si number density = 24.594489 Si / 1000 Ang^3
#
#
#
# Elastic Constant Matrix: (Units=GPa)
#
#
# Indices 1 2 3 4 5 6 
#
# 1 108.9700 23.6555 37.4073 10.4620 6.3249 -19.2856
# 2 23.6555 91.3294 25.6843 2.7016 -6.0676 -24.3212
# 3 37.4073 25.6843 91.6727 5.4109 6.8248 -8.9116
# 4 10.4620 2.7016 5.4109 43.8363 -1.6430 6.4455
# 5 6.3249 -6.0676 6.8248 -1.6430 55.1549 9.0377
# 6 -19.2856 -24.3212 -8.9116 6.4455 9.0377 40.4882
#
#
#
# Elastic Compliance Matrix: (Units=1/GPa)
#
#
# Indices 1 2 3 4 5 6 
#
# 1 0.012028 -0.000606 -0.003870 -0.003233 -0.001959 0.005465
# 2 -0.000606 0.014032 -0.002913 -0.001449 0.000689 0.007576
# 3 -0.003870 -0.002913 0.013432 -0.000582 -0.001522 -0.000205
# 4 -0.003233 -0.001449 -0.000582 0.024852 0.002167 -0.006978
# 5 -0.001959 0.000689 -0.001522 0.002167 0.019597 -0.005574
# 6 0.005465 0.007576 -0.000205 -0.006978 -0.005574 0.034162
#
#
# Mechanical properties :
#
#
# Convention : Reuss Voigt Hill
#
# Bulk Modulus (GPa) = 40.46625 51.71847 46.09236
# Shear Modulus (GPa) = 35.43063 41.57756 38.50409
#
# Velocity S-wave (km/s) = 3.79963 4.11606 3.96101
# Velocity P-wave (km/s) = 5.97818 6.60783 6.30088
#
# Compressibility (1/GPa) = 0.02471195
#
# Stress axis : x y z
#
# Youngs Moduli (GPa) = 83.13671 71.26708 74.45051
#
# Poissons Ratio (x) = 0.04320 0.28816
# Poissons Ratio (y) = 0.05039 0.21690
# Poissons Ratio (z) = 0.32178 0.20763
#
# Static dielectric constant tensor:
#      x y z
#    x 2.021680 -0.006730 0.010430 
#    y -0.006730 1.912740 -0.030310 
#    z 0.010430 -0.030310 1.911630 
# 
# From -- ./inp_files/148588.got.cif
#   From: 2010.05.17/outbox.cif.g08.bks.cpg/sg2_75_cif.got.tgz:148588.got - 2010.06.03 11:33:40.
