data_PCOD9061623
_publ_section_title
;
Structure prediction by ZEFSAII (Michael W. Deem and Ramdas Pophale) SiO2 
 PCOD9061623
Probable space group: P -1
;
_chemical_formula_sum "Si O2"
_cell_formula_units_Z 16
_cell_length_a 15.230907
_cell_length_b 17.533106
_cell_length_c 9.045026
_cell_angle_alpha 31.571452
_cell_angle_beta 142.798474
_cell_angle_gamma 145.038774
_cell_volume 684.676308
_symmetry_space_group_name_H-M "P -1"
_symmetry_group_IT_number 2
_symmetry_cell_setting 'triclinic'
loop_
_space_group_symop_operation_xyz
x,y,z
-x,-y,-z
loop_
_atom_site_type_symbol
_atom_site_label
_atom_site_fract_x
_atom_site_fract_y
_atom_site_fract_z
Si Si1 0.299402 0.602020 0.386271
Si Si2 0.358149 0.105833 0.269312
Si Si3 0.238474 0.907370 0.713243
Si Si4 0.301380 0.586880 0.773004
Si Si5 0.176185 0.021953 0.735937
Si Si6 0.595787 0.627040 0.548427
Si Si7 0.915086 0.764446 0.329388
Si Si8 0.152187 0.797777 0.329801
O O1 0.294528 0.580848 0.594285
O O2 0.468675 0.636837 0.478598
O O3 0.176805 0.426697 0.446145
O O4 0.256590 0.745537 0.040636
O O5 0.523280 0.263775 0.201697
O O6 0.362819 0.030502 0.559559
O O7 0.308744 0.948225 0.361145
O O8 0.211958 0.159719 0.977559
O O9 0.059294 0.854378 0.490996
O O10 0.259747 0.006035 0.726382
O O11 0.173123 0.637198 0.594897
O O12 0.296681 0.432136 0.107437
O O13 0.290900 0.199482 0.659956
O O14 0.000000 0.000000 0.500000
O O15 0.144423 0.869189 0.045009
O O16 0.500000 0.500000 0.500000
O O17 0.006137 0.777683 0.273665
#
# Coordination Sequence:
#
# PCOD9061623 Si02
#       8
#     2   2   2   2   2   2   2   2
#     4  12  27  47  72 104 145 194 238 298 367 432
#     4  11  23  45  74  99 143 191 241 291 366 430
#     4  11  25  44  72 105 139 190 244 299 352 430
#     4  12  26  47  71 105 144 189 238 298 363 435
#     4  12  26  45  74 107 147 182 242 302 359 424
#     4  12  30  47  75 107 148 189 240 301 370 432
#     4  11  25  47  74 100 148 197 241 290 366 433
#     4  11  25  44  71 108 139 186 240 300 355 427
#
# _framework density 23.368708000000002
#
# number of rings (size 3 to 8) (size 9 to 14) (size 15 to 20)
#    0.000    0.500    2.500    5.625   10.500    2.500 
#    0.000    0.000    0.000    0.000    0.000    0.000 
#    0.000    0.000    0.000    0.000    0.000    0.000 
#
# Total GULP energy -89608.085679 kJ/mol
# GULP energy per Si atom -5600.505355 kJ/mol
# Density = 2.331552 g / cm^3
# Si number density = 23.368708 Si / 1000 Ang^3
#
#
#
# Elastic Constant Matrix: (Units=GPa)
#
#
# Indices 1 2 3 4 5 6 
#
# 1 66.9833 6.3344 28.4140 10.3645 9.2873 -12.9448
# 2 6.3344 78.6981 2.7887 -19.6347 13.1688 4.5279
# 3 28.4140 2.7887 128.8001 -13.9842 -4.0534 0.7510
# 4 10.3645 -19.6347 -13.9842 29.3820 -6.3162 -12.8503
# 5 9.2873 13.1688 -4.0534 -6.3162 28.4592 -6.9862
# 6 -12.9448 4.5279 0.7510 -12.8503 -6.9862 35.9976
#
#
#
# Elastic Compliance Matrix: (Units=1/GPa)
#
#
# Indices 1 2 3 4 5 6 
#
# 1 0.021978 -0.003751 -0.006679 -0.014828 -0.009332 0.001410
# 2 -0.003751 0.016659 0.001747 0.012771 -0.003293 0.000439
# 3 -0.006679 0.001747 0.010529 0.010686 0.005756 0.002091
# 4 -0.014828 0.012771 0.010686 0.066106 0.020116 0.020341
# 5 -0.009332 -0.003293 0.005756 0.020116 0.048304 0.013494
# 6 0.001410 0.000439 0.002091 0.020341 0.013494 0.038068
#
#
# Mechanical properties :
#
#
# Convention : Reuss Voigt Hill
#
# Bulk Modulus (GPa) = 31.44692 38.83953 35.14322
# Shear Modulus (GPa) = 21.77608 34.56404 28.17006
#
# Velocity S-wave (km/s) = 3.05593 3.85005 3.47574
# Velocity P-wave (km/s) = 5.09290 6.03491 5.58381
#
# Compressibility (1/GPa) = 0.03179962
#
# Stress axis : x y z
#
# Youngs Moduli (GPa) = 45.50026 60.02753 94.97781
#
# Poissons Ratio (x) = 0.22518 0.63436
# Poissons Ratio (y) = 0.17068 -0.16595
# Poissons Ratio (z) = 0.30390 -0.10489
#
# Static dielectric constant tensor:
#      x y z
#    x 1.894080 0.001530 0.007910 
#    y 0.001530 1.868690 0.024160 
#    z 0.007910 0.024160 1.854900 
# 
# From -- ./inp_files/317930.got.cif
#   From: 2010.05.17/outbox.cif.g08.bks.cpg/sg2_159_cif.got.tgz:317930.got - 2010.06.03 11:33:40.
