data_PCOD9061589
_publ_section_title
;
Structure prediction by ZEFSAII (Michael W. Deem and Ramdas Pophale) SiO2 
 PCOD9061589
Probable space group: P -1
;
_chemical_formula_sum "Si O2"
_cell_formula_units_Z 13
_cell_length_a 9.975856
_cell_length_b 9.230857
_cell_length_c 15.414990
_cell_angle_alpha 130.688729
_cell_angle_beta 36.795187
_cell_angle_gamma 137.865609
_cell_volume 564.391546
_symmetry_space_group_name_H-M "P -1"
_symmetry_group_IT_number 2
_symmetry_cell_setting 'triclinic'
loop_
_space_group_symop_operation_xyz
x,y,z
-x,-y,-z
loop_
_atom_site_type_symbol
_atom_site_label
_atom_site_fract_x
_atom_site_fract_y
_atom_site_fract_z
Si Si1 0.085152 0.813904 0.288787
Si Si2 0.538573 0.221928 0.301970
Si Si3 0.241136 0.575375 0.971145
Si Si4 0.019999 0.876160 0.024707
Si Si5 0.342143 0.537497 0.499953
Si Si6 0.000000 0.500000 0.500000
Si Si7 0.165492 0.137174 0.230519
O O1 0.877035 0.649597 0.398983
O O2 0.297098 0.001181 0.311526
O O3 0.020841 0.949714 0.304258
O O4 0.186289 0.681513 0.125886
O O5 0.530909 0.434907 0.350861
O O6 0.547739 0.254554 0.413384
O O7 0.777733 0.202772 0.137172
O O8 0.528939 0.753213 0.865069
O O9 0.235821 0.348795 0.909533
O O10 0.000000 0.500000 0.000000
O O11 0.112447 0.025917 0.120196
O O12 0.000000 0.000000 0.000000
O O13 0.217917 0.560912 0.487063
O O14 0.927961 0.685679 0.646966
#
# Coordination Sequence:
#
# PCOD9061589 Si02
#       7
#     2   2   2   2   2   1   2
#     4  12  23  44  76 106 136 193 244 290 359 438
#     4  11  23  45  74 102 143 192 240 290 356 442
#     4  12  25  44  76 108 142 191 245 300 362 436
#     4  12  26  47  73 110 146 192 245 302 373 427
#     4  11  26  45  74 103 147 190 243 295 361 437
#     4  12  28  50  70 108 150 188 238 314 366 424
#     4  12  27  46  71 108 152 186 246 307 357 438
#
# _framework density 23.033653999999999
#
# number of rings (size 3 to 8) (size 9 to 14) (size 15 to 20)
#    0.000    0.308    6.154    2.769    0.000    1.846 
#    0.000    1.538    0.000    0.000    0.000    0.000 
#    0.000    0.000    0.000    0.000    0.000    0.000 
#
# Total GULP energy -72502.789940 kJ/mol
# GULP energy per Si atom -5577.137688 kJ/mol
# Density = 2.298123 g / cm^3
# Si number density = 23.033654 Si / 1000 Ang^3
#
#
#
# Elastic Constant Matrix: (Units=GPa)
#
#
# Indices 1 2 3 4 5 6 
#
# 1 159.9097 32.0469 37.4991 35.8169 22.6538 18.7587
# 2 32.0469 102.0821 35.4838 14.1702 12.8157 14.7904
# 3 37.4991 35.4838 136.0253 45.3785 6.7530 8.2217
# 4 35.8169 14.1702 45.3785 48.1421 9.9190 14.9605
# 5 22.6538 12.8157 6.7530 9.9190 46.5335 21.8694
# 6 18.7587 14.7904 8.2217 14.9605 21.8694 36.6162
#
#
#
# Elastic Compliance Matrix: (Units=1/GPa)
#
#
# Indices 1 2 3 4 5 6 
#
# 1 0.008026 -0.001510 -0.000031 -0.004996 -0.002417 -0.000010
# 2 -0.001510 0.011663 -0.002950 0.001724 -0.000759 -0.003526
# 3 -0.000031 -0.002950 0.011620 -0.011027 0.000046 0.003076
# 4 -0.004996 0.001724 -0.011027 0.037807 0.001000 -0.011705
# 5 -0.002417 -0.000759 0.000046 0.001000 0.030761 -0.017246
# 6 -0.000010 -0.003526 0.003076 -0.011705 -0.017246 0.043132
#
#
# Mechanical properties :
#
#
# Convention : Reuss Voigt Hill
#
# Bulk Modulus (GPa) = 44.79252 67.56407 56.17830
# Shear Modulus (GPa) = 31.36091 45.79085 38.57588
#
# Velocity S-wave (km/s) = 3.69389 4.46353 4.09682
# Velocity P-wave (km/s) = 6.13855 7.48068 6.84260
#
# Compressibility (1/GPa) = 0.02232515
#
# Stress axis : x y z
#
# Youngs Moduli (GPa) = 124.59179 85.74477 86.05696
#
# Poissons Ratio (x) = 0.12951 0.00269
# Poissons Ratio (y) = 0.18818 0.25389
# Poissons Ratio (z) = 0.00390 0.25297
#
# Static dielectric constant tensor:
#      x y z
#    x 1.861650 -0.003760 0.011820 
#    y -0.003760 1.930490 -0.051690 
#    z 0.011820 -0.051690 1.894650 
# 
# From -- ./inp_files/241901.got.cif
#   From: 2010.05.17/outbox.cif.g08.bks.cpg/sg2_121_cif.got.tgz:241901.got - 2010.06.03 11:33:40.
