data_PCOD9061389
_publ_section_title
;
Structure prediction by ZEFSAII (Michael W. Deem and Ramdas Pophale) SiO2 
 PCOD9061389
Probable space group: P -1
;
_chemical_formula_sum "Si O2"
_cell_formula_units_Z 16
_cell_length_a 14.021070
_cell_length_b 8.524570
_cell_length_c 11.100739
_cell_angle_alpha 67.780372
_cell_angle_beta 61.410451
_cell_angle_gamma 41.603547
_cell_volume 773.073232
_symmetry_space_group_name_H-M "P -1"
_symmetry_group_IT_number 2
_symmetry_cell_setting 'triclinic'
loop_
_space_group_symop_operation_xyz
x,y,z
-x,-y,-z
loop_
_atom_site_type_symbol
_atom_site_label
_atom_site_fract_x
_atom_site_fract_y
_atom_site_fract_z
Si Si1 0.613825 0.130828 0.848273
Si Si2 0.984056 0.220727 0.590089
Si Si3 0.661380 0.698794 0.582490
Si Si4 0.953206 0.857497 0.706058
Si Si5 0.139969 0.381834 0.861587
Si Si6 0.495028 0.447563 0.379832
Si Si7 0.227376 0.084469 0.669949
Si Si8 0.475237 0.964537 0.851719
O O1 0.556213 0.348373 0.738420
O O2 0.529372 0.187920 0.008999
O O3 0.790632 0.966694 0.815236
O O4 0.582610 0.993602 0.831728
O O5 0.819998 0.484624 0.612895
O O6 0.045094 0.167200 0.432133
O O7 0.094774 0.188125 0.626292
O O8 0.969354 0.036597 0.676311
O O9 0.620481 0.583827 0.557015
O O10 0.681964 0.850390 0.454173
O O11 0.534832 0.851644 0.717468
O O12 0.089820 0.601368 0.753256
O O13 0.303243 0.221711 0.872297
O O14 0.838751 0.792769 0.196675
O O15 0.000000 0.500000 0.000000
O O16 0.500000 0.500000 0.500000
O O17 0.658264 0.196854 0.317070
#
# Coordination Sequence:
#
# PCOD9061389 Si02
#       8
#     2   2   2   2   2   2   2   2
#     4  11  25  46  71  98 137 186 229 280 340 413
#     4  11  25  42  70 102 135 178 228 288 345 401
#     4  12  24  45  70 102 138 181 230 287 339 409
#     4  11  23  45  69  98 138 181 227 282 345 404
#     4  12  26  46  71  96 142 183 228 283 346 410
#     4  12  26  43  70 105 141 175 229 285 343 403
#     4  12  27  43  71 105 138 181 232 287 340 407
#     4  11  26  45  72 101 134 186 231 279 346 411
#
# _framework density 20.696618000000001
#
# number of rings (size 3 to 8) (size 9 to 14) (size 15 to 20)
#    0.000    0.500    5.000    3.000    7.000    0.500 
#    2.250    0.625    0.000    0.000    0.000    0.000 
#    0.000    0.000    0.000    0.000    0.000    0.000 
#
# Total GULP energy -89568.586317 kJ/mol
# GULP energy per Si atom -5598.036645 kJ/mol
# Density = 2.064951 g / cm^3
# Si number density = 20.696618 Si / 1000 Ang^3
#
#
#
# Elastic Constant Matrix: (Units=GPa)
#
#
# Indices 1 2 3 4 5 6 
#
# 1 94.1085 3.9628 52.3286 -4.8264 -0.6601 -1.9993
# 2 3.9628 104.7720 40.1961 -3.6485 4.5020 -6.2345
# 3 52.3286 40.1961 99.2899 13.9067 -2.0878 12.4630
# 4 -4.8264 -3.6485 13.9067 34.0511 0.9075 6.9568
# 5 -0.6601 4.5020 -2.0878 0.9075 28.2041 2.0154
# 6 -1.9993 -6.2345 12.4630 6.9568 2.0154 28.3645
#
#
#
# Elastic Compliance Matrix: (Units=1/GPa)
#
#
# Indices 1 2 3 4 5 6 
#
# 1 0.018761 0.005479 -0.014101 0.007633 -0.002226 0.007009
# 2 0.005479 0.014002 -0.010220 0.005125 -0.003525 0.006948
# 3 -0.014101 -0.010220 0.024733 -0.010912 0.004322 -0.011739
# 4 0.007633 0.005125 -0.010912 0.035968 -0.002448 -0.002189
# 5 -0.002226 -0.003525 0.004322 -0.002448 0.036711 -0.004839
# 6 0.007009 0.006948 -0.011739 -0.002189 -0.004839 0.043315
#
#
# Mechanical properties :
#
#
# Convention : Reuss Voigt Hill
#
# Bulk Modulus (GPa) = 50.47602 54.57172 52.52387
# Shear Modulus (GPa) = 22.95925 31.56946 27.26436
#
# Velocity S-wave (km/s) = 3.33426 3.90980 3.63345
# Velocity P-wave (km/s) = 6.26615 6.84155 6.56016
#
# Compressibility (1/GPa) = 0.01981139
#
# Stress axis : x y z
#
# Youngs Moduli (GPa) = 53.30217 71.42073 40.43137
#
# Poissons Ratio (x) = -0.39130 0.57013
# Poissons Ratio (y) = -0.29203 0.41320
# Poissons Ratio (z) = 0.75162 0.72991
#
# Static dielectric constant tensor:
#      x y z
#    x 1.722010 -0.019910 0.004280 
#    y -0.019910 1.735410 0.000320 
#    z 0.004280 0.000320 1.741900 
# 
# From -- ./inp_files/528273.got.cif
#   From: 2010.05.17/outbox.cif.g08.bks.cpg/sg2_265_cif.got.tgz:528273.got - 2010.06.03 11:33:40.
