data_PCOD9061871
_publ_section_title
;
Structure prediction by ZEFSAII (Michael W. Deem and Ramdas Pophale) SiO2 
 PCOD9061871
Probable space group: P -1
;
_chemical_formula_sum "Si O2"
_cell_formula_units_Z 12
_cell_length_a 14.785731
_cell_length_b 14.592897
_cell_length_c 9.175194
_cell_angle_alpha 52.405508
_cell_angle_beta 46.418862
_cell_angle_gamma 20.629856
_cell_volume 500.470432
_symmetry_space_group_name_H-M "P -1"
_symmetry_group_IT_number 2
_symmetry_cell_setting 'triclinic'
loop_
_space_group_symop_operation_xyz
x,y,z
-x,-y,-z
loop_
_atom_site_type_symbol
_atom_site_label
_atom_site_fract_x
_atom_site_fract_y
_atom_site_fract_z
Si Si1 0.636134 0.447547 0.191377
Si Si2 0.500406 0.318509 0.429863
Si Si3 0.214095 0.218701 0.517399
Si Si4 0.877744 0.978863 0.714988
Si Si5 0.097817 0.734511 0.216450
Si Si6 0.382973 0.991587 0.233996
O O1 0.493259 0.444714 0.402655
O O2 0.423311 0.730798 0.165675
O O3 0.715098 0.357787 0.022051
O O4 0.912343 0.236187 0.184547
O O5 0.299901 0.505492 0.332636
O O6 0.414808 0.276644 0.658624
O O7 0.834908 0.020499 0.305315
O O8 0.263619 0.150942 0.357649
O O9 0.000000 0.500000 0.500000
O O10 0.060773 0.231922 0.731993
O O11 0.500000 0.000000 0.500000
O O12 0.821742 0.922370 0.717027
O O13 0.000000 0.000000 0.500000
O O14 0.500000 0.000000 0.000000
#
# Coordination Sequence:
#
# PCOD9061871 Si02
#       6
#     2   2   2   2   2   2
#     4  12  25  43  79 105 154 191 252 306 385 448
#     4  11  23  46  72 111 148 194 245 317 369 449
#     4  11  26  48  72 102 148 199 249 308 368 441
#     4  12  27  48  73 111 154 200 248 313 377 450
#     4  11  24  43  74 108 146 192 258 308 378 438
#     4  11  28  49  80 110 155 202 255 309 381 453
#
# _framework density 23.977440999999999
#
# number of rings (size 3 to 8) (size 9 to 14) (size 15 to 20)
#    0.000    0.667    1.667    5.500    7.000    1.333 
#    0.000    8.333    0.000    0.000    0.000    0.000 
#    0.000    0.000    0.000    0.000    0.000    0.000 
#
# Total GULP energy -67120.841545 kJ/mol
# GULP energy per Si atom -5593.403462 kJ/mol
# Density = 2.392287 g / cm^3
# Si number density = 23.977441 Si / 1000 Ang^3
#
#
#
# Elastic Constant Matrix: (Units=GPa)
#
#
# Indices 1 2 3 4 5 6 
#
# 1 190.4088 70.4999 59.1697 -14.4975 -3.2712 -8.9501
# 2 70.4999 174.7986 49.8435 -20.2718 20.0017 -9.3307
# 3 59.1697 49.8435 155.2449 -13.0906 0.8514 -6.4645
# 4 -14.4975 -20.2718 -13.0906 26.9833 -0.5076 10.3096
# 5 -3.2712 20.0017 0.8514 -0.5076 36.0372 -9.6528
# 6 -8.9501 -9.3307 -6.4645 10.3096 -9.6528 57.7003
#
#
#
# Elastic Compliance Matrix: (Units=1/GPa)
#
#
# Indices 1 2 3 4 5 6 
#
# 1 0.006801 -0.002362 -0.001749 0.000806 0.002167 0.000696
# 2 -0.002362 0.008066 -0.001329 0.004359 -0.004811 -0.000795
# 3 -0.001749 -0.001329 0.007685 0.001746 0.000459 0.000140
# 4 0.000806 0.004359 0.001746 0.044427 -0.003783 -0.007545
# 5 0.002167 -0.004811 0.000459 -0.003783 0.032065 0.005650
# 6 0.000696 -0.000795 0.000140 -0.007545 0.005650 0.019619
#
#
# Mechanical properties :
#
#
# Convention : Reuss Voigt Hill
#
# Bulk Modulus (GPa) = 85.66229 97.71984 91.69106
# Shear Modulus (GPa) = 37.47193 46.87343 42.17268
#
# Velocity S-wave (km/s) = 3.95751 4.42622 4.19841
# Velocity P-wave (km/s) = 7.52903 8.18323 7.86294
#
# Compressibility (1/GPa) = 0.01167375
#
# Stress axis : x y z
#
# Youngs Moduli (GPa) = 147.03626 123.97828 130.12240
#
# Poissons Ratio (x) = 0.29279 0.22756
# Poissons Ratio (y) = 0.34725 0.17289
# Poissons Ratio (z) = 0.25714 0.16473
#
# Static dielectric constant tensor:
#      x y z
#    x 1.915170 0.000790 -0.029480 
#    y 0.000790 1.935680 0.058890 
#    z -0.029480 0.058890 2.061520 
# 
# From -- ./inp_files/314560.got.cif
#   From: 2010.05.17/outbox.cif.g08.bks.cpg/sg2_158_cif.got.tgz:314560.got - 2010.06.03 11:33:40.
