data_PCOD9061357
_publ_section_title
;
Structure prediction by ZEFSAII (Michael W. Deem and Ramdas Pophale) SiO2 
 PCOD9061357
Probable space group: P -1
;
_chemical_formula_sum "Si O2"
_cell_formula_units_Z 16
_cell_length_a 25.465610
_cell_length_b 14.978233
_cell_length_c 17.788181
_cell_angle_alpha 158.400047
_cell_angle_beta 19.452501
_cell_angle_gamma 159.139748
_cell_volume 733.731994
_symmetry_space_group_name_H-M "P -1"
_symmetry_group_IT_number 2
_symmetry_cell_setting 'triclinic'
loop_
_space_group_symop_operation_xyz
x,y,z
-x,-y,-z
loop_
_atom_site_type_symbol
_atom_site_label
_atom_site_fract_x
_atom_site_fract_y
_atom_site_fract_z
Si Si1 0.571889 0.278496 0.239109
Si Si2 0.510766 0.799605 0.218300
Si Si3 0.208269 0.741526 0.333891
Si Si4 0.932913 0.823703 0.377246
Si Si5 0.121051 0.721856 0.269640
Si Si6 0.207136 0.810518 0.737548
Si Si7 0.051338 0.149707 0.127424
Si Si8 0.282085 0.764687 0.830613
O O1 0.500000 0.500000 0.500000
O O2 0.677049 0.305332 0.196027
O O3 0.401023 0.980131 0.239420
O O4 0.704522 0.295713 0.007097
O O5 0.336238 0.779887 0.478182
O O6 0.675978 0.019749 0.217239
O O7 0.552747 0.957149 0.205380
O O8 0.500000 0.500000 0.000000
O O9 0.095536 0.666435 0.349540
O O10 0.198825 0.463600 0.160391
O O11 0.115074 0.843678 0.601537
O O12 0.774332 0.514196 0.358791
O O13 0.867741 0.987241 0.537359
O O14 0.000000 0.000000 0.500000
O O15 0.107499 0.809614 0.100520
O O16 0.954449 0.491612 0.268218
O O17 0.122094 0.989305 0.958274
O O18 0.000000 0.000000 0.000000
#
# Coordination Sequence:
#
# PCOD9061357 Si02
#       8
#     2   2   2   2   2   2   2   2
#     4  12  27  45  70 107 147 186 237 291 351 415
#     4  11  27  45  70 104 138 180 233 295 349 418
#     4  11  27  44  73 104 139 188 236 285 355 415
#     4  11  23  45  69 101 135 181 233 279 353 415
#     4  12  24  47  74 100 143 188 235 292 348 427
#     4  11  26  44  70 102 139 180 235 289 351 417
#     4  11  25  47  72 102 139 186 234 292 349 418
#     4  11  26  43  71 101 140 182 231 292 347 419
#
# _framework density 21.806327
#
# number of rings (size 3 to 8) (size 9 to 14) (size 15 to 20)
#    0.000    0.750    2.500    3.375    8.750    2.000 
#    0.000    0.000    0.000    0.000    0.000    0.000 
#    0.000    0.000    0.000    0.000    0.000    0.000 
#
# Total GULP energy -89545.286811 kJ/mol
# GULP energy per Si atom -5596.580426 kJ/mol
# Density = 2.175670 g / cm^3
# Si number density = 21.806327 Si / 1000 Ang^3
#
#
#
# Elastic Constant Matrix: (Units=GPa)
#
#
# Indices 1 2 3 4 5 6 
#
# 1 38.8495 -3.3452 11.5640 2.3373 8.6406 -8.8218
# 2 -3.3452 129.4677 43.4721 12.0312 7.0721 1.4313
# 3 11.5640 43.4721 112.4827 17.7786 1.2407 -6.9654
# 4 2.3373 12.0312 17.7786 34.2296 -5.7647 -6.8206
# 5 8.6406 7.0721 1.2407 -5.7647 38.6017 4.7367
# 6 -8.8218 1.4313 -6.9654 -6.8206 4.7367 38.0938
#
#
#
# Elastic Compliance Matrix: (Units=1/GPa)
#
#
# Indices 1 2 3 4 5 6 
#
# 1 0.030458 0.002382 -0.003338 -0.001135 -0.008196 0.007170
# 2 0.002382 0.009296 -0.003510 -0.002111 -0.002374 -0.000522
# 3 -0.003338 -0.003510 0.011293 -0.004225 0.000319 0.000628
# 4 -0.001135 -0.002111 -0.004225 0.034014 0.005307 0.004474
# 5 -0.008196 -0.002374 0.000319 0.005307 0.029506 -0.004469
# 6 0.007170 -0.000522 0.000628 0.004474 -0.004469 0.029403
#
#
# Mechanical properties :
#
#
# Convention : Reuss Voigt Hill
#
# Bulk Modulus (GPa) = 23.74482 42.68687 33.21585
# Shear Modulus (GPa) = 29.95093 37.45895 33.70494
#
# Velocity S-wave (km/s) = 3.71009 4.14913 3.93574
# Velocity P-wave (km/s) = 5.40977 6.52470 5.99322
#
# Compressibility (1/GPa) = 0.04211444
#
# Stress axis : x y z
#
# Youngs Moduli (GPa) = 32.83185 107.57705 88.54976
#
# Poissons Ratio (x) = -0.25622 0.29558
# Poissons Ratio (y) = -0.07820 0.31080
# Poissons Ratio (z) = 0.10959 0.37759
#
# Static dielectric constant tensor:
#      x y z
#    x 1.855120 -0.002080 0.001690 
#    y -0.002080 1.802010 0.024780 
#    z 0.001690 0.024780 1.811900 
# 
# From -- ./inp_files/101101.got.cif
#   From: 2010.05.17/outbox.cif.g08.bks.cpg/sg2_51_cif.got.tgz:101101.got - 2010.06.03 11:33:40.
