data_PCOD9061057
_publ_section_title
;
Structure prediction by ZEFSAII (Michael W. Deem and Ramdas Pophale) SiO2 
 PCOD9061057
Probable space group: P -1
;
_chemical_formula_sum "Si O2"
_cell_formula_units_Z 16
_cell_length_a 9.822720
_cell_length_b 8.900775
_cell_length_c 16.803492
_cell_angle_alpha 74.888891
_cell_angle_beta 32.582475
_cell_angle_gamma 68.970686
_cell_volume 735.908281
_symmetry_space_group_name_H-M "P -1"
_symmetry_group_IT_number 2
_symmetry_cell_setting 'triclinic'
loop_
_space_group_symop_operation_xyz
x,y,z
-x,-y,-z
loop_
_atom_site_type_symbol
_atom_site_label
_atom_site_fract_x
_atom_site_fract_y
_atom_site_fract_z
Si Si1 0.355249 0.890735 0.882867
Si Si2 0.287939 0.871120 0.373739
Si Si3 0.441134 0.458597 0.123259
Si Si4 0.942675 0.347542 0.594946
Si Si5 0.931049 0.551284 0.937687
Si Si6 0.417539 0.175162 0.480394
Si Si7 0.606807 0.632345 0.382285
Si Si8 0.064119 0.860071 0.866175
O O1 0.553312 0.727305 0.839501
O O2 0.201509 0.844207 0.888490
O O3 0.503392 0.027055 0.766786
O O4 0.139071 0.964386 0.047158
O O5 0.244294 0.737166 0.350855
O O6 0.397652 0.766734 0.413879
O O7 0.000000 0.000000 0.500000
O O8 0.187674 0.576519 0.269661
O O9 0.500000 0.500000 0.000000
O O10 0.678771 0.495623 0.048680
O O11 0.000000 0.500000 0.500000
O O12 0.209537 0.215629 0.505758
O O13 0.163004 0.460222 0.777007
O O14 0.895119 0.742107 0.935157
O O15 0.000000 0.500000 0.000000
O O16 0.305887 0.279759 0.598140
O O17 0.690429 0.188703 0.307228
O O18 0.500000 0.000000 0.500000
O O19 0.500000 0.500000 0.500000
#
# Coordination Sequence:
#
# PCOD9061057 Si02
#       8
#     2   2   2   2   2   2   2   2
#     4  11  25  45  71 103 143 190 238 295 349 441
#     4  12  26  47  73 105 143 196 239 289 363 439
#     4  12  27  46  70 108 146 183 234 305 364 414
#     4  12  26  48  75 103 144 192 240 286 362 443
#     4  12  24  45  74 103 138 192 244 288 352 439
#     4  12  26  44  72 106 145 184 233 303 359 418
#     4  12  25  45  72 111 142 180 244 302 354 419
#     4  11  23  44  72 103 136 186 245 286 354 424
#
# _framework density 21.741841000000001
#
# number of rings (size 3 to 8) (size 9 to 14) (size 15 to 20)
#    0.000    0.250    2.500    7.500    5.250    1.000 
#    2.250    1.250    0.000    0.000    0.000    0.000 
#    0.000    0.000    0.000    0.000    0.000    0.000 
#
# Total GULP energy -89341.221826 kJ/mol
# GULP energy per Si atom -5583.826364 kJ/mol
# Density = 2.169236 g / cm^3
# Si number density = 21.741841 Si / 1000 Ang^3
#
#
#
# Elastic Constant Matrix: (Units=GPa)
#
#
# Indices 1 2 3 4 5 6 
#
# 1 109.6817 50.6580 17.9595 -7.1543 2.9541 2.0073
# 2 50.6580 113.9404 29.9322 -7.2614 0.4442 3.5549
# 3 17.9595 29.9322 102.7416 14.9171 11.6681 2.7194
# 4 -7.1543 -7.2614 14.9171 40.6873 6.2154 3.5906
# 5 2.9541 0.4442 11.6681 6.2154 37.8804 8.7867
# 6 2.0073 3.5549 2.7194 3.5906 8.7867 38.8457
#
#
#
# Elastic Compliance Matrix: (Units=1/GPa)
#
#
# Indices 1 2 3 4 5 6 
#
# 1 0.011612 -0.004861 -0.000744 0.001584 -0.000867 -0.000053
# 2 -0.004861 0.011917 -0.003050 0.002325 0.001047 -0.001078
# 3 -0.000744 -0.003050 0.011732 -0.004584 -0.002901 0.000576
# 4 0.001584 0.002325 -0.004584 0.027549 -0.002823 -0.001882
# 5 -0.000867 0.001047 -0.002901 -0.002823 0.029250 -0.006203
# 6 -0.000053 -0.001078 0.000576 -0.001882 -0.006203 0.027381
#
#
# Mechanical properties :
#
#
# Convention : Reuss Voigt Hill
#
# Bulk Modulus (GPa) = 55.70938 58.16255 56.93597
# Shear Modulus (GPa) = 35.03024 38.67026 36.85025
#
# Velocity S-wave (km/s) = 4.01832 4.22193 4.12138
# Velocity P-wave (km/s) = 6.87080 7.11167 6.99227
#
# Compressibility (1/GPa) = 0.01795030
#
# Stress axis : x y z
#
# Youngs Moduli (GPa) = 86.11785 83.91469 85.24051
#
# Poissons Ratio (x) = 0.40794 0.06339
# Poissons Ratio (y) = 0.41865 0.25999
# Poissons Ratio (z) = 0.06404 0.25594
#
# Static dielectric constant tensor:
#      x y z
#    x 1.673160 -0.103380 0.088450 
#    y -0.103380 1.609480 0.166960 
#    z 0.088450 0.166960 1.587670 
# 
# From -- ./inp_files/494794.got.cif
#   From: 2010.05.17/outbox.cif.g08.bks.cpg/sg2_248_cif.got.tgz:494794.got - 2010.06.03 11:33:40.
