data_PCOD9061338
_publ_section_title
;
Structure prediction by ZEFSAII (Michael W. Deem and Ramdas Pophale) SiO2 
 PCOD9061338
Probable space group: P -1
;
_chemical_formula_sum "Si O2"
_cell_formula_units_Z 16
_cell_length_a 18.886700
_cell_length_b 31.409552
_cell_length_c 24.740211
_cell_angle_alpha 8.986741
_cell_angle_beta 18.840940
_cell_angle_gamma 17.882242
_cell_volume 697.636367
_symmetry_space_group_name_H-M "P -1"
_symmetry_group_IT_number 2
_symmetry_cell_setting 'triclinic'
loop_
_space_group_symop_operation_xyz
x,y,z
-x,-y,-z
loop_
_atom_site_type_symbol
_atom_site_label
_atom_site_fract_x
_atom_site_fract_y
_atom_site_fract_z
Si Si1 0.223995 0.602443 0.703486
Si Si2 0.811016 0.103636 0.242797
Si Si3 0.124210 0.535937 0.155283
Si Si4 0.252611 0.738994 0.217562
Si Si5 0.860075 0.282261 0.872394
Si Si6 0.598846 0.103705 0.201863
Si Si7 0.769015 0.380471 0.448421
Si Si8 0.049386 0.139679 0.232826
O O1 0.484059 0.374441 0.808124
O O2 0.194782 0.684934 0.558922
O O3 0.201561 0.863080 0.434426
O O4 0.000000 0.500000 0.000000
O O5 0.666046 0.884011 0.630442
O O6 0.733720 0.292128 0.008664
O O7 0.073597 0.924512 0.260183
O O8 0.806504 0.281290 0.077161
O O9 0.864440 0.514944 0.379791
O O10 0.287827 0.206405 0.461548
O O11 0.126249 0.676234 0.918748
O O12 0.280465 0.870098 0.974573
O O13 0.062501 0.988386 0.075424
O O14 0.000000 0.500000 0.500000
O O15 0.657135 0.331427 0.912843
O O16 0.500000 0.500000 0.500000
O O17 0.848973 0.624017 0.113501
O O18 0.000000 0.000000 0.500000
#
# Coordination Sequence:
#
# PCOD9061338 Si02
#       8
#     2   2   2   2   2   2   2   2
#     4  12  25  49  70 106 146 186 246 300 359 430
#     4  12  24  44  71 105 143 185 239 300 357 427
#     4  11  24  46  73 103 142 186 239 294 363 431
#     4  11  25  46  74 101 144 189 236 298 362 431
#     4  11  23  45  68 106 144 186 240 292 361 431
#     4  11  24  45  72 104 141 187 235 296 362 426
#     4  12  26  46  72 106 142 190 245 293 362 431
#     4  12  27  47  74 105 146 191 244 302 364 427
#
# _framework density 22.934584000000001
#
# number of rings (size 3 to 8) (size 9 to 14) (size 15 to 20)
#    0.000    0.500    2.500    7.500    1.750    1.000 
#    4.500    0.000    0.000    0.000    0.000    0.000 
#    0.000    0.000    0.000    0.000    0.000    0.000 
#
# Total GULP energy -89256.169500 kJ/mol
# GULP energy per Si atom -5578.510594 kJ/mol
# Density = 2.288238 g / cm^3
# Si number density = 22.934584 Si / 1000 Ang^3
#
#
#
# Elastic Constant Matrix: (Units=GPa)
#
#
# Indices 1 2 3 4 5 6 
#
# 1 179.1805 22.5742 51.0924 14.3365 -6.3801 29.9319
# 2 22.5742 72.2948 10.1273 7.3187 -9.6882 -1.8673
# 3 51.0924 10.1273 69.1107 5.0887 -22.3359 8.8633
# 4 14.3365 7.3187 5.0887 34.2987 5.9199 0.5223
# 5 -6.3801 -9.6882 -22.3359 5.9199 55.7182 2.6734
# 6 29.9319 -1.8673 8.8633 0.5223 2.6734 44.2208
#
#
#
# Elastic Compliance Matrix: (Units=1/GPa)
#
#
# Indices 1 2 3 4 5 6 
#
# 1 0.008240 -0.001878 -0.005472 -0.001965 -0.001153 -0.004467
# 2 -0.001878 0.015113 0.000015 -0.002926 0.002644 0.001781
# 3 -0.005472 0.000015 0.021503 -0.002321 0.008294 -0.001079
# 4 -0.001965 -0.002926 -0.002321 0.031805 -0.005120 0.001605
# 5 -0.001153 0.002644 0.008294 -0.005120 0.022243 -0.002054
# 6 -0.004467 0.001781 -0.001079 0.001605 -0.002054 0.026034
#
#
# Mechanical properties :
#
#
# Convention : Reuss Voigt Hill
#
# Bulk Modulus (GPa) = 33.12677 54.24151 43.68414
# Shear Modulus (GPa) = 33.40718 42.63370 38.02044
#
# Velocity S-wave (km/s) = 3.82072 4.31620 4.07600
# Velocity P-wave (km/s) = 5.82574 6.96716 6.42186
#
# Compressibility (1/GPa) = 0.03018706
#
# Stress axis : x y z
#
# Youngs Moduli (GPa) = 121.35723 66.16842 46.50612
#
# Poissons Ratio (x) = 0.12423 0.25447
# Poissons Ratio (y) = 0.22785 -0.00070
# Poissons Ratio (z) = 0.66405 -0.00100
#
# Static dielectric constant tensor:
#      x y z
#    x 1.893730 -0.081290 0.022610 
#    y -0.081290 1.909730 0.010050 
#    z 0.022610 0.010050 1.879090 
# 
# From -- ./inp_files/613346.got.cif
#   From: 2010.05.17/outbox.cif.g08.bks.cpg/sg2_307_cif.got.tgz:613346.got - 2010.06.03 11:33:40.
