data_PCOD9061070
_publ_section_title
;
Structure prediction by ZEFSAII (Michael W. Deem and Ramdas Pophale) SiO2 
 PCOD9061070
Probable space group: P -1
;
_chemical_formula_sum "Si O2"
_cell_formula_units_Z 16
_cell_length_a 11.704538
_cell_length_b 8.902780
_cell_length_c 8.778018
_cell_angle_alpha 91.498607
_cell_angle_beta 132.585912
_cell_angle_gamma 100.023999
_cell_volume 649.975739
_symmetry_space_group_name_H-M "P -1"
_symmetry_group_IT_number 2
_symmetry_cell_setting 'triclinic'
loop_
_space_group_symop_operation_xyz
x,y,z
-x,-y,-z
loop_
_atom_site_type_symbol
_atom_site_label
_atom_site_fract_x
_atom_site_fract_y
_atom_site_fract_z
Si Si1 0.851366 0.644218 0.704991
Si Si2 0.145892 0.731031 0.758410
Si Si3 0.640977 0.465299 0.734101
Si Si4 0.361706 0.315723 0.983841
Si Si5 0.008699 0.129543 0.640374
Si Si6 0.262345 0.040177 0.383709
Si Si7 0.309800 0.546581 0.719946
Si Si8 0.384979 0.888350 0.205445
O O1 0.814953 0.559389 0.830296
O O2 0.768682 0.788176 0.639437
O O3 0.771529 0.504236 0.513950
O O4 0.024859 0.709572 0.790322
O O5 0.061518 0.756046 0.525072
O O6 0.200752 0.579535 0.758722
O O7 0.297206 0.862538 0.962665
O O8 0.500000 0.500000 0.500000
O O9 0.630828 0.284691 0.742481
O O10 0.620958 0.549154 0.873365
O O11 0.353917 0.390138 0.812923
O O12 0.194613 0.191927 0.855257
O O13 0.542496 0.298701 0.155125
O O14 0.893270 0.069004 0.676884
O O15 0.000000 0.000000 0.500000
O O16 0.423442 0.039895 0.623405
O O17 0.301348 0.983737 0.249820
#
# Coordination Sequence:
#
# PCOD9061070 Si02
#       8
#     2   2   2   2   2   2   2   2
#     4  12  25  46  74 105 145 190 231 302 357 425
#     4  12  27  43  72 107 142 182 239 300 356 414
#     4  12  24  45  76 108 140 186 247 293 357 422
#     4  11  24  43  74 102 140 189 234 295 358 423
#     4  12  27  47  70 104 145 192 238 289 361 434
#     4  11  26  50  71  98 152 191 241 285 361 433
#     4  11  23  44  72 104 143 178 239 302 357 411
#     4  11  27  49  72 107 142 193 240 298 349 431
#
# _framework density 24.616302000000001
#
# number of rings (size 3 to 8) (size 9 to 14) (size 15 to 20)
#    0.000    0.500    6.250    0.375    7.000    2.500 
#    0.000    0.000    0.000    0.000    0.000    0.000 
#    0.000    0.000    0.000    0.000    0.000    0.000 
#
# Total GULP energy -89401.477880 kJ/mol
# GULP energy per Si atom -5587.592367 kJ/mol
# Density = 2.456027 g / cm^3
# Si number density = 24.616302 Si / 1000 Ang^3
#
#
#
# Elastic Constant Matrix: (Units=GPa)
#
#
# Indices 1 2 3 4 5 6 
#
# 1 137.0458 37.1111 11.9697 22.9986 7.7266 -1.9566
# 2 37.1111 65.2139 28.5311 8.8617 14.3807 -6.5164
# 3 11.9697 28.5311 71.3819 19.0019 12.4073 -7.1393
# 4 22.9986 8.8617 19.0019 35.8455 8.4332 -2.5333
# 5 7.7266 14.3807 12.4073 8.4332 33.5785 11.5380
# 6 -1.9566 -6.5164 -7.1393 -2.5333 11.5380 48.5848
#
#
#
# Elastic Compliance Matrix: (Units=1/GPa)
#
#
# Indices 1 2 3 4 5 6 
#
# 1 0.009685 -0.005963 0.002105 -0.006231 0.001370 -0.000751
# 2 -0.005963 0.023812 -0.007808 0.004343 -0.008417 0.004032
# 3 0.002105 -0.007808 0.019946 -0.009140 -0.002970 0.002197
# 4 -0.006231 0.004343 -0.009140 0.037605 -0.007426 0.002713
# 5 0.001370 -0.008417 -0.002970 -0.007426 0.039944 -0.011383
# 6 -0.000751 0.004032 0.002197 0.002713 -0.011383 0.024261
#
#
# Mechanical properties :
#
#
# Convention : Reuss Voigt Hill
#
# Bulk Modulus (GPa) = 33.20947 47.65169 40.43058
# Shear Modulus (GPa) = 26.50790 36.67042 31.58916
#
# Velocity S-wave (km/s) = 3.28509 3.86383 3.58615
# Velocity P-wave (km/s) = 5.28292 6.26940 5.79718
#
# Compressibility (1/GPa) = 0.03011189
#
# Stress axis : x y z
#
# Youngs Moduli (GPa) = 103.24741 41.99545 50.13570
#
# Poissons Ratio (x) = 0.25042 -0.10552
# Poissons Ratio (y) = 0.61566 0.39144
# Poissons Ratio (z) = -0.21731 0.32788
#
# Static dielectric constant tensor:
#      x y z
#    x 1.962530 0.305590 -0.218000 
#    y 0.305590 -0.387240 2.498070 
#    z -0.218000 2.498070 -0.697430 
# 
# From -- ./inp_files/244250.got.cif
#   From: 2010.05.17/outbox.cif.g08.bks.cpg/sg2_123_cif.got.tgz:244250.got - 2010.06.03 11:33:40.
