data_PCOD9061026
_publ_section_title
;
Structure prediction by ZEFSAII (Michael W. Deem and Ramdas Pophale) SiO2 
 PCOD9061026
Probable space group: P -1
;
_chemical_formula_sum "Si O2"
_cell_formula_units_Z 16
_cell_length_a 15.911832
_cell_length_b 10.138500
_cell_length_c 11.631292
_cell_angle_alpha 141.283964
_cell_angle_beta 132.385464
_cell_angle_gamma 49.137036
_cell_volume 832.772693
_symmetry_space_group_name_H-M "P -1"
_symmetry_group_IT_number 2
_symmetry_cell_setting 'triclinic'
loop_
_space_group_symop_operation_xyz
x,y,z
-x,-y,-z
loop_
_atom_site_type_symbol
_atom_site_label
_atom_site_fract_x
_atom_site_fract_y
_atom_site_fract_z
Si Si1 0.016468 0.337795 0.013114
Si Si2 0.361640 0.094981 0.965623
Si Si3 0.173326 0.361180 0.790261
Si Si4 0.708654 0.721518 0.734669
Si Si5 0.340535 0.508096 0.883699
Si Si6 0.546901 0.130435 0.731111
Si Si7 0.995578 0.083202 0.420105
Si Si8 0.274469 0.677877 0.680978
O O1 0.151370 0.299698 0.152485
O O2 0.997645 0.115002 0.795017
O O3 0.000000 0.500000 0.000000
O O4 0.919395 0.454939 0.095868
O O5 0.282667 0.225976 0.877994
O O6 0.313149 0.889803 0.819551
O O7 0.336253 0.259097 0.162685
O O8 0.500000 0.000000 0.000000
O O9 0.225064 0.470562 0.808726
O O10 0.100359 0.193098 0.571562
O O11 0.684599 0.520174 0.506093
O O12 0.638859 0.946462 0.762876
O O13 0.438396 0.273556 0.804837
O O14 0.320432 0.599253 0.797071
O O15 0.389675 0.682879 0.119614
O O16 0.500000 0.000000 0.500000
O O17 0.867765 0.253569 0.401838
O O18 0.000000 0.000000 0.500000
#
# Coordination Sequence:
#
# PCOD9061026 Si02
#       8
#     2   2   2   2   2   2   2   2
#     4  12  21  41  68  98 132 175 223 280 338 403
#     4  12  26  43  68 102 138 173 226 285 334 399
#     4  12  26  41  69 104 138 171 227 286 333 403
#     4  12  22  42  72  97 129 179 233 268 341 404
#     4  11  26  45  66 101 139 178 228 278 340 400
#     4  11  23  44  71  93 135 187 224 271 335 406
#     4  12  21  41  69  97 132 176 222 277 343 396
#     4  12  23  44  72  95 135 185 221 276 342 407
#
# _framework density 19.212927000000001
#
# number of rings (size 3 to 8) (size 9 to 14) (size 15 to 20)
#    0.000    0.250    8.750    0.750    1.750    2.000 
#    0.000    1.250    0.000    0.000    0.000    0.000 
#    0.000    0.000    0.000    0.000    0.000    0.000 
#
# Total GULP energy -89457.155379 kJ/mol
# GULP energy per Si atom -5591.072211 kJ/mol
# Density = 1.916920 g / cm^3
# Si number density = 19.212927 Si / 1000 Ang^3
#
#
#
# Elastic Constant Matrix: (Units=GPa)
#
#
# Indices 1 2 3 4 5 6 
#
# 1 65.6145 -0.1700 21.3296 -6.7125 3.0060 -4.4740
# 2 -0.1700 90.7733 11.1864 -14.8872 -11.4086 -18.6801
# 3 21.3296 11.1864 131.6581 4.9557 -12.3781 6.7156
# 4 -6.7125 -14.8872 4.9557 31.8288 -12.3088 4.2148
# 5 3.0060 -11.4086 -12.3781 -12.3088 23.9485 2.2759
# 6 -4.4740 -18.6801 6.7156 4.2148 2.2759 32.9105
#
#
#
# Elastic Compliance Matrix: (Units=1/GPa)
#
#
# Indices 1 2 3 4 5 6 
#
# 1 0.017038 0.001617 -0.003360 0.003838 -0.001468 0.003530
# 2 0.001617 0.016165 -0.001305 0.011869 0.012230 0.007296
# 3 -0.003360 -0.001305 0.008850 -0.000572 0.004388 -0.003233
# 4 0.003838 0.011869 -0.000572 0.049853 0.030607 -0.001126
# 5 -0.001468 0.012230 0.004388 0.030607 0.066016 -0.002638
# 6 0.003530 0.007296 -0.003233 -0.001126 -0.002638 0.035993
#
#
# Mechanical properties :
#
#
# Convention : Reuss Voigt Hill
#
# Bulk Modulus (GPa) = 27.81044 39.19312 33.50178
# Shear Modulus (GPa) = 23.58545 34.78423 29.18484
#
# Velocity S-wave (km/s) = 3.50749 4.25957 3.90169
# Velocity P-wave (km/s) = 5.55964 6.68098 6.14594
#
# Compressibility (1/GPa) = 0.03595771
#
# Stress axis : x y z
#
# Youngs Moduli (GPa) = 58.69387 61.86103 112.99945
#
# Poissons Ratio (x) = -0.10005 0.37969
# Poissons Ratio (y) = -0.09493 0.14741
# Poissons Ratio (z) = 0.19722 0.08070
#
# Static dielectric constant tensor:
#      x y z
#    x 1.666430 -0.025840 -0.013610 
#    y -0.025840 1.705800 0.004410 
#    z -0.013610 0.004410 1.699270 
# 
# From -- ./inp_files/306153.got.cif
#   From: 2010.05.17/outbox.cif.g08.bks.cpg/sg2_154_cif.got.tgz:306153.got - 2010.06.03 11:33:40.
