data_PCOD9061488
_publ_section_title
;
Structure prediction by ZEFSAII (Michael W. Deem and Ramdas Pophale) SiO2 
 PCOD9061488
Probable space group: P -1
;
_chemical_formula_sum "Si O2"
_cell_formula_units_Z 10
_cell_length_a 11.278782
_cell_length_b 7.680657
_cell_length_c 7.174007
_cell_angle_alpha 42.749998
_cell_angle_beta 123.443042
_cell_angle_gamma 104.769327
_cell_volume 339.483926
_symmetry_space_group_name_H-M "P -1"
_symmetry_group_IT_number 2
_symmetry_cell_setting 'triclinic'
loop_
_space_group_symop_operation_xyz
x,y,z
-x,-y,-z
loop_
_atom_site_type_symbol
_atom_site_label
_atom_site_fract_x
_atom_site_fract_y
_atom_site_fract_z
Si Si1 0.437547 0.560989 0.104154
Si Si2 0.818706 0.613264 0.464899
Si Si3 0.085440 0.784469 0.596854
Si Si4 0.211252 0.957838 0.229974
Si Si5 0.391185 0.111201 0.611232
O O1 0.484062 0.309709 0.473875
O O2 0.500000 0.500000 0.000000
O O3 0.257691 0.647395 0.890273
O O4 0.479446 0.826095 0.990842
O O5 0.768564 0.347057 0.588111
O O6 0.995064 0.563755 0.679893
O O7 0.742131 0.747993 0.480951
O O8 0.791688 0.832872 0.102643
O O9 0.081989 0.947435 0.274667
O O10 0.000000 0.000000 0.500000
O O11 0.327074 0.029466 0.422427
#
# Coordination Sequence:
#
# PCOD9061488 Si02
#       5
#     2   2   2   2   2
#     4  11  24  45  75 101 138 195 233 279 357 417
#     4  12  24  42  72 109 140 183 228 294 359 406
#     4  11  23  45  71 107 142 182 234 294 345 419
#     4  11  24  42  68 111 144 179 227 296 357 410
#     4  11  24  47  73 104 145 180 241 289 344 425
#
# _framework density 29.456475999999999
#
# number of rings (size 3 to 8) (size 9 to 14) (size 15 to 20)
#    0.000    0.800    4.000    5.400    0.000    4.000 
#    0.000    0.000    0.000   55.200    0.000    0.000 
#    0.000    0.000    0.000    0.000    0.000    0.000 
#
# Total GULP energy -56119.838136 kJ/mol
# GULP energy per Si atom -5611.983814 kJ/mol
# Density = 2.938943 g / cm^3
# Si number density = 29.456476 Si / 1000 Ang^3
#
#
#
# Elastic Constant Matrix: (Units=GPa)
#
#
# Indices 1 2 3 4 5 6 
#
# 1 230.5715 90.1643 81.8649 -25.0108 -25.9791 -6.0868
# 2 90.1643 189.4691 65.5734 -51.3412 -8.4209 -5.8657
# 3 81.8649 65.5734 184.4900 -43.2041 -43.1869 -9.1713
# 4 -25.0108 -51.3412 -43.2041 70.4895 12.5879 3.9253
# 5 -25.9791 -8.4209 -43.1869 12.5879 58.6234 -1.9188
# 6 -6.0868 -5.8657 -9.1713 3.9253 -1.9188 84.7317
#
#
#
# Elastic Compliance Matrix: (Units=1/GPa)
#
#
# Indices 1 2 3 4 5 6 
#
# 1 0.005929 -0.002430 -0.001688 -0.000930 0.001240 0.000146
# 2 -0.002430 0.007977 -0.001083 0.004590 -0.001714 0.000009
# 3 -0.001688 -0.001083 0.008347 0.002859 0.004654 0.000680
# 4 -0.000930 0.004590 0.002859 0.019295 -0.001802 -0.000374
# 5 0.001240 -0.001714 0.004654 -0.001802 0.021210 0.001038
# 6 0.000146 0.000009 0.000680 -0.000374 0.001038 0.011928
#
#
# Mechanical properties :
#
#
# Convention : Reuss Voigt Hill
#
# Bulk Modulus (GPa) = 84.37372 119.97062 102.17217
# Shear Modulus (GPa) = 56.15648 67.23080 61.69364
#
# Velocity S-wave (km/s) = 4.37100 4.78261 4.58143
# Velocity P-wave (km/s) = 7.36070 8.44478 7.92130
#
# Compressibility (1/GPa) = 0.01185203
#
# Stress axis : x y z
#
# Youngs Moduli (GPa) = 168.66016 125.36409 119.80344
#
# Poissons Ratio (x) = 0.30461 0.20218
# Poissons Ratio (y) = 0.40981 0.12974
# Poissons Ratio (z) = 0.28464 0.13577
#
# Static dielectric constant tensor:
#      x y z
#    x 2.255800 0.036010 0.110430 
#    y 0.036010 2.350330 0.037390 
#    z 0.110430 0.037390 2.454120 
# 
# From -- ./inp_files/289353.got.cif
#   From: 2010.05.17/outbox.cif.g08.bks.cpg/sg2_145_cif.got.tgz:289353.got - 2010.06.03 11:33:40.
