data_PCOD9061674
_publ_section_title
;
Structure prediction by ZEFSAII (Michael W. Deem and Ramdas Pophale) SiO2 
 PCOD9061674
Probable space group: P -1
;
_chemical_formula_sum "Si O2"
_cell_formula_units_Z 16
_cell_length_a 14.219460
_cell_length_b 14.244091
_cell_length_c 8.681296
_cell_angle_alpha 136.526286
_cell_angle_beta 43.396238
_cell_angle_gamma 137.573566
_cell_volume 743.901238
_symmetry_space_group_name_H-M "P -1"
_symmetry_group_IT_number 2
_symmetry_cell_setting 'triclinic'
loop_
_space_group_symop_operation_xyz
x,y,z
-x,-y,-z
loop_
_atom_site_type_symbol
_atom_site_label
_atom_site_fract_x
_atom_site_fract_y
_atom_site_fract_z
Si Si1 0.628740 0.338946 0.872690
Si Si2 0.100123 0.343657 0.602202
Si Si3 0.941581 0.542222 0.895218
Si Si4 0.092281 0.937874 0.708686
Si Si5 0.388530 0.128053 0.401397
Si Si6 0.398262 0.027703 0.934355
Si Si7 0.179447 0.770417 0.669478
Si Si8 0.460765 0.515248 0.385267
O O1 0.769704 0.416979 0.917456
O O2 0.498065 0.180383 0.902156
O O3 0.705954 0.303796 0.591211
O O4 0.554365 0.454215 0.091829
O O5 0.281418 0.414476 0.455209
O O6 0.040121 0.455471 0.725551
O O7 0.015198 0.179014 0.430560
O O8 0.060229 0.349918 0.836099
O O9 0.020978 0.643449 0.773052
O O10 0.153678 0.842685 0.630189
O O11 0.236445 0.072670 0.617070
O O12 0.000000 0.000000 0.000000
O O13 0.487996 0.308391 0.497121
O O14 0.489258 0.047530 0.248445
O O15 0.347337 0.072760 0.208446
O O16 0.259305 0.905796 0.857186
O O17 0.500000 0.500000 0.500000
#
# Coordination Sequence:
#
# PCOD9061674 Si02
#       8
#     2   2   2   2   2   2   2   2
#     4  12  24  44  72 102 136 179 230 290 338 409
#     4  11  24  47  71 103 135 182 234 283 344 408
#     4  11  23  45  76  96 136 184 232 284 338 416
#     4  12  29  43  65  99 147 180 227 284 345 414
#     4  11  24  47  71 103 135 182 234 283 344 408
#     4  11  23  45  76  96 136 184 232 284 338 416
#     4  12  26  44  68 103 137 185 233 279 351 415
#     4  12  25  43  71 106 138 171 234 296 342 399
#
# _framework density 21.508230999999999
#
# number of rings (size 3 to 8) (size 9 to 14) (size 15 to 20)
#    0.000    0.500    5.000    2.250    3.500    4.000 
#    0.000    3.750    0.000    0.000    0.000    0.000 
#    0.000    0.000    0.000    0.000    0.000    0.000 
#
# Total GULP energy -89605.932385 kJ/mol
# GULP energy per Si atom -5600.370774 kJ/mol
# Density = 2.145928 g / cm^3
# Si number density = 21.508231 Si / 1000 Ang^3
#
#
#
# Elastic Constant Matrix: (Units=GPa)
#
#
# Indices 1 2 3 4 5 6 
#
# 1 30.8459 -6.6754 -9.6832 -0.3315 -1.2564 20.5889
# 2 -6.6754 60.0836 0.8998 -6.3534 6.6480 1.6295
# 3 -9.6832 0.8998 87.1075 -2.7274 -7.0354 -6.6747
# 4 -0.3315 -6.3534 -2.7274 38.4038 9.4109 1.2912
# 5 -1.2564 6.6480 -7.0354 9.4109 27.2662 -4.7688
# 6 20.5889 1.6295 -6.6747 1.2912 -4.7688 23.4337
#
#
#
# Elastic Compliance Matrix: (Units=1/GPa)
#
#
# Indices 1 2 3 4 5 6 
#
# 1 0.094772 0.016046 0.002514 0.011042 -0.018091 -0.087956
# 2 0.016046 0.020699 -0.000398 0.006547 -0.009820 -0.018010
# 3 0.002514 -0.000398 0.012224 -0.000175 0.003792 0.002082
# 4 0.011042 0.006547 -0.000175 0.031265 -0.014527 -0.014886
# 5 -0.018091 -0.009820 0.003792 -0.014527 0.049208 0.028472
# 6 -0.087956 -0.018010 0.002082 -0.014886 0.028472 0.128412
#
#
# Mechanical properties :
#
#
# Convention : Reuss Voigt Hill
#
# Bulk Modulus (GPa) = 6.09683 16.34661 11.22172
# Shear Modulus (GPa) = 14.08731 30.72044 22.40388
#
# Velocity S-wave (km/s) = 2.56202 3.78340 3.23095
# Velocity P-wave (km/s) = 3.40481 5.16741 4.37578
#
# Compressibility (1/GPa) = 0.16401965
#
# Stress axis : x y z
#
# Youngs Moduli (GPa) = 10.55169 48.31046 81.80665
#
# Poissons Ratio (x) = -0.77521 -0.20568
# Poissons Ratio (y) = -0.16932 0.03258
# Poissons Ratio (z) = -0.02653 0.01924
#
# Static dielectric constant tensor:
#      x y z
#    x 1.786590 -0.007010 0.005080 
#    y -0.007010 1.717660 0.006230 
#    z 0.005080 0.006230 1.780030 
# 
# From -- ./inp_files/316048.got.cif
#   From: 2010.05.17/outbox.cif.g08.bks.cpg/sg2_159_cif.got.tgz:316048.got - 2010.06.03 11:33:40.
