data_PCOD9061969
_publ_section_title
;
Structure prediction by ZEFSAII (Michael W. Deem and Ramdas Pophale) SiO2 
 PCOD9061969
Probable space group: P -1
;
_chemical_formula_sum "Si O2"
_cell_formula_units_Z 14
_cell_length_a 9.322439
_cell_length_b 16.303716
_cell_length_c 19.154541
_cell_angle_alpha 158.839875
_cell_angle_beta 141.711522
_cell_angle_gamma 49.331961
_cell_volume 607.750355
_symmetry_space_group_name_H-M "P -1"
_symmetry_group_IT_number 2
_symmetry_cell_setting 'triclinic'
loop_
_space_group_symop_operation_xyz
x,y,z
-x,-y,-z
loop_
_atom_site_type_symbol
_atom_site_label
_atom_site_fract_x
_atom_site_fract_y
_atom_site_fract_z
Si Si1 0.046217 0.138965 0.701509
Si Si2 0.336705 0.452745 0.250635
Si Si3 0.637348 0.098071 0.285894
Si Si4 0.898398 0.991013 0.769445
Si Si5 0.224665 0.690792 0.641489
Si Si6 0.138268 0.833941 0.954910
Si Si7 0.627768 0.339230 0.726334
O O1 0.804634 0.182540 0.672906
O O2 0.141701 0.984827 0.670054
O O3 0.252585 0.411350 0.986840
O O4 0.000000 0.000000 0.500000
O O5 0.350579 0.656908 0.475259
O O6 0.576217 0.378196 0.293245
O O7 0.346480 0.565353 0.267968
O O8 0.087218 0.222897 0.985826
O O9 0.637941 0.146687 0.242925
O O10 0.390874 0.890847 0.054897
O O11 0.658746 0.824967 0.503197
O O12 0.060269 0.826844 0.722559
O O13 0.811178 0.086306 0.882079
O O14 0.035876 0.443137 0.339655
O O15 0.000000 0.000000 0.000000
#
# Coordination Sequence:
#
# PCOD9061969 Si02
#       7
#     2   2   2   2   2   2   2
#     4  11  23  46  75  94 130 182 225 283 345 395
#     4  12  23  44  70  99 144 179 221 279 337 403
#     4  12  23  45  70  99 140 183 222 279 341 396
#     4  12  25  42  67 103 137 178 230 276 335 407
#     4  12  26  43  68 104 142 185 221 273 342 404
#     4  12  23  41  67  98 141 181 226 274 328 405
#     4  11  25  46  70 101 133 174 233 284 333 401
#
# _framework density 23.035774
#
# number of rings (size 3 to 8) (size 9 to 14) (size 15 to 20)
#    0.000    0.286    5.714    3.429    0.000    3.429 
#    0.000    8.571    0.000    0.000    0.000    0.000 
#    0.000    0.000    0.000    0.000    0.000    0.000 
#
# Total GULP energy -78521.335341 kJ/mol
# GULP energy per Si atom -5608.666810 kJ/mol
# Density = 2.298334 g / cm^3
# Si number density = 23.035774 Si / 1000 Ang^3
#
#
#
# Elastic Constant Matrix: (Units=GPa)
#
#
# Indices 1 2 3 4 5 6 
#
# 1 80.5455 20.7784 31.1192 -2.4948 -0.9162 -5.8061
# 2 20.7784 127.2550 -0.7644 -1.5580 10.0375 -28.5049
# 3 31.1192 -0.7644 142.6325 -9.5772 3.3212 -26.2302
# 4 -2.4948 -1.5580 -9.5772 33.8594 -8.8383 -3.2995
# 5 -0.9162 10.0375 3.3212 -8.8383 44.2971 -5.4464
# 6 -5.8061 -28.5049 -26.2302 -3.2995 -5.4464 30.8704
#
#
#
# Elastic Compliance Matrix: (Units=1/GPa)
#
#
# Indices 1 2 3 4 5 6 
#
# 1 0.014485 -0.003217 -0.003839 -0.000276 0.000845 -0.003389
# 2 -0.003217 0.011355 0.003277 0.002227 -0.000874 0.012748
# 3 -0.003839 0.003277 0.010250 0.004061 0.000641 0.011560
# 4 -0.000276 0.002227 0.004061 0.033640 0.007165 0.010314
# 5 0.000845 -0.000874 0.000641 0.007165 0.024791 0.005037
# 6 -0.003389 0.012748 0.011560 0.010314 0.005037 0.055341
#
#
# Mechanical properties :
#
#
# Convention : Reuss Voigt Hill
#
# Bulk Modulus (GPa) = 35.04916 50.29994 42.67455
# Shear Modulus (GPa) = 29.95234 41.75869 35.85551
#
# Velocity S-wave (km/s) = 3.60981 4.26229 3.94955
# Velocity P-wave (km/s) = 5.71161 6.79012 6.27408
#
# Compressibility (1/GPa) = 0.02853135
#
# Stress axis : x y z
#
# Youngs Moduli (GPa) = 69.03526 88.06706 97.56202
#
# Poissons Ratio (x) = 0.28335 0.37455
# Poissons Ratio (y) = 0.22211 -0.31972
# Poissons Ratio (z) = 0.26503 -0.28860
#
# Static dielectric constant tensor:
#      x y z
#    x 1.841380 -0.013320 -0.003920 
#    y -0.013320 1.829110 -0.018610 
#    z -0.003920 -0.018610 1.881450 
# 
# From -- ./inp_files/591129.got.cif
#   From: 2010.05.17/outbox.cif.g08.bks.cpg/sg2_296_cif.got.tgz:591129.got - 2010.06.03 11:33:40.
