data_PCOD9061103
_publ_section_title
;
Structure prediction by ZEFSAII (Michael W. Deem and Ramdas Pophale) SiO2 
 PCOD9061103
Probable space group: P -1
;
_chemical_formula_sum "Si O2"
_cell_formula_units_Z 16
_cell_length_a 8.708934
_cell_length_b 12.383636
_cell_length_c 8.642405
_cell_angle_alpha 85.176572
_cell_angle_beta 124.534791
_cell_angle_gamma 85.275922
_cell_volume 755.442565
_symmetry_space_group_name_H-M "P -1"
_symmetry_group_IT_number 2
_symmetry_cell_setting 'triclinic'
loop_
_space_group_symop_operation_xyz
x,y,z
-x,-y,-z
loop_
_atom_site_type_symbol
_atom_site_label
_atom_site_fract_x
_atom_site_fract_y
_atom_site_fract_z
Si Si1 0.210100 0.476362 0.188629
Si Si2 0.738832 0.284088 0.299133
Si Si3 0.574911 0.348262 0.866275
Si Si4 0.087609 0.100962 0.468894
Si Si5 0.614269 0.766662 0.749813
Si Si6 0.489697 0.142557 0.663802
Si Si7 0.206968 0.496537 0.550177
Si Si8 0.832041 0.947579 0.837099
O O1 0.318540 0.574738 0.189073
O O2 0.309021 0.362017 0.186401
O O3 0.211738 0.466295 0.376139
O O4 0.000000 0.500000 0.000000
O O5 0.581348 0.212463 0.271619
O O6 0.741549 0.382455 0.409605
O O7 0.942695 0.210773 0.409953
O O8 0.672247 0.336650 0.089927
O O9 0.577024 0.229062 0.807746
O O10 0.359158 0.409437 0.737955
O O11 0.301062 0.111183 0.638105
O O12 0.104910 0.082035 0.297661
O O13 0.000000 0.000000 0.500000
O O14 0.570874 0.800591 0.542459
O O15 0.770715 0.837944 0.887633
O O16 0.643125 0.036956 0.727852
O O17 0.000000 0.500000 0.500000
O O18 0.000000 0.000000 0.000000
#
# Coordination Sequence:
#
# PCOD9061103 Si02
#       8
#     2   2   2   2   2   2   2   2
#     4  12  27  44  71  99 139 186 227 279 336 413
#     4  12  25  42  70 102 141 179 227 285 335 407
#     4  12  25  44  68 104 142 179 229 276 341 406
#     4  11  24  45  69  99 135 177 230 286 344 400
#     4  11  24  46  66  97 138 179 230 276 344 403
#     4  11  23  44  72  97 134 183 225 282 347 405
#     4  12  25  44  67 101 139 179 226 273 342 403
#     4  11  25  44  71  99 130 177 231 285 341 407
#
# _framework density 21.179638000000001
#
# number of rings (size 3 to 8) (size 9 to 14) (size 15 to 20)
#    0.000    0.500    2.500    6.750    8.750    1.000 
#    0.000    2.500    0.000    0.000    0.000    0.000 
#    0.000    0.000    0.000    0.000    0.000    0.000 
#
# Total GULP energy -89568.358580 kJ/mol
# GULP energy per Si atom -5598.022411 kJ/mol
# Density = 2.113143 g / cm^3
# Si number density = 21.179638 Si / 1000 Ang^3
#
#
#
# Elastic Constant Matrix: (Units=GPa)
#
#
# Indices 1 2 3 4 5 6 
#
# 1 103.3345 13.5381 -5.3473 -3.2092 16.3230 8.2370
# 2 13.5381 90.7576 -0.6433 13.7165 4.1386 -5.9934
# 3 -5.3473 -0.6433 44.5494 0.8932 14.2806 -5.0072
# 4 -3.2092 13.7165 0.8932 35.6979 1.8969 9.0482
# 5 16.3230 4.1386 14.2806 1.8969 25.3656 -2.3765
# 6 8.2370 -5.9934 -5.0072 9.0482 -2.3765 47.2220
#
#
#
# Elastic Compliance Matrix: (Units=1/GPa)
#
#
# Indices 1 2 3 4 5 6 
#
# 1 0.012154 -0.001966 0.004390 0.003060 -0.010484 -0.003018
# 2 -0.001966 0.012394 0.000506 -0.005706 -0.000330 0.003046
# 3 0.004390 0.000506 0.029322 0.000134 -0.019293 0.001411
# 4 0.003060 -0.005706 0.000134 0.032661 -0.004279 -0.007717
# 5 -0.010484 -0.000330 -0.019293 -0.004279 0.057730 0.003466
# 6 -0.003018 0.003046 0.001411 -0.007717 0.003466 0.023892
#
#
# Mechanical properties :
#
#
# Convention : Reuss Voigt Hill
#
# Bulk Modulus (GPa) = 16.74197 28.19296 22.46747
# Shear Modulus (GPa) = 27.44217 37.06338 32.25278
#
# Velocity S-wave (km/s) = 3.60347 4.18778 3.90657
# Velocity P-wave (km/s) = 5.02347 6.06000 5.56592
#
# Compressibility (1/GPa) = 0.05973011
#
# Stress axis : x y z
#
# Youngs Moduli (GPa) = 82.27996 80.68603 34.10437
#
# Poissons Ratio (x) = 0.15859 -0.14973
# Poissons Ratio (y) = 0.16172 -0.01724
# Poissons Ratio (z) = -0.36125 -0.04079
#
# Static dielectric constant tensor:
#      x y z
#    x 1.754760 0.025930 0.023380 
#    y 0.025930 1.752940 0.028060 
#    z 0.023380 0.028060 1.737270 
# 
# From -- ./inp_files/187949.got.cif
#   From: 2010.05.17/outbox.cif.g08.bks.cpg/sg2_94_cif.got.tgz:187949.got - 2010.06.03 11:33:40.
