data_PCOD9061827
_publ_section_title
;
Structure prediction by ZEFSAII (Michael W. Deem and Ramdas Pophale) SiO2 
 PCOD9061827
Probable space group: P -1
;
_chemical_formula_sum "Si O2"
_cell_formula_units_Z 16
_cell_length_a 11.331135
_cell_length_b 14.705541
_cell_length_c 8.491867
_cell_angle_alpha 139.720086
_cell_angle_beta 127.848281
_cell_angle_gamma 51.845889
_cell_volume 690.636624
_symmetry_space_group_name_H-M "P -1"
_symmetry_group_IT_number 2
_symmetry_cell_setting 'triclinic'
loop_
_space_group_symop_operation_xyz
x,y,z
-x,-y,-z
loop_
_atom_site_type_symbol
_atom_site_label
_atom_site_fract_x
_atom_site_fract_y
_atom_site_fract_z
Si Si1 0.394389 0.527350 0.601237
Si Si2 0.177816 0.304112 0.332126
Si Si3 0.152319 0.037094 0.114629
Si Si4 0.346683 0.785704 0.135807
Si Si5 0.509747 0.224483 0.452593
Si Si6 0.164713 0.585480 0.897463
Si Si7 0.860581 0.426976 0.793567
Si Si8 0.849817 0.097911 0.407222
O O1 0.500000 0.500000 0.500000
O O2 0.478050 0.393894 0.605528
O O3 0.231031 0.528935 0.388587
O O4 0.385296 0.677984 0.877487
O O5 0.337753 0.210806 0.253165
O O6 0.193378 0.454488 0.620939
O O7 0.022468 0.343227 0.151803
O O8 0.142124 0.206418 0.316228
O O9 0.277985 0.946039 0.219851
O O10 0.171355 0.978296 0.874021
O O11 0.000000 0.000000 0.000000
O O12 0.481066 0.789079 0.370324
O O13 0.235763 0.711309 0.052259
O O14 0.677807 0.134851 0.400006
O O15 0.221286 0.526385 0.039887
O O16 0.886921 0.250885 0.596544
O O17 0.000000 0.500000 0.000000
O O18 0.000000 0.000000 0.500000
#
# Coordination Sequence:
#
# PCOD9061827 Si02
#       8
#     2   2   2   2   2   2   2   2
#     4  12  23  43  68 107 145 179 235 298 355 420
#     4  11  26  42  75 105 144 185 243 295 350 419
#     4  12  25  45  71 101 143 192 234 290 360 435
#     4  12  23  44  73 101 142 190 235 289 361 435
#     4  12  25  46  74 104 140 189 243 296 360 420
#     4  11  23  46  71 109 143 186 243 289 360 420
#     4  12  26  43  72 112 139 181 243 295 353 417
#     4  12  26  49  72 103 145 193 235 290 368 436
#
# _framework density 23.167031000000001
#
# number of rings (size 3 to 8) (size 9 to 14) (size 15 to 20)
#    0.000    0.250    6.250    2.625    5.250    1.000 
#    0.000    1.250    0.000    0.000    0.000    0.000 
#    0.000    0.000    0.000    0.000    0.000    0.000 
#
# Total GULP energy -89333.539710 kJ/mol
# GULP energy per Si atom -5583.346232 kJ/mol
# Density = 2.311430 g / cm^3
# Si number density = 23.167031 Si / 1000 Ang^3
#
#
#
# Elastic Constant Matrix: (Units=GPa)
#
#
# Indices 1 2 3 4 5 6 
#
# 1 108.1648 18.2183 13.4533 -1.2639 13.0222 -19.7214
# 2 18.2183 132.2866 10.7634 -24.5554 2.6296 -4.6394
# 3 13.4533 10.7634 59.7156 -5.6578 -5.9279 -6.6296
# 4 -1.2639 -24.5554 -5.6578 30.1279 15.8374 5.4773
# 5 13.0222 2.6296 -5.9279 15.8374 33.1919 -5.0339
# 6 -19.7214 -4.6394 -6.6296 5.4773 -5.0339 39.8391
#
#
#
# Elastic Compliance Matrix: (Units=1/GPa)
#
#
# Indices 1 2 3 4 5 6 
#
# 1 0.010996 -0.000956 -0.002184 0.000770 -0.004341 0.004314
# 2 -0.000956 0.010027 -0.001352 0.011663 -0.006523 -0.001958
# 3 -0.002184 -0.001352 0.018178 -0.000877 0.005015 0.002541
# 4 0.000770 0.011663 -0.000877 0.061618 -0.032449 -0.010979
# 5 -0.004341 -0.006523 0.005015 -0.032449 0.050047 0.008711
# 6 0.004314 -0.001958 0.002541 -0.010979 0.008711 0.030041
#
#
# Mechanical properties :
#
#
# Convention : Reuss Voigt Hill
#
# Bulk Modulus (GPa) = 33.09341 42.78190 37.93765
# Shear Modulus (GPa) = 25.00437 37.81391 31.40914
#
# Velocity S-wave (km/s) = 3.28885 4.04447 3.68607
# Velocity P-wave (km/s) = 5.36076 6.34958 5.87600
#
# Compressibility (1/GPa) = 0.03021750
#
# Stress axis : x y z
#
# Youngs Moduli (GPa) = 90.94130 99.73115 55.01021
#
# Poissons Ratio (x) = 0.09536 0.12014
# Poissons Ratio (y) = 0.08696 0.07436
# Poissons Ratio (z) = 0.19862 0.13481
#
# Static dielectric constant tensor:
#      x y z
#    x 1.955030 -0.048440 0.021260 
#    y -0.048440 2.135900 -0.096690 
#    z 0.021260 -0.096690 1.906180 
# 
# From -- ./inp_files/274767.got.cif
#   From: 2010.05.17/outbox.cif.g08.bks.cpg/sg2_138_cif.got.tgz:274767.got - 2010.06.03 11:33:40.
