data_PCOD9061127
_publ_section_title
;
Structure prediction by ZEFSAII (Michael W. Deem and Ramdas Pophale) SiO2 
 PCOD9061127
Probable space group: P -1
;
_chemical_formula_sum "Si O2"
_cell_formula_units_Z 16
_cell_length_a 20.432234
_cell_length_b 11.088015
_cell_length_c 9.201140
_cell_angle_alpha 103.896445
_cell_angle_beta 79.694462
_cell_angle_gamma 157.550553
_cell_volume 767.489449
_symmetry_space_group_name_H-M "P -1"
_symmetry_group_IT_number 2
_symmetry_cell_setting 'triclinic'
loop_
_space_group_symop_operation_xyz
x,y,z
-x,-y,-z
loop_
_atom_site_type_symbol
_atom_site_label
_atom_site_fract_x
_atom_site_fract_y
_atom_site_fract_z
Si Si1 0.142825 0.815038 0.850754
Si Si2 0.789744 0.117561 0.670750
Si Si3 0.987874 0.832863 0.424274
Si Si4 0.199751 0.063650 0.159713
Si Si5 0.769533 0.890565 0.375858
Si Si6 0.506576 0.792300 0.767219
Si Si7 0.414982 0.879875 0.655035
Si Si8 0.513371 0.751513 0.094560
O O1 0.990734 0.476864 0.734819
O O2 0.194775 0.011810 0.774319
O O3 0.309058 0.018404 0.882785
O O4 0.085205 0.786214 0.012337
O O5 0.717265 0.893850 0.751551
O O6 0.748974 0.985834 0.495174
O O7 0.698419 0.090599 0.723085
O O8 0.789338 0.456319 0.378494
O O9 0.000000 0.000000 0.500000
O O10 0.092046 0.971145 0.277825
O O11 0.074108 0.906769 0.543968
O O12 0.351632 0.389985 0.104345
O O13 0.612713 0.523997 0.340491
O O14 0.446819 0.818894 0.732441
O O15 0.500767 0.771619 0.937608
O O16 0.500000 0.000000 0.500000
O O17 0.488051 0.130037 0.769501
#
# Coordination Sequence:
#
# PCOD9061127 Si02
#       8
#     2   2   2   2   2   2   2   2
#     4  12  24  44  72 107 140 178 234 289 352 408
#     4  11  25  40  70 103 141 179 229 294 342 408
#     4  11  24  48  70 100 140 181 236 282 344 412
#     4  11  23  44  73 102 137 185 226 286 347 410
#     4  11  24  43  70 103 137 181 232 286 349 406
#     4  12  25  46  68 101 145 180 233 279 350 414
#     4  12  29  47  72 101 139 189 231 286 342 416
#     4  12  25  46  70 103 143 183 232 283 348 413
#
# _framework density 20.847193000000001
#
# number of rings (size 3 to 8) (size 9 to 14) (size 15 to 20)
#    0.000    0.500    3.750    4.875    7.000    0.000 
#    0.000    1.250    0.000    0.000    0.000    0.000 
#    0.000    0.000    0.000    0.000    0.000    0.000 
#
# Total GULP energy -89517.503644 kJ/mol
# GULP energy per Si atom -5594.843978 kJ/mol
# Density = 2.079974 g / cm^3
# Si number density = 20.847193 Si / 1000 Ang^3
#
#
#
# Elastic Constant Matrix: (Units=GPa)
#
#
# Indices 1 2 3 4 5 6 
#
# 1 89.4849 32.5372 41.3323 -8.2233 3.2893 11.4961
# 2 32.5372 82.4005 26.6127 9.5286 5.1322 4.8065
# 3 41.3323 26.6127 123.3548 5.2123 -9.6004 10.7032
# 4 -8.2233 9.5286 5.2123 29.9937 -7.5266 -6.1034
# 5 3.2893 5.1322 -9.6004 -7.5266 42.9252 5.0169
# 6 11.4961 4.8065 10.7032 -6.1034 5.0169 33.8907
#
#
#
# Elastic Compliance Matrix: (Units=1/GPa)
#
#
# Indices 1 2 3 4 5 6 
#
# 1 0.016043 -0.005567 -0.004274 0.006442 -0.000142 -0.002122
# 2 -0.005567 0.015855 -0.001413 -0.007218 -0.002960 -0.000776
# 3 -0.004274 -0.001413 0.010364 -0.002346 0.002689 -0.002444
# 4 0.006442 -0.007218 -0.002346 0.040593 0.006265 0.005962
# 5 -0.000142 -0.002960 0.002689 0.006265 0.025719 -0.003060
# 6 -0.002122 -0.000776 -0.002444 0.005962 -0.003060 0.032635
#
#
# Mechanical properties :
#
#
# Convention : Reuss Voigt Hill
#
# Bulk Modulus (GPa) = 50.62287 55.13384 52.87836
# Shear Modulus (GPa) = 29.35980 34.34578 31.85279
#
# Velocity S-wave (km/s) = 3.75685 4.06335 3.91310
# Velocity P-wave (km/s) = 6.56918 6.96552 6.77025
#
# Compressibility (1/GPa) = 0.01975392
#
# Stress axis : x y z
#
# Youngs Moduli (GPa) = 62.33229 63.07233 96.48785
#
# Poissons Ratio (x) = 0.35112 0.41236
# Poissons Ratio (y) = 0.34700 0.13637
# Poissons Ratio (z) = 0.26639 0.08914
#
# Static dielectric constant tensor:
#      x y z
#    x 1.720150 -0.009380 -0.003860 
#    y -0.009380 1.776100 -0.009420 
#    z -0.003860 -0.009420 1.758230 
# 
# From -- ./inp_files/316088.got.cif
#   From: 2010.05.17/outbox.cif.g08.bks.cpg/sg2_159_cif.got.tgz:316088.got - 2010.06.03 11:33:40.
