data_PCOD9061028
_publ_section_title
;
Structure prediction by ZEFSAII (Michael W. Deem and Ramdas Pophale) SiO2 
 PCOD9061028
Probable space group: P -1
;
_chemical_formula_sum "Si O2"
_cell_formula_units_Z 14
_cell_length_a 8.909139
_cell_length_b 18.485984
_cell_length_c 12.494772
_cell_angle_alpha 39.764559
_cell_angle_beta 47.406509
_cell_angle_gamma 29.314466
_cell_volume 644.298707
_symmetry_space_group_name_H-M "P -1"
_symmetry_group_IT_number 2
_symmetry_cell_setting 'triclinic'
loop_
_space_group_symop_operation_xyz
x,y,z
-x,-y,-z
loop_
_atom_site_type_symbol
_atom_site_label
_atom_site_fract_x
_atom_site_fract_y
_atom_site_fract_z
Si Si1 0.736907 0.651805 0.579373
Si Si2 0.589436 0.536822 0.514519
Si Si3 0.011782 0.901137 0.367494
Si Si4 0.265396 0.049195 0.326100
Si Si5 0.776177 0.383495 0.795622
Si Si6 0.229566 0.765750 0.833642
Si Si7 0.159254 0.055504 0.838381
O O1 0.826096 0.497657 0.652110
O O2 0.553636 0.680652 0.736956
O O3 0.054200 0.581081 0.531804
O O4 0.489215 0.845588 0.431125
O O5 0.500000 0.500000 0.500000
O O6 0.373986 0.734481 0.394128
O O7 0.511928 0.496851 0.704465
O O8 0.853052 0.915786 0.534249
O O9 0.910841 0.890534 0.314738
O O10 0.932145 0.065469 0.217339
O O11 0.983597 0.166779 0.244706
O O12 0.476738 0.072594 0.182633
O O13 0.017273 0.202937 0.824154
O O14 0.729561 0.353383 0.969015
O O15 0.000000 0.000000 0.000000
#
# Coordination Sequence:
#
# PCOD9061028 Si02
#       7
#     2   2   2   2   2   2   2
#     4  11  24  45  71 100 134 177 229 277 334 398
#     4  12  24  43  68 102 135 176 227 276 335 404
#     4  11  23  44  71  96 136 177 229 273 332 410
#     4  11  24  46  72  99 130 183 230 274 331 411
#     4  12  24  43  68  99 142 171 223 282 340 390
#     4  11  25  45  69 100 137 176 225 280 338 401
#     4  12  25  44  66 105 140 175 222 284 342 391
#
# _framework density 21.729051999999999
#
# number of rings (size 3 to 8) (size 9 to 14) (size 15 to 20)
#    0.000    0.571    4.286    4.714    2.000    2.857 
#    0.000    0.714    0.000    0.000    0.000    0.000 
#    0.000    0.000    0.000    0.000    0.000    0.000 
#
# Total GULP energy -78064.231902 kJ/mol
# GULP energy per Si atom -5576.016564 kJ/mol
# Density = 2.167960 g / cm^3
# Si number density = 21.729052 Si / 1000 Ang^3
#
#
#
# Elastic Constant Matrix: (Units=GPa)
#
#
# Indices 1 2 3 4 5 6 
#
# 1 91.7155 52.5480 59.1178 23.4455 17.7346 2.9131
# 2 52.5480 105.7660 51.2303 2.6523 2.4641 2.7984
# 3 59.1178 51.2303 133.7753 14.8668 -2.8405 4.9295
# 4 23.4455 2.6523 14.8668 22.4199 3.0372 0.8555
# 5 17.7346 2.4641 -2.8405 3.0372 34.9469 2.1743
# 6 2.9131 2.7984 4.9295 0.8555 2.1743 35.6837
#
#
#
# Elastic Compliance Matrix: (Units=1/GPa)
#
#
# Indices 1 2 3 4 5 6 
#
# 1 0.030061 -0.010751 -0.006812 -0.023911 -0.013016 0.000696
# 2 -0.010751 0.015581 -0.002294 0.010494 0.003289 -0.000479
# 3 -0.006812 -0.002294 0.011605 -0.000895 0.004710 -0.001133
# 4 -0.023911 0.010494 -0.000895 0.068251 0.005434 -0.000715
# 5 -0.013016 0.003289 0.004710 0.005434 0.035030 -0.002111
# 6 0.000696 -0.000479 -0.001133 -0.000715 -0.002111 0.028307
#
#
# Mechanical properties :
#
#
# Convention : Reuss Voigt Hill
#
# Bulk Modulus (GPa) = 57.03859 73.00545 65.02202
# Shear Modulus (GPa) = 21.33145 29.83415 25.58280
#
# Velocity S-wave (km/s) = 3.13661 3.70943 3.43498
# Velocity P-wave (km/s) = 6.27891 7.21232 6.76174
#
# Compressibility (1/GPa) = 0.01753199
#
# Stress axis : x y z
#
# Youngs Moduli (GPa) = 33.26524 64.18206 86.16634
#
# Poissons Ratio (x) = 0.69005 0.58697
# Poissons Ratio (y) = 0.35765 0.19769
# Poissons Ratio (z) = 0.22661 0.14725
#
# Static dielectric constant tensor:
#      x y z
#    x 1.804820 0.038240 0.009950 
#    y 0.038240 1.875020 -0.021410 
#    z 0.009950 -0.021410 1.844500 
# 
# From -- ./inp_files/391255.got.cif
#   From: 2010.05.17/outbox.cif.g08.bks.cpg/sg2_196_cif.got.tgz:391255.got - 2010.06.03 11:33:40.
