data_PCOD9061376
_publ_section_title
;
Structure prediction by ZEFSAII (Michael W. Deem and Ramdas Pophale) SiO2 
 PCOD9061376
Probable space group: P -1
;
_chemical_formula_sum "Si O2"
_cell_formula_units_Z 16
_cell_length_a 11.251299
_cell_length_b 10.451575
_cell_length_c 22.084495
_cell_angle_alpha 146.324573
_cell_angle_beta 31.706738
_cell_angle_gamma 140.080860
_cell_volume 741.171993
_symmetry_space_group_name_H-M "P -1"
_symmetry_group_IT_number 2
_symmetry_cell_setting 'triclinic'
loop_
_space_group_symop_operation_xyz
x,y,z
-x,-y,-z
loop_
_atom_site_type_symbol
_atom_site_label
_atom_site_fract_x
_atom_site_fract_y
_atom_site_fract_z
Si Si1 0.468021 0.111074 0.229387
Si Si2 0.866052 0.200278 0.655982
Si Si3 0.191131 0.849280 0.672683
Si Si4 0.564528 0.426804 0.631272
Si Si5 0.069629 0.308810 0.849455
Si Si6 0.716974 0.466145 0.716365
Si Si7 0.711505 0.376110 0.338976
Si Si8 0.565720 0.163615 0.977684
O O1 0.343326 0.312128 0.333699
O O2 0.554884 0.976623 0.082909
O O3 0.651756 0.253607 0.252452
O O4 0.305076 0.913377 0.261946
O O5 0.742241 0.269663 0.676645
O O6 0.054032 0.427759 0.684826
O O7 0.000000 0.000000 0.500000
O O8 0.377249 0.767307 0.515728
O O9 0.265257 0.816208 0.696005
O O10 0.955039 0.658422 0.689588
O O11 0.292544 0.410608 0.752921
O O12 0.666930 0.394828 0.640475
O O13 0.841729 0.208876 0.869800
O O14 0.000000 0.500000 0.000000
O O15 0.141341 0.099670 0.774770
O O16 0.519888 0.598282 0.877674
O O17 0.500000 0.500000 0.500000
O O18 0.500000 0.000000 0.000000
#
# Coordination Sequence:
#
# PCOD9061376 Si02
#       8
#     2   2   2   2   2   2   2   2
#     4  12  25  44  74  99 146 195 234 303 357 436
#     4  11  25  45  73 105 147 194 235 301 369 429
#     4  11  24  43  71 107 145 189 241 305 359 433
#     4  12  24  43  74 111 141 188 250 301 366 429
#     4  12  25  43  72 108 148 189 237 306 366 430
#     4  11  24  47  73 102 146 189 245 300 363 435
#     4  11  23  45  69 104 149 186 238 296 368 435
#     4  12  24  48  72 100 145 194 241 300 367 432
#
# _framework density 21.587433000000001
#
# number of rings (size 3 to 8) (size 9 to 14) (size 15 to 20)
#    0.000    0.500    6.250    1.500    3.500    1.500 
#    0.000    2.500    0.000    0.000    0.000    0.000 
#    0.000    0.000    0.000    0.000    0.000    0.000 
#
# Total GULP energy -89567.942137 kJ/mol
# GULP energy per Si atom -5597.996384 kJ/mol
# Density = 2.153830 g / cm^3
# Si number density = 21.587433 Si / 1000 Ang^3
#
#
#
# Elastic Constant Matrix: (Units=GPa)
#
#
# Indices 1 2 3 4 5 6 
#
# 1 136.6525 54.7072 39.1420 -3.0352 19.2460 -20.7611
# 2 54.7072 124.1201 37.4814 0.2935 2.0065 -21.5091
# 3 39.1420 37.4814 98.0218 11.4532 9.4038 -25.2094
# 4 -3.0352 0.2935 11.4532 32.8309 -4.7048 -7.6684
# 5 19.2460 2.0065 9.4038 -4.7048 45.5667 4.7090
# 6 -20.7611 -21.5091 -25.2094 -7.6684 4.7090 45.3738
#
#
#
# Elastic Compliance Matrix: (Units=1/GPa)
#
#
# Indices 1 2 3 4 5 6 
#
# 1 0.010221 -0.003401 -0.001918 0.001718 -0.003872 0.002691
# 2 -0.003401 0.010640 -0.002407 0.001139 0.001355 0.002202
# 3 -0.001918 -0.002407 0.014052 -0.004227 -0.002977 0.005383
# 4 0.001718 0.001139 -0.004227 0.033538 0.003113 0.004322
# 5 -0.003872 0.001355 -0.002977 0.003113 0.024958 -0.004847
# 6 0.002691 0.002202 0.005383 0.004322 -0.004847 0.028539
#
#
# Mechanical properties :
#
#
# Convention : Reuss Voigt Hill
#
# Bulk Modulus (GPa) = 51.38615 69.05062 60.21838
# Shear Modulus (GPa) = 34.74946 39.91852 37.33399
#
# Velocity S-wave (km/s) = 4.01647 4.30485 4.16316
# Velocity P-wave (km/s) = 6.73534 7.53425 7.14597
#
# Compressibility (1/GPa) = 0.01946050
#
# Stress axis : x y z
#
# Youngs Moduli (GPa) = 97.83608 93.98883 71.16390
#
# Poissons Ratio (x) = 0.31965 0.13651
# Poissons Ratio (y) = 0.33274 0.17129
# Poissons Ratio (z) = 0.18767 0.22623
#
# Static dielectric constant tensor:
#      x y z
#    x 1.709970 0.085550 -0.039140 
#    y 0.085550 1.763110 0.017960 
#    z -0.039140 0.017960 1.740060 
# 
# From -- ./inp_files/593825.got.cif
#   From: 2010.05.17/outbox.cif.g08.bks.cpg/sg2_297_cif.got.tgz:593825.got - 2010.06.03 11:33:40.
