data_PCOD9061726
_publ_section_title
;
Structure prediction by ZEFSAII (Michael W. Deem and Ramdas Pophale) SiO2 
 PCOD9061726
Probable space group: P -1
;
_chemical_formula_sum "Si O2"
_cell_formula_units_Z 15
_cell_length_a 11.847839
_cell_length_b 10.771896
_cell_length_c 9.980079
_cell_angle_alpha 90.580149
_cell_angle_beta 36.243499
_cell_angle_gamma 76.854130
_cell_volume 690.616167
_symmetry_space_group_name_H-M "P -1"
_symmetry_group_IT_number 2
_symmetry_cell_setting 'triclinic'
loop_
_space_group_symop_operation_xyz
x,y,z
-x,-y,-z
loop_
_atom_site_type_symbol
_atom_site_label
_atom_site_fract_x
_atom_site_fract_y
_atom_site_fract_z
Si Si1 0.104942 0.761289 0.433229
Si Si2 0.864082 0.710649 0.911192
Si Si3 0.808187 0.361229 0.200185
Si Si4 0.469523 0.407576 0.732040
Si Si5 0.197271 0.001887 0.451099
Si Si6 0.107939 0.901862 0.018063
Si Si7 0.566681 0.002209 0.283168
Si Si8 0.500000 0.500000 0.000000
O O1 0.997842 0.708700 0.652869
O O2 0.903988 0.872420 0.551258
O O3 0.228914 0.856049 0.358533
O O4 0.271756 0.632532 0.195120
O O5 0.017789 0.618360 0.876660
O O6 0.669871 0.669262 0.080757
O O7 0.763713 0.863771 0.062757
O O8 0.668959 0.324451 0.446285
O O9 0.670123 0.482741 0.240214
O O10 0.909742 0.236684 0.001836
O O11 0.528607 0.468118 0.809036
O O12 0.391824 0.008316 0.344692
O O13 0.015256 0.030555 0.732477
O O14 0.346640 0.880950 0.807660
O O15 0.000000 0.000000 0.000000
O O16 0.500000 0.000000 0.500000
#
# Coordination Sequence:
#
# PCOD9061726 Si02
#       8
#     2   2   2   2   2   2   2   1
#     4  11  25  46  71  94 146 186 230 290 347 414
#     4  12  23  44  70 100 134 182 232 281 346 411
#     4  11  23  46  67 104 134 181 225 288 343 405
#     4  11  26  43  72  95 139 180 233 281 341 415
#     4  11  24  46  64 106 141 180 227 290 351 411
#     4  12  21  40  71 100 137 173 225 282 348 411
#     4  12  23  36  70 106 133 176 223 283 345 417
#     4  12  24  48  68  98 132 198 228 278 350 418
#
# _framework density 21.719736000000001
#
# number of rings (size 3 to 8) (size 9 to 14) (size 15 to 20)
#    0.000    0.533    5.333    2.800    0.000    1.067 
#    4.800    1.333    0.000    0.000    0.000    0.000 
#    0.000    0.000    0.000    0.000    0.000    0.000 
#
# Total GULP energy -83510.651090 kJ/mol
# GULP energy per Si atom -5567.376739 kJ/mol
# Density = 2.167030 g / cm^3
# Si number density = 21.719736 Si / 1000 Ang^3
#
#
#
# Elastic Constant Matrix: (Units=GPa)
#
#
# Indices 1 2 3 4 5 6 
#
# 1 121.7005 6.3078 3.8953 -16.3593 -14.8489 -16.8031
# 2 6.3078 43.3922 13.7660 -5.3369 0.9289 -11.2306
# 3 3.8953 13.7660 78.1708 7.9689 6.8454 7.6533
# 4 -16.3593 -5.3369 7.9689 30.9451 3.3107 0.6801
# 5 -14.8489 0.9289 6.8454 3.3107 34.9462 -0.9420
# 6 -16.8031 -11.2306 7.6533 0.6801 -0.9420 26.8841
#
#
#
# Elastic Compliance Matrix: (Units=1/GPa)
#
#
# Indices 1 2 3 4 5 6 
#
# 1 0.010746 0.002138 -0.002766 0.006074 0.004702 0.008408
# 2 0.002138 0.030385 -0.007963 0.007922 0.001345 0.016143
# 3 -0.002766 -0.007963 0.016264 -0.006405 -0.003803 -0.009657
# 4 0.006074 0.007922 -0.006405 0.038345 0.000207 0.007966
# 5 0.004702 0.001345 -0.003803 0.000207 0.031456 0.005681
# 6 0.008408 0.016143 -0.009657 0.007966 0.005681 0.051942
#
#
# Mechanical properties :
#
#
# Convention : Reuss Voigt Hill
#
# Bulk Modulus (GPa) = 24.86834 32.35575 28.61205
# Shear Modulus (GPa) = 23.84084 33.17472 28.50778
#
# Velocity S-wave (km/s) = 3.31669 3.91244 3.62681
# Velocity P-wave (km/s) = 5.11290 5.94465 5.54439
#
# Compressibility (1/GPa) = 0.04021176
#
# Stress axis : x y z
#
# Youngs Moduli (GPa) = 93.06048 32.91120 61.48517
#
# Poissons Ratio (x) = -0.07036 0.17007
# Poissons Ratio (y) = -0.19896 0.48962
# Poissons Ratio (z) = 0.25742 0.26208
#
# Static dielectric constant tensor:
#      x y z
#    x 1.831530 -0.023710 -0.053190 
#    y -0.023710 1.848340 -0.007180 
#    z -0.053190 -0.007180 1.762590 
# 
# From -- ./inp_files/258373.got.cif
#   From: 2010.05.17/outbox.cif.g08.bks.cpg/sg2_130_cif.got.tgz:258373.got - 2010.06.03 11:33:40.
