data_PCOD9061160
_publ_section_title
;
Structure prediction by ZEFSAII (Michael W. Deem and Ramdas Pophale) SiO2 
 PCOD9061160
Probable space group: P -1
;
_chemical_formula_sum "Si O2"
_cell_formula_units_Z 11
_cell_length_a 13.548875
_cell_length_b 10.476012
_cell_length_c 8.694253
_cell_angle_alpha 54.157789
_cell_angle_beta 139.584480
_cell_angle_gamma 149.394041
_cell_volume 398.141782
_symmetry_space_group_name_H-M "P -1"
_symmetry_group_IT_number 2
_symmetry_cell_setting 'triclinic'
loop_
_space_group_symop_operation_xyz
x,y,z
-x,-y,-z
loop_
_atom_site_type_symbol
_atom_site_label
_atom_site_fract_x
_atom_site_fract_y
_atom_site_fract_z
Si Si1 0.200253 0.105767 0.849835
Si Si2 0.000000 0.500000 0.500000
Si Si3 0.410691 0.663043 0.064973
Si Si4 0.606284 0.927539 0.606929
Si Si5 0.142615 0.449328 0.202139
Si Si6 0.126259 0.855172 0.538713
O O1 0.039663 0.839360 0.760022
O O2 0.429447 0.330335 0.849646
O O3 0.023977 0.107914 0.669971
O O4 0.294882 0.103613 0.120006
O O5 0.963706 0.570558 0.576878
O O6 0.269030 0.649446 0.782775
O O7 0.220243 0.456827 0.115987
O O8 0.617275 0.924920 0.224380
O O9 0.399267 0.673423 0.438676
O O10 0.500000 0.000000 0.500000
O O11 0.823099 0.152925 0.579303
O O12 0.000000 0.500000 0.000000
#
# Coordination Sequence:
#
# PCOD9061160 Si02
#       6
#     2   1   2   2   2   2
#     4  12  26  47  76 107 147 189 240 297 357 431
#     4  12  26  44  76 100 146 188 242 294 356 418
#     4  11  28  47  74 108 142 190 243 299 356 431
#     4  11  23  44  73 110 143 190 243 290 356 434
#     4  11  26  45  74 105 144 188 235 297 361 416
#     4  11  27  47  70 109 149 188 240 299 359 428
#
# _framework density 27.628350000000001
#
# number of rings (size 3 to 8) (size 9 to 14) (size 15 to 20)
#    0.000    0.727    1.818    3.818    7.636    5.091 
#    0.000    1.818    0.000    0.000    0.000    0.000 
#    0.000    0.000    0.000    0.000    0.000    0.000 
#
# Total GULP energy -61585.544793 kJ/mol
# GULP energy per Si atom -5598.685890 kJ/mol
# Density = 2.756547 g / cm^3
# Si number density = 27.628350 Si / 1000 Ang^3
#
#
#
# Elastic Constant Matrix: (Units=GPa)
#
#
# Indices 1 2 3 4 5 6 
#
# 1 140.8797 38.0844 40.3759 -10.3001 21.3111 28.0667
# 2 38.0844 111.2828 57.2642 9.3192 18.1937 -15.1658
# 3 40.3759 57.2642 225.7081 29.1215 7.6668 -21.6138
# 4 -10.3001 9.3192 29.1215 46.0561 -16.4990 -5.2617
# 5 21.3111 18.1937 7.6668 -16.4990 51.9152 -16.3733
# 6 28.0667 -15.1658 -21.6138 -5.2617 -16.3733 58.3839
#
#
#
# Elastic Compliance Matrix: (Units=1/GPa)
#
#
# Indices 1 2 3 4 5 6 
#
# 1 0.011059 -0.003155 -0.001986 0.001557 -0.005231 -0.008198
# 2 -0.003155 0.012021 -0.001778 -0.002565 -0.002509 0.003046
# 3 -0.001986 -0.001778 0.005908 -0.003458 0.000234 0.002434
# 4 0.001557 -0.002565 -0.003458 0.029026 0.010938 0.002989
# 5 -0.005231 -0.002509 0.000234 0.010938 0.029243 0.011136
# 6 -0.008198 0.003046 0.002434 0.002989 0.011136 0.026154
#
#
# Mechanical properties :
#
#
# Convention : Reuss Voigt Hill
#
# Bulk Modulus (GPa) = 66.00409 83.25775 74.63092
# Shear Modulus (GPa) = 37.79373 54.08080 45.93727
#
# Velocity S-wave (km/s) = 3.70257 4.42909 4.08203
# Velocity P-wave (km/s) = 6.49773 7.50707 7.02057
#
# Compressibility (1/GPa) = 0.01515058
#
# Stress axis : x y z
#
# Youngs Moduli (GPa) = 90.42684 83.18955 169.26088
#
# Poissons Ratio (x) = 0.26246 0.33614
# Poissons Ratio (y) = 0.28529 0.30086
# Poissons Ratio (z) = 0.17958 0.14787
#
# Static dielectric constant tensor:
#      x y z
#    x 2.451740 0.009740 -0.074210 
#    y 0.009740 3.364820 -0.232810 
#    z -0.074210 -0.232810 2.066410 
# 
# From -- ./inp_files/154474.got.cif
#   From: 2010.05.17/outbox.cif.g08.bks.cpg/sg2_78_cif.got.tgz:154474.got - 2010.06.03 11:33:40.
