data_PCOD9061374
_publ_section_title
;
Structure prediction by ZEFSAII (Michael W. Deem and Ramdas Pophale) SiO2 
 PCOD9061374
Probable space group: P -1
;
_chemical_formula_sum "Si O2"
_cell_formula_units_Z 16
_cell_length_a 16.388911
_cell_length_b 5.483222
_cell_length_c 14.634675
_cell_angle_alpha 59.724319
_cell_angle_beta 142.454321
_cell_angle_gamma 121.021181
_cell_volume 675.214979
_symmetry_space_group_name_H-M "P -1"
_symmetry_group_IT_number 2
_symmetry_cell_setting 'triclinic'
loop_
_space_group_symop_operation_xyz
x,y,z
-x,-y,-z
loop_
_atom_site_type_symbol
_atom_site_label
_atom_site_fract_x
_atom_site_fract_y
_atom_site_fract_z
Si Si1 0.299024 0.368745 0.444464
Si Si2 0.087930 0.761812 0.640363
Si Si3 0.159801 0.528413 0.112666
Si Si4 0.375073 0.928100 0.971566
Si Si5 0.453284 0.919565 0.576528
Si Si6 0.924779 0.183217 0.583611
Si Si7 0.195308 0.078234 0.910243
Si Si8 0.308503 0.361078 0.121443
O O1 0.239077 0.535418 0.277589
O O2 0.348047 0.606227 0.523361
O O3 0.409601 0.193202 0.534229
O O4 0.183891 0.090243 0.425015
O O5 0.232721 0.835992 0.805816
O O6 0.125298 0.711600 0.576588
O O7 0.976294 0.481043 0.629076
O O8 0.000000 0.000000 0.500000
O O9 0.228415 0.305178 0.156907
O O10 0.000000 0.500000 0.000000
O O11 0.184030 0.776662 0.009641
O O12 0.334508 0.166155 0.958509
O O13 0.392629 0.675960 0.105249
O O14 0.500000 0.000000 0.000000
O O15 0.585435 0.845632 0.755731
O O16 0.500000 0.000000 0.500000
O O17 0.067008 0.072970 0.732626
O O18 0.195443 0.283543 0.957306
#
# Coordination Sequence:
#
# PCOD9061374 Si02
#       8
#     2   2   2   2   2   2   2   2
#     4  12  28  46  77 112 145 201 251 308 366 464
#     4  11  24  46  72  99 144 189 241 316 380 439
#     4  11  24  43  72 106 144 187 241 300 368 444
#     4  11  26  43  71 103 141 190 248 307 377 456
#     4  12  27  48  72 106 155 198 245 299 377 446
#     4  11  25  44  72 105 139 189 251 309 379 441
#     4  11  23  45  69 103 143 186 240 307 375 439
#     4  11  26  44  71 100 145 195 236 306 371 447
#
# _framework density 23.696158
#
# number of rings (size 3 to 8) (size 9 to 14) (size 15 to 20)
#    0.000    0.750    5.000    1.125    7.000    2.000 
#    0.000    0.000    0.000    0.000    0.000    0.000 
#    0.000    0.000    0.000    0.000    0.000    0.000 
#
# Total GULP energy -89089.534938 kJ/mol
# GULP energy per Si atom -5568.095934 kJ/mol
# Density = 2.364222 g / cm^3
# Si number density = 23.696158 Si / 1000 Ang^3
#
#
#
# Elastic Constant Matrix: (Units=GPa)
#
#
# Indices 1 2 3 4 5 6 
#
# 1 86.6506 7.7822 7.5170 7.1584 13.7495 21.9059
# 2 7.7822 85.4032 15.4115 -6.6698 10.5211 13.9519
# 3 7.5170 15.4115 126.4380 -5.1450 1.9542 -5.9067
# 4 7.1584 -6.6698 -5.1450 36.8181 -8.1566 -4.5160
# 5 13.7495 10.5211 1.9542 -8.1566 41.0880 4.0067
# 6 21.9059 13.9519 -5.9067 -4.5160 4.0067 33.8263
#
#
#
# Elastic Compliance Matrix: (Units=1/GPa)
#
#
# Indices 1 2 3 4 5 6 
#
# 1 0.015714 0.000894 -0.001702 -0.005686 -0.005467 -0.010954
# 2 0.000894 0.013355 -0.001891 0.000598 -0.002926 -0.005991
# 3 -0.001702 -0.001891 0.008466 0.001748 0.000655 0.003516
# 4 -0.005686 0.000598 0.001748 0.031066 0.007147 0.007042
# 5 -0.005467 -0.002926 0.000655 0.007147 0.028061 0.002492
# 6 -0.010954 -0.005991 0.003516 0.007042 0.002492 0.040387
#
#
# Mechanical properties :
#
#
# Convention : Reuss Voigt Hill
#
# Bulk Modulus (GPa) = 31.11643 39.99033 35.55338
# Shear Modulus (GPa) = 32.64572 40.19857 36.42214
#
# Velocity S-wave (km/s) = 3.71574 4.12323 3.92477
# Velocity P-wave (km/s) = 5.61862 6.29134 5.96447
#
# Compressibility (1/GPa) = 0.03213736
#
# Stress axis : x y z
#
# Youngs Moduli (GPa) = 63.63563 74.87882 118.11978
#
# Poissons Ratio (x) = -0.06695 0.20102
# Poissons Ratio (y) = -0.05690 0.22340
# Poissons Ratio (z) = 0.10830 0.14162
#
# Static dielectric constant tensor:
#      x y z
#    x 2.034380 -0.155640 0.038900 
#    y -0.155640 2.160300 -0.041320 
#    z 0.038900 -0.041320 1.907940 
# 
# From -- ./inp_files/98247.got.cif
#   From: 2010.05.17/outbox.cif.g08.bks.cpg/sg2_50_cif.got.tgz:98247.got - 2010.06.03 11:33:40.
