data_PCOD9061094
_publ_section_title
;
Structure prediction by ZEFSAII (Michael W. Deem and Ramdas Pophale) SiO2 
 PCOD9061094
Probable space group: P -1
;
_chemical_formula_sum "Si O2"
_cell_formula_units_Z 16
_cell_length_a 12.160030
_cell_length_b 10.095539
_cell_length_c 9.429978
_cell_angle_alpha 89.180764
_cell_angle_beta 104.717248
_cell_angle_gamma 145.411397
_cell_volume 594.239823
_symmetry_space_group_name_H-M "P -1"
_symmetry_group_IT_number 2
_symmetry_cell_setting 'triclinic'
loop_
_space_group_symop_operation_xyz
x,y,z
-x,-y,-z
loop_
_atom_site_type_symbol
_atom_site_label
_atom_site_fract_x
_atom_site_fract_y
_atom_site_fract_z
Si Si1 0.675197 0.851647 0.692481
Si Si2 0.721457 0.761726 0.139631
Si Si3 0.691987 0.259063 0.981973
Si Si4 0.852800 0.317559 0.758041
Si Si5 0.027526 0.361136 0.437114
Si Si6 0.855464 0.730455 0.757097
Si Si7 0.276137 0.508943 0.773424
Si Si8 0.575218 0.808156 0.334267
O O1 0.755214 0.778549 0.727966
O O2 0.490228 0.690891 0.751301
O O3 0.591136 0.787737 0.505005
O O4 0.822035 0.128749 0.752650
O O5 0.834618 0.740279 0.230935
O O6 0.660833 0.780913 0.258214
O O7 0.500000 0.500000 0.000000
O O8 0.902243 0.017976 0.104651
O O9 0.679940 0.205492 0.814010
O O10 0.681996 0.388773 0.060258
O O11 0.915334 0.419538 0.106348
O O12 0.500000 0.000000 0.000000
O O13 0.856525 0.405990 0.613814
O O14 0.096469 0.293387 0.378141
O O15 0.130178 0.453400 0.624556
O O16 0.766453 0.104996 0.363190
O O17 0.681965 0.461132 0.773358
#
# Coordination Sequence:
#
# PCOD9061094 Si02
#       8
#     2   2   2   2   2   2   2   2
#     4  12  23  46  79 110 148 197 254 309 385 448
#     4  11  26  45  70 111 153 201 253 307 384 458
#     4  11  25  48  74 102 152 205 248 311 377 452
#     4  11  27  49  74 113 149 201 256 311 382 458
#     4  11  26  46  77 114 151 193 258 314 379 451
#     4  11  23  45  75 110 148 193 244 316 373 450
#     4  12  24  47  75 109 151 201 251 316 382 450
#     4  11  23  44  72 109 148 193 243 311 374 446
#
# _framework density 26.925158
#
# number of rings (size 3 to 8) (size 9 to 14) (size 15 to 20)
#    0.000    0.750    3.750    3.375    0.000    9.000 
#    0.000    0.000    0.000    0.000    0.000    0.000 
#    0.000    0.000    0.000    0.000    0.000    0.000 
#
# Total GULP energy -89400.791792 kJ/mol
# GULP energy per Si atom -5587.549487 kJ/mol
# Density = 2.686387 g / cm^3
# Si number density = 26.925158 Si / 1000 Ang^3
#
#
#
# Elastic Constant Matrix: (Units=GPa)
#
#
# Indices 1 2 3 4 5 6 
#
# 1 109.7654 60.5155 39.3855 -2.7436 -22.2430 1.3170
# 2 60.5155 187.3221 63.3279 13.7747 -10.7398 30.6513
# 3 39.3855 63.3279 114.1939 -7.2281 -21.7408 -3.3346
# 4 -2.7436 13.7747 -7.2281 53.3051 1.8444 -2.2729
# 5 -22.2430 -10.7398 -21.7408 1.8444 34.3401 -2.1407
# 6 1.3170 30.6513 -3.3346 -2.2729 -2.1407 44.7689
#
#
#
# Elastic Compliance Matrix: (Units=1/GPa)
#
#
# Indices 1 2 3 4 5 6 
#
# 1 0.013037 -0.004149 -0.000726 0.001530 0.006780 0.002805
# 2 -0.004149 0.009590 -0.004900 -0.003555 -0.003044 -0.007134
# 3 -0.000726 -0.004900 0.013306 0.003012 0.006561 0.004834
# 4 0.001530 -0.003555 0.003012 0.020291 0.000926 0.003688
# 5 0.006780 -0.003044 0.006561 0.000926 0.036925 0.004186
# 6 0.002805 -0.007134 0.004834 0.003688 0.004186 0.027887
#
#
# Mechanical properties :
#
#
# Convention : Reuss Voigt Hill
#
# Bulk Modulus (GPa) = 61.04250 81.97100 71.50675
# Shear Modulus (GPa) = 34.23621 43.01966 38.62794
#
# Velocity S-wave (km/s) = 3.56972 4.00152 3.79177
# Velocity P-wave (km/s) = 6.30166 7.20137 6.76649
#
# Compressibility (1/GPa) = 0.01638203
#
# Stress axis : x y z
#
# Youngs Moduli (GPa) = 76.70720 104.28061 75.15585
#
# Poissons Ratio (x) = 0.43264 0.05457
# Poissons Ratio (y) = 0.31824 0.36826
# Poissons Ratio (z) = 0.05570 0.51097
#
# Static dielectric constant tensor:
#      x y z
#    x 2.158230 0.025740 0.022260 
#    y 0.025740 2.091950 0.033960 
#    z 0.022260 0.033960 1.983220 
# 
# From -- ./inp_files/453978.got.cif
#   From: 2010.05.17/outbox.cif.g08.bks.cpg/sg2_227_cif.got.tgz:453978.got - 2010.06.03 11:33:40.
