data_PCOD9061654
_publ_section_title
;
Structure prediction by ZEFSAII (Michael W. Deem and Ramdas Pophale) SiO2 
 PCOD9061654
Probable space group: P -1
;
_chemical_formula_sum "Si O2"
_cell_formula_units_Z 14
_cell_length_a 7.560868
_cell_length_b 19.974872
_cell_length_c 15.084251
_cell_angle_alpha 24.455787
_cell_angle_beta 142.146312
_cell_angle_gamma 143.277376
_cell_volume 547.145031
_symmetry_space_group_name_H-M "P -1"
_symmetry_group_IT_number 2
_symmetry_cell_setting 'triclinic'
loop_
_space_group_symop_operation_xyz
x,y,z
-x,-y,-z
loop_
_atom_site_type_symbol
_atom_site_label
_atom_site_fract_x
_atom_site_fract_y
_atom_site_fract_z
Si Si1 0.729382 0.072527 0.827710
Si Si2 0.447599 0.351709 0.030095
Si Si3 0.507454 0.337956 0.443685
Si Si4 0.155796 0.839365 0.677191
Si Si5 0.712471 0.550830 0.607678
Si Si6 0.124986 0.784279 0.938319
Si Si7 0.660148 0.194833 0.459894
O O1 0.739880 0.238696 0.687767
O O2 0.632748 0.152799 0.603548
O O3 0.452930 0.910457 0.942864
O O4 0.000000 0.000000 0.000000
O O5 0.677468 0.296967 0.122068
O O6 0.570522 0.335151 0.197706
O O7 0.108306 0.221551 0.067859
O O8 0.424399 0.529511 0.771505
O O9 0.482495 0.453928 0.376953
O O10 0.161431 0.207760 0.444560
O O11 0.074129 0.836011 0.753839
O O12 0.420447 0.016588 0.545098
O O13 0.500000 0.500000 0.500000
O O14 0.972922 0.736253 0.486141
O O15 0.869186 0.405470 0.845439
#
# Coordination Sequence:
#
# PCOD9061654 Si02
#       7
#     2   2   2   2   2   2   2
#     4  11  26  50  73 109 156 208 260 305 372 467
#     4  12  23  43  79 120 149 191 246 323 396 447
#     4  12  25  47  79 113 153 201 256 317 385 453
#     4  11  23  45  75 121 154 188 253 320 389 463
#     4  12  26  48  70 108 153 207 260 308 366 458
#     4  11  25  45  73 111 161 191 245 323 385 448
#     4  11  24  44  77 109 156 191 249 315 386 444
#
# _framework density 25.587364999999998
#
# number of rings (size 3 to 8) (size 9 to 14) (size 15 to 20)
#    0.000    0.571    2.857    5.143    2.000    4.000 
#    5.143    3.571    0.000    0.000    0.000    0.000 
#    0.000    0.000    0.000    0.000    0.000    0.000 
#
# Total GULP energy -78130.294178 kJ/mol
# GULP energy per Si atom -5580.735298 kJ/mol
# Density = 2.552913 g / cm^3
# Si number density = 25.587365 Si / 1000 Ang^3
#
#
#
# Elastic Constant Matrix: (Units=GPa)
#
#
# Indices 1 2 3 4 5 6 
#
# 1 97.7979 30.1654 29.3169 1.4646 5.9120 26.2685
# 2 30.1654 97.2591 55.5118 0.0370 -19.5843 33.9324
# 3 29.3169 55.5118 141.5417 -11.1061 22.7480 15.9497
# 4 1.4646 0.0370 -11.1061 29.4318 4.0046 -4.4666
# 5 5.9120 -19.5843 22.7480 4.0046 46.5959 7.5672
# 6 26.2685 33.9324 15.9497 -4.4666 7.5672 40.3056
#
#
#
# Elastic Compliance Matrix: (Units=1/GPa)
#
#
# Indices 1 2 3 4 5 6 
#
# 1 0.013062 0.000824 -0.002544 -0.003179 0.001643 -0.008861
# 2 0.000824 0.037835 -0.017534 -0.015953 0.031097 -0.033057
# 3 -0.002544 -0.017534 0.016682 0.011167 -0.018511 0.014530
# 4 -0.003179 -0.015953 0.011167 0.043863 -0.018682 0.019452
# 5 0.001643 0.031097 -0.018511 -0.018682 0.050064 -0.031395
# 6 -0.008861 -0.033057 0.014530 0.019452 -0.031395 0.060716
#
#
# Mechanical properties :
#
#
# Convention : Reuss Voigt Hill
#
# Bulk Modulus (GPa) = 34.39668 62.95408 48.67538
# Shear Modulus (GPa) = 18.48984 38.04029 28.26507
#
# Velocity S-wave (km/s) = 2.69107 3.85994 3.32723
# Velocity P-wave (km/s) = 4.80914 6.67252 5.81594
#
# Compressibility (1/GPa) = 0.02907257
#
# Stress axis : x y z
#
# Youngs Moduli (GPa) = 76.55906 26.43072 59.94350
#
# Poissons Ratio (x) = -0.02179 0.15248
# Poissons Ratio (y) = -0.06311 1.05103
# Poissons Ratio (z) = 0.19475 0.46343
#
# Static dielectric constant tensor:
#      x y z
#    x 2.331700 -0.139960 0.150550 
#    y -0.139960 2.087430 -0.023820 
#    z 0.150550 -0.023820 2.154310 
# 
# From -- ./inp_files/563299.got.cif
#   From: 2010.05.17/outbox.cif.g08.bks.cpg/sg2_282_cif.got.tgz:563299.got - 2010.06.03 11:33:40.
