data_PCOD9061439
_publ_section_title
;
Structure prediction by ZEFSAII (Michael W. Deem and Ramdas Pophale) SiO2 
 PCOD9061439
Probable space group: P -1
;
_chemical_formula_sum "Si O2"
_cell_formula_units_Z 14
_cell_length_a 9.016268
_cell_length_b 22.273921
_cell_length_c 8.336942
_cell_angle_alpha 144.886847
_cell_angle_beta 121.685637
_cell_angle_gamma 46.274870
_cell_volume 692.698741
_symmetry_space_group_name_H-M "P -1"
_symmetry_group_IT_number 2
_symmetry_cell_setting 'triclinic'
loop_
_space_group_symop_operation_xyz
x,y,z
-x,-y,-z
loop_
_atom_site_type_symbol
_atom_site_label
_atom_site_fract_x
_atom_site_fract_y
_atom_site_fract_z
Si Si1 0.660387 0.532925 0.729776
Si Si2 0.849998 0.976224 0.763176
Si Si3 0.703845 0.499273 0.063279
Si Si4 0.924080 0.754519 0.137062
Si Si5 0.625102 0.896542 0.713425
Si Si6 0.499953 0.188031 0.824406
Si Si7 0.887357 0.661407 0.569414
O O1 0.500000 0.500000 0.500000
O O2 0.885822 0.449813 0.596736
O O3 0.694025 0.513424 0.896779
O O4 0.555637 0.675615 0.939939
O O5 0.952017 0.865858 0.448657
O O6 0.737594 0.939836 0.751710
O O7 0.690238 0.101230 0.854352
O O8 0.000000 0.000000 0.000000
O O9 0.743957 0.603705 0.384387
O O10 0.500000 0.500000 0.000000
O O11 0.899450 0.369193 0.946723
O O12 0.701055 0.796099 0.170584
O O13 0.915586 0.722897 0.878170
O O14 0.474550 0.877214 0.473743
O O15 0.784744 0.766273 0.603662
O O16 0.500000 0.000000 0.000000
#
# Coordination Sequence:
#
# PCOD9061439 Si02
#       7
#     2   2   2   2   2   2   2
#     4  12  26  43  70 104 140 180 229 283 340 410
#     4  11  26  46  69 101 135 180 229 287 339 407
#     4  12  26  44  69 105 140 179 229 282 347 406
#     4  11  24  44  71  99 138 184 225 277 345 407
#     4  11  23  45  70  97 132 182 229 278 338 408
#     4  11  23  45  70  96 139 181 226 275 347 410
#     4  12  24  46  71 103 140 181 230 283 342 408
#
# _framework density 20.210806999999999
#
# number of rings (size 3 to 8) (size 9 to 14) (size 15 to 20)
#    0.000    0.571    2.857    6.857    6.000    1.143 
#    2.571    1.429    0.000    0.000    0.000    0.000 
#    0.000    0.000    0.000    0.000    0.000    0.000 
#
# Total GULP energy -78289.189713 kJ/mol
# GULP energy per Si atom -5592.084980 kJ/mol
# Density = 2.016481 g / cm^3
# Si number density = 20.210807 Si / 1000 Ang^3
#
#
#
# Elastic Constant Matrix: (Units=GPa)
#
#
# Indices 1 2 3 4 5 6 
#
# 1 68.0579 42.7689 72.4595 -3.6228 3.3609 6.4208
# 2 42.7689 171.5145 34.8038 -40.7506 -16.5603 -4.0951
# 3 72.4595 34.8038 109.9467 -61.0636 -25.6167 -19.0650
# 4 -3.6228 -40.7506 -61.0636 6.8579 -23.4689 -9.2333
# 5 3.3609 -16.5603 -25.6167 -23.4689 15.9513 -13.6520
# 6 6.4208 -4.0951 -19.0650 -9.2333 -13.6520 22.9328
#
#
#
# Elastic Compliance Matrix: (Units=1/GPa)
#
#
# Indices 1 2 3 4 5 6 
#
# 1 0.018395 -0.000310 -0.003306 0.011380 0.008873 0.001911
# 2 -0.000310 0.006110 -0.003025 -0.000717 -0.001830 -0.002716
# 3 -0.003306 -0.003025 0.005221 -0.007848 -0.008695 -0.003610
# 4 0.011380 -0.000717 -0.007848 0.009464 -0.014232 -0.014501
# 5 0.008873 -0.001830 -0.008695 -0.014232 0.021452 -0.002999
# 6 0.001911 -0.002716 -0.003610 -0.014501 -0.002999 0.031961
#
#
# Mechanical properties :
#
#
# Convention : Reuss Voigt Hill
#
# Bulk Modulus (GPa) = 60.81262 72.17596 66.49429
# Shear Modulus (GPa) = 44.89715 22.44753 33.67234
#
# Velocity S-wave (km/s) = 4.71833 3.33629 4.08616
# Velocity P-wave (km/s) = 7.73550 7.11549 7.43196
#
# Compressibility (1/GPa) = 0.01644395
#
# Stress axis : x y z
#
# Youngs Moduli (GPa) = 54.36312 163.67544 191.52275
#
# Poissons Ratio (x) = 0.05072 0.63309
# Poissons Ratio (y) = 0.01685 0.57944
# Poissons Ratio (z) = 0.17970 0.49519
#
# Static dielectric constant tensor:
#      x y z
#    x 1.687000 -0.000300 -0.018460 
#    y -0.000300 1.668200 -0.015510 
#    z -0.018460 -0.015510 1.717120 
# 
# From -- ./inp_files/186299.got.cif
#   From: 2010.05.17/outbox.cif.g08.bks.cpg/sg2_94_cif.got.tgz:186299.got - 2010.06.03 11:33:40.
