data_PCOD9061885
_publ_section_title
;
Structure prediction by ZEFSAII (Michael W. Deem and Ramdas Pophale) SiO2 
 PCOD9061885
Probable space group: P -1
;
_chemical_formula_sum "Si O2"
_cell_formula_units_Z 14
_cell_length_a 13.877922
_cell_length_b 7.685375
_cell_length_c 14.862800
_cell_angle_alpha 74.075463
_cell_angle_beta 148.983347
_cell_angle_gamma 125.450701
_cell_volume 564.043359
_symmetry_space_group_name_H-M "P -1"
_symmetry_group_IT_number 2
_symmetry_cell_setting 'triclinic'
loop_
_space_group_symop_operation_xyz
x,y,z
-x,-y,-z
loop_
_atom_site_type_symbol
_atom_site_label
_atom_site_fract_x
_atom_site_fract_y
_atom_site_fract_z
Si Si1 0.317472 0.994973 0.537901
Si Si2 0.689884 0.776129 0.659352
Si Si3 0.230768 0.228607 0.074280
Si Si4 0.780893 0.246572 0.147750
Si Si5 0.221810 0.401501 0.797152
Si Si6 0.849034 0.431823 0.983764
Si Si7 0.247319 0.531948 0.602084
O O1 0.316705 0.782161 0.590221
O O2 0.037186 0.889762 0.354641
O O3 0.365437 0.079854 0.461232
O O4 0.546106 0.235294 0.743330
O O5 0.500000 0.500000 0.500000
O O6 0.655979 0.765113 0.740512
O O7 0.005260 0.955873 0.886634
O O8 0.092875 0.326522 0.970488
O O9 0.492186 0.411882 0.201344
O O10 0.787828 0.462256 0.149576
O O11 0.010767 0.309768 0.380900
O O12 0.851649 0.296211 0.090857
O O13 0.500000 0.000000 0.000000
O O14 0.176326 0.476675 0.657417
O O15 0.500000 0.500000 0.000000
O O16 0.000000 0.500000 0.000000
#
# Coordination Sequence:
#
# PCOD9061885 Si02
#       7
#     2   2   2   2   2   2   2
#     4  11  24  43  70  99 147 187 242 299 369 424
#     4  11  24  46  68 102 147 189 239 301 361 440
#     4  11  26  46  73 104 147 190 252 294 376 441
#     4  11  24  46  71 105 144 189 251 304 371 441
#     4  11  23  46  73 101 140 188 243 309 371 437
#     4  12  27  46  71 108 150 198 247 305 371 445
#     4  11  24  44  74 104 141 190 246 306 372 438
#
# _framework density 24.820789000000001
#
# number of rings (size 3 to 8) (size 9 to 14) (size 15 to 20)
#    0.000    0.857    1.429    6.857    6.000    1.714 
#    5.143    2.857    0.000    0.000    0.000    0.000 
#    0.000    0.000    0.000    0.000    0.000    0.000 
#
# Total GULP energy -78180.482714 kJ/mol
# GULP energy per Si atom -5584.320194 kJ/mol
# Density = 2.476430 g / cm^3
# Si number density = 24.820789 Si / 1000 Ang^3
#
#
#
# Elastic Constant Matrix: (Units=GPa)
#
#
# Indices 1 2 3 4 5 6 
#
# 1 134.2211 46.0319 46.7179 -5.5224 -6.8094 25.0227
# 2 46.0319 97.4749 35.6071 -2.9810 -24.6406 28.4877
# 3 46.7179 35.6071 166.5503 28.8030 -10.6369 4.0536
# 4 -5.5224 -2.9810 28.8030 55.8609 16.1540 -14.4213
# 5 -6.8094 -24.6406 -10.6369 16.1540 54.7984 -13.8914
# 6 25.0227 28.4877 4.0536 -14.4213 -13.8914 38.9458
#
#
#
# Elastic Compliance Matrix: (Units=1/GPa)
#
#
# Indices 1 2 3 4 5 6 
#
# 1 0.010129 -0.003184 -0.002495 0.001701 -0.002191 -0.004071
# 2 -0.003184 0.016061 -0.001615 -0.002293 0.005010 -0.008597
# 3 -0.002495 -0.001615 0.008005 -0.004851 0.002184 0.000934
# 4 0.001701 -0.002293 -0.004851 0.024454 -0.007035 0.007635
# 5 -0.002191 0.005010 0.002184 -0.007035 0.023568 0.003317
# 6 -0.004071 -0.008597 0.000934 0.007635 0.003317 0.038494
#
#
# Mechanical properties :
#
#
# Convention : Reuss Voigt Hill
#
# Bulk Modulus (GPa) = 51.00266 72.77335 61.88801
# Shear Modulus (GPa) = 35.25238 47.91364 41.58301
#
# Velocity S-wave (km/s) = 3.77274 4.39838 4.09752
# Velocity P-wave (km/s) = 6.29056 7.42815 6.88290
#
# Compressibility (1/GPa) = 0.01960682
#
# Stress axis : x y z
#
# Youngs Moduli (GPa) = 98.73090 62.26178 124.91979
#
# Poissons Ratio (x) = 0.19822 0.31172
# Poissons Ratio (y) = 0.31432 0.20175
# Poissons Ratio (z) = 0.24637 0.10055
#
# Static dielectric constant tensor:
#      x y z
#    x 2.042790 0.010330 0.010450 
#    y 0.010330 2.046000 0.026850 
#    z 0.010450 0.026850 1.993690 
# 
# From -- ./inp_files/529593.got.cif
#   From: 2010.05.17/outbox.cif.g08.bks.cpg/sg2_265_cif.got.tgz:529593.got - 2010.06.03 11:33:40.
