data_PCOD9061264
_publ_section_title
;
Structure prediction by ZEFSAII (Michael W. Deem and Ramdas Pophale) SiO2 
 PCOD9061264
Probable space group: P -1
;
_chemical_formula_sum "Si O2"
_cell_formula_units_Z 16
_cell_length_a 14.236974
_cell_length_b 12.944430
_cell_length_c 6.157465
_cell_angle_alpha 72.289948
_cell_angle_beta 54.038574
_cell_angle_gamma 46.335362
_cell_volume 654.417042
_symmetry_space_group_name_H-M "P -1"
_symmetry_group_IT_number 2
_symmetry_cell_setting 'triclinic'
loop_
_space_group_symop_operation_xyz
x,y,z
-x,-y,-z
loop_
_atom_site_type_symbol
_atom_site_label
_atom_site_fract_x
_atom_site_fract_y
_atom_site_fract_z
Si Si1 0.963225 0.790281 0.155736
Si Si2 0.590582 0.115209 0.897863
Si Si3 0.544033 0.587195 0.279475
Si Si4 0.215959 0.548868 0.639995
Si Si5 0.706549 0.830243 0.699958
Si Si6 0.015080 0.443129 0.267733
Si Si7 0.133115 0.962557 0.173812
Si Si8 0.777563 0.322465 0.817737
O O1 0.821473 0.796529 0.374169
O O2 0.047447 0.759397 0.289744
O O3 0.087060 0.653171 0.926403
O O4 0.935870 0.922931 0.998900
O O5 0.570346 0.249204 0.748305
O O6 0.743026 0.032934 0.889410
O O7 0.628046 0.994026 0.760822
O O8 0.423880 0.177691 0.176340
O O9 0.500000 0.500000 0.500000
O O10 0.641925 0.586393 0.337282
O O11 0.656778 0.473487 0.009459
O O12 0.253080 0.639922 0.417688
O O13 0.141349 0.529990 0.558170
O O14 0.817428 0.719302 0.819332
O O15 0.000000 0.500000 0.500000
O O16 0.000000 0.500000 0.000000
O O17 0.230302 0.800594 0.052403
O O18 0.000000 0.000000 0.500000
#
# Coordination Sequence:
#
# PCOD9061264 Si02
#       8
#     2   2   2   2   2   2   2   2
#     4  11  23  44  77 108 148 197 260 325 394 482
#     4  11  27  47  71 107 157 202 257 321 394 481
#     4  11  27  47  74 108 155 204 263 323 396 475
#     4  11  23  45  73 107 144 196 257 322 398 466
#     4  11  25  49  74 110 159 203 257 320 402 483
#     4  12  26  46  80 114 152 207 268 335 397 482
#     4  12  24  43  75 109 144 202 257 327 403 469
#     4  11  24  44  73 107 148 188 259 326 386 474
#
# _framework density 24.449241000000001
#
# number of rings (size 3 to 8) (size 9 to 14) (size 15 to 20)
#    0.000    0.750    2.500    4.125    7.000    2.500 
#    0.000    1.250    0.000    0.000    0.000    0.000 
#    0.000    0.000    0.000    0.000    0.000    0.000 
#
# Total GULP energy -89216.445355 kJ/mol
# GULP energy per Si atom -5576.027835 kJ/mol
# Density = 2.439359 g / cm^3
# Si number density = 24.449241 Si / 1000 Ang^3
#
#
#
# Elastic Constant Matrix: (Units=GPa)
#
#
# Indices 1 2 3 4 5 6 
#
# 1 95.8926 5.8801 19.1681 -0.3899 3.8041 6.0179
# 2 5.8801 100.4796 35.3560 -15.6105 11.0590 2.8637
# 3 19.1681 35.3560 124.0873 -24.9953 -13.2378 -13.9882
# 4 -0.3899 -15.6105 -24.9953 31.1233 0.0938 -1.5002
# 5 3.8041 11.0590 -13.2378 0.0938 33.2519 -0.5210
# 6 6.0179 2.8637 -13.9882 -1.5002 -0.5210 33.3423
#
#
#
# Elastic Compliance Matrix: (Units=1/GPa)
#
#
# Indices 1 2 3 4 5 6 
#
# 1 0.011316 0.000445 -0.002997 -0.002201 -0.002684 -0.003479
# 2 0.000445 0.012507 -0.003970 0.002975 -0.005843 -0.002777
# 3 -0.002997 -0.003970 0.012889 0.008629 0.006876 0.006785
# 4 -0.002201 0.002975 0.008629 0.040789 0.002671 0.005639
# 5 -0.002684 -0.005843 0.006876 0.002671 0.035125 0.004540
# 6 -0.003479 -0.002777 0.006785 0.005639 0.004540 0.034030
#
#
# Mechanical properties :
#
#
# Convention : Reuss Voigt Hill
#
# Bulk Modulus (GPa) = 42.24795 49.02973 45.63884
# Shear Modulus (GPa) = 29.83494 36.88053 33.35773
#
# Velocity S-wave (km/s) = 3.49704 3.88809 3.69774
# Velocity P-wave (km/s) = 5.79854 6.34457 6.07769
#
# Compressibility (1/GPa) = 0.02366979
#
# Stress axis : x y z
#
# Youngs Moduli (GPa) = 88.37139 79.95256 77.58263
#
# Poissons Ratio (x) = -0.03556 0.23248
# Poissons Ratio (y) = -0.03930 0.30798
# Poissons Ratio (z) = 0.26481 0.31738
#
# Static dielectric constant tensor:
#      x y z
#    x 2.151360 0.108440 -0.201210 
#    y 0.108440 2.063330 -0.111410 
#    z -0.201210 -0.111410 2.207290 
# 
# From -- ./inp_files/97664.got.cif
#   From: 2010.05.17/outbox.cif.g08.bks.cpg/sg2_49_cif.got.tgz:97664.got - 2010.06.03 11:33:40.
