data_PCOD9061797
_publ_section_title
;
Structure prediction by ZEFSAII (Michael W. Deem and Ramdas Pophale) SiO2 
 PCOD9061797
Probable space group: P -1
;
_chemical_formula_sum "Si O2"
_cell_formula_units_Z 16
_cell_length_a 18.492602
_cell_length_b 9.766355
_cell_length_c 18.106146
_cell_angle_alpha 38.536608
_cell_angle_beta 28.388961
_cell_angle_gamma 29.910429
_cell_volume 772.611893
_symmetry_space_group_name_H-M "P -1"
_symmetry_group_IT_number 2
_symmetry_cell_setting 'triclinic'
loop_
_space_group_symop_operation_xyz
x,y,z
-x,-y,-z
loop_
_atom_site_type_symbol
_atom_site_label
_atom_site_fract_x
_atom_site_fract_y
_atom_site_fract_z
Si Si1 0.304043 0.886129 0.300428
Si Si2 0.922728 0.851007 0.346728
Si Si3 0.978801 0.768967 0.880695
Si Si4 0.426033 0.733551 0.907527
Si Si5 0.729210 0.760479 0.686364
Si Si6 0.682726 0.369491 0.105358
Si Si7 0.964398 0.261340 0.332063
Si Si8 0.903166 0.778943 0.232599
O O1 0.514914 0.635354 0.189464
O O2 0.189766 0.790475 0.485875
O O3 0.320237 0.078493 0.260411
O O4 0.159194 0.061824 0.288639
O O5 0.837293 0.841161 0.504050
O O6 0.853617 0.800669 0.354418
O O7 0.137946 0.567153 0.279266
O O8 0.892280 0.139439 0.245064
O O9 0.986808 0.781042 0.780176
O O10 0.000000 0.500000 0.000000
O O11 0.780718 0.011655 0.990945
O O12 0.558947 0.827945 0.759358
O O13 0.416410 0.632072 0.879357
O O14 0.500000 0.500000 0.000000
O O15 0.771565 0.083337 0.188719
O O16 0.872944 0.345581 0.925265
O O17 0.879406 0.570743 0.300430
#
# Coordination Sequence:
#
# PCOD9061797 Si02
#       8
#     2   2   2   2   2   2   2   2
#     4  11  25  44  67 106 133 173 234 289 338 398
#     4  11  23  46  70  97 136 186 225 278 343 407
#     4  12  25  44  67  98 139 179 225 278 338 411
#     4  12  24  44  69 100 131 179 231 279 337 402
#     4  11  24  43  72 101 136 173 236 286 335 401
#     4  11  26  43  68  98 137 174 228 278 342 409
#     4  11  25  43  69  99 139 176 225 286 348 398
#     4  11  24  46  67  95 137 184 218 273 348 413
#
# _framework density 20.708974999999999
#
# number of rings (size 3 to 8) (size 9 to 14) (size 15 to 20)
#    0.000    0.750    5.000    1.500    5.250    1.000 
#    2.250    1.250    0.000    0.000    0.000    0.000 
#    0.000    0.000    0.000    0.000    0.000    0.000 
#
# Total GULP energy -89354.925398 kJ/mol
# GULP energy per Si atom -5584.682837 kJ/mol
# Density = 2.066184 g / cm^3
# Si number density = 20.708975 Si / 1000 Ang^3
#
#
#
# Elastic Constant Matrix: (Units=GPa)
#
#
# Indices 1 2 3 4 5 6 
#
# 1 -26.6339 -85.1739 51.1607 0.9444 -38.0153 25.4943
# 2 -85.1739 15.5079 66.3745 -8.8666 -30.1521 21.2162
# 3 51.1607 66.3745 44.1535 0.5492 17.3040 6.4734
# 4 0.9444 -8.8666 0.5492 28.9567 2.1062 2.1354
# 5 -38.0153 -30.1521 17.3040 2.1062 17.7219 -2.4078
# 6 25.4943 21.2162 6.4734 2.1354 -2.4078 38.1726
#
#
#
# Elastic Compliance Matrix: (Units=1/GPa)
#
#
# Indices 1 2 3 4 5 6 
#
# 1 0.005926 -0.007269 0.006679 -0.002003 -0.006119 -0.001324
# 2 -0.007269 0.006273 0.001452 0.002566 -0.006566 0.000565
# 3 0.006679 0.001452 0.012273 0.000241 0.003816 -0.007121
# 4 -0.002003 0.002566 0.000241 0.035907 -0.004765 -0.002439
# 5 -0.006119 -0.006566 0.003816 -0.004765 0.030228 0.009262
# 6 -0.001324 0.000565 -0.007121 -0.002439 0.009262 0.028696
#
#
# Mechanical properties :
#
#
# Convention : Reuss Voigt Hill
#
# Bulk Modulus (GPa) = 38.17690 10.86112 24.51901
# Shear Modulus (GPa) = 39.58428 17.01465 28.29946
#
# Velocity S-wave (km/s) = 4.37676 2.86948 3.70067
# Velocity P-wave (km/s) = 6.63448 4.02922 5.48867
#
# Compressibility (1/GPa) = 0.02619385
#
# Stress axis : x y z
#
# Youngs Moduli (GPa) = 168.74751 159.41035 81.47842
#
# Poissons Ratio (x) = 1.15882 -0.54417
# Poissons Ratio (y) = 1.22670 -0.11827
# Poissons Ratio (z) = -1.12701 -0.23139
#
# Static dielectric constant tensor:
#      x y z
#    x 1.130080 -0.197300 0.477610 
#    y -0.197300 1.648170 0.142930 
#    z 0.477610 0.142930 1.342260 
# 
# From -- ./inp_files/207400.got.cif
#   From: 2010.05.17/outbox.cif.g08.bks.cpg/sg2_104_cif.got.tgz:207400.got - 2010.06.03 11:33:40.
