data_PCOD9061733
_publ_section_title
;
Structure prediction by ZEFSAII (Michael W. Deem and Ramdas Pophale) SiO2 
 PCOD9061733
Probable space group: P -1
;
_chemical_formula_sum "Si O2"
_cell_formula_units_Z 16
_cell_length_a 24.335936
_cell_length_b 18.342295
_cell_length_c 5.617283
_cell_angle_alpha 76.332055
_cell_angle_beta 65.475882
_cell_angle_gamma 20.016392
_cell_volume 679.089889
_symmetry_space_group_name_H-M "P -1"
_symmetry_group_IT_number 2
_symmetry_cell_setting 'triclinic'
loop_
_space_group_symop_operation_xyz
x,y,z
-x,-y,-z
loop_
_atom_site_type_symbol
_atom_site_label
_atom_site_fract_x
_atom_site_fract_y
_atom_site_fract_z
Si Si1 0.925188 0.897375 0.847974
Si Si2 0.425321 0.164497 0.124852
Si Si3 0.939600 0.394698 0.871361
Si Si4 0.752662 0.869636 0.983018
Si Si5 0.184192 0.351587 0.730961
Si Si6 0.489095 0.598926 0.524282
Si Si7 0.720751 0.058813 0.715633
Si Si8 0.909126 0.139081 0.308071
O O1 0.860198 0.960148 0.644212
O O2 0.714262 0.152201 0.160547
O O3 0.046548 0.825572 0.766324
O O4 0.040561 0.687706 0.887018
O O5 0.241355 0.413555 0.118369
O O6 0.336943 0.234464 0.472111
O O7 0.500000 0.000000 0.000000
O O8 0.601991 0.013006 0.954713
O O9 0.893552 0.529846 0.962436
O O10 0.146370 0.142878 0.558439
O O11 0.989249 0.587167 0.736291
O O12 0.689645 0.031273 0.993301
O O13 0.734945 0.828318 0.258085
O O14 0.500000 0.500000 0.500000
O O15 0.464613 0.683760 0.276326
O O16 0.677965 0.395091 0.499737
O O17 0.000000 0.000000 0.500000
O O18 0.000000 0.000000 0.000000
#
# Coordination Sequence:
#
# PCOD9061733 Si02
#       8
#     2   2   2   2   2   2   2   2
#     4  11  25  48  72 102 154 184 242 313 359 449
#     4  12  25  42  68  97 134 187 244 303 362 437
#     4  11  23  46  67  97 145 187 237 299 371 423
#     4  11  24  43  69  97 137 185 238 298 361 428
#     4  11  24  47  64  97 141 186 244 299 361 440
#     4  11  25  48  77 106 143 191 242 297 373 450
#     4  11  25  47  71 105 143 192 242 304 373 433
#     4  12  28  49  80 114 146 195 245 302 382 453
#
# _framework density 23.560945
#
# number of rings (size 3 to 8) (size 9 to 14) (size 15 to 20)
#    0.000    0.750    5.000    1.125    5.250    4.000 
#    4.500    0.000    0.000    0.000    0.000    0.000 
#    0.000    0.000    0.000    0.000    0.000    0.000 
#
# Total GULP energy -89360.080532 kJ/mol
# GULP energy per Si atom -5585.005033 kJ/mol
# Density = 2.350732 g / cm^3
# Si number density = 23.560945 Si / 1000 Ang^3
#
#
#
# Elastic Constant Matrix: (Units=GPa)
#
#
# Indices 1 2 3 4 5 6 
#
# 1 155.6268 54.8757 21.2389 3.1332 -15.4573 -17.8825
# 2 54.8757 184.5763 16.3365 -13.1754 -12.9067 -17.2647
# 3 21.2389 16.3365 49.2943 3.1970 8.2604 1.4359
# 4 3.1332 -13.1754 3.1970 32.3646 -5.2603 -2.8660
# 5 -15.4573 -12.9067 8.2604 -5.2603 30.8652 9.8717
# 6 -17.8825 -17.2647 1.4359 -2.8660 9.8717 49.8445
#
#
#
# Elastic Compliance Matrix: (Units=1/GPa)
#
#
# Indices 1 2 3 4 5 6 
#
# 1 0.008075 -0.001699 -0.003559 -0.000375 0.003692 0.001658
# 2 -0.001699 0.006709 -0.002227 0.003685 0.002714 0.001453
# 3 -0.003559 -0.002227 0.024521 -0.004661 -0.009719 -0.001098
# 4 -0.000375 0.003685 -0.004661 0.034330 0.007913 0.001683
# 5 0.003692 0.002714 -0.009719 0.007913 0.040968 -0.005114
# 6 0.001658 0.001453 -0.001098 0.001683 -0.005114 0.022302
#
#
# Mechanical properties :
#
#
# Convention : Reuss Voigt Hill
#
# Bulk Modulus (GPa) = 41.09448 63.82218 52.45833
# Shear Modulus (GPa) = 31.25247 42.41794 36.83520
#
# Velocity S-wave (km/s) = 3.64600 4.24766 3.95828
# Velocity P-wave (km/s) = 5.93330 7.15568 6.57297
#
# Compressibility (1/GPa) = 0.02433417
#
# Stress axis : x y z
#
# Youngs Moduli (GPa) = 123.83455 149.05546 40.78177
#
# Poissons Ratio (x) = 0.25330 0.14513
# Poissons Ratio (y) = 0.21044 0.09083
# Poissons Ratio (z) = 0.44069 0.33199
#
# Static dielectric constant tensor:
#      x y z
#    x 1.930470 -0.014060 0.032240 
#    y -0.014060 1.938330 -0.063710 
#    z 0.032240 -0.063710 2.086240 
# 
# From -- ./inp_files/124697.got.cif
#   From: 2010.05.17/outbox.cif.g08.bks.cpg/sg2_63_cif.got.tgz:124697.got - 2010.06.03 11:33:40.
