data_PCOD9061746
_publ_section_title
;
Structure prediction by ZEFSAII (Michael W. Deem and Ramdas Pophale) SiO2 
 PCOD9061746
Probable space group: P -1
;
_chemical_formula_sum "Si O2"
_cell_formula_units_Z 12
_cell_length_a 15.258641
_cell_length_b 15.758717
_cell_length_c 6.315091
_cell_angle_alpha 139.891620
_cell_angle_beta 49.143441
_cell_angle_gamma 153.486067
_cell_volume 434.299482
_symmetry_space_group_name_H-M "P -1"
_symmetry_group_IT_number 2
_symmetry_cell_setting 'triclinic'
loop_
_space_group_symop_operation_xyz
x,y,z
-x,-y,-z
loop_
_atom_site_type_symbol
_atom_site_label
_atom_site_fract_x
_atom_site_fract_y
_atom_site_fract_z
Si Si1 0.311893 0.464776 0.445100
Si Si2 0.624288 0.944470 0.274271
Si Si3 0.719692 0.832952 0.257130
Si Si4 0.048137 0.410124 0.505982
Si Si5 0.349962 0.876386 0.809039
Si Si6 0.941021 0.797290 0.281563
O O1 0.533998 0.658596 0.376539
O O2 0.202069 0.493851 0.592708
O O3 0.266441 0.401899 0.644457
O O4 0.212283 0.250304 0.068930
O O5 0.626835 0.969054 0.065980
O O6 0.819428 0.204696 0.536835
O O7 0.651633 0.834935 0.146967
O O8 0.426462 0.830968 0.447241
O O9 0.895127 0.074562 0.549739
O O10 0.130698 0.629695 0.738753
O O11 0.052276 0.303961 0.107907
O O12 0.500000 0.000000 0.000000
O O13 0.000000 0.000000 0.500000
#
# Coordination Sequence:
#
# PCOD9061746 Si02
#       6
#     2   2   2   2   2   2
#     4  11  24  44  69 104 149 179 235 277 346 425
#     4  11  25  47  73 100 141 178 239 291 343 418
#     4  11  23  46  68 105 146 187 224 287 346 414
#     4  12  25  45  72 107 137 182 234 284 352 417
#     4  11  28  50  70 101 136 185 239 294 349 402
#     4  12  25  42  72 107 146 185 224 283 350 418
#
# _framework density 27.630703
#
# number of rings (size 3 to 8) (size 9 to 14) (size 15 to 20)
#    0.000    0.667    5.000    2.000    2.333    5.333 
#    0.000    0.000    0.000    0.000    0.000    0.000 
#    0.000    0.000    0.000    0.000    0.000    0.000 
#
# Total GULP energy -67260.426063 kJ/mol
# GULP energy per Si atom -5605.035505 kJ/mol
# Density = 2.756781 g / cm^3
# Si number density = 27.630703 Si / 1000 Ang^3
#
#
#
# Elastic Constant Matrix: (Units=GPa)
#
#
# Indices 1 2 3 4 5 6 
#
# 1 141.9421 19.9249 20.6633 -5.7093 12.5400 -31.8855
# 2 19.9249 138.9172 15.0406 -3.4027 5.8944 -10.2823
# 3 20.6633 15.0406 109.6162 10.3525 -2.4858 -15.1467
# 4 -5.7093 -3.4027 10.3525 30.0406 7.8369 -1.1785
# 5 12.5400 5.8944 -2.4858 7.8369 34.5219 2.9167
# 6 -31.8855 -10.2823 -15.1467 -1.1785 2.9167 50.8788
#
#
#
# Elastic Compliance Matrix: (Units=1/GPa)
#
#
# Indices 1 2 3 4 5 6 
#
# 1 0.009102 -0.000469 -0.001322 0.003550 -0.004597 0.005561
# 2 -0.000469 0.007560 -0.000987 0.001577 -0.001640 0.001071
# 3 -0.001322 -0.000987 0.010220 -0.004398 0.002232 0.001784
# 4 0.003550 0.001577 -0.004398 0.038601 -0.010871 0.002752
# 5 -0.004597 -0.001640 0.002232 -0.010871 0.033947 -0.004746
# 6 0.005561 0.001071 0.001784 0.002752 -0.004746 0.024223
#
#
# Mechanical properties :
#
#
# Convention : Reuss Voigt Hill
#
# Bulk Modulus (GPa) = 46.89296 55.74813 51.32054
# Shear Modulus (GPa) = 36.67907 45.41137 41.04522
#
# Velocity S-wave (km/s) = 3.64741 4.05842 3.85839
# Velocity P-wave (km/s) = 5.89460 6.49469 6.20191
#
# Compressibility (1/GPa) = 0.02132516
#
# Stress axis : x y z
#
# Youngs Moduli (GPa) = 109.87054 132.27284 97.84742
#
# Poissons Ratio (x) = 0.06199 0.12940
# Poissons Ratio (y) = 0.05149 0.09660
# Poissons Ratio (z) = 0.14530 0.13058
#
# Static dielectric constant tensor:
#      x y z
#    x 2.154640 -0.054570 0.092020 
#    y -0.054570 2.154220 -0.023280 
#    z 0.092020 -0.023280 2.144310 
# 
# From -- ./inp_files/26398.got.cif
#   From: 2010.05.17/outbox.cif.g08.bks.cpg/sg2_14_cif.got.tgz:26398.got - 2010.06.03 11:33:40.
