data_PCOD9061785
_publ_section_title
;
Structure prediction by ZEFSAII (Michael W. Deem and Ramdas Pophale) SiO2 
 PCOD9061785
Probable space group: P -1
;
_chemical_formula_sum "Si O2"
_cell_formula_units_Z 15
_cell_length_a 19.410784
_cell_length_b 8.966289
_cell_length_c 16.214487
_cell_angle_alpha 134.345563
_cell_angle_beta 19.685803
_cell_angle_gamma 134.956874
_cell_volume 665.943022
_symmetry_space_group_name_H-M "P -1"
_symmetry_group_IT_number 2
_symmetry_cell_setting 'triclinic'
loop_
_space_group_symop_operation_xyz
x,y,z
-x,-y,-z
loop_
_atom_site_type_symbol
_atom_site_label
_atom_site_fract_x
_atom_site_fract_y
_atom_site_fract_z
Si Si1 0.353935 0.999684 0.418151
Si Si2 0.500000 0.500000 0.500000
Si Si3 0.819530 0.390954 0.224513
Si Si4 0.892248 0.628384 0.409456
Si Si5 0.505684 0.589641 0.119711
Si Si6 0.713197 0.487431 0.999056
Si Si7 0.918105 0.946858 0.980107
Si Si8 0.364935 0.096615 0.256464
O O1 0.435996 0.243120 0.446140
O O2 0.341203 0.983832 0.327074
O O3 0.500297 0.839651 0.221059
O O4 0.120998 0.927999 0.690082
O O5 0.614269 0.433932 0.429029
O O6 0.880924 0.494555 0.285202
O O7 0.000000 0.500000 0.000000
O O8 0.822501 0.142504 0.131864
O O9 0.705918 0.520367 0.637593
O O10 0.850724 0.859569 0.520355
O O11 0.103094 0.621122 0.217000
O O12 0.500000 0.500000 0.000000
O O13 0.688501 0.524977 0.943736
O O14 0.756454 0.724609 0.077500
O O15 0.503650 0.332687 0.204226
O O16 0.000000 0.000000 0.000000
O O17 0.500000 0.000000 0.000000
#
# Coordination Sequence:
#
# PCOD9061785 Si02
#       8
#     2   1   2   2   2   2   2   2
#     4  12  24  45  69 107 146 181 241 294 354 429
#     4  12  26  40  72 102 144 186 228 286 374 404
#     4  12  24  42  68 103 146 181 231 286 348 432
#     4  11  23  46  70 104 138 179 240 289 343 430
#     4  11  25  48  72 101 141 186 244 299 344 421
#     4  11  25  46  75  99 142 187 234 286 368 403
#     4  12  24  44  72 107 146 185 231 292 353 436
#     4  11  26  49  71 102 143 186 242 298 346 422
#
# _framework density 22.524449000000001
#
# number of rings (size 3 to 8) (size 9 to 14) (size 15 to 20)
#    0.000    0.533    5.333    2.400    3.733    1.067 
#    4.800    3.333    0.000    0.000    0.000    0.000 
#    0.000    0.000    0.000    0.000    0.000    0.000 
#
# Total GULP energy -83644.336393 kJ/mol
# GULP energy per Si atom -5576.289093 kJ/mol
# Density = 2.247318 g / cm^3
# Si number density = 22.524449 Si / 1000 Ang^3
#
#
#
# Elastic Constant Matrix: (Units=GPa)
#
#
# Indices 1 2 3 4 5 6 
#
# 1 180.3135 7.7132 65.3343 4.3325 -9.8338 -18.9825
# 2 7.7132 61.6893 12.3413 5.5858 -3.4200 -6.0860
# 3 65.3343 12.3413 76.9905 15.5863 8.3670 -8.9892
# 4 4.3325 5.5858 15.5863 27.5951 -16.8396 -3.6923
# 5 -9.8338 -3.4200 8.3670 -16.8396 56.9709 10.8745
# 6 -18.9825 -6.0860 -8.9892 -3.6923 10.8745 39.6508
#
#
#
# Elastic Compliance Matrix: (Units=1/GPa)
#
#
# Indices 1 2 3 4 5 6 
#
# 1 0.009346 0.000581 -0.009810 0.007162 0.004888 0.001666
# 2 0.000581 0.017049 -0.002858 -0.001163 0.000835 0.001910
# 3 -0.009810 -0.002858 0.027669 -0.020840 -0.012595 0.002651
# 4 0.007162 -0.001163 -0.020840 0.060595 0.022521 -0.002008
# 5 0.004888 0.000835 -0.012595 0.022521 0.028098 -0.005996
# 6 0.001666 0.001910 0.002651 -0.002008 -0.005996 0.028369
#
#
# Mechanical properties :
#
#
# Convention : Reuss Voigt Hill
#
# Bulk Modulus (GPa) = 33.45775 54.41899 43.93837
# Shear Modulus (GPa) = 24.35882 40.41700 32.38791
#
# Velocity S-wave (km/s) = 3.29209 4.24059 3.79608
# Velocity P-wave (km/s) = 5.41634 6.94184 6.22599
#
# Compressibility (1/GPa) = 0.02988844
#
# Stress axis : x y z
#
# Youngs Moduli (GPa) = 107.00300 58.65294 36.14127
#
# Poissons Ratio (x) = -0.03407 0.35456
# Poissons Ratio (y) = -0.06216 0.10331
# Poissons Ratio (z) = 1.04974 0.16766
#
# Static dielectric constant tensor:
#      x y z
#    x 1.822640 -0.002730 -0.007650 
#    y -0.002730 1.852680 0.036570 
#    z -0.007650 0.036570 1.845860 
# 
# From -- ./inp_files/537647.got.cif
#   From: 2010.05.17/outbox.cif.g08.bks.cpg/sg2_269_cif.got.tgz:537647.got - 2010.06.03 11:33:40.
