data_PCOD9061351
_publ_section_title
;
Structure prediction by ZEFSAII (Michael W. Deem and Ramdas Pophale) SiO2 
 PCOD9061351
Probable space group: P -1
;
_chemical_formula_sum "Si O2"
_cell_formula_units_Z 16
_cell_length_a 8.920587
_cell_length_b 9.350129
_cell_length_c 11.210479
_cell_angle_alpha 77.191733
_cell_angle_beta 97.631858
_cell_angle_gamma 133.332544
_cell_volume 662.970325
_symmetry_space_group_name_H-M "P -1"
_symmetry_group_IT_number 2
_symmetry_cell_setting 'triclinic'
loop_
_space_group_symop_operation_xyz
x,y,z
-x,-y,-z
loop_
_atom_site_type_symbol
_atom_site_label
_atom_site_fract_x
_atom_site_fract_y
_atom_site_fract_z
Si Si1 0.425539 0.291656 0.569956
Si Si2 0.394855 0.865690 0.811980
Si Si3 0.342115 0.490817 0.906696
Si Si4 0.765097 0.108058 0.461698
Si Si5 0.977438 0.222043 0.094602
Si Si6 0.142895 0.446089 0.314926
Si Si7 0.184744 0.784309 0.291921
Si Si8 0.869421 0.836610 0.233859
O O1 0.500000 0.500000 0.500000
O O2 0.622777 0.374587 0.653865
O O3 0.223495 0.165113 0.653657
O O4 0.356426 0.125826 0.496362
O O5 0.408312 0.700300 0.854201
O O6 0.318939 0.871028 0.672100
O O7 0.232895 0.826112 0.896471
O O8 0.626406 0.077467 0.804512
O O9 0.309225 0.378919 0.803498
O O10 0.500000 0.500000 0.000000
O O11 0.118074 0.348991 0.973264
O O12 0.745213 0.182987 0.568273
O O13 0.010104 0.264821 0.428999
O O14 0.114377 0.353421 0.201345
O O15 0.925346 0.015774 0.129896
O O16 0.055745 0.555280 0.287248
O O17 0.058560 0.851670 0.265532
#
# Coordination Sequence:
#
# PCOD9061351 Si02
#       8
#     2   2   2   2   2   2   2   2
#     4  12  26  41  71 107 148 194 233 292 358 428
#     4  11  24  46  71 102 143 190 235 296 351 428
#     4  12  27  47  74 106 137 185 243 307 364 418
#     4  11  24  45  71 105 150 190 244 278 357 429
#     4  11  24  48  71  99 145 186 242 298 357 427
#     4  11  23  45  68  99 144 190 240 287 352 421
#     4  12  25  42  73 106 145 191 234 294 351 428
#     4  12  25  46  71 108 145 181 243 295 360 424
#
# _framework density 24.133808999999999
#
# number of rings (size 3 to 8) (size 9 to 14) (size 15 to 20)
#    0.000    0.500    3.750    5.250    3.500    1.000 
#    0.000    1.875    0.000    0.000    0.000    0.000 
#    0.000    0.000    0.000    0.000    0.000    0.000 
#
# Total GULP energy -89565.403636 kJ/mol
# GULP energy per Si atom -5597.837727 kJ/mol
# Density = 2.407888 g / cm^3
# Si number density = 24.133809 Si / 1000 Ang^3
#
#
#
# Elastic Constant Matrix: (Units=GPa)
#
#
# Indices 1 2 3 4 5 6 
#
# 1 93.5742 25.5954 5.0484 6.7350 6.6711 0.8489
# 2 25.5954 128.8961 2.0615 -29.9079 7.1864 -20.5991
# 3 5.0484 2.0615 46.0346 -7.7964 -5.7585 -8.3457
# 4 6.7350 -29.9079 -7.7964 33.3426 -6.7228 2.3738
# 5 6.6711 7.1864 -5.7585 -6.7228 31.7894 -12.0833
# 6 0.8489 -20.5991 -8.3457 2.3738 -12.0833 48.2499
#
#
#
# Elastic Compliance Matrix: (Units=1/GPa)
#
#
# Indices 1 2 3 4 5 6 
#
# 1 0.013428 -0.005060 -0.004307 -0.009167 -0.005985 -0.004189
# 2 -0.005060 0.012713 0.004069 0.013784 0.004362 0.006635
# 3 -0.004307 0.004069 0.027010 0.012394 0.010755 0.008568
# 4 -0.009167 0.013784 0.012394 0.049480 0.015146 0.009549
# 5 -0.005985 0.004362 0.010755 0.015146 0.042053 0.013614
# 6 -0.004189 0.006635 0.008568 0.009549 0.013614 0.028053
#
#
# Mechanical properties :
#
#
# Convention : Reuss Voigt Hill
#
# Bulk Modulus (GPa) = 23.49903 37.10174 30.30039
# Shear Modulus (GPa) = 25.31402 38.39636 31.85519
#
# Velocity S-wave (km/s) = 3.24219 3.99303 3.63704
# Velocity P-wave (km/s) = 4.87584 6.05523 5.49726
#
# Compressibility (1/GPa) = 0.04255494
#
# Stress axis : x y z
#
# Youngs Moduli (GPa) = 74.47309 78.65665 37.02268
#
# Poissons Ratio (x) = 0.39803 0.15944
# Poissons Ratio (y) = 0.37686 -0.15063
# Poissons Ratio (z) = 0.32073 -0.32002
#
# Static dielectric constant tensor:
#      x y z
#    x 2.044280 0.017570 0.065490 
#    y 0.017570 1.889450 0.005670 
#    z 0.065490 0.005670 1.910460 
# 
# From -- ./inp_files/242070.got.cif
#   From: 2010.05.17/outbox.cif.g08.bks.cpg/sg2_122_cif.got.tgz:242070.got - 2010.06.03 11:33:40.
