data_PCOD9061052
_publ_section_title
;
Structure prediction by ZEFSAII (Michael W. Deem and Ramdas Pophale) SiO2 
 PCOD9061052
Probable space group: P -1
;
_chemical_formula_sum "Si O2"
_cell_formula_units_Z 15
_cell_length_a 19.956875
_cell_length_b 11.336708
_cell_length_c 8.112270
_cell_angle_alpha 43.800630
_cell_angle_beta 128.683069
_cell_angle_gamma 148.963983
_cell_volume 654.850666
_symmetry_space_group_name_H-M "P -1"
_symmetry_group_IT_number 2
_symmetry_cell_setting 'triclinic'
loop_
_space_group_symop_operation_xyz
x,y,z
-x,-y,-z
loop_
_atom_site_type_symbol
_atom_site_label
_atom_site_fract_x
_atom_site_fract_y
_atom_site_fract_z
Si Si1 0.115096 0.982297 0.580114
Si Si2 0.238838 0.827542 0.818377
Si Si3 0.407122 0.316567 0.388411
Si Si4 0.000000 0.000000 0.000000
Si Si5 0.633325 0.510711 0.362670
Si Si6 0.465725 0.991324 0.145913
Si Si7 0.957850 0.769444 0.893433
Si Si8 0.714078 0.551271 0.084179
O O1 0.254670 0.254072 0.582422
O O2 0.067892 0.059620 0.300556
O O3 0.136621 0.823980 0.709415
O O4 0.022273 0.845067 0.736856
O O5 0.319823 0.022748 0.592655
O O6 0.163581 0.537534 0.978250
O O7 0.351962 0.964482 0.990463
O O8 0.500000 0.500000 0.500000
O O9 0.503395 0.425756 0.275052
O O10 0.316885 0.342548 0.195855
O O11 0.955239 0.107981 0.934394
O O12 0.142843 0.302760 0.874614
O O13 0.693219 0.590384 0.195257
O O14 0.594847 0.264354 0.607264
O O15 0.596406 0.244805 0.179500
O O16 0.500000 0.000000 0.000000
#
# Coordination Sequence:
#
# PCOD9061052 Si02
#       8
#     2   2   2   1   2   2   2   2
#     4  11  23  44  72 102 142 193 238 288 363 432
#     4  12  23  42  76 108 132 183 252 296 346 429
#     4  12  23  42  71 101 135 185 236 295 351 423
#     4  12  26  44  72  96 144 196 224 296 356 428
#     4  12  23  43  68 106 144 182 230 300 367 415
#     4  12  23  43  74 105 139 182 242 299 356 430
#     4  11  25  46  69 101 146 190 241 294 354 433
#     4  12  26  45  66 104 145 186 238 292 366 422
#
# _framework density 22.905987
#
# number of rings (size 3 to 8) (size 9 to 14) (size 15 to 20)
#    0.000    0.267    6.667    2.800    0.000    0.000 
#    0.000    2.667    2.933    0.000    0.000    0.000 
#    0.000    0.000    0.000    0.000    0.000    0.000 
#
# Total GULP energy -83676.293369 kJ/mol
# GULP energy per Si atom -5578.419558 kJ/mol
# Density = 2.285385 g / cm^3
# Si number density = 22.905987 Si / 1000 Ang^3
#
#
#
# Elastic Constant Matrix: (Units=GPa)
#
#
# Indices 1 2 3 4 5 6 
#
# 1 112.5999 11.6422 23.7128 -4.4943 -10.8794 16.0715
# 2 11.6422 112.7595 30.7990 -30.2845 0.8662 6.0221
# 3 23.7128 30.7990 74.9291 -21.4473 1.4772 6.5122
# 4 -4.4943 -30.2845 -21.4473 36.4252 7.0548 -5.5497
# 5 -10.8794 0.8662 1.4772 7.0548 40.5873 -5.6968
# 6 16.0715 6.0221 6.5122 -5.5497 -5.6968 32.2675
#
#
#
# Elastic Compliance Matrix: (Units=1/GPa)
#
#
# Indices 1 2 3 4 5 6 
#
# 1 0.010453 -0.000576 -0.003437 -0.002406 0.002749 -0.004333
# 2 -0.000576 0.011934 -0.002098 0.008941 -0.001932 -0.000320
# 3 -0.003437 -0.002098 0.017964 0.008938 -0.003160 -0.000543
# 4 -0.002406 0.008941 0.008938 0.041932 -0.007954 0.003533
# 5 0.002749 -0.001932 -0.003160 -0.007954 0.027348 0.003089
# 6 -0.004333 -0.000320 -0.000543 0.003533 0.003089 0.034472
#
#
# Mechanical properties :
#
#
# Convention : Reuss Voigt Hill
#
# Bulk Modulus (GPa) = 35.55179 48.06628 41.80903
# Shear Modulus (GPa) = 30.17480 37.46498 33.81989
#
# Velocity S-wave (km/s) = 3.63345 4.04864 3.84665
# Velocity P-wave (km/s) = 5.75821 6.54867 6.16612
#
# Compressibility (1/GPa) = 0.02812798
#
# Stress axis : x y z
#
# Youngs Moduli (GPa) = 95.67053 83.79184 55.66694
#
# Poissons Ratio (x) = 0.04828 0.19134
# Poissons Ratio (y) = 0.05513 0.11678
# Poissons Ratio (z) = 0.32885 0.17579
#
# Static dielectric constant tensor:
#      x y z
#    x 1.919740 0.079990 0.058950 
#    y 0.079990 1.542130 -0.254460 
#    z 0.058950 -0.254460 1.609910 
# 
# From -- ./inp_files/256753.got.cif
#   From: 2010.05.17/outbox.cif.g08.bks.cpg/sg2_129_cif.got.tgz:256753.got - 2010.06.03 11:33:40.
