data_PCOD9061841
_publ_section_title
;
Structure prediction by ZEFSAII (Michael W. Deem and Ramdas Pophale) SiO2 
 PCOD9061841
Probable space group: P -1
;
_chemical_formula_sum "Si O2"
_cell_formula_units_Z 16
_cell_length_a 15.058257
_cell_length_b 8.619997
_cell_length_c 15.377630
_cell_angle_alpha 150.112073
_cell_angle_beta 47.702740
_cell_angle_gamma 135.776601
_cell_volume 686.013557
_symmetry_space_group_name_H-M "P -1"
_symmetry_group_IT_number 2
_symmetry_cell_setting 'triclinic'
loop_
_space_group_symop_operation_xyz
x,y,z
-x,-y,-z
loop_
_atom_site_type_symbol
_atom_site_label
_atom_site_fract_x
_atom_site_fract_y
_atom_site_fract_z
Si Si1 0.350277 0.777943 0.476889
Si Si2 0.975015 0.113415 0.975481
Si Si3 0.419097 0.686628 0.091140
Si Si4 0.187455 0.092286 0.180468
Si Si5 0.965718 0.840063 0.349521
Si Si6 0.700214 0.904852 0.509177
Si Si7 0.259849 0.240168 0.839435
Si Si8 0.374390 0.721344 0.846493
O O1 0.304232 0.391494 0.295280
O O2 0.500000 0.000000 0.500000
O O3 0.297155 0.909827 0.492673
O O4 0.277513 0.883893 0.654716
O O5 0.118407 0.205641 0.886300
O O6 0.876152 0.868382 0.851561
O O7 0.942451 0.446317 0.172272
O O8 0.000000 0.000000 0.000000
O O9 0.365188 0.915920 0.295893
O O10 0.509621 0.936446 0.081496
O O11 0.500000 0.500000 0.000000
O O12 0.299580 0.409089 0.988313
O O13 0.076506 0.988775 0.276023
O O14 0.248231 0.816657 0.983573
O O15 0.841116 0.922097 0.447572
O O16 0.000000 0.000000 0.500000
O O17 0.624405 0.515228 0.350165
O O18 0.362213 0.492125 0.827750
#
# Coordination Sequence:
#
# PCOD9061841 Si02
#       8
#     2   2   2   2   2   2   2   2
#     4  11  26  48  72 109 151 198 260 313 381 461
#     4  12  28  48  78 112 154 198 260 324 388 463
#     4  12  26  45  74 108 150 196 251 319 379 450
#     4  12  25  49  81 107 157 208 249 320 394 448
#     4  12  27  49  76 117 156 201 263 318 385 474
#     4  11  25  46  74 107 154 196 260 316 380 456
#     4  11  25  46  69 103 147 195 254 305 380 461
#     4  11  23  46  72 102 143 204 248 309 382 456
#
# _framework density 23.323153000000001
#
# number of rings (size 3 to 8) (size 9 to 14) (size 15 to 20)
#    0.000    0.500    2.500    5.625    7.000    2.000 
#    2.250    0.000    0.000    0.000    0.000    0.000 
#    0.000    0.000    0.000    0.000    0.000    0.000 
#
# Total GULP energy -89375.033179 kJ/mol
# GULP energy per Si atom -5585.939574 kJ/mol
# Density = 2.327007 g / cm^3
# Si number density = 23.323153 Si / 1000 Ang^3
#
#
#
# Elastic Constant Matrix: (Units=GPa)
#
#
# Indices 1 2 3 4 5 6 
#
# 1 102.7343 10.3617 67.5960 6.0417 5.4091 14.5360
# 2 10.3617 62.8019 35.0411 -4.7098 7.2288 -1.9966
# 3 67.5960 35.0411 201.5906 -10.5700 2.4033 14.3060
# 4 6.0417 -4.7098 -10.5700 29.8583 3.5286 1.4689
# 5 5.4091 7.2288 2.4033 3.5286 52.5972 -0.3030
# 6 14.5360 -1.9966 14.3060 1.4689 -0.3030 27.6443
#
#
#
# Elastic Compliance Matrix: (Units=1/GPa)
#
#
# Indices 1 2 3 4 5 6 
#
# 1 0.013587 -0.000126 -0.004400 -0.003986 -0.000938 -0.004675
# 2 -0.000126 0.018253 -0.003208 0.001917 -0.002461 0.002916
# 3 -0.004400 -0.003208 0.007278 0.003010 0.000348 -0.001840
# 4 -0.003986 0.001917 0.003010 0.036013 -0.002414 -0.001263
# 5 -0.000938 -0.002461 0.000348 -0.002414 0.019596 0.000479
# 6 -0.004675 0.002916 -0.001840 -0.001263 0.000479 0.039867
#
#
# Mechanical properties :
#
#
# Convention : Reuss Voigt Hill
#
# Bulk Modulus (GPa) = 42.28260 65.90272 54.09266
# Shear Modulus (GPa) = 31.65640 38.96183 35.30911
#
# Velocity S-wave (km/s) = 3.68815 4.09164 3.89512
# Velocity P-wave (km/s) = 6.02536 7.11616 6.59335
#
# Compressibility (1/GPa) = 0.02365039
#
# Stress axis : x y z
#
# Youngs Moduli (GPa) = 73.60032 54.78441 137.40495
#
# Poissons Ratio (x) = 0.00692 0.60458
# Poissons Ratio (y) = 0.00929 0.44074
# Poissons Ratio (z) = 0.32384 0.17573
#
# Static dielectric constant tensor:
#      x y z
#    x 1.858640 0.018340 0.028440 
#    y 0.018340 1.978630 0.028750 
#    z 0.028440 0.028750 1.960750 
# 
# From -- ./inp_files/530294.got.cif
#   From: 2010.05.17/outbox.cif.g08.bks.cpg/sg2_266_cif.got.tgz:530294.got - 2010.06.03 11:33:40.
