data_PCOD9061776
_publ_section_title
;
Structure prediction by ZEFSAII (Michael W. Deem and Ramdas Pophale) SiO2 
 PCOD9061776
Probable space group: P -1
;
_chemical_formula_sum "Si O2"
_cell_formula_units_Z 16
_cell_length_a 13.356683
_cell_length_b 13.520725
_cell_length_c 7.597404
_cell_angle_alpha 97.526088
_cell_angle_beta 147.457333
_cell_angle_gamma 97.435546
_cell_volume 653.533893
_symmetry_space_group_name_H-M "P -1"
_symmetry_group_IT_number 2
_symmetry_cell_setting 'triclinic'
loop_
_space_group_symop_operation_xyz
x,y,z
-x,-y,-z
loop_
_atom_site_type_symbol
_atom_site_label
_atom_site_fract_x
_atom_site_fract_y
_atom_site_fract_z
Si Si1 0.934037 0.212287 0.391877
Si Si2 0.806095 0.383985 0.131082
Si Si3 0.460048 0.006837 0.238986
Si Si4 0.416968 0.699157 0.849981
Si Si5 0.220077 0.099096 0.705140
Si Si6 0.018928 0.311363 0.907792
Si Si7 0.082221 0.922698 0.204930
Si Si8 0.627889 0.455291 0.554861
O O1 0.889407 0.291548 0.212032
O O2 0.062517 0.151464 0.496703
O O3 0.056413 0.288080 0.755010
O O4 0.706715 0.117736 0.090035
O O5 0.652053 0.347336 0.065352
O O6 0.000000 0.500000 0.500000
O O7 0.711028 0.397859 0.811000
O O8 0.679621 0.046628 0.479423
O O9 0.500000 0.000000 0.500000
O O10 0.357116 0.089635 0.066584
O O11 0.479162 0.625947 0.787862
O O12 0.212646 0.698613 0.453777
O O13 0.606752 0.822253 0.158521
O O14 0.089220 0.971194 0.420996
O O15 0.034356 0.210690 0.010925
O O16 0.182866 0.435717 0.224673
O O17 0.000000 0.000000 0.000000
O O18 0.500000 0.500000 0.500000
#
# Coordination Sequence:
#
# PCOD9061776 Si02
#       8
#     2   2   2   2   2   2   2   2
#     4  11  24  44  72 100 143 189 235 299 359 433
#     4  11  25  47  72 103 141 189 243 293 365 432
#     4  12  26  43  68 105 141 188 239 293 363 435
#     4  11  25  46  75 104 144 192 236 303 364 424
#     4  12  25  47  72 102 146 190 234 300 370 425
#     4  11  23  46  70 101 142 189 232 296 364 418
#     4  12  26  45  72 107 143 186 241 291 362 438
#     4  12  27  48  74 107 143 189 248 301 360 436
#
# _framework density 24.482281
#
# number of rings (size 3 to 8) (size 9 to 14) (size 15 to 20)
#    0.000    0.500    5.000    4.125    3.500    3.500 
#    0.000    0.000    0.000    0.000    0.000    0.000 
#    0.000    0.000    0.000    0.000    0.000    0.000 
#
# Total GULP energy -89515.598557 kJ/mol
# GULP energy per Si atom -5594.724910 kJ/mol
# Density = 2.442656 g / cm^3
# Si number density = 24.482281 Si / 1000 Ang^3
#
#
#
# Elastic Constant Matrix: (Units=GPa)
#
#
# Indices 1 2 3 4 5 6 
#
# 1 94.4288 45.5252 16.3680 -12.8048 8.7918 -8.7216
# 2 45.5252 163.1393 37.6344 -25.4219 7.1703 13.7296
# 3 16.3680 37.6344 50.9112 -8.5223 4.6839 11.2061
# 4 -12.8048 -25.4219 -8.5223 51.3304 -0.0806 5.9871
# 5 8.7918 7.1703 4.6839 -0.0806 48.3299 -0.3473
# 6 -8.7216 13.7296 11.2061 5.9871 -0.3473 49.8624
#
#
#
# Elastic Compliance Matrix: (Units=1/GPa)
#
#
# Indices 1 2 3 4 5 6 
#
# 1 0.013156 -0.003225 -0.002338 0.000874 -0.001661 0.003598
# 2 -0.003225 0.008723 -0.004351 0.003068 -0.000298 -0.002359
# 3 -0.002338 -0.004351 0.025211 0.002044 -0.001406 -0.005132
# 4 0.000874 0.003068 0.002044 0.022000 -0.000803 -0.003798
# 5 -0.001661 -0.000298 -0.001406 -0.000803 0.021175 0.000351
# 6 0.003598 -0.002359 -0.005132 -0.003798 0.000351 0.022946
#
#
# Mechanical properties :
#
#
# Convention : Reuss Voigt Hill
#
# Bulk Modulus (GPa) = 36.68310 56.39271 46.53791
# Shear Modulus (GPa) = 35.17950 43.83465 39.50708
#
# Velocity S-wave (km/s) = 3.79481 4.23598 4.02145
# Velocity P-wave (km/s) = 5.84951 6.85630 6.37282
#
# Compressibility (1/GPa) = 0.02726051
#
# Stress axis : x y z
#
# Youngs Moduli (GPa) = 76.01209 114.63596 39.66454
#
# Poissons Ratio (x) = 0.36976 0.09274
# Poissons Ratio (y) = 0.24518 0.17259
# Poissons Ratio (z) = 0.17773 0.49882
#
# Static dielectric constant tensor:
#      x y z
#    x 1.537750 0.151300 -0.715520 
#    y 0.151300 1.921500 0.212370 
#    z -0.715520 0.212370 0.955750 
# 
# From -- ./inp_files/307854.got.cif
#   From: 2010.05.17/outbox.cif.g08.bks.cpg/sg2_154_cif.got.tgz:307854.got - 2010.06.03 11:33:40.
