data_PCOD9061557
_publ_section_title
;
Structure prediction by ZEFSAII (Michael W. Deem and Ramdas Pophale) SiO2 
 PCOD9061557
Probable space group: P -1
;
_chemical_formula_sum "Si O2"
_cell_formula_units_Z 16
_cell_length_a 9.939226
_cell_length_b 15.339516
_cell_length_c 8.781007
_cell_angle_alpha 143.179465
_cell_angle_beta 80.922186
_cell_angle_gamma 113.097052
_cell_volume 707.760005
_symmetry_space_group_name_H-M "P -1"
_symmetry_group_IT_number 2
_symmetry_cell_setting 'triclinic'
loop_
_space_group_symop_operation_xyz
x,y,z
-x,-y,-z
loop_
_atom_site_type_symbol
_atom_site_label
_atom_site_fract_x
_atom_site_fract_y
_atom_site_fract_z
Si Si1 0.669193 0.031108 0.561068
Si Si2 0.454748 0.531904 0.220568
Si Si3 0.138169 0.111792 0.230253
Si Si4 0.306041 0.472845 0.607904
Si Si5 0.411968 0.076936 0.225905
Si Si6 0.920595 0.962286 0.300444
Si Si7 0.910792 0.407079 0.037738
Si Si8 0.145744 0.395368 0.213556
O O1 0.500000 0.000000 0.500000
O O2 0.637701 0.987121 0.683319
O O3 0.747493 0.936728 0.319179
O O4 0.803753 0.213828 0.770443
O O5 0.528001 0.472151 0.265160
O O6 0.502561 0.724939 0.502640
O O7 0.274462 0.431840 0.116139
O O8 0.500000 0.500000 0.000000
O O9 0.236804 0.281186 0.372053
O O10 0.250145 0.031147 0.115104
O O11 0.045221 0.117127 0.402559
O O12 0.000000 0.000000 0.000000
O O13 0.212543 0.530013 0.815786
O O14 0.249334 0.496240 0.481840
O O15 0.500000 0.000000 0.000000
O O16 0.923013 0.796972 0.009700
O O17 0.000000 0.000000 0.500000
O O18 0.020858 0.435274 0.206103
O O19 0.000000 0.500000 0.000000
#
# Coordination Sequence:
#
# PCOD9061557 Si02
#       8
#     2   2   2   2   2   2   2   2
#     4  12  29  45  73 108 146 192 242 307 367 436
#     4  11  26  46  74 103 143 193 242 296 365 440
#     4  11  23  45  73 103 139 191 242 301 366 441
#     4  11  26  44  70 102 143 185 240 293 365 437
#     4  11  27  47  71 110 151 189 242 304 373 441
#     4  12  23  47  74 102 141 187 251 298 363 438
#     4  12  27  47  71 106 144 189 242 301 366 431
#     4  12  25  44  73 100 140 190 238 303 357 435
#
# _framework density 22.606534
#
# number of rings (size 3 to 8) (size 9 to 14) (size 15 to 20)
#    0.000    0.500    3.750    3.000   10.500    1.000 
#    0.000    0.000    0.000    0.000    0.000    0.000 
#    0.000    0.000    0.000    0.000    0.000    0.000 
#
# Total GULP energy -89174.256799 kJ/mol
# GULP energy per Si atom -5573.391050 kJ/mol
# Density = 2.255508 g / cm^3
# Si number density = 22.606534 Si / 1000 Ang^3
#
#
#
# Elastic Constant Matrix: (Units=GPa)
#
#
# Indices 1 2 3 4 5 6 
#
# 1 152.0175 18.0521 18.1220 11.4973 -10.8014 -2.3821
# 2 18.0521 98.2504 2.8109 -3.5334 -1.6107 -0.9478
# 3 18.1220 2.8109 49.7882 -4.4274 -3.7065 -12.0610
# 4 11.4973 -3.5334 -4.4274 23.0732 9.0811 0.9905
# 5 -10.8014 -1.6107 -3.7065 9.0811 40.3085 -5.5538
# 6 -2.3821 -0.9478 -12.0610 0.9905 -5.5538 38.7679
#
#
#
# Elastic Compliance Matrix: (Units=1/GPa)
#
#
# Indices 1 2 3 4 5 6 
#
# 1 0.007785 -0.001505 -0.003021 -0.005911 0.003093 0.000096
# 2 -0.001505 0.010535 0.000161 0.002606 -0.000545 0.000071
# 3 -0.003021 0.000161 0.023462 0.005272 0.001151 0.007148
# 4 -0.005911 0.002606 0.005272 0.052970 -0.013191 -0.001902
# 5 0.003093 -0.000545 0.001151 -0.013191 0.029394 0.005083
# 6 0.000096 0.000071 0.007148 -0.001902 0.005083 0.028803
#
#
# Mechanical properties :
#
#
# Convention : Reuss Voigt Hill
#
# Bulk Modulus (GPa) = 30.25434 42.00288 36.12861
# Shear Modulus (GPa) = 28.95270 37.83464 33.39367
#
# Velocity S-wave (km/s) = 3.58260 4.09542 3.84757
# Velocity P-wave (km/s) = 5.52498 6.40185 5.97951
#
# Compressibility (1/GPa) = 0.03305311
#
# Stress axis : x y z
#
# Youngs Moduli (GPa) = 128.44572 94.91773 42.62298
#
# Poissons Ratio (x) = 0.14285 0.12876
# Poissons Ratio (y) = 0.19331 -0.00687
# Poissons Ratio (z) = 0.38802 -0.01531
#
# Static dielectric constant tensor:
#      x y z
#    x 1.774440 -0.050480 0.004810 
#    y -0.050480 1.915050 -0.029340 
#    z 0.004810 -0.029340 1.899860 
# 
# From -- ./inp_files/209310.got.cif
#   From: 2010.05.17/outbox.cif.g08.bks.cpg/sg2_105_cif.got.tgz:209310.got - 2010.06.03 11:33:40.
