data_PCOD9061213
_publ_section_title
;
Structure prediction by ZEFSAII (Michael W. Deem and Ramdas Pophale) SiO2 
 PCOD9061213
Probable space group: P -1
;
_chemical_formula_sum "Si O2"
_cell_formula_units_Z 10
_cell_length_a 8.876668
_cell_length_b 9.373093
_cell_length_c 6.791158
_cell_angle_alpha 111.930354
_cell_angle_beta 79.899730
_cell_angle_gamma 53.172405
_cell_volume 353.745108
_symmetry_space_group_name_H-M "P -1"
_symmetry_group_IT_number 2
_symmetry_cell_setting 'triclinic'
loop_
_space_group_symop_operation_xyz
x,y,z
-x,-y,-z
loop_
_atom_site_type_symbol
_atom_site_label
_atom_site_fract_x
_atom_site_fract_y
_atom_site_fract_z
Si Si1 0.243252 0.293733 0.751277
Si Si2 0.382462 0.735559 0.246532
Si Si3 0.760249 0.939793 0.073491
Si Si4 0.713480 0.661198 0.690320
Si Si5 0.062872 0.817697 0.640584
O O1 0.421722 0.282193 0.793557
O O2 0.241712 0.320162 0.533923
O O3 0.279904 0.092575 0.713950
O O4 0.000000 0.500000 0.000000
O O5 0.270834 0.769900 0.501771
O O6 0.500000 0.500000 0.000000
O O7 0.162900 0.955804 0.292964
O O8 0.746159 0.788196 0.878507
O O9 0.993102 0.841886 0.898191
O O10 0.547835 0.188887 0.174307
O O11 0.860546 0.405521 0.570546
#
# Coordination Sequence:
#
# PCOD9061213 Si02
#       5
#     2   2   2   2   2
#     4  12  26  47  74 112 144 190 244 304 355 434
#     4  11  26  47  73 105 148 193 242 297 369 432
#     4  11  23  44  75 106 146 193 235 303 361 429
#     4  11  24  45  75 106 148 188 248 294 363 430
#     4  11  23  45  74 101 142 197 238 294 364 431
#
# _framework density 28.268941999999999
#
# number of rings (size 3 to 8) (size 9 to 14) (size 15 to 20)
#    0.000    0.800    2.000    6.000    2.800    0.800 
#    3.600    2.000    0.000    0.000    0.000    0.000 
#    0.000    0.000    0.000    0.000    0.000    0.000 
#
# Total GULP energy -56105.522101 kJ/mol
# GULP energy per Si atom -5610.552210 kJ/mol
# Density = 2.820460 g / cm^3
# Si number density = 28.268942 Si / 1000 Ang^3
#
#
#
# Elastic Constant Matrix: (Units=GPa)
#
#
# Indices 1 2 3 4 5 6 
#
# 1 170.5610 52.2367 71.2478 3.6934 -28.7155 31.6504
# 2 52.2367 145.9672 61.8644 25.4411 -3.8336 12.7621
# 3 71.2478 61.8644 152.4319 6.5572 -43.0246 15.3632
# 4 3.6934 25.4411 6.5572 89.0752 9.7340 -17.9596
# 5 -28.7155 -3.8336 -43.0246 9.7340 64.9533 -11.5054
# 6 31.6504 12.7621 15.3632 -17.9596 -11.5054 49.7139
#
#
#
# Elastic Compliance Matrix: (Units=1/GPa)
#
#
# Indices 1 2 3 4 5 6 
#
# 1 0.008347 -0.001396 -0.002513 -0.000742 0.001321 -0.004142
# 2 -0.001396 0.009378 -0.003524 -0.002481 -0.002357 -0.001872
# 3 -0.002513 -0.003524 0.010812 -0.000245 0.005960 0.000454
# 4 -0.000742 -0.002481 -0.000245 0.013293 -0.001635 0.005609
# 5 0.001321 -0.002357 0.005960 -0.001635 0.020397 0.002052
# 6 -0.004142 -0.001872 0.000454 0.005609 0.002052 0.025593
#
#
# Mechanical properties :
#
#
# Convention : Reuss Voigt Hill
#
# Bulk Modulus (GPa) = 73.14096 93.29531 83.21813
# Shear Modulus (GPa) = 46.62318 59.65590 53.13954
#
# Velocity S-wave (km/s) = 4.06553 4.59878 4.34035
# Velocity P-wave (km/s) = 6.92585 7.82769 7.39054
#
# Compressibility (1/GPa) = 0.01367223
#
# Stress axis : x y z
#
# Youngs Moduli (GPa) = 119.80006 106.63311 92.49119
#
# Poissons Ratio (x) = 0.14887 0.23241
# Poissons Ratio (y) = 0.16726 0.32589
# Poissons Ratio (z) = 0.30103 0.37572
#
# Static dielectric constant tensor:
#      x y z
#    x 2.185680 -0.022270 0.017340 
#    y -0.022270 2.282400 -0.022190 
#    z 0.017340 -0.022190 2.281760 
# 
# From -- ./inp_files/148150.got.cif
#   From: 2010.05.17/outbox.cif.g08.bks.cpg/sg2_75_cif.got.tgz:148150.got - 2010.06.03 11:33:40.
