data_PCOD9061304
_publ_section_title
;
Structure prediction by ZEFSAII (Michael W. Deem and Ramdas Pophale) SiO2 
 PCOD9061304
Probable space group: P -1
;
_chemical_formula_sum "Si O2"
_cell_formula_units_Z 14
_cell_length_a 10.354894
_cell_length_b 9.423770
_cell_length_c 12.049795
_cell_angle_alpha 46.363433
_cell_angle_beta 120.652390
_cell_angle_gamma 133.031160
_cell_volume 620.377751
_symmetry_space_group_name_H-M "P -1"
_symmetry_group_IT_number 2
_symmetry_cell_setting 'triclinic'
loop_
_space_group_symop_operation_xyz
x,y,z
-x,-y,-z
loop_
_atom_site_type_symbol
_atom_site_label
_atom_site_fract_x
_atom_site_fract_y
_atom_site_fract_z
Si Si1 0.873666 0.380036 0.116311
Si Si2 0.922556 0.977419 0.336219
Si Si3 0.323335 0.305027 0.370879
Si Si4 0.931317 0.275321 0.785146
Si Si5 0.168514 0.136968 0.878432
Si Si6 0.676205 0.433254 0.574913
Si Si7 0.444019 0.538286 0.077800
O O1 0.840356 0.127160 0.255116
O O2 0.982866 0.535558 0.183776
O O3 0.693866 0.379638 0.033603
O O4 0.000000 0.500000 0.000000
O O5 0.120567 0.093006 0.408894
O O6 0.937538 0.018019 0.188116
O O7 0.796131 0.702237 0.443648
O O8 0.482937 0.306816 0.503112
O O9 0.333200 0.526318 0.317949
O O10 0.357540 0.329254 0.241030
O O11 0.776593 0.304263 0.656036
O O12 0.093183 0.304040 0.769019
O O13 0.856465 0.022969 0.941255
O O14 0.377123 0.281113 0.877068
O O15 0.500000 0.500000 0.000000
#
# Coordination Sequence:
#
# PCOD9061304 Si02
#       7
#     2   2   2   2   2   2   2
#     4  12  22  41  73  99 138 183 239 297 345 403
#     4  12  24  45  74 103 137 191 236 291 354 418
#     4  11  24  43  70 104 143 180 238 294 342 428
#     4  11  23  45  67 100 141 190 230 292 355 420
#     4  11  25  43  72 102 140 185 242 291 355 414
#     4  11  25  46  72  99 148 188 232 286 360 429
#     4  12  24  44  71 107 143 182 242 298 349 417
#
# _framework density 22.566896
#
# number of rings (size 3 to 8) (size 9 to 14) (size 15 to 20)
#    0.000    0.571    7.143    0.429    2.000    3.429 
#    0.000    0.714    0.000    0.000    0.000    0.000 
#    0.000    0.000    0.000    0.000    0.000    0.000 
#
# Total GULP energy -78172.881639 kJ/mol
# GULP energy per Si atom -5583.777260 kJ/mol
# Density = 2.251553 g / cm^3
# Si number density = 22.566896 Si / 1000 Ang^3
#
#
#
# Elastic Constant Matrix: (Units=GPa)
#
#
# Indices 1 2 3 4 5 6 
#
# 1 159.3501 49.1483 75.2241 5.0231 40.5920 13.4471
# 2 49.1483 80.4096 35.3178 17.8451 21.5982 14.9010
# 3 75.2241 35.3178 96.8925 2.8222 29.1493 3.1433
# 4 5.0231 17.8451 2.8222 39.2019 2.8062 5.9454
# 5 40.5920 21.5982 29.1493 2.8062 60.8891 9.3438
# 6 13.4471 14.9010 3.1433 5.9454 9.3438 46.3052
#
#
#
# Elastic Compliance Matrix: (Units=1/GPa)
#
#
# Indices 1 2 3 4 5 6 
#
# 1 0.011226 -0.003061 -0.006666 0.000853 -0.003044 -0.001318
# 2 -0.003061 0.018623 -0.003479 -0.007153 -0.002027 -0.003540
# 3 -0.006666 -0.003479 0.017609 0.001038 -0.003162 0.002365
# 4 0.000853 -0.007153 0.001038 0.028824 0.000420 -0.001802
# 5 -0.003044 -0.002027 -0.003162 0.000420 0.021058 -0.002552
# 6 -0.001318 -0.003540 0.002365 -0.001802 -0.002552 0.023704
#
#
# Mechanical properties :
#
#
# Convention : Reuss Voigt Hill
#
# Bulk Modulus (GPa) = 47.51525 72.89251 60.20388
# Shear Modulus (GPa) = 32.36846 41.07670 36.72258
#
# Velocity S-wave (km/s) = 3.79137 4.27103 4.03833
# Velocity P-wave (km/s) = 6.34563 7.52948 6.96276
#
# Compressibility (1/GPa) = 0.02104587
#
# Stress axis : x y z
#
# Youngs Moduli (GPa) = 89.07639 53.69641 56.79047
#
# Poissons Ratio (x) = 0.16438 0.37858
# Poissons Ratio (y) = 0.27268 0.19755
# Poissons Ratio (z) = 0.59380 0.18679
#
# Static dielectric constant tensor:
#      x y z
#    x 1.985100 -0.013230 -0.061020 
#    y -0.013230 1.814030 -0.022060 
#    z -0.061020 -0.022060 1.956490 
# 
# From -- ./inp_files/381147.got.cif
#   From: 2010.05.17/outbox.cif.g08.bks.cpg/sg2_191_cif.got.tgz:381147.got - 2010.06.03 11:33:40.
