data_PCOD9061004
_publ_section_title
;
Structure prediction by ZEFSAII (Michael W. Deem and Ramdas Pophale) SiO2 
 PCOD9061004
Probable space group: P -1
;
_chemical_formula_sum "Si O2"
_cell_formula_units_Z 16
_cell_length_a 6.083900
_cell_length_b 20.853253
_cell_length_c 15.400827
_cell_angle_alpha 155.946163
_cell_angle_beta 117.498695
_cell_angle_gamma 73.182916
_cell_volume 657.411866
_symmetry_space_group_name_H-M "P -1"
_symmetry_group_IT_number 2
_symmetry_cell_setting 'triclinic'
loop_
_space_group_symop_operation_xyz
x,y,z
-x,-y,-z
loop_
_atom_site_type_symbol
_atom_site_label
_atom_site_fract_x
_atom_site_fract_y
_atom_site_fract_z
Si Si1 0.723344 0.923762 0.409716
Si Si2 0.372279 0.572961 0.861274
Si Si3 0.752733 0.894937 0.576601
Si Si4 0.347786 0.690674 0.368963
Si Si5 0.840041 0.422894 0.483986
Si Si6 0.792686 0.570258 0.182948
Si Si7 0.526186 0.830994 0.759913
Si Si8 0.008010 0.232535 0.144920
O O1 0.799639 0.878046 0.462982
O O2 0.500000 0.000000 0.500000
O O3 0.552888 0.765724 0.123693
O O4 0.000000 0.000000 0.500000
O O5 0.546554 0.461152 0.778748
O O6 0.204929 0.559635 0.903135
O O7 0.156286 0.488440 0.645066
O O8 0.449266 0.805553 0.443853
O O9 0.856164 0.756394 0.467656
O O10 0.878246 0.081686 0.866960
O O11 0.460394 0.810583 0.621130
O O12 0.033818 0.606946 0.208966
O O13 0.674825 0.328497 0.419913
O O14 0.812372 0.595988 0.660876
O O15 0.802764 0.288530 0.233592
O O16 0.500000 0.500000 0.000000
O O17 0.815844 0.830568 0.835755
O O18 0.500000 0.000000 0.000000
#
# Coordination Sequence:
#
# PCOD9061004 Si02
#       8
#     2   2   2   2   2   2   2   2
#     4  12  30  51  76 108 149 205 256 321 396 476
#     4  11  24  46  74 104 146 196 255 314 388 468
#     4  11  26  46  71 109 145 192 256 317 389 461
#     4  11  25  41  76 106 145 194 249 322 393 459
#     4  11  24  46  69 106 150 202 255 313 389 461
#     4  11  23  44  71 106 141 188 247 320 386 456
#     4  12  24  42  74 110 151 200 258 316 387 461
#     4  11  25  45  70 106 152 201 254 316 383 462
#
# _framework density 24.337861
#
# number of rings (size 3 to 8) (size 9 to 14) (size 15 to 20)
#    0.000    0.750    3.750    2.625    5.250    4.000 
#    4.500    0.000    0.000    0.000    0.000    0.000 
#    0.000    0.000    0.000    0.000    0.000    0.000 
#
# Total GULP energy -89317.769666 kJ/mol
# GULP energy per Si atom -5582.360604 kJ/mol
# Density = 2.428247 g / cm^3
# Si number density = 24.337861 Si / 1000 Ang^3
#
#
#
# Elastic Constant Matrix: (Units=GPa)
#
#
# Indices 1 2 3 4 5 6 
#
# 1 105.7708 28.6644 39.4925 9.0330 15.8149 11.5649
# 2 28.6644 76.3977 9.6850 -0.2833 6.7903 9.0197
# 3 39.4925 9.6850 118.1944 -0.1620 -14.2405 -2.0013
# 4 9.0330 -0.2833 -0.1620 35.9502 6.7617 -0.0220
# 5 15.8149 6.7903 -14.2405 6.7617 42.2371 8.2235
# 6 11.5649 9.0197 -2.0013 -0.0220 8.2235 47.6220
#
#
#
# Elastic Compliance Matrix: (Units=1/GPa)
#
#
# Indices 1 2 3 4 5 6 
#
# 1 0.013509 -0.003765 -0.004884 -0.002441 -0.005349 -0.001850
# 2 -0.003765 0.014799 -0.000086 0.001222 -0.000854 -0.001744
# 3 -0.004884 -0.000086 0.010748 0.000283 0.005277 0.000743
# 4 -0.002441 0.001222 0.000283 0.029208 -0.004075 0.001090
# 5 -0.005349 -0.000854 0.005277 -0.004075 0.028891 -0.003308
# 6 -0.001850 -0.001744 0.000743 0.001090 -0.003308 0.022381
#
#
# Mechanical properties :
#
#
# Convention : Reuss Voigt Hill
#
# Bulk Modulus (GPa) = 46.32352 50.67187 48.49769
# Shear Modulus (GPa) = 34.67364 39.99661 37.33513
#
# Velocity S-wave (km/s) = 3.77859 4.05827 3.92092
# Velocity P-wave (km/s) = 6.17348 6.54407 6.36147
#
# Compressibility (1/GPa) = 0.02158731
#
# Stress axis : x y z
#
# Youngs Moduli (GPa) = 74.02548 67.57162 93.03722
#
# Poissons Ratio (x) = 0.25438 0.45443
# Poissons Ratio (y) = 0.27867 0.00797
# Poissons Ratio (z) = 0.36157 0.00579
#
# Static dielectric constant tensor:
#      x y z
#    x 2.122720 0.021110 -0.027340 
#    y 0.021110 2.032080 0.023840 
#    z -0.027340 0.023840 1.938050 
# 
# From -- ./inp_files/551300.got.cif
#   From: 2010.05.17/outbox.cif.g08.bks.cpg/sg2_276_cif.got.tgz:551300.got - 2010.06.03 11:33:40.
