data_PCOD9061535
_publ_section_title
;
Structure prediction by ZEFSAII (Michael W. Deem and Ramdas Pophale) SiO2 
 PCOD9061535
Probable space group: P -1
;
_chemical_formula_sum "Si O2"
_cell_formula_units_Z 16
_cell_length_a 8.839242
_cell_length_b 8.761291
_cell_length_c 12.403161
_cell_angle_alpha 58.281460
_cell_angle_beta 120.165931
_cell_angle_gamma 112.810329
_cell_volume 696.391470
_symmetry_space_group_name_H-M "P -1"
_symmetry_group_IT_number 2
_symmetry_cell_setting 'triclinic'
loop_
_space_group_symop_operation_xyz
x,y,z
-x,-y,-z
loop_
_atom_site_type_symbol
_atom_site_label
_atom_site_fract_x
_atom_site_fract_y
_atom_site_fract_z
Si Si1 0.342752 0.711182 0.602275
Si Si2 0.963210 0.787202 0.877969
Si Si3 0.967702 0.070379 0.581275
Si Si4 0.748015 0.412128 0.851738
Si Si5 0.284480 0.701986 0.349385
Si Si6 0.120333 0.327006 0.706111
Si Si7 0.448178 0.186973 0.955554
Si Si8 0.620114 0.879746 0.807999
O O1 0.228160 0.876062 0.501066
O O2 0.374008 0.661113 0.508528
O O3 0.217412 0.534367 0.671254
O O4 0.516837 0.779559 0.707115
O O5 0.862238 0.597688 0.863820
O O6 0.823605 0.853425 0.884048
O O7 0.994141 0.923974 0.736903
O O8 0.134351 0.744053 0.018306
O O9 0.094442 0.254268 0.600310
O O10 0.000000 0.000000 0.500000
O O11 0.710624 0.417570 0.709948
O O12 0.568113 0.352311 0.875417
O O13 0.076318 0.696134 0.306557
O O14 0.375111 0.905315 0.274569
O O15 0.245442 0.204159 0.853789
O O16 0.475445 0.197971 0.088749
O O17 0.500000 0.000000 0.000000
#
# Coordination Sequence:
#
# PCOD9061535 Si02
#       8
#     2   2   2   2   2   2   2   2
#     4  11  26  45  70 102 138 183 228 275 349 407
#     4  11  25  45  68 104 136 178 234 274 351 398
#     4  11  25  41  71 100 140 179 225 284 340 406
#     4  11  26  43  69 104 137 177 227 293 332 403
#     4  11  23  45  72  98 138 180 228 276 341 414
#     4  11  25  46  70 102 136 182 231 274 346 409
#     4  12  26  44  71 102 136 177 234 284 343 396
#     4  12  25  46  72  97 140 181 228 280 340 417
#
# _framework density 22.975581999999999
#
# number of rings (size 3 to 8) (size 9 to 14) (size 15 to 20)
#    0.000    0.750    3.750    4.125    7.000    4.000 
#    0.000    1.250    0.000    0.000    0.000    0.000 
#    0.000    0.000    0.000    0.000    0.000    0.000 
#
# Total GULP energy -89570.548097 kJ/mol
# GULP energy per Si atom -5598.159256 kJ/mol
# Density = 2.292329 g / cm^3
# Si number density = 22.975582 Si / 1000 Ang^3
#
#
#
# Elastic Constant Matrix: (Units=GPa)
#
#
# Indices 1 2 3 4 5 6 
#
# 1 59.9456 -0.1721 31.9711 14.7853 -15.4611 2.3435
# 2 -0.1721 49.6076 -0.7352 3.7236 -6.9958 13.5102
# 3 31.9711 -0.7352 83.1501 13.6864 -1.9035 -10.3173
# 4 14.7853 3.7236 13.6864 37.1413 -7.9382 3.2684
# 5 -15.4611 -6.9958 -1.9035 -7.9382 43.3278 5.2798
# 6 2.3435 13.5102 -10.3173 3.2684 5.2798 26.4383
#
#
#
# Elastic Compliance Matrix: (Units=1/GPa)
#
#
# Indices 1 2 3 4 5 6 
#
# 1 0.026258 0.004445 -0.010434 -0.003988 0.010142 -0.010203
# 2 0.004445 0.025630 -0.003319 -0.000069 0.007550 -0.016285
# 3 -0.010434 -0.003319 0.017999 -0.004347 -0.005643 0.011309
# 4 -0.003988 -0.000069 -0.004347 0.031725 0.004945 -0.006217
# 5 0.010142 0.007550 -0.005643 0.004945 0.030234 -0.013609
# 6 -0.010203 -0.016285 0.011309 -0.006217 -0.013609 0.054950
#
#
# Mechanical properties :
#
#
# Convention : Reuss Voigt Hill
#
# Bulk Modulus (GPa) = 19.50488 28.31454 23.90971
# Shear Modulus (GPa) = 22.47184 32.15744 27.31464
#
# Velocity S-wave (km/s) = 3.13081 3.74523 3.45172
# Velocity P-wave (km/s) = 4.64512 5.57251 5.12981
#
# Compressibility (1/GPa) = 0.05126923
#
# Stress axis : x y z
#
# Youngs Moduli (GPa) = 38.08409 39.01746 55.55982
#
# Poissons Ratio (x) = -0.17342 0.57972
# Poissons Ratio (y) = -0.16927 0.18439
# Poissons Ratio (z) = 0.39737 0.12949
#
# Static dielectric constant tensor:
#      x y z
#    x 1.835860 -0.008560 0.020090 
#    y -0.008560 1.847050 -0.027370 
#    z 0.020090 -0.027370 1.863950 
# 
# From -- ./inp_files/381495.got.cif
#   From: 2010.05.17/outbox.cif.g08.bks.cpg/sg2_191_cif.got.tgz:381495.got - 2010.06.03 11:33:40.
