data_PCOD9061041
_publ_section_title
;
Structure prediction by ZEFSAII (Michael W. Deem and Ramdas Pophale) SiO2 
 PCOD9061041
Probable space group: P -1
;
_chemical_formula_sum "Si O2"
_cell_formula_units_Z 14
_cell_length_a 12.128132
_cell_length_b 14.953889
_cell_length_c 8.135933
_cell_angle_alpha 33.493256
_cell_angle_beta 116.613466
_cell_angle_gamma 135.571732
_cell_volume 526.765466
_symmetry_space_group_name_H-M "P -1"
_symmetry_group_IT_number 2
_symmetry_cell_setting 'triclinic'
loop_
_space_group_symop_operation_xyz
x,y,z
-x,-y,-z
loop_
_atom_site_type_symbol
_atom_site_label
_atom_site_fract_x
_atom_site_fract_y
_atom_site_fract_z
Si Si1 0.184885 0.938183 0.589635
Si Si2 0.443996 0.828442 0.482459
Si Si3 0.183759 0.225264 0.700275
Si Si4 0.324795 0.363066 0.237453
Si Si5 0.760459 0.043699 0.763610
Si Si6 0.652472 0.447716 0.437353
Si Si7 0.008780 0.697078 0.167454
O O1 0.355671 0.986679 0.644181
O O2 0.247759 0.171501 0.340818
O O3 0.136031 0.867797 0.474591
O O4 0.054355 0.763025 0.908232
O O5 0.377377 0.595668 0.872207
O O6 0.356704 0.905786 0.382794
O O7 0.402974 0.770586 0.349486
O O8 0.191814 0.241778 0.484992
O O9 0.276922 0.470481 0.456883
O O10 0.312806 0.203893 0.893277
O O11 0.000000 0.000000 0.000000
O O12 0.495523 0.422249 0.322892
O O13 0.857246 0.129790 0.870577
O O14 0.836324 0.634648 0.186226
O O15 0.000000 0.500000 0.500000
#
# Coordination Sequence:
#
# PCOD9061041 Si02
#       7
#     2   2   2   2   2   2   2
#     4  11  25  47  77 105 145 197 244 304 364 436
#     4  11  25  47  73 107 148 189 249 302 369 434
#     4  12  24  44  72 110 145 191 247 296 362 439
#     4  11  24  47  74 108 145 197 241 304 365 435
#     4  12  25  47  74 106 146 188 248 297 372 428
#     4  11  23  44  71  99 148 189 242 298 357 440
#     4  12  26  48  72 111 149 192 246 304 369 433
#
# _framework density 26.577292
#
# number of rings (size 3 to 8) (size 9 to 14) (size 15 to 20)
#    0.000    0.571    4.286    4.286    0.000    4.571 
#    0.000    6.429    0.000    0.000    0.000    0.000 
#    0.000    0.000    0.000    0.000    0.000    0.000 
#
# Total GULP energy -78190.772018 kJ/mol
# GULP energy per Si atom -5585.055144 kJ/mol
# Density = 2.651680 g / cm^3
# Si number density = 26.577292 Si / 1000 Ang^3
#
#
#
# Elastic Constant Matrix: (Units=GPa)
#
#
# Indices 1 2 3 4 5 6 
#
# 1 144.7287 6.2909 40.6021 13.1748 4.5849 -9.3842
# 2 6.2909 91.7872 7.4213 18.3786 2.3303 -23.3040
# 3 40.6021 7.4213 103.9312 11.2629 -3.5732 -7.6720
# 4 13.1748 18.3786 11.2629 30.7101 -3.2705 -5.9327
# 5 4.5849 2.3303 -3.5732 -3.2705 30.5956 1.5357
# 6 -9.3842 -23.3040 -7.6720 -5.9327 1.5357 51.0099
#
#
#
# Elastic Compliance Matrix: (Units=1/GPa)
#
#
# Indices 1 2 3 4 5 6 
#
# 1 0.008073 0.000540 -0.002886 -0.002733 -0.001932 0.001038
# 2 0.000540 0.013880 -0.000033 -0.007681 -0.002245 0.005610
# 3 -0.002886 -0.000033 0.011132 -0.002520 0.001426 0.000792
# 4 -0.002733 -0.007681 -0.002520 0.039801 0.004950 0.000089
# 5 -0.001932 -0.002245 0.001426 0.004950 0.033922 -0.001612
# 6 0.001038 0.005610 0.000792 0.000089 -0.001612 0.022536
#
#
# Mechanical properties :
#
#
# Convention : Reuss Voigt Hill
#
# Bulk Modulus (GPa) = 35.30164 49.89731 42.59947
# Shear Modulus (GPa) = 34.83286 41.53865 38.18576
#
# Velocity S-wave (km/s) = 3.62418 3.95769 3.79460
# Velocity P-wave (km/s) = 5.55197 6.30076 5.93818
#
# Compressibility (1/GPa) = 0.02832730
#
# Stress axis : x y z
#
# Youngs Moduli (GPa) = 123.87015 72.04806 89.82994
#
# Poissons Ratio (x) = -0.03890 0.25925
# Poissons Ratio (y) = -0.06688 0.00294
# Poissons Ratio (z) = 0.35749 0.00236
#
# Static dielectric constant tensor:
#      x y z
#    x 2.202550 -0.073850 0.026540 
#    y -0.073850 2.313690 0.000940 
#    z 0.026540 0.000940 2.165480 
# 
# From -- ./inp_files/269476.got.cif
#   From: 2010.05.17/outbox.cif.g08.bks.cpg/sg2_135_cif.got.tgz:269476.got - 2010.06.03 11:33:40.
