data_PCOD9061385
_publ_section_title
;
Structure prediction by ZEFSAII (Michael W. Deem and Ramdas Pophale) SiO2 
 PCOD9061385
Probable space group: P -1
;
_chemical_formula_sum "Si O2"
_cell_formula_units_Z 16
_cell_length_a 16.831719
_cell_length_b 6.774791
_cell_length_c 9.140237
_cell_angle_alpha 56.270488
_cell_angle_beta 64.343572
_cell_angle_gamma 82.822835
_cell_volume 772.036556
_symmetry_space_group_name_H-M "P -1"
_symmetry_group_IT_number 2
_symmetry_cell_setting 'triclinic'
loop_
_space_group_symop_operation_xyz
x,y,z
-x,-y,-z
loop_
_atom_site_type_symbol
_atom_site_label
_atom_site_fract_x
_atom_site_fract_y
_atom_site_fract_z
Si Si1 0.270253 0.117952 0.612000
Si Si2 0.415255 0.798317 0.613234
Si Si3 0.909989 0.812352 0.122165
Si Si4 0.026663 0.622327 0.583649
Si Si5 0.283041 0.072989 0.274937
Si Si6 0.365262 0.648439 0.384727
Si Si7 0.881936 0.837407 0.789280
Si Si8 0.468092 0.368139 0.931607
O O1 0.173994 0.096124 0.771281
O O2 0.261519 0.121839 0.440730
O O3 0.329005 0.366046 0.516756
O O4 0.326991 0.905174 0.687755
O O5 0.403107 0.732469 0.479227
O O6 0.430993 0.559347 0.779393
O O7 0.500000 0.000000 0.500000
O O8 0.923642 0.558263 0.287029
O O9 0.892221 0.795965 0.969848
O O10 0.000000 0.000000 0.000000
O O11 0.000000 0.500000 0.500000
O O12 0.939711 0.670656 0.722756
O O13 0.080711 0.886083 0.398590
O O14 0.219396 0.194793 0.170792
O O15 0.282046 0.790017 0.365491
O O16 0.385597 0.171519 0.119872
O O17 0.446042 0.708215 0.182086
O O18 0.500000 0.500000 0.000000
#
# Coordination Sequence:
#
# PCOD9061385 Si02
#       8
#     2   2   2   2   2   2   2   2
#     4  11  25  46  67  96 141 177 227 283 342 404
#     4  11  24  43  68  99 135 180 226 280 337 406
#     4  12  26  46  72 102 139 185 231 282 348 413
#     4  11  23  48  73  97 141 178 225 289 347 406
#     4  11  25  43  67 102 135 174 232 282 338 409
#     4  11  23  45  69  93 139 182 217 283 345 396
#     4  11  26  44  72 104 134 182 228 285 348 407
#     4  12  23  43  67  97 135 180 225 275 341 409
#
# _framework density 20.724408
#
# number of rings (size 3 to 8) (size 9 to 14) (size 15 to 20)
#    0.000    0.750    3.750    3.375    3.500    2.000 
#    4.500    0.000    0.000    0.000    0.000    0.000 
#    0.000    0.000    0.000    0.000    0.000    0.000 
#
# Total GULP energy -89494.921969 kJ/mol
# GULP energy per Si atom -5593.432623 kJ/mol
# Density = 2.067724 g / cm^3
# Si number density = 20.724408 Si / 1000 Ang^3
#
#
#
# Elastic Constant Matrix: (Units=GPa)
#
#
# Indices 1 2 3 4 5 6 
#
# 1 126.7185 52.9802 48.1737 33.3963 7.7754 -15.7685
# 2 52.9802 127.4168 47.9298 38.0362 -0.3375 -15.8437
# 3 48.1737 47.9298 102.8184 31.9034 4.0924 -11.6904
# 4 33.3963 38.0362 31.9034 38.7867 -5.6841 -3.8455
# 5 7.7754 -0.3375 4.0924 -5.6841 50.5918 -3.1868
# 6 -15.7685 -15.8437 -11.6904 -3.8455 -3.1868 29.4795
#
#
#
# Elastic Compliance Matrix: (Units=1/GPa)
#
#
# Indices 1 2 3 4 5 6 
#
# 1 0.011724 -0.001645 -0.002183 -0.006665 -0.002170 0.003417
# 2 -0.001645 0.012326 -0.001774 -0.008871 -0.000275 0.003855
# 3 -0.002183 -0.001774 0.014485 -0.008300 -0.001632 0.002364
# 4 -0.006665 -0.008871 -0.008300 0.047560 0.006684 -0.004697
# 5 -0.002170 -0.000275 -0.001632 0.006684 0.021056 0.001192
# 6 0.003417 0.003855 0.002364 -0.004697 0.001192 0.038275
#
#
# Mechanical properties :
#
#
# Convention : Reuss Voigt Hill
#
# Bulk Modulus (GPa) = 36.58818 72.79124 54.68971
# Shear Modulus (GPa) = 30.16779 37.62960 33.89869
#
# Velocity S-wave (km/s) = 3.81946 4.26574 4.04875
# Velocity P-wave (km/s) = 6.09458 7.71115 6.95003
#
# Compressibility (1/GPa) = 0.02733123
#
# Stress axis : x y z
#
# Youngs Moduli (GPa) = 85.29375 81.12999 69.03870
#
# Poissons Ratio (x) = 0.13344 0.15074
# Poissons Ratio (y) = 0.14029 0.12244
# Poissons Ratio (z) = 0.18623 0.14389
#
# Static dielectric constant tensor:
#      x y z
#    x 1.750610 0.021030 -0.017710 
#    y 0.021030 1.744890 -0.040440 
#    z -0.017710 -0.040440 1.736460 
# 
# From -- ./inp_files/37795.got.cif
#   From: 2010.05.17/outbox.cif.g08.bks.cpg/sg2_19_cif.got.tgz:37795.got - 2010.06.03 11:33:40.
