data_PCOD9061953
_publ_section_title
;
Structure prediction by ZEFSAII (Michael W. Deem and Ramdas Pophale) SiO2 
 PCOD9061953
Probable space group: P -1
;
_chemical_formula_sum "Si O2"
_cell_formula_units_Z 14
_cell_length_a 15.223915
_cell_length_b 11.708354
_cell_length_c 9.199489
_cell_angle_alpha 120.506689
_cell_angle_beta 32.762535
_cell_angle_gamma 134.901097
_cell_volume 612.549017
_symmetry_space_group_name_H-M "P -1"
_symmetry_group_IT_number 2
_symmetry_cell_setting 'triclinic'
loop_
_space_group_symop_operation_xyz
x,y,z
-x,-y,-z
loop_
_atom_site_type_symbol
_atom_site_label
_atom_site_fract_x
_atom_site_fract_y
_atom_site_fract_z
Si Si1 0.084682 0.303156 0.560666
Si Si2 0.663761 0.988854 0.843792
Si Si3 0.906724 0.878680 0.297089
Si Si4 0.443048 0.858737 0.372396
Si Si5 0.692834 0.741597 0.005365
Si Si6 0.297536 0.402282 0.812578
Si Si7 0.028982 0.553233 0.664833
O O1 0.065677 0.230257 0.699076
O O2 0.269006 0.316197 0.235527
O O3 0.087298 0.459093 0.625808
O O4 0.880642 0.164123 0.668382
O O5 0.721811 0.880124 0.613509
O O6 0.582850 0.931652 0.082038
O O7 0.500000 0.000000 0.000000
O O8 0.844724 0.783779 0.171662
O O9 0.108980 0.066070 0.129237
O O10 0.213562 0.746206 0.559659
O O11 0.500000 0.000000 0.500000
O O12 0.504124 0.747214 0.282727
O O13 0.672830 0.620274 0.076463
O O14 0.500000 0.500000 0.500000
O O15 0.179130 0.481878 0.018415
O O16 0.000000 0.500000 0.500000
#
# Coordination Sequence:
#
# PCOD9061953 Si02
#       7
#     2   2   2   2   2   2   2
#     4  11  23  46  75 102 148 191 246 299 372 441
#     4  11  24  42  72 107 146 193 248 301 360 445
#     4  11  24  47  73 106 145 194 246 301 371 438
#     4  12  27  45  76 110 146 196 255 298 366 441
#     4  11  23  49  71 106 145 195 241 305 366 441
#     4  12  30  46  72 106 148 194 248 305 373 438
#     4  12  28  49  75 109 154 196 244 306 377 440
#
# _framework density 22.855314
#
# number of rings (size 3 to 8) (size 9 to 14) (size 15 to 20)
#    0.000    0.571    4.286    3.000   10.000    1.143 
#    0.000    0.000    0.000    0.000    0.000    0.000 
#    0.000    0.000    0.000    0.000    0.000    0.000 
#
# Total GULP energy -78316.137327 kJ/mol
# GULP energy per Si atom -5594.009809 kJ/mol
# Density = 2.280329 g / cm^3
# Si number density = 22.855314 Si / 1000 Ang^3
#
#
#
# Elastic Constant Matrix: (Units=GPa)
#
#
# Indices 1 2 3 4 5 6 
#
# 1 76.4691 18.8503 13.6905 3.6497 -17.5312 -1.6703
# 2 18.8503 66.2025 27.6909 1.7502 -10.5019 -3.0086
# 3 13.6905 27.6909 106.9913 9.5251 -23.6288 3.7143
# 4 3.6497 1.7502 9.5251 36.4873 -6.9374 -3.6463
# 5 -17.5312 -10.5019 -23.6288 -6.9374 40.3063 0.6974
# 6 -1.6703 -3.0086 3.7143 -3.6463 0.6974 40.5712
#
#
#
# Elastic Compliance Matrix: (Units=1/GPa)
#
#
# Indices 1 2 3 4 5 6 
#
# 1 0.015248 -0.003510 0.000261 -0.000298 0.005815 0.000217
# 2 -0.003510 0.018034 -0.004166 0.000900 0.000856 0.001640
# 3 0.000261 -0.004166 0.011882 -0.002015 0.005675 -0.001665
# 4 -0.000298 0.000900 -0.002015 0.028930 0.003855 0.002773
# 5 0.005815 0.000856 0.005675 0.003855 0.031560 -0.000413
# 6 0.000217 0.001640 -0.001665 0.002773 -0.000413 0.025187
#
#
# Mechanical properties :
#
#
# Convention : Reuss Voigt Hill
#
# Bulk Modulus (GPa) = 32.96854 41.12512 37.04683
# Shear Modulus (GPa) = 32.09570 36.10168 34.09869
#
# Velocity S-wave (km/s) = 3.75146 3.97870 3.86675
# Velocity P-wave (km/s) = 5.76375 6.25615 6.01499
#
# Compressibility (1/GPa) = 0.03033195
#
# Stress axis : x y z
#
# Youngs Moduli (GPa) = 65.58228 55.45094 84.15998
#
# Poissons Ratio (x) = 0.19466 -0.02194
# Poissons Ratio (y) = 0.23023 0.35064
# Poissons Ratio (z) = -0.01710 0.23103
#
# Static dielectric constant tensor:
#      x y z
#    x 1.893470 -0.018720 -0.048160 
#    y -0.018720 1.913390 -0.000840 
#    z -0.048160 -0.000840 1.826590 
# 
# From -- ./inp_files/156189.got.cif
#   From: 2010.05.17/outbox.cif.g08.bks.cpg/sg2_79_cif.got.tgz:156189.got - 2010.06.03 11:33:40.
