data_PCOD9061662
_publ_section_title
;
Structure prediction by ZEFSAII (Michael W. Deem and Ramdas Pophale) SiO2 
 PCOD9061662
Probable space group: P -1
;
_chemical_formula_sum "Si O2"
_cell_formula_units_Z 14
_cell_length_a 11.537992
_cell_length_b 10.753858
_cell_length_c 5.430365
_cell_angle_alpha 113.867505
_cell_angle_beta 85.061085
_cell_angle_gamma 114.889435
_cell_volume 556.053094
_symmetry_space_group_name_H-M "P -1"
_symmetry_group_IT_number 2
_symmetry_cell_setting 'triclinic'
loop_
_space_group_symop_operation_xyz
x,y,z
-x,-y,-z
loop_
_atom_site_type_symbol
_atom_site_label
_atom_site_fract_x
_atom_site_fract_y
_atom_site_fract_z
Si Si1 0.487932 0.875426 0.207906
Si Si2 0.693337 0.458540 0.989269
Si Si3 0.388144 0.347172 0.511799
Si Si4 0.939315 0.530817 0.284145
Si Si5 0.031593 0.934289 0.194680
Si Si6 0.152917 0.329493 0.249949
Si Si7 0.328964 0.029026 0.146186
O O1 0.423915 0.700836 0.137972
O O2 0.500000 0.000000 0.500000
O O3 0.385998 0.906007 0.075528
O O4 0.627305 0.921196 0.101109
O O5 0.767891 0.507426 0.757720
O O6 0.651296 0.588691 0.185991
O O7 0.788667 0.448336 0.173891
O O8 0.500000 0.500000 0.500000
O O9 0.264751 0.292300 0.308561
O O10 0.402715 0.191251 0.402386
O O11 0.939396 0.685360 0.512447
O O12 0.000000 0.500000 0.500000
O O13 0.000000 0.500000 0.000000
O O14 0.179364 0.960437 0.181455
O O15 0.000000 0.000000 0.500000
O O16 0.933020 0.762408 0.033585
O O17 0.000000 0.000000 0.000000
#
# Coordination Sequence:
#
# PCOD9061662 Si02
#       7
#     2   2   2   2   2   2   2
#     4  11  28  46  75 109 159 209 257 322 399 478
#     4  11  25  45  72 115 148 200 259 321 386 471
#     4  11  23  45  76 105 150 197 259 321 384 460
#     4  11  24  44  72 106 152 199 253 310 386 457
#     4  12  28  50  80 115 161 206 264 330 401 473
#     4  11  26  44  76 114 154 198 265 321 397 464
#     4  11  26  50  72 110 155 205 263 318 399 463
#
# _framework density 25.177453
#
# number of rings (size 3 to 8) (size 9 to 14) (size 15 to 20)
#    0.000    0.857    4.286    0.857    8.000    4.000 
#    0.000    0.000    0.000    0.000    0.000    0.000 
#    0.000    0.000    0.000    0.000    0.000    0.000 
#
# Total GULP energy -78075.636552 kJ/mol
# GULP energy per Si atom -5576.831182 kJ/mol
# Density = 2.512015 g / cm^3
# Si number density = 25.177453 Si / 1000 Ang^3
#
#
#
# Elastic Constant Matrix: (Units=GPa)
#
#
# Indices 1 2 3 4 5 6 
#
# 1 101.9089 6.4058 42.9103 -3.6687 -16.6160 10.6684
# 2 6.4058 83.7796 29.4910 10.3319 -14.9195 2.4917
# 3 42.9103 29.4910 202.7865 -7.1334 -24.8418 16.3204
# 4 -3.6687 10.3319 -7.1334 44.9347 1.8929 0.9580
# 5 -16.6160 -14.9195 -24.8418 1.8929 53.3495 -7.1652
# 6 10.6684 2.4917 16.3204 0.9580 -7.1652 39.4647
#
#
#
# Elastic Compliance Matrix: (Units=1/GPa)
#
#
# Indices 1 2 3 4 5 6 
#
# 1 0.011217 0.000250 -0.001954 0.000486 0.002393 -0.001818
# 2 0.000250 0.013541 -0.001791 -0.003524 0.003221 0.000488
# 3 -0.001954 -0.001791 0.005946 0.001171 0.001404 -0.001591
# 4 0.000486 -0.003524 0.001171 0.023370 -0.001278 -0.001193
# 5 0.002393 0.003221 0.001404 -0.001278 0.021424 0.002490
# 6 -0.001818 0.000488 -0.001591 -0.001193 0.002490 0.026939
#
#
# Mechanical properties :
#
#
# Convention : Reuss Voigt Hill
#
# Bulk Modulus (GPa) = 42.16472 60.67657 51.42064
# Shear Modulus (GPa) = 42.61444 48.19430 45.40437
#
# Velocity S-wave (km/s) = 4.11854 4.37989 4.25122
# Velocity P-wave (km/s) = 6.27693 7.05193 6.67569
#
# Compressibility (1/GPa) = 0.02371651
#
# Stress axis : x y z
#
# Youngs Moduli (GPa) = 89.14699 73.84976 168.16870
#
# Poissons Ratio (x) = -0.01847 0.32852
# Poissons Ratio (y) = -0.02230 0.30116
# Poissons Ratio (z) = 0.17415 0.13225
#
# Static dielectric constant tensor:
#      x y z
#    x 2.118440 -0.141960 0.000040 
#    y -0.141960 2.207230 -0.031840 
#    z 0.000040 -0.031840 2.113510 
# 
# From -- ./inp_files/72230.got.cif
#   From: 2010.05.17/outbox.cif.g08.bks.cpg/sg2_37_cif.got.tgz:72230.got - 2010.06.03 11:33:40.
