data_PCOD9061377
_publ_section_title
;
Structure prediction by ZEFSAII (Michael W. Deem and Ramdas Pophale) SiO2 
 PCOD9061377
Probable space group: P -1
;
_chemical_formula_sum "Si O2"
_cell_formula_units_Z 14
_cell_length_a 8.699829
_cell_length_b 16.969401
_cell_length_c 7.525099
_cell_angle_alpha 61.673418
_cell_angle_beta 123.842980
_cell_angle_gamma 74.993284
_cell_volume 567.339325
_symmetry_space_group_name_H-M "P -1"
_symmetry_group_IT_number 2
_symmetry_cell_setting 'triclinic'
loop_
_space_group_symop_operation_xyz
x,y,z
-x,-y,-z
loop_
_atom_site_type_symbol
_atom_site_label
_atom_site_fract_x
_atom_site_fract_y
_atom_site_fract_z
Si Si1 0.698064 0.401836 0.074898
Si Si2 0.299755 0.205493 0.169354
Si Si3 0.179864 0.126183 0.646829
Si Si4 0.104625 0.543498 0.142917
Si Si5 0.586903 0.673679 0.157572
Si Si6 0.841283 0.935803 0.938207
Si Si7 0.096256 0.886512 0.806751
O O1 0.018572 0.273832 0.436717
O O2 0.500000 0.500000 0.000000
O O3 0.680600 0.476220 0.816940
O O4 0.595406 0.338005 0.038423
O O5 0.197373 0.154457 0.050532
O O6 0.569180 0.081089 0.569396
O O7 0.348828 0.268546 0.993801
O O8 0.104960 0.312036 0.077413
O O9 0.077391 0.132462 0.379275
O O10 0.084437 0.092647 0.778531
O O11 0.500000 0.000000 0.000000
O O12 0.187360 0.463291 0.461377
O O13 0.000000 0.500000 0.000000
O O14 0.406593 0.771117 0.097974
O O15 0.043710 0.905649 0.959878
O O16 0.000000 0.000000 0.500000
#
# Coordination Sequence:
#
# PCOD9061377 Si02
#       7
#     2   2   2   2   2   2   2
#     4  11  26  46  67 104 142 185 238 291 363 424
#     4  11  23  45  69 105 138 183 240 286 364 423
#     4  11  25  43  73 103 139 189 241 292 351 428
#     4  12  27  44  73 103 141 190 240 290 362 437
#     4  11  25  45  70  99 147 180 231 302 355 423
#     4  11  24  43  75 101 142 188 235 298 354 429
#     4  11  24  46  66 106 144 184 234 293 360 420
#
# _framework density 24.676589
#
# number of rings (size 3 to 8) (size 9 to 14) (size 15 to 20)
#    0.000    0.857    1.429    6.000    6.000    1.714 
#    0.000    0.000    0.000    0.000    0.000    0.000 
#    0.000    0.000    0.000    0.000    0.000    0.000 
#
# Total GULP energy -78261.950732 kJ/mol
# GULP energy per Si atom -5590.139338 kJ/mol
# Density = 2.462042 g / cm^3
# Si number density = 24.676589 Si / 1000 Ang^3
#
#
#
# Elastic Constant Matrix: (Units=GPa)
#
#
# Indices 1 2 3 4 5 6 
#
# 1 150.4053 47.9003 38.3284 -10.7918 -40.4462 -11.5329
# 2 47.9003 71.1100 50.9877 -14.1137 -3.5363 -5.4179
# 3 38.3284 50.9877 85.9121 -24.0840 -11.3159 -6.3494
# 4 -10.7918 -14.1137 -24.0840 43.8734 -5.2868 -5.7558
# 5 -40.4462 -3.5363 -11.3159 -5.2868 49.9966 -7.7941
# 6 -11.5329 -5.4179 -6.3494 -5.7558 -7.7941 52.1527
#
#
#
# Elastic Compliance Matrix: (Units=1/GPa)
#
#
# Indices 1 2 3 4 5 6 
#
# 1 0.012150 -0.008165 0.002064 0.003317 0.010701 0.004055
# 2 -0.008165 0.030112 -0.016288 -0.002619 -0.008792 -0.002263
# 3 0.002064 -0.016288 0.024580 0.010232 0.007795 0.004051
# 4 0.003317 -0.002619 0.010232 0.030309 0.009016 0.006400
# 5 0.010701 -0.008792 0.007795 0.009016 0.032030 0.008184
# 6 0.004055 -0.002263 0.004051 0.006400 0.008184 0.022259
#
#
# Mechanical properties :
#
#
# Convention : Reuss Voigt Hill
#
# Bulk Modulus (GPa) = 45.32123 64.65113 54.98618
# Shear Modulus (GPa) = 24.56144 40.55192 32.55668
#
# Velocity S-wave (km/s) = 3.15831 4.05821 3.63621
# Velocity P-wave (km/s) = 5.63080 6.94370 6.32143
#
# Compressibility (1/GPa) = 0.02206472
#
# Stress axis : x y z
#
# Youngs Moduli (GPa) = 82.30694 33.20930 40.68371
#
# Poissons Ratio (x) = 0.27115 -0.08399
# Poissons Ratio (y) = 0.67203 0.66265
# Poissons Ratio (z) = -0.16992 0.54091
#
# Static dielectric constant tensor:
#      x y z
#    x 2.017090 0.011330 0.046430 
#    y 0.011330 1.939320 0.046840 
#    z 0.046430 0.046840 1.939310 
# 
# From -- ./inp_files/216801.got.cif
#   From: 2010.05.17/outbox.cif.g08.bks.cpg/sg2_109_cif.got.tgz:216801.got - 2010.06.03 11:33:40.
