data_PCOD9061836
_publ_section_title
;
Structure prediction by ZEFSAII (Michael W. Deem and Ramdas Pophale) SiO2 
 PCOD9061836
Probable space group: P -1
;
_chemical_formula_sum "Si O2"
_cell_formula_units_Z 16
_cell_length_a 9.397383
_cell_length_b 13.219787
_cell_length_c 8.494320
_cell_angle_alpha 113.329153
_cell_angle_beta 109.419323
_cell_angle_gamma 114.487518
_cell_volume 709.207455
_symmetry_space_group_name_H-M "P -1"
_symmetry_group_IT_number 2
_symmetry_cell_setting 'triclinic'
loop_
_space_group_symop_operation_xyz
x,y,z
-x,-y,-z
loop_
_atom_site_type_symbol
_atom_site_label
_atom_site_fract_x
_atom_site_fract_y
_atom_site_fract_z
Si Si1 0.295088 0.866538 0.774521
Si Si2 0.482906 0.339442 0.044319
Si Si3 0.023501 0.670220 0.058072
Si Si4 0.416375 0.548683 0.191155
Si Si5 0.880976 0.389236 0.251093
Si Si6 0.392224 0.766817 0.456851
Si Si7 0.818744 0.020799 0.792454
Si Si8 0.846410 0.976944 0.149048
O O1 0.173913 0.757555 0.802036
O O2 0.330795 0.786665 0.614405
O O3 0.186711 0.924907 0.708278
O O4 0.500000 0.000000 0.000000
O O5 0.486252 0.458829 0.207271
O O6 0.682867 0.365036 0.144422
O O7 0.467203 0.361239 0.866609
O O8 0.312587 0.184390 0.952215
O O9 0.215596 0.719297 0.249843
O O10 0.070154 0.815324 0.106664
O O11 0.007507 0.577932 0.849574
O O12 0.815145 0.571221 0.005999
O O13 0.432320 0.654955 0.387157
O O14 0.000000 0.500000 0.500000
O O15 0.597689 0.919985 0.588805
O O16 0.942537 0.979477 0.734738
O O17 0.814116 0.992157 0.961103
#
# Coordination Sequence:
#
# PCOD9061836 Si02
#       8
#     2   2   2   2   2   2   2   2
#     4  12  23  44  70 104 140 181 233 286 344 412
#     4  11  24  47  70  97 144 188 228 291 347 418
#     4  12  24  47  71 104 143 181 232 290 349 420
#     4  11  26  46  70  99 146 186 232 281 359 421
#     4  12  25  42  72 107 137 182 233 286 348 413
#     4  12  25  44  72 106 141 186 232 289 350 414
#     4  11  24  44  72 104 136 184 232 288 358 410
#     4  11  23  46  71  99 143 183 233 291 347 416
#
# _framework density 22.560396000000001
#
# number of rings (size 3 to 8) (size 9 to 14) (size 15 to 20)
#    0.000    0.500    6.250    1.500    1.750    2.000 
#    2.250    3.125    0.000    0.000    0.000    0.000 
#    0.000    0.000    0.000    0.000    0.000    0.000 
#
# Total GULP energy -89503.125283 kJ/mol
# GULP energy per Si atom -5593.945330 kJ/mol
# Density = 2.250905 g / cm^3
# Si number density = 22.560396 Si / 1000 Ang^3
#
#
#
# Elastic Constant Matrix: (Units=GPa)
#
#
# Indices 1 2 3 4 5 6 
#
# 1 124.4633 30.5464 3.4045 6.5928 -26.4661 -7.3579
# 2 30.5464 124.3614 7.5995 19.7915 -5.4147 -4.2228
# 3 3.4045 7.5995 49.3303 2.4823 -15.4707 2.8026
# 4 6.5928 19.7915 2.4823 21.5525 0.0960 -2.4897
# 5 -26.4661 -5.4147 -15.4707 0.0960 41.2048 11.9976
# 6 -7.3579 -4.2228 2.8026 -2.4897 11.9976 39.6910
#
#
#
# Elastic Compliance Matrix: (Units=1/GPa)
#
#
# Indices 1 2 3 4 5 6 
#
# 1 0.010042 -0.002059 0.001986 -0.001529 0.007148 -0.000754
# 2 -0.002059 0.009929 -0.001166 -0.008305 -0.000554 0.000403
# 3 0.001986 -0.001166 0.024481 -0.003016 0.011851 -0.005256
# 4 -0.001529 -0.008305 -0.003016 0.055306 -0.004459 0.003863
# 5 0.007148 -0.000554 0.011851 -0.004459 0.036408 -0.010856
# 6 -0.000754 0.000403 -0.005256 0.003863 -0.010856 0.028993
#
#
# Mechanical properties :
#
#
# Convention : Reuss Voigt Hill
#
# Bulk Modulus (GPa) = 23.82463 42.36176 33.09319
# Shear Modulus (GPa) = 27.52859 37.59662 32.56261
#
# Velocity S-wave (km/s) = 3.49695 4.08669 3.80327
# Velocity P-wave (km/s) = 5.18538 6.40983 5.82984
#
# Compressibility (1/GPa) = 0.04197338
#
# Stress axis : x y z
#
# Youngs Moduli (GPa) = 99.58299 100.71152 40.84759
#
# Poissons Ratio (x) = 0.20736 -0.08111
# Poissons Ratio (y) = 0.20504 0.04764
# Poissons Ratio (z) = -0.19774 0.11745
#
# Static dielectric constant tensor:
#      x y z
#    x 1.830500 -0.003840 -0.027670 
#    y -0.003840 1.837640 -0.020040 
#    z -0.027670 -0.020040 1.836830 
# 
# From -- ./inp_files/188574.got.cif
#   From: 2010.05.17/outbox.cif.g08.bks.cpg/sg2_95_cif.got.tgz:188574.got - 2010.06.03 11:33:40.
