data_PCOD9061081
_publ_section_title
;
Structure prediction by ZEFSAII (Michael W. Deem and Ramdas Pophale) SiO2 
 PCOD9061081
Probable space group: P -1
;
_chemical_formula_sum "Si O2"
_cell_formula_units_Z 16
_cell_length_a 13.991628
_cell_length_b 10.862207
_cell_length_c 9.308185
_cell_angle_alpha 62.475987
_cell_angle_beta 59.099111
_cell_angle_gamma 110.199346
_cell_volume 692.450030
_symmetry_space_group_name_H-M "P -1"
_symmetry_group_IT_number 2
_symmetry_cell_setting 'triclinic'
loop_
_space_group_symop_operation_xyz
x,y,z
-x,-y,-z
loop_
_atom_site_type_symbol
_atom_site_label
_atom_site_fract_x
_atom_site_fract_y
_atom_site_fract_z
Si Si1 0.278253 0.715796 0.532355
Si Si2 0.519093 0.839777 0.707170
Si Si3 0.069356 0.277690 0.029002
Si Si4 0.846625 0.631228 0.754115
Si Si5 0.389346 0.089186 0.738476
Si Si6 0.323743 0.327144 0.637528
Si Si7 0.724228 0.776235 0.588124
Si Si8 0.139975 0.723106 0.352241
O O1 0.107805 0.475631 0.855335
O O2 0.424146 0.735133 0.421870
O O3 0.231372 0.726246 0.407201
O O4 0.371872 0.933958 0.423525
O O5 0.565081 0.896091 0.471257
O O6 0.577929 0.743806 0.770825
O O7 0.310942 0.631072 0.997131
O O8 0.177378 0.285675 0.833026
O O9 0.135818 0.321942 0.115895
O O10 0.877768 0.033839 0.300962
O O11 0.795763 0.724697 0.662868
O O12 0.028920 0.744130 0.495191
O O13 0.277950 0.122505 0.804902
O O14 0.278499 0.887919 0.034886
O O15 0.500000 0.500000 0.500000
O O16 0.342215 0.357912 0.435541
O O17 0.000000 0.500000 0.500000
#
# Coordination Sequence:
#
# PCOD9061081 Si02
#       8
#     2   2   2   2   2   2   2   2
#     4  12  26  46  75 103 149 191 236 293 357 432
#     4  11  25  48  76 108 139 192 240 289 362 429
#     4  12  25  45  73 109 145 190 238 291 363 424
#     4  12  26  50  72 109 144 185 241 303 353 423
#     4  11  24  49  72 105 142 189 240 294 352 426
#     4  11  23  44  72 106 139 189 240 290 353 420
#     4  11  26  43  75 106 147 186 235 303 356 418
#     4  12  30  44  70 106 145 187 236 295 355 424
#
# _framework density 23.106361
#
# number of rings (size 3 to 8) (size 9 to 14) (size 15 to 20)
#    0.000    0.500    2.500    4.875    7.000    3.000 
#    0.000    0.000    0.000    0.000    0.000    0.000 
#    0.000    0.000    0.000    0.000    0.000    0.000 
#
# Total GULP energy -89411.135048 kJ/mol
# GULP energy per Si atom -5588.195940 kJ/mol
# Density = 2.305377 g / cm^3
# Si number density = 23.106361 Si / 1000 Ang^3
#
#
#
# Elastic Constant Matrix: (Units=GPa)
#
#
# Indices 1 2 3 4 5 6 
#
# 1 100.8592 22.4216 8.4955 9.9881 26.6699 2.4768
# 2 22.4216 66.4725 12.9137 -13.8629 1.8179 2.4772
# 3 8.4955 12.9137 107.7122 -12.3878 8.9720 8.1278
# 4 9.9881 -13.8629 -12.3878 18.4420 3.9053 -14.1402
# 5 26.6699 1.8179 8.9720 3.9053 37.9164 9.8146
# 6 2.4768 2.4772 8.1278 -14.1402 9.8146 41.3955
#
#
#
# Elastic Compliance Matrix: (Units=1/GPa)
#
#
# Indices 1 2 3 4 5 6 
#
# 1 0.015640 -0.008276 -0.001291 -0.017336 -0.007385 -0.004358
# 2 -0.008276 0.023695 0.000663 0.030279 -0.001060 0.009541
# 3 -0.001291 0.000663 0.010671 0.011029 -0.003438 0.002525
# 4 -0.017336 0.030279 0.011029 0.133468 -0.017743 0.046858
# 5 -0.007385 -0.001060 -0.003438 -0.017743 0.037846 -0.013854
# 6 -0.004358 0.009541 0.002525 0.046858 -0.013854 0.042642
#
#
# Mechanical properties :
#
#
# Convention : Reuss Voigt Hill
#
# Bulk Modulus (GPa) = 31.05917 40.30059 35.67988
# Shear Modulus (GPa) = 17.09391 34.96499 26.02945
#
# Velocity S-wave (km/s) = 2.72286 3.89423 3.35999
# Velocity P-wave (km/s) = 4.83284 6.13997 5.52520
#
# Compressibility (1/GPa) = 0.03219661
#
# Stress axis : x y z
#
# Youngs Moduli (GPa) = 63.93887 42.20361 93.71458
#
# Poissons Ratio (x) = 0.34927 0.12101
# Poissons Ratio (y) = 0.52914 -0.06210
# Poissons Ratio (z) = 0.08256 -0.02796
#
# Static dielectric constant tensor:
#      x y z
#    x 1.880570 -0.050300 -0.037690 
#    y -0.050300 1.881200 -0.013900 
#    z -0.037690 -0.013900 1.906070 
# 
# From -- ./inp_files/306728.got.cif
#   From: 2010.05.17/outbox.cif.g08.bks.cpg/sg2_154_cif.got.tgz:306728.got - 2010.06.03 11:33:40.
