data_PCOD9061191
_publ_section_title
;
Structure prediction by ZEFSAII (Michael W. Deem and Ramdas Pophale) SiO2 
 PCOD9061191
Probable space group: P -1
;
_chemical_formula_sum "Si O2"
_cell_formula_units_Z 12
_cell_length_a 5.608074
_cell_length_b 15.986720
_cell_length_c 9.566383
_cell_angle_alpha 141.922906
_cell_angle_beta 99.387066
_cell_angle_gamma 82.509292
_cell_volume 521.858248
_symmetry_space_group_name_H-M "P -1"
_symmetry_group_IT_number 2
_symmetry_cell_setting 'triclinic'
loop_
_space_group_symop_operation_xyz
x,y,z
-x,-y,-z
loop_
_atom_site_type_symbol
_atom_site_label
_atom_site_fract_x
_atom_site_fract_y
_atom_site_fract_z
Si Si1 0.730321 0.045168 0.989453
Si Si2 0.793360 0.594606 0.664867
Si Si3 0.255941 0.584717 0.121553
Si Si4 0.994981 0.781094 0.167658
Si Si5 0.274308 0.037112 0.431360
Si Si6 0.605560 0.331948 0.451875
O O1 0.726392 0.209660 0.215844
O O2 0.675460 0.979218 0.747432
O O3 0.500000 0.000000 0.000000
O O4 0.000000 0.000000 0.000000
O O5 0.652223 0.482888 0.597012
O O6 0.674899 0.673977 0.627085
O O7 0.000000 0.500000 0.500000
O O8 0.865702 0.702449 0.929161
O O9 0.208812 0.689060 0.128143
O O10 0.311356 0.665137 0.376649
O O11 0.500000 0.500000 0.000000
O O12 0.000000 0.500000 0.000000
O O13 0.080728 0.920476 0.291878
O O14 0.829819 0.820748 0.336821
O O15 0.500000 0.000000 0.500000
#
# Coordination Sequence:
#
# PCOD9061191 Si02
#       6
#     2   2   2   2   2   2
#     4  12  30  50  77 109 152 198 250 310 373 446
#     4  11  23  44  74 105 146 192 244 306 367 443
#     4  12  27  46  72 109 149 192 239 306 371 441
#     4  11  25  46  75 107 148 196 252 307 371 444
#     4  11  27  47  77 105 147 201 252 309 370 449
#     4  11  26  44  72 106 144 192 244 300 372 435
#
# _framework density 22.994751000000001
#
# number of rings (size 3 to 8) (size 9 to 14) (size 15 to 20)
#    0.000    0.667    1.667    4.000   14.000    2.667 
#    0.000    0.000    0.000    0.000    0.000    0.000 
#    0.000    0.000    0.000    0.000    0.000    0.000 
#
# Total GULP energy -67039.497078 kJ/mol
# GULP energy per Si atom -5586.624756 kJ/mol
# Density = 2.294241 g / cm^3
# Si number density = 22.994751 Si / 1000 Ang^3
#
#
#
# Elastic Constant Matrix: (Units=GPa)
#
#
# Indices 1 2 3 4 5 6 
#
# 1 108.8499 32.1725 61.1862 -8.8804 -15.5076 -22.9656
# 2 32.1725 54.2947 27.0442 -20.0249 7.2353 -14.2984
# 3 61.1862 27.0442 182.5939 -22.1568 -0.3159 -8.8353
# 4 -8.8804 -20.0249 -22.1568 53.9229 -3.3448 -5.2365
# 5 -15.5076 7.2353 -0.3159 -3.3448 36.7783 1.9856
# 6 -22.9656 -14.2984 -8.8353 -5.2365 1.9856 48.6930
#
#
#
# Elastic Compliance Matrix: (Units=1/GPa)
#
#
# Indices 1 2 3 4 5 6 
#
# 1 0.015516 -0.007572 -0.004000 -0.001040 0.007690 0.003943
# 2 -0.007572 0.029449 -0.000360 0.009637 -0.008458 0.006392
# 3 -0.004000 -0.000360 0.007089 0.001994 -0.001350 -0.000437
# 4 -0.001040 0.009637 0.001994 0.023249 -0.000485 0.005221
# 5 0.007690 -0.008458 -0.001350 -0.000485 0.032066 -0.000461
# 6 0.003943 0.006392 -0.000437 0.005221 -0.000461 0.024775
#
#
# Mechanical properties :
#
#
# Convention : Reuss Voigt Hill
#
# Bulk Modulus (GPa) = 35.47356 65.17157 50.32257
# Shear Modulus (GPa) = 30.22898 42.90121 36.56510
#
# Velocity S-wave (km/s) = 3.62968 4.32406 3.99199
# Velocity P-wave (km/s) = 5.74686 7.30297 6.57114
#
# Compressibility (1/GPa) = 0.02819001
#
# Stress axis : x y z
#
# Youngs Moduli (GPa) = 64.44933 33.95690 141.06555
#
# Poissons Ratio (x) = 0.25711 0.56426
# Poissons Ratio (y) = 0.48799 0.05084
# Poissons Ratio (z) = 0.25780 0.01224
#
# Static dielectric constant tensor:
#      x y z
#    x 2.039890 0.058350 0.092730 
#    y 0.058350 1.910240 0.016570 
#    z 0.092730 0.016570 1.928110 
# 
# From -- ./inp_files/135955.got.cif
#   From: 2010.05.17/outbox.cif.g08.bks.cpg/sg2_68_cif.got.tgz:135955.got - 2010.06.03 11:33:40.
