data_PCOD9061421
_publ_section_title
;
Structure prediction by ZEFSAII (Michael W. Deem and Ramdas Pophale) SiO2 
 PCOD9061421
Probable space group: P -1
;
_chemical_formula_sum "Si O2"
_cell_formula_units_Z 15
_cell_length_a 20.145501
_cell_length_b 8.059816
_cell_length_c 15.628874
_cell_angle_alpha 39.163282
_cell_angle_beta 25.823765
_cell_angle_gamma 40.447888
_cell_volume 679.504942
_symmetry_space_group_name_H-M "P -1"
_symmetry_group_IT_number 2
_symmetry_cell_setting 'triclinic'
loop_
_space_group_symop_operation_xyz
x,y,z
-x,-y,-z
loop_
_atom_site_type_symbol
_atom_site_label
_atom_site_fract_x
_atom_site_fract_y
_atom_site_fract_z
Si Si1 0.450691 0.321631 0.443829
Si Si2 0.391365 0.798075 0.181484
Si Si3 0.072298 0.350134 0.720183
Si Si4 0.500000 0.500000 0.000000
Si Si5 0.843617 0.390213 0.226296
Si Si6 0.073720 0.899509 0.589583
Si Si7 0.859651 0.444056 0.623947
Si Si8 0.773506 0.219438 0.186095
O O1 0.421224 0.526609 0.315387
O O2 0.302209 0.397361 0.648590
O O3 0.603672 0.374166 0.292840
O O4 0.500000 0.000000 0.500000
O O5 0.214287 0.955836 0.346699
O O6 0.412393 0.691005 0.103425
O O7 0.500000 0.000000 0.000000
O O8 0.053138 0.611880 0.696172
O O9 0.122287 0.413099 0.543526
O O10 0.907220 0.266059 0.948116
O O11 0.201377 0.103853 0.708012
O O12 0.676419 0.516658 0.830629
O O13 0.872040 0.139117 0.359382
O O14 0.808673 0.309129 0.204242
O O15 0.000000 0.500000 0.000000
O O16 0.917274 0.122942 0.673412
O O17 0.000000 0.500000 0.500000
#
# Coordination Sequence:
#
# PCOD9061421 Si02
#       8
#     2   2   2   1   2   2   2   2
#     4  11  27  47  73 106 146 188 241 304 370 433
#     4  11  26  49  75 108 152 194 249 310 371 447
#     4  11  24  44  71 102 145 187 234 300 368 434
#     4  12  28  46  76 112 146 198 254 306 368 456
#     4  11  23  45  70 105 140 185 239 297 355 444
#     4  11  23  47  71 101 146 190 236 299 372 434
#     4  12  27  47  73 107 144 193 248 303 371 444
#     4  11  24  43  74 103 140 187 239 293 365 439
#
# _framework density 22.074894
#
# number of rings (size 3 to 8) (size 9 to 14) (size 15 to 20)
#    0.000    0.800    2.667    4.000    5.600    2.133 
#    2.400    0.000    0.000    0.000    0.000    0.000 
#    0.000    0.000    0.000    0.000    0.000    0.000 
#
# Total GULP energy -83634.066620 kJ/mol
# GULP energy per Si atom -5575.604441 kJ/mol
# Density = 2.202465 g / cm^3
# Si number density = 22.074894 Si / 1000 Ang^3
#
#
#
# Elastic Constant Matrix: (Units=GPa)
#
#
# Indices 1 2 3 4 5 6 
#
# 1 63.6248 11.5785 19.1515 11.8540 -21.7658 2.8150
# 2 11.5785 102.5831 42.1875 17.0085 -8.2632 -4.3484
# 3 19.1515 42.1875 87.1159 32.4699 -9.5072 -10.1808
# 4 11.8540 17.0085 32.4699 46.3550 0.1755 -16.2683
# 5 -21.7658 -8.2632 -9.5072 0.1755 28.3079 9.3591
# 6 2.8150 -4.3484 -10.1808 -16.2683 9.3591 35.1223
#
#
#
# Elastic Compliance Matrix: (Units=1/GPa)
#
#
# Indices 1 2 3 4 5 6 
#
# 1 0.027770 0.000691 -0.000782 -0.012181 0.026335 -0.015026
# 2 0.000691 0.012311 -0.005458 -0.001412 0.002801 -0.001514
# 3 -0.000782 -0.005458 0.018998 -0.011775 0.004874 -0.001859
# 4 -0.012181 -0.001412 -0.011775 0.041332 -0.021335 0.022218
# 5 0.026335 0.002801 0.004874 -0.021335 0.067491 -0.028218
# 6 -0.015026 -0.001514 -0.001859 0.022218 -0.028218 0.046760
#
#
# Mechanical properties :
#
#
# Convention : Reuss Voigt Hill
#
# Bulk Modulus (GPa) = 20.84198 44.35098 32.59648
# Shear Modulus (GPa) = 20.68231 33.98413 27.33322
#
# Velocity S-wave (km/s) = 3.06423 3.92789 3.52263
# Velocity P-wave (km/s) = 4.68842 6.38012 5.59854
#
# Compressibility (1/GPa) = 0.04798009
#
# Stress axis : x y z
#
# Youngs Moduli (GPa) = 36.01018 81.23093 52.63793
#
# Poissons Ratio (x) = -0.05613 0.04114
# Poissons Ratio (y) = -0.02488 0.28732
# Poissons Ratio (z) = 0.02815 0.44340
#
# Static dielectric constant tensor:
#      x y z
#    x 1.857660 0.000820 -0.045560 
#    y 0.000820 1.829400 -0.035850 
#    z -0.045560 -0.035850 1.817240 
# 
# From -- ./inp_files/579027.got.cif
#   From: 2010.05.17/outbox.cif.g08.bks.cpg/sg2_290_cif.got.tgz:579027.got - 2010.06.03 11:33:40.
