data_PCOD9061114
_publ_section_title
;
Structure prediction by ZEFSAII (Michael W. Deem and Ramdas Pophale) SiO2 
 PCOD9061114
Probable space group: P -1
;
_chemical_formula_sum "Si O2"
_cell_formula_units_Z 16
_cell_length_a 15.857003
_cell_length_b 8.780951
_cell_length_c 11.463529
_cell_angle_alpha 98.839311
_cell_angle_beta 40.530159
_cell_angle_gamma 126.033533
_cell_volume 695.853407
_symmetry_space_group_name_H-M "P -1"
_symmetry_group_IT_number 2
_symmetry_cell_setting 'triclinic'
loop_
_space_group_symop_operation_xyz
x,y,z
-x,-y,-z
loop_
_atom_site_type_symbol
_atom_site_label
_atom_site_fract_x
_atom_site_fract_y
_atom_site_fract_z
Si Si1 0.950792 0.249992 0.804290
Si Si2 0.049725 0.868033 0.963096
Si Si3 0.221111 0.011145 0.477871
Si Si4 0.225262 0.576726 0.943557
Si Si5 0.867794 0.871112 0.736797
Si Si6 0.434076 0.267755 0.519395
Si Si7 0.413128 0.637611 0.000041
Si Si8 0.824174 0.376967 0.580343
O O1 0.106260 0.441368 0.568633
O O2 0.833455 0.008854 0.841568
O O3 0.030989 0.254495 0.841803
O O4 0.828655 0.293646 0.968257
O O5 0.280828 0.068701 0.748594
O O6 0.959489 0.678215 0.937812
O O7 0.000000 0.000000 0.000000
O O8 0.316125 0.161600 0.510553
O O9 0.217228 0.822564 0.458852
O O10 0.363151 0.175439 0.240542
O O11 0.013297 0.901764 0.669698
O O12 0.384438 0.680566 0.690666
O O13 0.312985 0.596531 0.976752
O O14 0.681551 0.605194 0.891277
O O15 0.000000 0.000000 0.500000
O O16 0.500000 0.500000 0.500000
O O17 0.349020 0.706658 0.171420
O O18 0.000000 0.500000 0.500000
#
# Coordination Sequence:
#
# PCOD9061114 Si02
#       8
#     2   2   2   2   2   2   2   2
#     4  12  25  41  72 105 136 190 231 292 358 417
#     4  12  24  45  73  98 142 187 236 293 353 419
#     4  11  25  43  73 101 137 190 238 288 358 427
#     4  11  24  44  70 102 138 181 237 293 353 419
#     4  12  24  44  66 100 147 185 236 288 350 426
#     4  11  24  44  71 103 132 185 238 286 350 423
#     4  11  23  44  73 100 138 188 234 286 361 423
#     4  12  21  46  74 101 143 181 233 296 359 423
#
# _framework density 22.993348999999998
#
# number of rings (size 3 to 8) (size 9 to 14) (size 15 to 20)
#    0.000    0.500    5.000    3.750    1.750    1.000 
#    0.000    2.500    0.000    0.000    0.000    0.000 
#    0.000    0.000    0.000    0.000    0.000    0.000 
#
# Total GULP energy -89583.393324 kJ/mol
# GULP energy per Si atom -5598.962083 kJ/mol
# Density = 2.294101 g / cm^3
# Si number density = 22.993349 Si / 1000 Ang^3
#
#
#
# Elastic Constant Matrix: (Units=GPa)
#
#
# Indices 1 2 3 4 5 6 
#
# 1 73.9063 28.1246 19.9549 -6.6586 21.3433 0.4948
# 2 28.1246 165.2720 31.3590 18.6075 -9.9461 -14.9494
# 3 19.9549 31.3590 114.3319 -3.4936 2.6346 -8.6173
# 4 -6.6586 18.6075 -3.4936 32.7008 2.9062 4.3151
# 5 21.3433 -9.9461 2.6346 2.9062 43.2154 -0.6425
# 6 0.4948 -14.9494 -8.6173 4.3151 -0.6425 33.8962
#
#
#
# Elastic Compliance Matrix: (Units=1/GPa)
#
#
# Indices 1 2 3 4 5 6 
#
# 1 0.020132 -0.005098 -0.001916 0.008399 -0.011629 -0.004319
# 2 -0.005098 0.008743 -0.001504 -0.007237 0.005177 0.004567
# 3 -0.001916 -0.001504 0.009659 0.001284 -0.000050 0.001656
# 4 0.008399 -0.007237 0.001284 0.038369 -0.008592 -0.008035
# 5 -0.011629 0.005177 -0.000050 -0.008592 0.030716 0.004116
# 6 -0.004319 0.004567 0.001656 -0.008035 0.004116 0.033101
#
#
# Mechanical properties :
#
#
# Convention : Reuss Voigt Hill
#
# Bulk Modulus (GPa) = 46.52097 56.93192 51.72644
# Shear Modulus (GPa) = 30.31696 40.23393 35.27544
#
# Velocity S-wave (km/s) = 3.63507 4.18761 3.92108
# Velocity P-wave (km/s) = 6.15586 6.94229 6.56087
#
# Compressibility (1/GPa) = 0.02149568
#
# Stress axis : x y z
#
# Youngs Moduli (GPa) = 49.67201 114.37590 103.53349
#
# Poissons Ratio (x) = 0.58314 0.19840
# Poissons Ratio (y) = 0.25325 0.15575
# Poissons Ratio (z) = 0.09518 0.17206
#
# Static dielectric constant tensor:
#      x y z
#    x 1.892210 0.005710 0.024620 
#    y 0.005710 1.805060 0.000590 
#    z 0.024620 0.000590 1.915270 
# 
# From -- ./inp_files/390129.got.cif
#   From: 2010.05.17/outbox.cif.g08.bks.cpg/sg2_196_cif.got.tgz:390129.got - 2010.06.03 11:33:40.
