data_PCOD9061107
_publ_section_title
;
Structure prediction by ZEFSAII (Michael W. Deem and Ramdas Pophale) SiO2 
 PCOD9061107
Probable space group: P -1
;
_chemical_formula_sum "Si O2"
_cell_formula_units_Z 16
_cell_length_a 9.428432
_cell_length_b 15.788702
_cell_length_c 14.542745
_cell_angle_alpha 28.240701
_cell_angle_beta 95.924903
_cell_angle_gamma 114.127649
_cell_volume 751.471339
_symmetry_space_group_name_H-M "P -1"
_symmetry_group_IT_number 2
_symmetry_cell_setting 'triclinic'
loop_
_space_group_symop_operation_xyz
x,y,z
-x,-y,-z
loop_
_atom_site_type_symbol
_atom_site_label
_atom_site_fract_x
_atom_site_fract_y
_atom_site_fract_z
Si Si1 0.274827 0.845266 0.611474
Si Si2 0.279062 0.613000 0.132494
Si Si3 0.052124 0.717452 0.901046
Si Si4 0.434047 0.300162 0.612795
Si Si5 0.925463 0.906373 0.340984
Si Si6 0.779830 0.225238 0.842255
Si Si7 0.210862 0.585343 0.538224
Si Si8 0.285158 0.999092 0.264385
O O1 0.160362 0.836101 0.697779
O O2 0.500000 0.000000 0.500000
O O3 0.271512 0.962409 0.407910
O O4 0.152137 0.558127 0.861133
O O5 0.154760 0.330221 0.380053
O O6 0.263039 0.664724 0.187475
O O7 0.189677 0.697694 0.985779
O O8 0.500220 0.768173 0.973524
O O9 0.035749 0.886281 0.794432
O O10 0.500000 0.500000 0.500000
O O11 0.247397 0.203290 0.636589
O O12 0.614330 0.405794 0.457811
O O13 0.370900 0.062495 0.885001
O O14 0.122568 0.999998 0.220128
O O15 0.783261 0.316858 0.655314
O O16 0.994183 0.329699 0.778190
O O17 0.241767 0.768138 0.438795
#
# Coordination Sequence:
#
# PCOD9061107 Si02
#       8
#     2   2   2   2   2   2   2   2
#     4  11  24  46  79 106 141 187 239 290 370 429
#     4  12  23  48  72 102 146 189 232 294 358 423
#     4  11  24  48  77 104 144 188 230 303 357 421
#     4  12  27  43  67 108 146 186 242 296 349 423
#     4  12  27  46  71 110 145 184 245 293 353 435
#     4  11  23  44  72  98 140 187 238 292 352 417
#     4  11  24  44  74  95 137 195 233 291 358 420
#     4  12  25  44  74 104 138 193 238 290 364 423
#
# _framework density 21.291564000000001
#
# number of rings (size 3 to 8) (size 9 to 14) (size 15 to 20)
#    0.000    0.500    6.250    1.125    3.500    3.000 
#    0.000    1.250    0.000    0.000    0.000    0.000 
#    0.000    0.000    0.000    0.000    0.000    0.000 
#
# Total GULP energy -89566.672697 kJ/mol
# GULP energy per Si atom -5597.917044 kJ/mol
# Density = 2.124310 g / cm^3
# Si number density = 21.291564 Si / 1000 Ang^3
#
#
#
# Elastic Constant Matrix: (Units=GPa)
#
#
# Indices 1 2 3 4 5 6 
#
# 1 150.6144 28.9973 36.4610 -24.8225 -21.9974 -0.3961
# 2 28.9973 76.4995 -3.2891 -8.2048 2.2655 -6.6009
# 3 36.4610 -3.2891 76.9627 -22.0768 -21.3619 -9.2644
# 4 -24.8225 -8.2048 -22.0768 47.2355 3.2184 3.8416
# 5 -21.9974 2.2655 -21.3619 3.2184 40.9725 -12.1282
# 6 -0.3961 -6.6009 -9.2644 3.8416 -12.1282 32.6303
#
#
#
# Elastic Compliance Matrix: (Units=1/GPa)
#
#
# Indices 1 2 3 4 5 6 
#
# 1 0.008835 -0.003325 -0.002774 0.002596 0.003131 -0.000495
# 2 -0.003325 0.015013 0.003261 0.002084 0.000011 0.003681
# 3 -0.002774 0.003261 0.020999 0.007308 0.011686 0.010071
# 4 0.002596 0.002084 0.007308 0.026037 0.003241 0.000667
# 5 0.003131 0.000011 0.011686 0.003241 0.036862 0.016677
# 6 -0.000495 0.003681 0.010071 0.000667 0.016677 0.040365
#
#
# Mechanical properties :
#
#
# Convention : Reuss Voigt Hill
#
# Bulk Modulus (GPa) = 25.52883 47.60168 36.56525
# Shear Modulus (GPa) = 29.96826 40.29482 35.13154
#
# Velocity S-wave (km/s) = 3.75576 4.35504 4.06645
# Velocity P-wave (km/s) = 5.55192 6.90609 6.26569
#
# Compressibility (1/GPa) = 0.03917140
#
# Stress axis : x y z
#
# Youngs Moduli (GPa) = 113.18828 66.60685 47.62185
#
# Poissons Ratio (x) = 0.22148 0.13208
# Poissons Ratio (y) = 0.37637 -0.15529
# Poissons Ratio (z) = 0.31394 -0.21720
#
# Static dielectric constant tensor:
#      x y z
#    x 1.799310 0.037780 -0.016690 
#    y 0.037780 1.772250 0.023150 
#    z -0.016690 0.023150 1.779520 
# 
# From -- ./inp_files/505036.got.cif
#   From: 2010.05.17/outbox.cif.g08.bks.cpg/sg2_253_cif.got.tgz:505036.got - 2010.06.03 11:33:40.
