data_PCOD9061151
_publ_section_title
;
Structure prediction by ZEFSAII (Michael W. Deem and Ramdas Pophale) SiO2 
 PCOD9061151
Probable space group: P -1
;
_chemical_formula_sum "Si O2"
_cell_formula_units_Z 14
_cell_length_a 10.325923
_cell_length_b 11.849417
_cell_length_c 9.363864
_cell_angle_alpha 106.348003
_cell_angle_beta 92.465788
_cell_angle_gamma 36.585512
_cell_volume 620.823795
_symmetry_space_group_name_H-M "P -1"
_symmetry_group_IT_number 2
_symmetry_cell_setting 'triclinic'
loop_
_space_group_symop_operation_xyz
x,y,z
-x,-y,-z
loop_
_atom_site_type_symbol
_atom_site_label
_atom_site_fract_x
_atom_site_fract_y
_atom_site_fract_z
Si Si1 0.063177 0.080667 0.592487
Si Si2 0.211973 0.492103 0.316852
Si Si3 0.917319 0.952925 0.886943
Si Si4 0.303876 0.982828 0.841793
Si Si5 0.572354 0.201999 0.715702
Si Si6 0.344120 0.530379 0.597982
Si Si7 0.829909 0.672749 0.177099
O O1 0.851405 0.329743 0.682090
O O2 0.703865 0.140711 0.842430
O O3 0.187746 0.985471 0.717272
O O4 0.244345 0.995244 0.454141
O O5 0.260533 0.482700 0.481500
O O6 0.993888 0.581507 0.286264
O O7 0.445335 0.254857 0.193370
O O8 0.362300 0.276040 0.771415
O O9 0.843535 0.909445 0.982447
O O10 0.000000 0.000000 0.000000
O O11 0.293448 0.117789 0.815684
O O12 0.481901 0.379598 0.685337
O O13 0.000000 0.000000 0.500000
O O14 0.120825 0.760985 0.726763
O O15 0.500000 0.500000 0.500000
O O16 0.000000 0.500000 0.000000
#
# Coordination Sequence:
#
# PCOD9061151 Si02
#       7
#     2   2   2   2   2   2   2
#     4  11  23  44  73 107 147 187 246 312 369 445
#     4  11  24  44  73 106 144 195 245 304 371 431
#     4  12  27  45  73 110 145 192 247 305 382 444
#     4  11  25  46  74 106 149 195 244 311 375 434
#     4  12  26  45  76 105 142 197 249 300 373 446
#     4  12  26  46  74 109 147 191 249 312 374 443
#     4  11  27  49  72 107 155 194 252 310 369 450
#
# _framework density 22.550681999999998
#
# number of rings (size 3 to 8) (size 9 to 14) (size 15 to 20)
#    0.000    0.571    2.857    4.286    0.000    9.143 
#    0.000    0.000    0.000    0.000    0.000    0.000 
#    0.000    0.000    0.000    0.000    0.000    0.000 
#
# Total GULP energy -78365.045174 kJ/mol
# GULP energy per Si atom -5597.503227 kJ/mol
# Density = 2.249936 g / cm^3
# Si number density = 22.550682 Si / 1000 Ang^3
#
#
#
# Elastic Constant Matrix: (Units=GPa)
#
#
# Indices 1 2 3 4 5 6 
#
# 1 134.4950 77.3723 63.6320 -2.3223 -13.9409 -20.6938
# 2 77.3723 163.2845 41.6599 -11.4505 -7.9211 -14.9306
# 3 63.6320 41.6599 113.3624 -6.3909 -13.1295 -27.9969
# 4 -2.3223 -11.4505 -6.3909 60.1027 -3.1308 5.8185
# 5 -13.9409 -7.9211 -13.1295 -3.1308 41.6759 -4.9693
# 6 -20.6938 -14.9306 -27.9969 5.8185 -4.9693 34.0386
#
#
#
# Elastic Compliance Matrix: (Units=1/GPa)
#
#
# Indices 1 2 3 4 5 6 
#
# 1 0.012951 -0.004668 -0.004773 -0.001016 0.002150 0.002388
# 2 -0.004668 0.008562 -0.000329 0.001380 0.000117 0.000428
# 3 -0.004773 -0.000329 0.014420 0.000596 0.004038 0.009302
# 4 -0.001016 0.001380 0.000596 0.017207 0.001129 -0.002298
# 5 0.002150 0.000117 0.004038 0.001129 0.027100 0.008443
# 6 0.002388 0.000428 0.009302 -0.002298 0.008443 0.040294
#
#
# Mechanical properties :
#
#
# Convention : Reuss Voigt Hill
#
# Bulk Modulus (GPa) = 61.00103 86.27447 73.63775
# Shear Modulus (GPa) = 34.35536 42.39526 38.37531
#
# Velocity S-wave (km/s) = 3.90740 4.34060 4.12969
# Velocity P-wave (km/s) = 6.88959 7.96631 7.44744
#
# Compressibility (1/GPa) = 0.01639317
#
# Stress axis : x y z
#
# Youngs Moduli (GPa) = 77.21149 116.79866 69.34891
#
# Poissons Ratio (x) = 0.54520 0.33099
# Poissons Ratio (y) = 0.36041 0.02283
# Poissons Ratio (z) = 0.36852 0.03845
#
# Static dielectric constant tensor:
#      x y z
#    x 1.840300 0.003090 0.014650 
#    y 0.003090 1.893890 0.013440 
#    z 0.014650 0.013440 1.833810 
# 
# From -- ./inp_files/497996.got.cif
#   From: 2010.05.17/outbox.cif.g08.bks.cpg/sg2_249_cif.got.tgz:497996.got - 2010.06.03 11:33:40.
