data_PCOD9061608
_publ_section_title
;
Structure prediction by ZEFSAII (Michael W. Deem and Ramdas Pophale) SiO2 
 PCOD9061608
Probable space group: P -1
;
_chemical_formula_sum "Si O2"
_cell_formula_units_Z 15
_cell_length_a 15.783354
_cell_length_b 8.499259
_cell_length_c 11.987480
_cell_angle_alpha 55.613166
_cell_angle_beta 44.699459
_cell_angle_gamma 33.192439
_cell_volume 617.338478
_symmetry_space_group_name_H-M "P -1"
_symmetry_group_IT_number 2
_symmetry_cell_setting 'triclinic'
loop_
_space_group_symop_operation_xyz
x,y,z
-x,-y,-z
loop_
_atom_site_type_symbol
_atom_site_label
_atom_site_fract_x
_atom_site_fract_y
_atom_site_fract_z
Si Si1 0.719348 0.070653 0.527098
Si Si2 0.129938 0.658877 0.228419
Si Si3 0.859485 0.022838 0.060081
Si Si4 0.770693 0.454874 0.591335
Si Si5 0.000000 0.500000 0.000000
Si Si6 0.697058 0.850958 0.859037
Si Si7 0.480594 0.696008 0.591281
Si Si8 0.935945 0.837628 0.741012
O O1 0.623136 0.382578 0.526018
O O2 0.617484 0.094915 0.507643
O O3 0.705713 0.971942 0.693616
O O4 0.924224 0.875825 0.375764
O O5 0.252713 0.442348 0.303362
O O6 0.166511 0.481256 0.161032
O O7 0.184465 0.803955 0.079975
O O8 0.921632 0.739156 0.076548
O O9 0.682318 0.216393 0.226245
O O10 0.000000 0.000000 0.000000
O O11 0.596669 0.662765 0.591256
O O12 0.933422 0.356640 0.409027
O O13 0.848776 0.147334 0.670571
O O14 0.951806 0.362530 0.176289
O O15 0.767867 0.888540 0.881803
O O16 0.500000 0.000000 0.000000
#
# Coordination Sequence:
#
# PCOD9061608 Si02
#       8
#     2   2   2   2   1   2   2   2
#     4  11  23  45  74 106 143 200 252 304 375 458
#     4  12  24  45  79 100 143 204 247 301 386 457
#     4  12  26  48  74 109 151 201 249 315 388 449
#     4  11  23  45  76 101 144 194 244 307 371 454
#     4  12  28  44  76 108 154 190 258 310 388 458
#     4  12  26  44  73 110 145 191 256 313 370 463
#     4  11  25  43  74 108 147 192 253 310 374 449
#     4  11  24  46  71 105 145 194 244 307 385 440
#
# _framework density 24.297854000000001
#
# number of rings (size 3 to 8) (size 9 to 14) (size 15 to 20)
#    0.000    0.533    5.333    2.800    0.000    2.667 
#    0.000    1.333    0.000    0.000    0.000    0.000 
#    0.000    0.000    0.000    0.000    0.000    0.000 
#
# Total GULP energy -83561.260524 kJ/mol
# GULP energy per Si atom -5570.750702 kJ/mol
# Density = 2.424255 g / cm^3
# Si number density = 24.297854 Si / 1000 Ang^3
#
#
#
# Elastic Constant Matrix: (Units=GPa)
#
#
# Indices 1 2 3 4 5 6 
#
# 1 91.3152 10.1979 -8.9636 16.3232 -2.1502 -15.6157
# 2 10.1979 69.9883 25.7276 -3.7493 -8.5935 6.9433
# 3 -8.9636 25.7276 100.1932 10.6725 -4.6096 -13.8173
# 4 16.3232 -3.7493 10.6725 47.8303 -10.1915 3.4397
# 5 -2.1502 -8.5935 -4.6096 -10.1915 41.2901 -3.6515
# 6 -15.6157 6.9433 -13.8173 3.4397 -3.6515 38.2853
#
#
#
# Elastic Compliance Matrix: (Units=1/GPa)
#
#
# Indices 1 2 3 4 5 6 
#
# 1 0.014922 -0.005346 0.004751 -0.007417 -0.000808 0.009360
# 2 -0.005346 0.019321 -0.007108 0.006336 0.003765 -0.008460
# 3 0.004751 -0.007108 0.014072 -0.006031 -0.000370 0.008812
# 4 -0.007417 0.006336 -0.006031 0.027202 0.006248 -0.008199
# 5 -0.000808 0.003765 -0.000370 0.006248 0.026534 0.000823
# 6 0.009360 -0.008460 0.008812 -0.008199 0.000823 0.035467
#
#
# Mechanical properties :
#
#
# Convention : Reuss Voigt Hill
#
# Bulk Modulus (GPa) = 30.38629 35.04673 32.71651
# Shear Modulus (GPa) = 30.50792 41.11680 35.81236
#
# Velocity S-wave (km/s) = 3.54726 4.11810 3.84329
# Velocity P-wave (km/s) = 5.41390 6.08825 5.76095
#
# Compressibility (1/GPa) = 0.03290958
#
# Stress axis : x y z
#
# Youngs Moduli (GPa) = 67.01535 51.75770 71.06527
#
# Poissons Ratio (x) = 0.27670 -0.33766
# Poissons Ratio (y) = 0.35826 0.50512
# Poissons Ratio (z) = -0.31842 0.36788
#
# Static dielectric constant tensor:
#      x y z
#    x 2.106320 0.025030 0.024470 
#    y 0.025030 1.996180 -0.000710 
#    z 0.024470 -0.000710 1.710610 
# 
# From -- ./inp_files/159353.got.cif
#   From: 2010.05.17/outbox.cif.g08.bks.cpg/sg2_80_cif.got.tgz:159353.got - 2010.06.03 11:33:40.
