data_PCOD9061621
_publ_section_title
;
Structure prediction by ZEFSAII (Michael W. Deem and Ramdas Pophale) SiO2 
 PCOD9061621
Probable space group: P -1
;
_chemical_formula_sum "Si O2"
_cell_formula_units_Z 14
_cell_length_a 9.418299
_cell_length_b 9.520406
_cell_length_c 8.568751
_cell_angle_alpha 87.397699
_cell_angle_beta 116.331888
_cell_angle_gamma 82.182751
_cell_volume 677.350587
_symmetry_space_group_name_H-M "P -1"
_symmetry_group_IT_number 2
_symmetry_cell_setting 'triclinic'
loop_
_space_group_symop_operation_xyz
x,y,z
-x,-y,-z
loop_
_atom_site_type_symbol
_atom_site_label
_atom_site_fract_x
_atom_site_fract_y
_atom_site_fract_z
Si Si1 0.250777 0.150663 0.906322
Si Si2 0.834179 0.558145 0.996616
Si Si3 0.593392 0.134057 0.553520
Si Si4 0.589239 0.169833 0.913439
Si Si5 0.254330 0.632081 0.777975
Si Si6 0.068713 0.862131 0.440710
Si Si7 0.522883 0.572926 0.669562
O O1 0.212109 0.272353 0.011797
O O2 0.404932 0.178236 0.879781
O O3 0.083554 0.165782 0.731062
O O4 0.309476 0.990029 0.003754
O O5 0.827102 0.481647 0.163119
O O6 0.697068 0.516624 0.822618
O O7 0.000000 0.500000 0.000000
O O8 0.587676 0.191103 0.725552
O O9 0.779449 0.106931 0.589181
O O10 0.507446 0.258164 0.390517
O O11 0.500000 0.000000 0.500000
O O12 0.670895 0.272259 0.061768
O O13 0.137122 0.734362 0.599328
O O14 0.396911 0.551774 0.743028
O O15 0.000000 0.000000 0.500000
O O16 0.500000 0.500000 0.500000
#
# Coordination Sequence:
#
# PCOD9061621 Si02
#       7
#     2   2   2   2   2   2   2
#     4  11  25  43  71  98 138 175 229 285 342 397
#     4  12  28  44  67 103 140 177 229 281 347 409
#     4  11  25  41  72 102 132 175 235 278 337 406
#     4  11  23  45  74  98 131 181 232 280 342 407
#     4  11  25  46  69  98 135 183 228 276 346 412
#     4  11  24  45  67 102 139 174 224 288 340 401
#     4  11  25  47  68  95 138 183 226 275 337 415
#
# _framework density 20.668763999999999
#
# number of rings (size 3 to 8) (size 9 to 14) (size 15 to 20)
#    0.000    0.857    2.857    3.000   12.000    4.571 
#    0.000    0.000    0.000    0.000    0.000    0.000 
#    0.000    0.000    0.000    0.000    0.000    0.000 
#
# Total GULP energy -78295.139172 kJ/mol
# GULP energy per Si atom -5592.509941 kJ/mol
# Density = 2.062172 g / cm^3
# Si number density = 20.668764 Si / 1000 Ang^3
#
#
#
# Elastic Constant Matrix: (Units=GPa)
#
#
# Indices 1 2 3 4 5 6 
#
# 1 140.6057 46.6654 57.3262 -11.9351 7.6005 -31.2539
# 2 46.6654 78.4460 13.3350 8.7706 4.8267 -12.7408
# 3 57.3262 13.3350 113.8351 3.7419 17.0403 -11.2290
# 4 -11.9351 8.7706 3.7419 37.9983 -7.9512 -4.2127
# 5 7.6005 4.8267 17.0403 -7.9512 41.8827 0.8766
# 6 -31.2539 -12.7408 -11.2290 -4.2127 0.8766 34.5444
#
#
#
# Elastic Compliance Matrix: (Units=1/GPa)
#
#
# Indices 1 2 3 4 5 6 
#
# 1 0.014829 -0.007260 -0.006253 0.008461 0.002094 0.009685
# 2 -0.007260 0.017654 0.002263 -0.007221 -0.003006 -0.000126
# 3 -0.006253 0.002263 0.012473 -0.004921 -0.005109 -0.001239
# 4 0.008461 -0.007221 -0.004921 0.033505 0.007507 0.007288
# 5 0.002094 -0.003006 -0.005109 0.007507 0.027360 -0.000654
# 6 0.009685 -0.000126 -0.001239 0.007288 -0.000654 0.038166
#
#
# Mechanical properties :
#
#
# Convention : Reuss Voigt Hill
#
# Bulk Modulus (GPa) = 44.53467 63.06001 53.79734
# Shear Modulus (GPa) = 28.74007 37.25577 32.99792
#
# Velocity S-wave (km/s) = 3.73300 4.25021 3.99997
# Velocity P-wave (km/s) = 6.33829 7.39336 6.88606
#
# Compressibility (1/GPa) = 0.02245442
#
# Stress axis : x y z
#
# Youngs Moduli (GPa) = 67.43525 56.64568 80.17290
#
# Poissons Ratio (x) = 0.41126 0.50136
# Poissons Ratio (y) = 0.48959 -0.18143
# Poissons Ratio (z) = 0.42170 -0.12819
#
# Static dielectric constant tensor:
#      x y z
#    x 0.746450 0.025030 -0.687670 
#    y 0.025030 1.800570 0.038240 
#    z -0.687670 0.038240 1.263600 
# 
# From -- ./inp_files/156573.got.cif
#   From: 2010.05.17/outbox.cif.g08.bks.cpg/sg2_79_cif.got.tgz:156573.got - 2010.06.03 11:33:40.
