data_PCOD9061240
_publ_section_title
;
Structure prediction by ZEFSAII (Michael W. Deem and Ramdas Pophale) SiO2 
 PCOD9061240
Probable space group: P -1
;
_chemical_formula_sum "Si O2"
_cell_formula_units_Z 16
_cell_length_a 5.455839
_cell_length_b 12.176924
_cell_length_c 11.173673
_cell_angle_alpha 107.780865
_cell_angle_beta 93.395259
_cell_angle_gamma 119.470997
_cell_volume 595.434165
_symmetry_space_group_name_H-M "P -1"
_symmetry_group_IT_number 2
_symmetry_cell_setting 'triclinic'
loop_
_space_group_symop_operation_xyz
x,y,z
-x,-y,-z
loop_
_atom_site_type_symbol
_atom_site_label
_atom_site_fract_x
_atom_site_fract_y
_atom_site_fract_z
Si Si1 0.155200 0.467206 0.664275
Si Si2 0.315458 0.689532 0.236920
Si Si3 0.601526 0.741325 0.672958
Si Si4 0.155383 0.080754 0.913077
Si Si5 0.730039 0.126204 0.234117
Si Si6 0.146891 0.194186 0.553762
Si Si7 0.427140 0.601998 0.972358
Si Si8 0.730176 0.048883 0.675914
O O1 0.343066 0.582066 0.609973
O O2 0.124576 0.326921 0.578663
O O3 0.321719 0.536679 0.816807
O O4 0.836984 0.415465 0.691286
O O5 0.648081 0.766665 0.310384
O O6 0.235945 0.803616 0.265492
O O7 0.253650 0.622764 0.082363
O O8 0.440574 0.798314 0.770259
O O9 0.692272 0.804668 0.562545
O O10 0.920736 0.777219 0.738162
O O11 0.927277 0.041333 0.784652
O O12 0.356469 0.018787 0.873683
O O13 0.316421 0.241341 0.986994
O O14 0.000000 0.000000 0.000000
O O15 0.601898 0.069805 0.343892
O O16 0.856993 0.060765 0.552091
O O17 0.500000 0.500000 0.000000
#
# Coordination Sequence:
#
# PCOD9061240 Si02
#       8
#     2   2   2   2   2   2   2   2
#     4  11  26  45  72 111 149 196 259 319 386 463
#     4  11  23  44  76 105 147 200 254 319 385 458
#     4  12  30  48  77 113 155 207 258 318 389 457
#     4  12  26  48  77 113 161 203 250 327 393 463
#     4  12  27  51  73 111 153 200 259 308 387 462
#     4  11  25  49  75 108 152 201 259 325 381 457
#     4  12  22  44  75 109 149 200 257 317 388 466
#     4  11  23  48  74 107 149 196 263 309 383 460
#
# _framework density 26.871147000000001
#
# number of rings (size 3 to 8) (size 9 to 14) (size 15 to 20)
#    0.000    0.500    5.000    2.250    5.250    4.000 
#    0.000    0.000    0.000    0.000    0.000    0.000 
#    0.000    0.000    0.000    0.000    0.000    0.000 
#
# Total GULP energy -89343.083525 kJ/mol
# GULP energy per Si atom -5583.942720 kJ/mol
# Density = 2.680999 g / cm^3
# Si number density = 26.871147 Si / 1000 Ang^3
#
#
#
# Elastic Constant Matrix: (Units=GPa)
#
#
# Indices 1 2 3 4 5 6 
#
# 1 85.5788 39.5279 10.0055 -11.2702 -30.0870 5.2275
# 2 39.5279 154.1543 13.2996 -26.3808 -25.0137 9.3134
# 3 10.0055 13.2996 98.8167 -15.2919 -16.7227 -2.4738
# 4 -11.2702 -26.3808 -15.2919 59.1361 0.7570 -13.6540
# 5 -30.0870 -25.0137 -16.7227 0.7570 57.7806 3.4578
# 6 5.2275 9.3134 -2.4738 -13.6540 3.4578 48.8813
#
#
#
# Elastic Compliance Matrix: (Units=1/GPa)
#
#
# Indices 1 2 3 4 5 6 
#
# 1 0.015620 -0.002526 0.000170 0.001511 0.007145 -0.001264
# 2 -0.002526 0.008022 -0.000022 0.002927 0.002148 -0.000594
# 3 0.000170 -0.000022 0.011163 0.003146 0.003196 0.001204
# 4 0.001511 0.002927 0.003146 0.020436 0.002399 0.004979
# 5 0.007145 0.002148 0.003196 0.002399 0.022969 -0.001966
# 6 -0.001264 -0.000594 0.001204 0.004979 -0.001966 0.022297
#
#
# Mechanical properties :
#
#
# Convention : Reuss Voigt Hill
#
# Bulk Modulus (GPa) = 33.27902 51.57953 42.42928
# Shear Modulus (GPa) = 43.37270 51.54074 47.45672
#
# Velocity S-wave (km/s) = 4.02194 4.38433 4.20704
# Velocity P-wave (km/s) = 5.82920 6.69825 6.27878
#
# Compressibility (1/GPa) = 0.03004896
#
# Stress axis : x y z
#
# Youngs Moduli (GPa) = 64.02038 124.65873 89.57773
#
# Poissons Ratio (x) = 0.31484 -0.01520
# Poissons Ratio (y) = 0.16169 0.00200
# Poissons Ratio (z) = -0.01086 0.00278
#
# Static dielectric constant tensor:
#      x y z
#    x 2.242070 -0.017210 -0.115090 
#    y -0.017210 2.215800 0.081040 
#    z -0.115090 0.081040 2.205700 
# 
# From -- ./inp_files/364748.got.cif
#   From: 2010.05.17/outbox.cif.g08.bks.cpg/sg2_183_cif.got.tgz:364748.got - 2010.06.03 11:33:40.
