data_PCOD9061561
_publ_section_title
;
Structure prediction by ZEFSAII (Michael W. Deem and Ramdas Pophale) SiO2 
 PCOD9061561
Probable space group: P -1
;
_chemical_formula_sum "Si O2"
_cell_formula_units_Z 14
_cell_length_a 11.035045
_cell_length_b 7.772693
_cell_length_c 19.309806
_cell_angle_alpha 44.660481
_cell_angle_beta 31.612624
_cell_angle_gamma 64.067754
_cell_volume 542.737283
_symmetry_space_group_name_H-M "P -1"
_symmetry_group_IT_number 2
_symmetry_cell_setting 'triclinic'
loop_
_space_group_symop_operation_xyz
x,y,z
-x,-y,-z
loop_
_atom_site_type_symbol
_atom_site_label
_atom_site_fract_x
_atom_site_fract_y
_atom_site_fract_z
Si Si1 0.949841 0.530637 0.434123
Si Si2 0.057129 0.756128 0.705644
Si Si3 0.004286 0.174197 0.014689
Si Si4 0.369351 0.574717 0.890312
Si Si5 0.707083 0.935573 0.737188
Si Si6 0.524426 0.687964 0.635613
Si Si7 0.820529 0.204132 0.887912
O O1 0.167789 0.717131 0.220634
O O2 0.000000 0.500000 0.500000
O O3 0.730393 0.632046 0.508502
O O4 0.824221 0.218500 0.557891
O O5 0.931033 0.911438 0.676854
O O6 0.990272 0.476729 0.775175
O O7 0.351835 0.982288 0.511366
O O8 0.878670 0.675919 0.884188
O O9 0.744914 0.209333 0.134159
O O10 0.065135 0.010753 0.092309
O O11 0.237878 0.485109 0.806227
O O12 0.000000 0.000000 0.000000
O O13 0.573429 0.686367 0.820741
O O14 0.506093 0.561458 0.757936
O O15 0.471399 0.917351 0.905259
#
# Coordination Sequence:
#
# PCOD9061561 Si02
#       7
#     2   2   2   2   2   2   2
#     4  12  26  42  68 109 146 184 234 286 361 422
#     4  11  25  43  75 109 136 183 241 287 364 412
#     4  12  24  52  74  98 144 191 241 286 354 419
#     4  11  25  47  72 102 141 191 231 295 350 414
#     4  11  23  45  73 103 146 184 234 292 355 426
#     4  12  27  44  69 105 144 178 238 298 340 421
#     4  11  25  46  72 103 142 193 232 288 354 422
#
# _framework density 25.795169000000001
#
# number of rings (size 3 to 8) (size 9 to 14) (size 15 to 20)
#    0.000    0.571    5.714    3.000    6.000    2.286 
#    2.571    2.143    0.000    0.000    0.000    0.000 
#    0.000    0.000    0.000    0.000    0.000    0.000 
#
# Total GULP energy -78407.621746 kJ/mol
# GULP energy per Si atom -5600.544410 kJ/mol
# Density = 2.573646 g / cm^3
# Si number density = 25.795169 Si / 1000 Ang^3
#
#
#
# Elastic Constant Matrix: (Units=GPa)
#
#
# Indices 1 2 3 4 5 6 
#
# 1 90.8716 12.2223 42.0892 -0.1859 -6.7496 10.1663
# 2 12.2223 83.2595 20.1639 -11.6091 -4.6536 -12.7505
# 3 42.0892 20.1639 135.7426 -16.0452 11.1585 14.1848
# 4 -0.1859 -11.6091 -16.0452 49.3489 6.7367 1.1162
# 5 -6.7496 -4.6536 11.1585 6.7367 47.8780 4.5688
# 6 10.1663 -12.7505 14.1848 1.1162 4.5688 35.4499
#
#
#
# Elastic Compliance Matrix: (Units=1/GPa)
#
#
# Indices 1 2 3 4 5 6 
#
# 1 0.013780 -0.001592 -0.004225 -0.002084 0.003371 -0.003203
# 2 -0.001592 0.014046 -0.002006 0.002414 0.000682 0.006148
# 3 -0.004225 -0.002006 0.009962 0.003269 -0.003269 -0.003178
# 4 -0.002084 0.002414 0.003269 0.022430 -0.003974 -0.000036
# 5 0.003371 0.000682 -0.003269 -0.003974 0.022964 -0.002248
# 6 -0.003203 0.006148 -0.003178 -0.000036 -0.002248 0.032901
#
#
# Mechanical properties :
#
#
# Convention : Reuss Voigt Hill
#
# Bulk Modulus (GPa) = 45.16292 50.98052 48.07172
# Shear Modulus (GPa) = 35.94271 42.22860 39.08565
#
# Velocity S-wave (km/s) = 3.73686 4.05047 3.89682
# Velocity P-wave (km/s) = 6.01375 6.45612 6.23886
#
# Compressibility (1/GPa) = 0.02214206
#
# Stress axis : x y z
#
# Youngs Moduli (GPa) = 72.56845 71.19300 100.38007
#
# Poissons Ratio (x) = 0.11336 0.42411
# Poissons Ratio (y) = 0.11555 0.20135
# Poissons Ratio (z) = 0.30660 0.14281
#
# Static dielectric constant tensor:
#      x y z
#    x 2.078320 0.031180 -0.006950 
#    y 0.031180 2.040470 -0.055960 
#    z -0.006950 -0.055960 1.984940 
# 
# From -- ./inp_files/464430.got.cif
#   From: 2010.05.17/outbox.cif.g08.bks.cpg/sg2_233_cif.got.tgz:464430.got - 2010.06.03 11:33:40.
