data_PCOD9061053
_publ_section_title
;
Structure prediction by ZEFSAII (Michael W. Deem and Ramdas Pophale) SiO2 
 PCOD9061053
Probable space group: P -1
;
_chemical_formula_sum "Si O2"
_cell_formula_units_Z 14
_cell_length_a 11.935605
_cell_length_b 14.647637
_cell_length_c 19.498839
_cell_angle_alpha 21.334598
_cell_angle_beta 40.569291
_cell_angle_gamma 30.686690
_cell_volume 616.990046
_symmetry_space_group_name_H-M "P -1"
_symmetry_group_IT_number 2
_symmetry_cell_setting 'triclinic'
loop_
_space_group_symop_operation_xyz
x,y,z
-x,-y,-z
loop_
_atom_site_type_symbol
_atom_site_label
_atom_site_fract_x
_atom_site_fract_y
_atom_site_fract_z
Si Si1 0.420325 0.792956 0.782126
Si Si2 0.975731 0.222953 0.604036
Si Si3 0.510755 0.833281 0.403594
Si Si4 0.555886 0.734429 0.295812
Si Si5 0.971844 0.569042 0.768315
Si Si6 0.107300 0.209780 0.100466
Si Si7 0.118022 0.621633 0.194983
O O1 0.609830 0.625369 0.751215
O O2 0.171366 0.993639 0.728119
O O3 0.428063 0.024194 0.666268
O O4 0.500000 0.500000 0.000000
O O5 0.019927 0.468929 0.386908
O O6 0.712881 0.445954 0.591810
O O7 0.986294 0.986938 0.709432
O O8 0.535514 0.886012 0.274290
O O9 0.243618 0.047380 0.388621
O O10 0.500000 0.500000 0.500000
O O11 0.803217 0.515295 0.304150
O O12 0.371442 0.988757 0.148478
O O13 0.913103 0.423786 0.838159
O O14 0.031782 0.368450 0.949906
O O15 0.000000 0.500000 0.000000
O O16 0.000000 0.000000 0.000000
#
# Coordination Sequence:
#
# PCOD9061053 Si02
#       7
#     2   2   2   2   2   2   2
#     4  11  25  43  72 109 147 195 246 302 374 446
#     4  12  24  47  72 106 149 194 248 305 374 439
#     4  11  23  44  72 102 143 192 243 306 364 436
#     4  12  24  49  71 104 149 191 252 306 367 437
#     4  11  25  46  72 109 143 192 251 301 380 432
#     4  12  26  46  73 108 146 199 248 309 365 443
#     4  11  24  45  74 111 148 193 240 310 373 448
#
# _framework density 22.690804
#
# number of rings (size 3 to 8) (size 9 to 14) (size 15 to 20)
#    0.000    0.571    4.286    3.857    0.000    1.714 
#    5.143    0.000    0.000    0.000    0.000    0.000 
#    0.000    0.000    0.000    0.000    0.000    0.000 
#
# Total GULP energy -78163.357379 kJ/mol
# GULP energy per Si atom -5583.096956 kJ/mol
# Density = 2.263916 g / cm^3
# Si number density = 22.690804 Si / 1000 Ang^3
#
#
#
# Elastic Constant Matrix: (Units=GPa)
#
#
# Indices 1 2 3 4 5 6 
#
# 1 121.7214 52.1812 41.6316 -24.1325 21.8327 -20.3383
# 2 52.1812 163.2304 58.9851 -20.6349 7.2851 -28.7193
# 3 41.6316 58.9851 101.7949 -19.3622 -3.4989 -8.5306
# 4 -24.1325 -20.6349 -19.3622 37.0463 -6.4043 3.2097
# 5 21.8327 7.2851 -3.4989 -6.4043 47.2366 -12.9653
# 6 -20.3383 -28.7193 -8.5306 3.2097 -12.9653 45.2649
#
#
#
# Elastic Compliance Matrix: (Units=1/GPa)
#
#
# Indices 1 2 3 4 5 6 
#
# 1 0.011964 -0.001557 -0.003122 0.004354 -0.004311 0.002256
# 2 -0.001557 0.008963 -0.003867 0.001665 0.000448 0.004269
# 3 -0.003122 -0.003867 0.014155 0.003853 0.003483 -0.000464
# 4 0.004354 0.001665 0.003853 0.033114 0.003134 0.002288
# 5 -0.004311 0.000448 0.003483 0.003134 0.025442 0.006069
# 6 0.002256 0.004269 -0.000464 0.002288 0.006069 0.027303
#
#
# Mechanical properties :
#
#
# Convention : Reuss Voigt Hill
#
# Bulk Modulus (GPa) = 55.58553 76.92695 66.25624
# Shear Modulus (GPa) = 34.71522 41.50615 38.11069
#
# Velocity S-wave (km/s) = 3.91567 4.28156 4.10270
# Velocity P-wave (km/s) = 6.70771 7.64318 7.19068
#
# Compressibility (1/GPa) = 0.01799029
#
# Stress axis : x y z
#
# Youngs Moduli (GPa) = 83.58319 111.57101 70.64715
#
# Poissons Ratio (x) = 0.17369 0.22056
# Poissons Ratio (y) = 0.13012 0.27320
# Poissons Ratio (z) = 0.26094 0.43146
#
# Static dielectric constant tensor:
#      x y z
#    x 1.972450 -0.054670 0.096110 
#    y -0.054670 1.373810 0.402010 
#    z 0.096110 0.402010 1.651410 
# 
# From -- ./inp_files/595580.got.cif
#   From: 2010.05.17/outbox.cif.g08.bks.cpg/sg2_298_cif.got.tgz:595580.got - 2010.06.03 11:33:40.
