data_PCOD9061772
_publ_section_title
;
Structure prediction by ZEFSAII (Michael W. Deem and Ramdas Pophale) SiO2 
 PCOD9061772
Probable space group: P -1
;
_chemical_formula_sum "Si O2"
_cell_formula_units_Z 16
_cell_length_a 13.648259
_cell_length_b 14.299455
_cell_length_c 9.601471
_cell_angle_alpha 111.228018
_cell_angle_beta 87.707258
_cell_angle_gamma 34.375709
_cell_volume 754.626571
_symmetry_space_group_name_H-M "P -1"
_symmetry_group_IT_number 2
_symmetry_cell_setting 'triclinic'
loop_
_space_group_symop_operation_xyz
x,y,z
-x,-y,-z
loop_
_atom_site_type_symbol
_atom_site_label
_atom_site_fract_x
_atom_site_fract_y
_atom_site_fract_z
Si Si1 0.828172 0.937358 0.147875
Si Si2 0.074941 0.768887 0.480375
Si Si3 0.509511 0.049003 0.877383
Si Si4 0.974082 0.734298 0.730400
Si Si5 0.445665 0.768439 0.327673
Si Si6 0.656283 0.291787 0.481073
Si Si7 0.424486 0.202772 0.435915
Si Si8 0.781982 0.497927 0.918232
O O1 0.980204 0.735197 0.140754
O O2 0.807490 0.071161 0.269690
O O3 0.573894 0.128657 0.276492
O O4 0.932252 0.823113 0.929984
O O5 0.184681 0.776652 0.485107
O O6 0.210710 0.573608 0.260507
O O7 0.068372 0.726239 0.610107
O O8 0.815984 0.005532 0.571849
O O9 0.734306 0.910205 0.790593
O O10 0.530540 0.951505 0.696689
O O11 0.293080 0.320282 0.015686
O O12 0.500000 0.000000 0.000000
O O13 0.160855 0.474410 0.589903
O O14 0.493480 0.636598 0.365542
O O15 0.490942 0.831695 0.439302
O O16 0.598788 0.623852 0.105333
O O17 0.500000 0.500000 0.500000
#
# Coordination Sequence:
#
# PCOD9061772 Si02
#       8
#     2   2   2   2   2   2   2   2
#     4  11  25  48  71 105 145 186 240 293 358 429
#     4  12  25  46  72 104 147 185 239 297 355 420
#     4  12  26  45  73 110 141 191 242 292 360 427
#     4  12  25  46  73 104 149 190 231 302 361 418
#     4  11  24  47  68 107 143 189 236 295 360 420
#     4  11  26  46  75 107 144 190 238 295 357 428
#     4  11  23  46  70 100 149 183 239 293 350 429
#     4  12  26  47  72 103 149 188 237 298 353 422
#
# _framework density 21.202541
#
# number of rings (size 3 to 8) (size 9 to 14) (size 15 to 20)
#    0.000    0.500    6.250    3.000    1.750    2.000 
#    0.000    0.000    0.000    0.000    0.000    0.000 
#    0.000    0.000    0.000    0.000    0.000    0.000 
#
# Total GULP energy -89498.898686 kJ/mol
# GULP energy per Si atom -5593.681168 kJ/mol
# Density = 2.115428 g / cm^3
# Si number density = 21.202541 Si / 1000 Ang^3
#
#
#
# Elastic Constant Matrix: (Units=GPa)
#
#
# Indices 1 2 3 4 5 6 
#
# 1 44.0238 5.9847 7.4984 -7.9744 4.0665 4.7128
# 2 5.9847 98.4130 18.5404 9.1735 4.6580 11.6474
# 3 7.4984 18.5404 128.9858 -13.8338 -4.8809 16.2386
# 4 -7.9744 9.1735 -13.8338 41.0093 4.8387 -2.8453
# 5 4.0665 4.6580 -4.8809 4.8387 30.3538 -1.0921
# 6 4.7128 11.6474 16.2386 -2.8453 -1.0921 36.7563
#
#
#
# Elastic Compliance Matrix: (Units=1/GPa)
#
#
# Indices 1 2 3 4 5 6 
#
# 1 0.024560 -0.001431 -0.000540 0.005243 -0.004072 -0.002172
# 2 -0.001431 0.011279 -0.001575 -0.003380 -0.001361 -0.002997
# 3 -0.000540 -0.001575 0.008742 0.002849 0.001156 -0.003039
# 4 0.005243 -0.003380 0.002849 0.027685 -0.004097 0.001161
# 5 -0.004072 -0.001361 0.001156 -0.004097 0.034580 0.001153
# 6 -0.002172 -0.002997 -0.003039 0.001161 0.001153 0.029901
#
#
# Mechanical properties :
#
#
# Convention : Reuss Voigt Hill
#
# Bulk Modulus (GPa) = 26.67396 37.27441 31.97418
# Shear Modulus (GPa) = 31.98237 37.58384 34.78310
#
# Velocity S-wave (km/s) = 3.88805 4.21481 4.05472
# Velocity P-wave (km/s) = 5.72397 6.42685 6.08557
#
# Compressibility (1/GPa) = 0.03748975
#
# Stress axis : x y z
#
# Youngs Moduli (GPa) = 40.71685 88.65922 114.38387
#
# Poissons Ratio (x) = 0.12684 0.06181
# Poissons Ratio (y) = 0.05825 0.18013
# Poissons Ratio (z) = 0.02200 0.13962
#
# Static dielectric constant tensor:
#      x y z
#    x 1.742140 0.001680 0.000000 
#    y 0.001680 1.824510 -0.003880 
#    z 0.000000 -0.003880 1.739440 
# 
# From -- ./inp_files/315601.got.cif
#   From: 2010.05.17/outbox.cif.g08.bks.cpg/sg2_158_cif.got.tgz:315601.got - 2010.06.03 11:33:40.
