data_PCOD9061332
_publ_section_title
;
Structure prediction by ZEFSAII (Michael W. Deem and Ramdas Pophale) SiO2 
 PCOD9061332
Probable space group: P -1
;
_chemical_formula_sum "Si O2"
_cell_formula_units_Z 11
_cell_length_a 18.485620
_cell_length_b 5.359668
_cell_length_c 5.090081
_cell_angle_alpha 92.295241
_cell_angle_beta 57.519789
_cell_angle_gamma 76.368759
_cell_volume 404.812689
_symmetry_space_group_name_H-M "P -1"
_symmetry_group_IT_number 2
_symmetry_cell_setting 'triclinic'
loop_
_space_group_symop_operation_xyz
x,y,z
-x,-y,-z
loop_
_atom_site_type_symbol
_atom_site_label
_atom_site_fract_x
_atom_site_fract_y
_atom_site_fract_z
Si Si1 0.500000 0.000000 0.000000
Si Si2 0.369332 0.838212 0.480128
Si Si3 0.990974 0.177759 0.274470
Si Si4 0.187851 0.180508 0.934899
Si Si5 0.206099 0.435617 0.404789
Si Si6 0.612979 0.643295 0.215557
O O1 0.416940 0.863540 0.114521
O O2 0.545493 0.770037 0.118711
O O3 0.403534 0.570560 0.563810
O O4 0.260279 0.913402 0.683510
O O5 0.386812 0.102672 0.591763
O O6 0.891935 0.375620 0.463779
O O7 0.000000 0.000000 0.500000
O O8 0.080949 0.262781 0.102983
O O9 0.000000 0.000000 0.000000
O O10 0.214027 0.382779 0.695631
O O11 0.204944 0.187984 0.212252
O O12 0.291919 0.492584 0.117258
#
# Coordination Sequence:
#
# PCOD9061332 Si02
#       6
#     1   2   2   2   2   2
#     4  12  24  50  72 110 140 198 252 306 386 436
#     4  11  26  46  72 107 148 193 249 310 374 447
#     4  12  24  40  68 106 144 196 247 305 370 449
#     4  11  23  45  68 104 145 199 247 306 372 447
#     4  11  23  45  68 104 145 199 247 306 372 447
#     4  11  26  46  72 107 148 193 249 310 374 447
#
# _framework density 27.173058000000001
#
# number of rings (size 3 to 8) (size 9 to 14) (size 15 to 20)
#    0.000    0.727    1.818    5.455    0.000    5.818 
#    0.000    0.000    0.000    0.000    0.000    0.000 
#    0.000    0.000    0.000    0.000    0.000    0.000 
#
# Total GULP energy -61328.647921 kJ/mol
# GULP energy per Si atom -5575.331629 kJ/mol
# Density = 2.711121 g / cm^3
# Si number density = 27.173058 Si / 1000 Ang^3
#
#
#
# Elastic Constant Matrix: (Units=GPa)
#
#
# Indices 1 2 3 4 5 6 
#
# 1 85.0099 48.0607 27.7186 2.3944 -10.5357 -24.6203
# 2 48.0607 177.6060 90.0797 -27.9332 -12.2243 -27.2315
# 3 27.7186 90.0797 125.5460 -31.7085 -29.6183 -0.6299
# 4 2.3944 -27.9332 -31.7085 56.0583 -7.6034 -2.6055
# 5 -10.5357 -12.2243 -29.6183 -7.6034 61.9909 8.6568
# 6 -24.6203 -27.2315 -0.6299 -2.6055 8.6568 53.1889
#
#
#
# Elastic Compliance Matrix: (Units=1/GPa)
#
#
# Indices 1 2 3 4 5 6 
#
# 1 0.015792 -0.002700 -0.002338 -0.003094 -0.000151 0.005773
# 2 -0.002700 0.010879 -0.007435 0.001227 -0.002369 0.004678
# 3 -0.002338 -0.007435 0.017523 0.007153 0.008177 -0.005662
# 4 -0.003094 0.001227 0.007153 0.023427 0.006085 -0.000562
# 5 -0.000151 -0.002369 0.008177 0.006085 0.020891 -0.004288
# 6 0.005773 0.004678 -0.005662 -0.000562 -0.004288 0.024472
#
#
# Mechanical properties :
#
#
# Convention : Reuss Voigt Hill
#
# Bulk Modulus (GPa) = 51.95019 79.98664 65.96841
# Shear Modulus (GPa) = 34.63892 49.06780 41.85336
#
# Velocity S-wave (km/s) = 3.57424 4.25402 3.92886
# Velocity P-wave (km/s) = 6.01609 7.32317 6.70158
#
# Compressibility (1/GPa) = 0.01924921
#
# Stress axis : x y z
#
# Youngs Moduli (GPa) = 63.32196 91.91831 57.06635
#
# Poissons Ratio (x) = 0.24814 0.13342
# Poissons Ratio (y) = 0.17094 0.42431
# Poissons Ratio (z) = 0.14804 0.68345
#
# Static dielectric constant tensor:
#      x y z
#    x 2.400600 0.106820 0.054110 
#    y 0.106820 2.204560 0.518580 
#    z 0.054110 0.518580 3.841450 
# 
# From -- ./inp_files/3405.got.cif
#   From: 2010.05.17/outbox.cif.g08.bks.cpg/sg2_2_cif.got.tgz:3405.got - 2010.06.03 11:33:40.
