data_PCOD9061601
_publ_section_title
;
Structure prediction by ZEFSAII (Michael W. Deem and Ramdas Pophale) SiO2 
 PCOD9061601
Probable space group: P -1
;
_chemical_formula_sum "Si O2"
_cell_formula_units_Z 14
_cell_length_a 16.625466
_cell_length_b 23.150716
_cell_length_c 4.964703
_cell_angle_alpha 103.749997
_cell_angle_beta 78.216569
_cell_angle_gamma 161.898661
_cell_volume 575.196889
_symmetry_space_group_name_H-M "P -1"
_symmetry_group_IT_number 2
_symmetry_cell_setting 'triclinic'
loop_
_space_group_symop_operation_xyz
x,y,z
-x,-y,-z
loop_
_atom_site_type_symbol
_atom_site_label
_atom_site_fract_x
_atom_site_fract_y
_atom_site_fract_z
Si Si1 0.112303 0.468358 0.834592
Si Si2 0.388386 0.578589 0.101350
Si Si3 0.006033 0.733751 0.628930
Si Si4 0.592005 0.872012 0.757763
Si Si5 0.750735 0.800512 0.600053
Si Si6 0.529065 0.083667 0.930807
Si Si7 0.056608 0.899728 0.709496
O O1 0.321720 0.655195 0.769153
O O2 0.087188 0.387704 0.607285
O O3 0.822611 0.293340 0.863714
O O4 0.235798 0.535670 0.113797
O O5 0.547413 0.665946 0.347991
O O6 0.132926 0.362064 0.087580
O O7 0.598414 0.723589 0.875731
O O8 0.313276 0.937629 0.684004
O O9 0.950910 0.760707 0.579195
O O10 0.705195 0.927214 0.463163
O O11 0.543959 0.909523 0.832182
O O12 0.815335 0.010560 0.982072
O O13 0.000000 0.000000 0.500000
O O14 0.845281 0.803152 0.664438
O O15 0.500000 0.000000 0.000000
#
# Coordination Sequence:
#
# PCOD9061601 Si02
#       7
#     2   2   2   2   2   2   2
#     4  12  24  46  71 106 146 185 239 293 345 419
#     4  12  25  43  72 102 142 184 237 286 350 417
#     4  11  26  46  72 105 145 189 233 289 359 416
#     4  11  26  45  73 107 140 187 237 292 349 416
#     4  12  25  46  71 104 138 189 233 291 356 417
#     4  11  23  45  74 104 144 190 233 287 356 422
#     4  11  26  48  72 101 148 183 238 293 353 419
#
# _framework density 24.339492
#
# number of rings (size 3 to 8) (size 9 to 14) (size 15 to 20)
#    0.000    0.571    2.857    4.714    4.000    2.286 
#    0.000    4.286    0.000    0.000    0.000    0.000 
#    0.000    0.000    0.000    0.000    0.000    0.000 
#
# Total GULP energy -78230.317555 kJ/mol
# GULP energy per Si atom -5587.879825 kJ/mol
# Density = 2.428409 g / cm^3
# Si number density = 24.339492 Si / 1000 Ang^3
#
#
#
# Elastic Constant Matrix: (Units=GPa)
#
#
# Indices 1 2 3 4 5 6 
#
# 1 128.8063 25.8940 18.1990 17.3876 15.0003 15.4520
# 2 25.8940 109.4677 21.7256 -3.3181 7.4301 14.2804
# 3 18.1990 21.7256 87.0321 0.1682 19.2285 2.3347
# 4 17.3876 -3.3181 0.1682 34.7986 -11.8054 -5.6645
# 5 15.0003 7.4301 19.2285 -11.8054 27.5063 -7.1379
# 6 15.4520 14.2804 2.3347 -5.6645 -7.1379 38.5299
#
#
#
# Elastic Compliance Matrix: (Units=1/GPa)
#
#
# Indices 1 2 3 4 5 6 
#
# 1 0.012593 -0.001368 0.001453 -0.013295 -0.015683 -0.009491
# 2 -0.001368 0.010382 -0.001942 0.000720 -0.001250 -0.003308
# 3 0.001453 -0.001942 0.015100 -0.006782 -0.014912 -0.004538
# 4 -0.013295 0.000720 -0.006782 0.052223 0.039524 0.020476
# 5 -0.015683 -0.001250 -0.014912 0.039524 0.079973 0.028283
# 6 -0.009491 -0.003308 -0.004538 0.020476 0.028283 0.039511
#
#
# Mechanical properties :
#
#
# Convention : Reuss Voigt Hill
#
# Bulk Modulus (GPa) = 29.10108 50.77147 39.93628
# Shear Modulus (GPa) = 22.22728 37.46615 29.84672
#
# Velocity S-wave (km/s) = 3.02523 3.92767 3.50561
# Velocity P-wave (km/s) = 4.91782 6.44001 5.72969
#
# Compressibility (1/GPa) = 0.03436299
#
# Stress axis : x y z
#
# Youngs Moduli (GPa) = 79.40982 96.31839 66.22333
#
# Poissons Ratio (x) = 0.13172 -0.09625
# Poissons Ratio (y) = 0.10860 0.12861
# Poissons Ratio (z) = -0.11541 0.18706
#
# Static dielectric constant tensor:
#      x y z
#    x 1.925680 -0.027280 -0.019890 
#    y -0.027280 1.979450 0.017220 
#    z -0.019890 0.017220 2.048440 
# 
# From -- ./inp_files/100628.got.cif
#   From: 2010.05.17/outbox.cif.g08.bks.cpg/sg2_51_cif.got.tgz:100628.got - 2010.06.03 11:33:40.
