data_PCOD9061515
_publ_section_title
;
Structure prediction by ZEFSAII (Michael W. Deem and Ramdas Pophale) SiO2 
 PCOD9061515
Probable space group: P -1
;
_chemical_formula_sum "Si O2"
_cell_formula_units_Z 16
_cell_length_a 14.604876
_cell_length_b 8.401364
_cell_length_c 6.287384
_cell_angle_alpha 77.618741
_cell_angle_beta 94.252621
_cell_angle_gamma 70.816275
_cell_volume 702.883063
_symmetry_space_group_name_H-M "P -1"
_symmetry_group_IT_number 2
_symmetry_cell_setting 'triclinic'
loop_
_space_group_symop_operation_xyz
x,y,z
-x,-y,-z
loop_
_atom_site_type_symbol
_atom_site_label
_atom_site_fract_x
_atom_site_fract_y
_atom_site_fract_z
Si Si1 0.272954 0.605266 0.820100
Si Si2 0.036725 0.452880 0.267363
Si Si3 0.549559 0.339586 0.397685
Si Si4 0.088046 0.071441 0.533638
Si Si5 0.171881 0.937578 0.003431
Si Si6 0.286909 0.014495 0.353532
Si Si7 0.816142 0.367103 0.638850
Si Si8 0.656507 0.653247 0.749535
O O1 0.376181 0.610269 0.755549
O O2 0.230319 0.767314 0.924350
O O3 0.191945 0.629621 0.616775
O O4 0.295829 0.422910 0.994960
O O5 0.058365 0.249009 0.345881
O O6 0.124926 0.525225 0.275095
O O7 0.000000 0.500000 0.500000
O O8 0.000000 0.500000 0.000000
O O9 0.500000 0.500000 0.500000
O O10 0.619045 0.161703 0.571229
O O11 0.459603 0.303400 0.279476
O O12 0.097130 0.071547 0.793284
O O13 0.204118 0.995382 0.505353
O O14 0.000000 0.000000 0.500000
O O15 0.239080 0.025764 0.108970
O O16 0.139852 0.831281 0.214081
O O17 0.315481 0.181899 0.359691
O O18 0.704841 0.485314 0.652365
#
# Coordination Sequence:
#
# PCOD9061515 Si02
#       8
#     2   2   2   2   2   2   2   2
#     4  11  23  45  72 105 141 198 246 302 379 456
#     4  12  31  50  78 113 153 201 261 320 393 463
#     4  12  22  47  72 105 143 196 246 307 375 464
#     4  12  28  48  75 106 149 196 249 311 382 453
#     4  11  24  45  74 101 146 195 247 307 380 453
#     4  12  26  47  69 110 150 187 252 313 378 449
#     4  11  23  46  73 102 148 195 250 308 377 452
#     4  11  25  41  72 103 148 189 245 308 379 447
#
# _framework density 22.763387000000002
#
# number of rings (size 3 to 8) (size 9 to 14) (size 15 to 20)
#    0.000    0.500    5.000    2.250   10.500    0.500 
#    0.000    1.250    0.000    0.000    0.000    0.000 
#    0.000    0.000    0.000    0.000    0.000    0.000 
#
# Total GULP energy -89177.713612 kJ/mol
# GULP energy per Si atom -5573.607101 kJ/mol
# Density = 2.271158 g / cm^3
# Si number density = 22.763387 Si / 1000 Ang^3
#
#
#
# Elastic Constant Matrix: (Units=GPa)
#
#
# Indices 1 2 3 4 5 6 
#
# 1 108.2611 17.3445 45.8212 -5.0190 11.1497 12.5116
# 2 17.3445 73.3489 34.8610 -23.6168 -2.5318 10.6900
# 3 45.8212 34.8610 146.7771 -16.7748 21.3227 -1.5963
# 4 -5.0190 -23.6168 -16.7748 42.8850 4.8145 -7.0751
# 5 11.1497 -2.5318 21.3227 4.8145 27.4645 3.2981
# 6 12.5116 10.6900 -1.5963 -7.0751 3.2981 42.8223
#
#
#
# Elastic Compliance Matrix: (Units=1/GPa)
#
#
# Indices 1 2 3 4 5 6 
#
# 1 0.011232 -0.001021 -0.003144 -0.000807 -0.001693 -0.003147
# 2 -0.001021 0.018903 -0.003965 0.007653 0.004331 -0.003637
# 3 -0.003144 -0.003965 0.010266 0.002919 -0.007977 0.003388
# 4 -0.000807 0.007653 0.002919 0.030010 -0.006965 0.003929
# 5 -0.001693 0.004331 -0.007977 -0.006965 0.045578 -0.005545
# 6 -0.003147 -0.003637 0.003388 0.003929 -0.005545 0.026382
#
#
# Mechanical properties :
#
#
# Convention : Reuss Voigt Hill
#
# Bulk Modulus (GPa) = 41.42484 58.27118 49.84801
# Shear Modulus (GPa) = 29.99787 37.99171 33.99479
#
# Velocity S-wave (km/s) = 3.63411 4.08975 3.86864
# Velocity P-wave (km/s) = 5.98719 6.92500 6.47310
#
# Compressibility (1/GPa) = 0.02414011
#
# Stress axis : x y z
#
# Youngs Moduli (GPa) = 89.03101 52.90116 97.41214
#
# Poissons Ratio (x) = 0.05402 0.30630
# Poissons Ratio (y) = 0.09092 0.38623
# Poissons Ratio (z) = 0.27994 0.20975
#
# Static dielectric constant tensor:
#      x y z
#    x 1.880280 -0.074780 -0.029600 
#    y -0.074780 1.901670 -0.003210 
#    z -0.029600 -0.003210 2.011490 
# 
# From -- ./inp_files/90149.got.cif
#   From: 2010.05.17/outbox.cif.g08.bks.cpg/sg2_46_cif.got.tgz:90149.got - 2010.06.03 11:33:40.
