data_PCOD9061510
_publ_section_title
;
Structure prediction by ZEFSAII (Michael W. Deem and Ramdas Pophale) SiO2 
 PCOD9061510
Probable space group: P -1
;
_chemical_formula_sum "Si O2"
_cell_formula_units_Z 12
_cell_length_a 11.725792
_cell_length_b 8.063488
_cell_length_c 8.180474
_cell_angle_alpha 116.309780
_cell_angle_beta 92.172849
_cell_angle_gamma 48.015912
_cell_volume 474.999605
_symmetry_space_group_name_H-M "P -1"
_symmetry_group_IT_number 2
_symmetry_cell_setting 'triclinic'
loop_
_space_group_symop_operation_xyz
x,y,z
-x,-y,-z
loop_
_atom_site_type_symbol
_atom_site_label
_atom_site_fract_x
_atom_site_fract_y
_atom_site_fract_z
Si Si1 0.766381 0.031151 0.956872
Si Si2 0.709729 0.741371 0.052152
Si Si3 0.590449 0.063090 0.685949
Si Si4 0.624316 0.483770 0.396875
Si Si5 0.124502 0.681897 0.385340
Si Si6 0.087120 0.443599 0.691308
O O1 0.730903 0.244077 0.164141
O O2 0.710929 0.915570 0.008647
O O3 0.658538 0.151468 0.838916
O O4 0.958545 0.764216 0.806482
O O5 0.533006 0.909824 0.197210
O O6 0.839704 0.630999 0.155028
O O7 0.768657 0.491796 0.846622
O O8 0.490605 0.249386 0.604085
O O9 0.753598 0.762991 0.505066
O O10 0.500000 0.500000 0.500000
O O11 0.749013 0.421403 0.508236
O O12 0.015779 0.623371 0.371342
O O13 0.000000 0.000000 0.500000
#
# Coordination Sequence:
#
# PCOD9061510 Si02
#       6
#     2   2   2   2   2   2
#     4  11  24  47  72 101 139 184 232 285 343 413
#     4  11  24  45  72 103 137 182 233 287 342 409
#     4  12  26  44  71 106 140 181 232 288 345 409
#     4  12  26  46  72 105 141 182 231 289 347 409
#     4  11  23  45  72 102 140 185 229 285 349 412
#     4  11  25  45  70 103 140 184 232 284 343 412
#
# _framework density 25.263179999999998
#
# number of rings (size 3 to 8) (size 9 to 14) (size 15 to 20)
#    0.000    0.667    0.000    9.000    0.000    9.333 
#    0.000    2.500    0.000    4.000    0.000    0.000 
#    0.000    0.000    0.000    0.000    0.000    0.000 
#
# Total GULP energy -67377.131594 kJ/mol
# GULP energy per Si atom -5614.760966 kJ/mol
# Density = 2.520568 g / cm^3
# Si number density = 25.263180 Si / 1000 Ang^3
#
#
#
# Elastic Constant Matrix: (Units=GPa)
#
#
# Indices 1 2 3 4 5 6 
#
# 1 120.7553 64.5158 76.6132 2.4417 -5.0314 -40.0788
# 2 64.5158 165.3252 83.1770 -7.1617 18.2236 -43.6069
# 3 76.6132 83.1770 243.0964 14.3875 8.6749 -36.9008
# 4 2.4417 -7.1617 14.3875 63.2097 -19.6702 14.7871
# 5 -5.0314 18.2236 8.6749 -19.6702 62.5029 -11.4096
# 6 -40.0788 -43.6069 -36.9008 14.7871 -11.4096 48.1963
#
#
#
# Elastic Compliance Matrix: (Units=1/GPa)
#
#
# Indices 1 2 3 4 5 6 
#
# 1 0.014234 -0.002425 -0.002317 -0.001365 0.003405 0.009094
# 2 -0.002425 0.009249 -0.001604 -0.000181 -0.001861 0.004739
# 3 -0.002317 -0.001604 0.005763 -0.002019 -0.000891 0.001443
# 4 -0.001365 -0.000181 -0.002019 0.019671 0.005009 -0.007694
# 5 0.003405 -0.001861 -0.000891 0.005009 0.019148 0.003462
# 6 0.009094 0.004739 0.001443 -0.007694 0.003462 0.036883
#
#
# Mechanical properties :
#
#
# Convention : Reuss Voigt Hill
#
# Bulk Modulus (GPa) = 60.40371 108.64321 84.52346
# Shear Modulus (GPa) = 40.59825 55.10652 47.85239
#
# Velocity S-wave (km/s) = 4.01311 4.67550 4.35691
# Velocity P-wave (km/s) = 6.74055 8.49971 7.67073
#
# Compressibility (1/GPa) = 0.01655527
#
# Stress axis : x y z
#
# Youngs Moduli (GPa) = 70.25247 108.11703 173.52715
#
# Poissons Ratio (x) = 0.26219 0.40199
# Poissons Ratio (y) = 0.17036 0.27833
# Poissons Ratio (z) = 0.16274 0.17342
#
# Static dielectric constant tensor:
#      x y z
#    x 2.004370 0.019520 -0.005930 
#    y 0.019520 1.945960 0.001690 
#    z -0.005930 0.001690 1.998520 
# 
# From -- ./inp_files/245522.got.cif
#   From: 2010.05.17/outbox.cif.g08.bks.cpg/sg2_123_cif.got.tgz:245522.got - 2010.06.03 11:33:40.
