data_PCOD9061736
_publ_section_title
;
Structure prediction by ZEFSAII (Michael W. Deem and Ramdas Pophale) SiO2 
 PCOD9061736
Probable space group: P -1
;
_chemical_formula_sum "Si O2"
_cell_formula_units_Z 16
_cell_length_a 11.004432
_cell_length_b 15.691375
_cell_length_c 5.809266
_cell_angle_alpha 70.867902
_cell_angle_beta 51.815546
_cell_angle_gamma 88.336297
_cell_volume 724.285479
_symmetry_space_group_name_H-M "P -1"
_symmetry_group_IT_number 2
_symmetry_cell_setting 'triclinic'
loop_
_space_group_symop_operation_xyz
x,y,z
-x,-y,-z
loop_
_atom_site_type_symbol
_atom_site_label
_atom_site_fract_x
_atom_site_fract_y
_atom_site_fract_z
Si Si1 0.666821 0.773491 0.257667
Si Si2 0.471188 0.099582 0.374792
Si Si3 0.106759 0.679899 0.771199
Si Si4 0.989456 0.134759 0.339325
Si Si5 0.960615 0.599205 0.509091
Si Si6 0.876581 0.953477 0.375686
Si Si7 0.604353 0.604154 0.801744
Si Si8 0.559774 0.266902 0.835467
O O1 0.552723 0.833867 0.447517
O O2 0.655578 0.670892 0.460874
O O3 0.604319 0.761570 0.085050
O O4 0.845294 0.834010 0.021983
O O5 0.300358 0.075796 0.475508
O O6 0.500000 0.000000 0.500000
O O7 0.587270 0.173159 0.007391
O O8 0.293042 0.681634 0.536836
O O9 0.099100 0.785887 0.662674
O O10 0.028156 0.632350 0.660972
O O11 0.034259 0.650386 0.136675
O O12 0.052924 0.127684 0.527885
O O13 0.885929 0.034398 0.482449
O O14 0.772907 0.600404 0.726237
O O15 0.000000 0.500000 0.500000
O O16 0.000000 0.000000 0.000000
O O17 0.500000 0.500000 0.000000
O O18 0.482565 0.659377 0.006584
#
# Coordination Sequence:
#
# PCOD9061736 Si02
#       8
#     2   2   2   2   2   2   2   2
#     4  11  23  46  68 100 140 188 244 298 366 442
#     4  11  26  41  67 100 143 186 242 306 363 434
#     4  12  29  47  79 107 152 193 247 306 369 437
#     4  11  24  43  68 101 135 196 242 304 362 433
#     4  12  28  51  77 113 149 190 248 308 371 442
#     4  11  24  41  66  97 140 187 249 299 362 440
#     4  11  26  48  77 105 143 194 242 303 372 444
#     4  11  27  46  71 104 147 193 244 303 373 439
#
# _framework density 22.090738999999999
#
# number of rings (size 3 to 8) (size 9 to 14) (size 15 to 20)
#    0.000    0.750    3.750    1.875   12.250    1.000 
#    0.000    0.000    0.000    0.000    0.000    0.000 
#    0.000    0.000    0.000    0.000    0.000    0.000 
#
# Total GULP energy -89151.669424 kJ/mol
# GULP energy per Si atom -5571.979339 kJ/mol
# Density = 2.204046 g / cm^3
# Si number density = 22.090739 Si / 1000 Ang^3
#
#
#
# Elastic Constant Matrix: (Units=GPa)
#
#
# Indices 1 2 3 4 5 6 
#
# 1 52.3024 9.1740 19.0591 -11.4359 2.7956 -5.2459
# 2 9.1740 78.7190 8.2316 -24.8771 16.4074 -11.6558
# 3 19.0591 8.2316 97.6220 -12.5959 -7.5431 -0.6276
# 4 -11.4359 -24.8771 -12.5959 31.3544 -8.2481 3.4452
# 5 2.7956 16.4074 -7.5431 -8.2481 34.4609 -3.8342
# 6 -5.2459 -11.6558 -0.6276 3.4452 -3.8342 42.1930
#
#
#
# Elastic Compliance Matrix: (Units=1/GPa)
#
#
# Indices 1 2 3 4 5 6 
#
# 1 0.022023 0.000345 -0.003566 0.006382 -0.000962 0.002172
# 2 0.000345 0.018391 -0.000368 0.012751 -0.005414 0.003585
# 3 -0.003566 -0.000368 0.011830 0.004260 0.004034 -0.000350
# 4 0.006382 0.012751 0.004260 0.047467 0.005819 0.001033
# 5 -0.000962 -0.005414 0.004034 0.005819 0.034069 0.001066
# 6 0.002172 0.003585 -0.000350 0.001033 0.001066 0.024968
#
#
# Mechanical properties :
#
#
# Convention : Reuss Voigt Hill
#
# Bulk Modulus (GPa) = 22.18927 33.50809 27.84868
# Shear Modulus (GPa) = 27.63246 34.41359 31.02302
#
# Velocity S-wave (km/s) = 3.54059 3.95122 3.75152
# Velocity P-wave (km/s) = 5.17501 6.00145 5.60349
#
# Compressibility (1/GPa) = 0.04506682
#
# Stress axis : x y z
#
# Youngs Moduli (GPa) = 45.40680 54.37556 84.53188
#
# Poissons Ratio (x) = -0.01878 0.30141
# Poissons Ratio (y) = -0.01568 0.03112
# Poissons Ratio (z) = 0.16191 0.02002
#
# Static dielectric constant tensor:
#      x y z
#    x 1.814190 0.057650 0.055360 
#    y 0.057650 1.907800 0.041650 
#    z 0.055360 0.041650 1.917500 
# 
# From -- ./inp_files/39712.got.cif
#   From: 2010.05.17/outbox.cif.g08.bks.cpg/sg2_20_cif.got.tgz:39712.got - 2010.06.03 11:33:40.
