data_PCOD9061896
_publ_section_title
;
Structure prediction by ZEFSAII (Michael W. Deem and Ramdas Pophale) SiO2 
 PCOD9061896
Probable space group: P -1
;
_chemical_formula_sum "Si O2"
_cell_formula_units_Z 16
_cell_length_a 11.296405
_cell_length_b 9.174661
_cell_length_c 9.462836
_cell_angle_alpha 128.739776
_cell_angle_beta 70.033466
_cell_angle_gamma 91.091301
_cell_volume 693.184805
_symmetry_space_group_name_H-M "P -1"
_symmetry_group_IT_number 2
_symmetry_cell_setting 'triclinic'
loop_
_space_group_symop_operation_xyz
x,y,z
-x,-y,-z
loop_
_atom_site_type_symbol
_atom_site_label
_atom_site_fract_x
_atom_site_fract_y
_atom_site_fract_z
Si Si1 0.132446 0.746165 0.685936
Si Si2 0.970638 0.205820 0.558733
Si Si3 0.490752 0.132526 0.447431
Si Si4 0.518230 0.507413 0.165320
Si Si5 0.792745 0.630720 0.408692
Si Si6 0.409888 0.144754 0.019305
Si Si7 0.814083 0.526341 0.031006
Si Si8 0.157281 0.159466 0.013201
O O1 0.108490 0.769127 0.541334
O O2 0.218667 0.541825 0.587330
O O3 0.990627 0.762675 0.825259
O O4 0.176687 0.932720 0.834332
O O5 0.888008 0.356438 0.796146
O O6 0.108239 0.253803 0.503299
O O7 0.000000 0.000000 0.500000
O O8 0.542198 0.309410 0.596874
O O9 0.346953 0.228992 0.497179
O O10 0.500000 0.000000 0.500000
O O11 0.564373 0.976775 0.210067
O O12 0.500000 0.500000 0.000000
O O13 0.461607 0.332569 0.126864
O O14 0.671549 0.494621 0.100131
O O15 0.862831 0.536884 0.176471
O O16 0.254366 0.192404 0.116470
O O17 0.500000 0.000000 0.000000
O O18 0.815294 0.721210 0.062635
#
# Coordination Sequence:
#
# PCOD9061896 Si02
#       8
#     2   2   2   2   2   2   2   2
#     4  11  27  46  73 106 148 186 243 310 364 428
#     4  12  27  41  70 109 141 192 245 295 367 436
#     4  11  25  47  74 106 149 194 245 301 367 444
#     4  11  23  46  73 104 141 193 242 302 360 437
#     4  11  25  46  72 104 145 190 239 305 365 431
#     4  12  28  45  75 109 146 195 250 303 372 439
#     4  11  24  44  72  99 144 186 242 293 367 440
#     4  11  25  48  72 100 149 193 238 302 374 432
#
# _framework density 23.081866999999999
#
# number of rings (size 3 to 8) (size 9 to 14) (size 15 to 20)
#    0.000    0.750    3.750    2.250   10.500    1.500 
#    0.000    0.000    0.000    0.000    0.000    0.000 
#    0.000    0.000    0.000    0.000    0.000    0.000 
#
# Total GULP energy -89428.234504 kJ/mol
# GULP energy per Si atom -5589.264657 kJ/mol
# Density = 2.302933 g / cm^3
# Si number density = 23.081867 Si / 1000 Ang^3
#
#
#
# Elastic Constant Matrix: (Units=GPa)
#
#
# Indices 1 2 3 4 5 6 
#
# 1 92.8994 61.5835 6.5080 11.8930 11.9118 17.5089
# 2 61.5835 186.2146 51.1659 24.5348 14.4954 -4.3972
# 3 6.5080 51.1659 107.7003 4.4698 -0.5314 19.6605
# 4 11.8930 24.5348 4.4698 45.4600 0.3185 12.2438
# 5 11.9118 14.4954 -0.5314 0.3185 33.9953 5.5402
# 6 17.5089 -4.3972 19.6605 12.2438 5.5402 41.5643
#
#
#
# Elastic Compliance Matrix: (Units=1/GPa)
#
#
# Indices 1 2 3 4 5 6 
#
# 1 0.017109 -0.007193 0.004186 0.001781 -0.001198 -0.010313
# 2 -0.007193 0.010676 -0.006098 -0.005736 -0.003574 0.009210
# 3 0.004186 -0.006098 0.013682 0.003616 0.002999 -0.010346
# 4 0.001781 -0.005736 0.003616 0.027371 0.003512 -0.011598
# 5 -0.001198 -0.003574 0.002999 0.003512 0.032458 -0.006653
# 6 -0.010313 0.009210 -0.010346 -0.011598 -0.006653 0.038575
#
#
# Mechanical properties :
#
#
# Convention : Reuss Voigt Hill
#
# Bulk Modulus (GPa) = 42.99736 69.48102 56.23919
# Shear Modulus (GPa) = 30.15059 42.04103 36.09581
#
# Velocity S-wave (km/s) = 3.61812 4.27240 3.95880
# Velocity P-wave (km/s) = 6.01025 7.38277 6.73158
#
# Compressibility (1/GPa) = 0.02325724
#
# Stress axis : x y z
#
# Youngs Moduli (GPa) = 58.44893 93.66680 73.08618
#
# Poissons Ratio (x) = 0.67377 -0.30597
# Poissons Ratio (y) = 0.42044 0.44570
# Poissons Ratio (z) = -0.24469 0.57120
#
# Static dielectric constant tensor:
#      x y z
#    x 2.318500 -0.033610 -0.027520 
#    y -0.033610 1.838040 -0.025940 
#    z -0.027520 -0.025940 1.904630 
# 
# From -- ./inp_files/245862.got.cif
#   From: 2010.05.17/outbox.cif.g08.bks.cpg/sg2_123_cif.got.tgz:245862.got - 2010.06.03 11:33:40.
