data_PCOD9061139
_publ_section_title
;
Structure prediction by ZEFSAII (Michael W. Deem and Ramdas Pophale) SiO2 
 PCOD9061139
Probable space group: P -1
;
_chemical_formula_sum "Si O2"
_cell_formula_units_Z 14
_cell_length_a 10.567850
_cell_length_b 9.822424
_cell_length_c 8.992080
_cell_angle_alpha 56.968513
_cell_angle_beta 124.792080
_cell_angle_gamma 133.031416
_cell_volume 541.137101
_symmetry_space_group_name_H-M "P -1"
_symmetry_group_IT_number 2
_symmetry_cell_setting 'triclinic'
loop_
_space_group_symop_operation_xyz
x,y,z
-x,-y,-z
loop_
_atom_site_type_symbol
_atom_site_label
_atom_site_fract_x
_atom_site_fract_y
_atom_site_fract_z
Si Si1 0.534805 0.179424 0.323784
Si Si2 0.984961 0.109833 0.565566
Si Si3 0.940503 0.437186 0.329269
Si Si4 0.618382 0.760203 0.562754
Si Si5 0.792535 0.574174 0.961164
Si Si6 0.712093 0.769941 0.062755
Si Si7 0.462690 0.785290 0.129076
O O1 0.717287 0.293422 0.281105
O O2 0.538500 0.318734 0.371359
O O3 0.500000 0.000000 0.500000
O O4 0.351023 0.112048 0.147838
O O5 0.026955 0.315107 0.417780
O O6 0.104028 0.128153 0.777877
O O7 0.775084 0.985398 0.547916
O O8 0.000000 0.000000 0.500000
O O9 0.976210 0.610586 0.143170
O O10 0.000000 0.500000 0.500000
O O11 0.527275 0.752845 0.349884
O O12 0.741997 0.674665 0.739018
O O13 0.713116 0.625699 0.027274
O O14 0.740633 0.377382 0.955737
O O15 0.563431 0.714890 0.125797
O O16 0.500000 0.000000 0.000000
#
# Coordination Sequence:
#
# PCOD9061139 Si02
#       7
#     2   2   2   2   2   2   2
#     4  11  23  44  73 105 140 185 245 292 349 430
#     4  12  25  46  72 104 147 186 236 297 367 419
#     4  12  25  46  74 105 142 191 242 297 357 429
#     4  11  25  42  71 108 145 184 239 298 361 421
#     4  11  25  44  69 102 141 186 240 292 351 429
#     4  11  24  41  76  98 138 191 237 284 359 423
#     4  12  23  44  72 104 140 188 237 291 356 431
#
# _framework density 25.871448999999998
#
# number of rings (size 3 to 8) (size 9 to 14) (size 15 to 20)
#    0.000    0.571    5.714    2.571    2.000    3.429 
#    2.571    0.714    0.000    0.000    0.000    0.000 
#    0.000    0.000    0.000    0.000    0.000    0.000 
#
# Total GULP energy -77934.419596 kJ/mol
# GULP energy per Si atom -5566.744257 kJ/mol
# Density = 2.581256 g / cm^3
# Si number density = 25.871449 Si / 1000 Ang^3
#
#
#
# Elastic Constant Matrix: (Units=GPa)
#
#
# Indices 1 2 3 4 5 6 
#
# 1 77.3105 16.7939 23.8056 10.3427 -7.4413 -22.0174
# 2 16.7939 103.9303 63.0718 6.9987 9.6854 -34.4603
# 3 23.8056 63.0718 271.8397 16.2981 -0.9476 -28.3283
# 4 10.3427 6.9987 16.2981 52.5284 -1.8456 7.1781
# 5 -7.4413 9.6854 -0.9476 -1.8456 31.5700 0.7415
# 6 -22.0174 -34.4603 -28.3283 7.1781 0.7415 33.3676
#
#
#
# Elastic Compliance Matrix: (Units=1/GPa)
#
#
# Indices 1 2 3 4 5 6 
#
# 1 0.017869 0.002440 -0.000175 -0.005789 0.002759 0.015346
# 2 0.002440 0.017791 -0.002026 -0.005085 -0.005699 0.019484
# 3 -0.000175 -0.002026 0.004434 -0.001300 0.000595 0.001823
# 4 -0.005789 -0.005085 -0.001300 0.023408 0.001883 -0.015252
# 5 0.002759 -0.005699 0.000595 0.001883 0.034313 -0.004727
# 6 0.015346 0.019484 0.001823 -0.015252 -0.004727 0.065151
#
#
# Mechanical properties :
#
#
# Convention : Reuss Voigt Hill
#
# Bulk Modulus (GPa) = 24.64776 73.38036 49.01406
# Shear Modulus (GPa) = 28.40696 46.78713 37.59705
#
# Velocity S-wave (km/s) = 3.31721 4.25720 3.81625
# Velocity P-wave (km/s) = 4.92133 7.25190 6.19716
#
# Compressibility (1/GPa) = 0.04057164
#
# Stress axis : x y z
#
# Youngs Moduli (GPa) = 55.96187 56.20845 225.53045
#
# Poissons Ratio (x) = -0.13714 0.03947
# Poissons Ratio (y) = -0.13654 0.45694
# Poissons Ratio (z) = 0.00979 0.11388
#
# Static dielectric constant tensor:
#      x y z
#    x 2.679020 0.155640 0.269210 
#    y 0.155640 2.193640 0.042190 
#    z 0.269210 0.042190 2.309230 
# 
# From -- ./inp_files/216700.got.cif
#   From: 2010.05.17/outbox.cif.g08.bks.cpg/sg2_109_cif.got.tgz:216700.got - 2010.06.03 11:33:40.
