data_PCOD9061275
_publ_section_title
;
Structure prediction by ZEFSAII (Michael W. Deem and Ramdas Pophale) SiO2 
 PCOD9061275
Probable space group: P -1
;
_chemical_formula_sum "Si O2"
_cell_formula_units_Z 16
_cell_length_a 11.603342
_cell_length_b 10.153440
_cell_length_c 9.219511
_cell_angle_alpha 51.610633
_cell_angle_beta 93.966661
_cell_angle_gamma 124.784839
_cell_volume 626.909127
_symmetry_space_group_name_H-M "P -1"
_symmetry_group_IT_number 2
_symmetry_cell_setting 'triclinic'
loop_
_space_group_symop_operation_xyz
x,y,z
-x,-y,-z
loop_
_atom_site_type_symbol
_atom_site_label
_atom_site_fract_x
_atom_site_fract_y
_atom_site_fract_z
Si Si1 0.453169 0.603823 0.270058
Si Si2 0.677000 0.819650 0.633786
Si Si3 0.966405 0.267415 0.703846
Si Si4 0.034535 0.985430 0.347219
Si Si5 0.796638 0.950130 0.148025
Si Si6 0.530707 0.187560 0.175243
Si Si7 0.824156 0.259213 0.157403
Si Si8 0.726454 0.326081 0.573371
O O1 0.636121 0.647139 0.624569
O O2 0.354756 0.624515 0.356972
O O3 0.620135 0.715538 0.274556
O O4 0.484641 0.744388 0.031277
O O5 0.526817 0.746903 0.748650
O O6 0.777857 0.823334 0.762937
O O7 0.777734 0.072964 0.401390
O O8 0.995613 0.231590 0.567262
O O9 0.847093 0.306505 0.666071
O O10 0.138694 0.453309 0.662124
O O11 0.873333 0.034172 0.940021
O O12 0.000000 0.000000 0.500000
O O13 0.922323 0.983998 0.238388
O O14 0.785411 0.125895 0.094756
O O15 0.704741 0.294099 0.139584
O O16 0.410932 0.911309 0.353329
O O17 0.000000 0.500000 0.000000
#
# Coordination Sequence:
#
# PCOD9061275 Si02
#       8
#     2   2   2   2   2   2   2   2
#     4  12  26  51  84 117 160 212 271 334 404 482
#     4  12  28  52  82 117 163 217 266 332 415 482
#     4  11  25  45  77 118 158 208 273 332 394 478
#     4  12  25  48  75 115 160 209 263 328 407 476
#     4  12  26  49  79 120 160 212 271 337 399 483
#     4  12  25  52  80 119 160 215 269 334 403 488
#     4  12  30  51  81 118 163 210 272 335 410 485
#     4  11  23  44  80 112 159 211 268 326 403 477
#
# _framework density 25.522040000000001
#
# number of rings (size 3 to 8) (size 9 to 14) (size 15 to 20)
#    0.000    0.250    5.000    3.000    3.500    2.500 
#    2.250    0.000    0.000    0.000    0.000    0.000 
#    0.000    0.000    0.000    0.000    0.000    0.000 
#
# Total GULP energy -89573.768614 kJ/mol
# GULP energy per Si atom -5598.360538 kJ/mol
# Density = 2.546395 g / cm^3
# Si number density = 25.522040 Si / 1000 Ang^3
#
#
#
# Elastic Constant Matrix: (Units=GPa)
#
#
# Indices 1 2 3 4 5 6 
#
# 1 190.9331 53.7963 50.2922 1.7015 -12.7811 8.0692
# 2 53.7963 126.3187 37.2200 -13.1736 2.2032 19.7134
# 3 50.2922 37.2200 73.6699 -3.3842 -6.8178 13.7774
# 4 1.7015 -13.1736 -3.3842 39.5548 11.6462 -11.1294
# 5 -12.7811 2.2032 -6.8178 11.6462 30.8341 0.6906
# 6 8.0692 19.7134 13.7774 -11.1294 0.6906 58.7334
#
#
#
# Elastic Compliance Matrix: (Units=1/GPa)
#
#
# Indices 1 2 3 4 5 6 
#
# 1 0.007020 -0.002276 -0.003483 -0.002240 0.003145 0.000155
# 2 -0.002276 0.010740 -0.003763 0.004102 -0.004057 -0.001585
# 3 -0.003483 -0.003763 0.018667 -0.001375 0.003538 -0.002939
# 4 -0.002240 0.004102 -0.001375 0.032254 -0.013832 0.005528
# 5 0.003145 -0.004057 0.003538 -0.013832 0.040099 -0.002993
# 6 0.000155 -0.001585 -0.002939 0.005528 -0.002993 0.019309
#
#
# Mechanical properties :
#
#
# Convention : Reuss Voigt Hill
#
# Bulk Modulus (GPa) = 57.52899 74.83764 66.18331
# Shear Modulus (GPa) = 32.69481 42.46536 37.58008
#
# Velocity S-wave (km/s) = 3.58305 4.08348 3.84142
# Velocity P-wave (km/s) = 6.30139 7.18467 6.75748
#
# Compressibility (1/GPa) = 0.01738254
#
# Stress axis : x y z
#
# Youngs Moduli (GPa) = 142.44579 93.10600 53.56966
#
# Poissons Ratio (x) = 0.21192 0.18660
# Poissons Ratio (y) = 0.32422 0.20159
# Poissons Ratio (z) = 0.49620 0.35038
#
# Static dielectric constant tensor:
#      x y z
#    x 2.016260 -0.030460 0.036400 
#    y -0.030460 2.047730 -0.041730 
#    z 0.036400 -0.041730 2.126440 
# 
# From -- ./inp_files/256967.got.cif
#   From: 2010.05.17/outbox.cif.g08.bks.cpg/sg2_129_cif.got.tgz:256967.got - 2010.06.03 11:33:40.
