data_PCOD9061909
_publ_section_title
;
Structure prediction by ZEFSAII (Michael W. Deem and Ramdas Pophale) SiO2 
 PCOD9061909
Probable space group: P -1
;
_chemical_formula_sum "Si O2"
_cell_formula_units_Z 16
_cell_length_a 11.409644
_cell_length_b 11.972217
_cell_length_c 11.765511
_cell_angle_alpha 69.655169
_cell_angle_beta 37.181042
_cell_angle_gamma 97.083626
_cell_volume 644.511510
_symmetry_space_group_name_H-M "P -1"
_symmetry_group_IT_number 2
_symmetry_cell_setting 'triclinic'
loop_
_space_group_symop_operation_xyz
x,y,z
-x,-y,-z
loop_
_atom_site_type_symbol
_atom_site_label
_atom_site_fract_x
_atom_site_fract_y
_atom_site_fract_z
Si Si1 0.312245 0.591631 0.342359
Si Si2 0.888099 0.827849 0.694354
Si Si3 0.142735 0.920262 0.097335
Si Si4 0.743052 0.175621 0.184946
Si Si5 0.539178 0.292307 0.581499
Si Si6 0.989967 0.696118 0.839889
Si Si7 0.921155 0.267959 0.602726
Si Si8 0.514102 0.678967 0.646812
O O1 0.363551 0.580055 0.437758
O O2 0.096293 0.413557 0.511081
O O3 0.210581 0.683897 0.385120
O O4 0.583335 0.711255 0.015714
O O5 0.906936 0.738343 0.612927
O O6 0.050740 0.841733 0.671113
O O7 0.000000 0.000000 0.500000
O O8 0.261957 0.901265 0.120410
O O9 0.821122 0.802054 0.411182
O O10 0.187211 0.860528 0.971771
O O11 0.290199 0.108497 0.891759
O O12 0.990344 0.280192 0.048121
O O13 0.634396 0.262796 0.221790
O O14 0.500000 0.000000 0.500000
O O15 0.783929 0.305628 0.361109
O O16 0.461786 0.308680 0.513329
O O17 0.696517 0.517526 0.091547
#
# Coordination Sequence:
#
# PCOD9061909 Si02
#       8
#     2   2   2   2   2   2   2   2
#     4  11  26  46  76 100 145 193 243 300 359 433
#     4  12  27  47  74 104 143 189 249 301 360 428
#     4  12  26  43  72 107 149 184 243 293 360 439
#     4  11  24  42  70 107 148 190 233 296 370 420
#     4  11  23  46  73 106 148 188 240 296 366 430
#     4  11  25  47  72 106 147 188 244 299 363 438
#     4  11  27  47  70 109 142 192 243 300 360 426
#     4  11  26  45  71 106 149 189 238 302 358 437
#
# _framework density 24.825002000000001
#
# number of rings (size 3 to 8) (size 9 to 14) (size 15 to 20)
#    0.000    0.750    3.750    3.750    7.000    3.500 
#    0.000    0.000    0.000    0.000    0.000    0.000 
#    0.000    0.000    0.000    0.000    0.000    0.000 
#
# Total GULP energy -89739.436715 kJ/mol
# GULP energy per Si atom -5608.714795 kJ/mol
# Density = 2.476850 g / cm^3
# Si number density = 24.825002 Si / 1000 Ang^3
#
#
#
# Elastic Constant Matrix: (Units=GPa)
#
#
# Indices 1 2 3 4 5 6 
#
# 1 90.5939 30.8653 8.7464 1.8017 16.3594 -4.9533
# 2 30.8653 108.0892 1.3762 12.0112 1.9360 2.8829
# 3 8.7464 1.3762 65.0017 -8.5310 1.6884 -9.2730
# 4 1.8017 12.0112 -8.5310 38.6635 2.5436 12.4982
# 5 16.3594 1.9360 1.6884 2.5436 36.8519 -1.8990
# 6 -4.9533 2.8829 -9.2730 12.4982 -1.8990 41.3770
#
#
#
# Elastic Compliance Matrix: (Units=1/GPa)
#
#
# Indices 1 2 3 4 5 6 
#
# 1 0.013566 -0.003811 -0.001390 0.000217 -0.005709 0.001251
# 2 -0.003811 0.010680 -0.000200 -0.003203 0.001350 -0.000216
# 3 -0.001390 -0.000200 0.016335 0.002894 -0.000186 0.002626
# 4 0.000217 -0.003203 0.002894 0.030372 -0.002589 -0.008395
# 5 -0.005709 0.001350 -0.000186 -0.002589 0.029855 0.001333
# 6 0.001251 -0.000216 0.002626 -0.008395 0.001333 0.027518
#
#
# Mechanical properties :
#
#
# Convention : Reuss Voigt Hill
#
# Bulk Modulus (GPa) = 33.57973 38.40675 35.99324
# Shear Modulus (GPa) = 33.54508 38.22492 35.88500
#
# Velocity S-wave (km/s) = 3.67994 3.92825 3.80612
# Velocity P-wave (km/s) = 5.62244 6.00662 5.81770
#
# Compressibility (1/GPa) = 0.02977987
#
# Stress axis : x y z
#
# Youngs Moduli (GPa) = 73.71429 93.63278 61.21948
#
# Poissons Ratio (x) = 0.35686 0.08507
# Poissons Ratio (y) = 0.28094 0.01221
# Poissons Ratio (z) = 0.10243 0.01868
#
# Static dielectric constant tensor:
#      x y z
#    x 1.973000 -0.013190 -0.022630 
#    y -0.013190 1.961340 -0.035050 
#    z -0.022630 -0.035050 1.938900 
# 
# From -- ./inp_files/427965.got.cif
#   From: 2010.05.17/outbox.cif.g08.bks.cpg/sg2_214_cif.got.tgz:427965.got - 2010.06.03 11:33:40.
