data_PCOD9061396
_publ_section_title
;
Structure prediction by ZEFSAII (Michael W. Deem and Ramdas Pophale) SiO2 
 PCOD9061396
Probable space group: P -1
;
_chemical_formula_sum "Si O2"
_cell_formula_units_Z 15
_cell_length_a 18.530622
_cell_length_b 11.104234
_cell_length_c 8.473410
_cell_angle_alpha 39.944354
_cell_angle_beta 46.139652
_cell_angle_gamma 42.779921
_cell_volume 725.628863
_symmetry_space_group_name_H-M "P -1"
_symmetry_group_IT_number 2
_symmetry_cell_setting 'triclinic'
loop_
_space_group_symop_operation_xyz
x,y,z
-x,-y,-z
loop_
_atom_site_type_symbol
_atom_site_label
_atom_site_fract_x
_atom_site_fract_y
_atom_site_fract_z
Si Si1 0.457383 0.540195 0.700230
Si Si2 0.000000 0.500000 0.000000
Si Si3 0.685997 0.041124 0.361137
Si Si4 0.955582 0.447774 0.458098
Si Si5 0.902846 0.006097 0.255393
Si Si6 0.329209 0.680627 0.191318
Si Si7 0.703824 0.584753 0.753382
Si Si8 0.108126 0.796996 0.604057
O O1 0.500000 0.500000 0.500000
O O2 0.414595 0.782430 0.566928
O O3 0.559028 0.395101 0.802530
O O4 0.354730 0.485641 0.949040
O O5 0.950726 0.581363 0.177452
O O6 0.912083 0.401551 0.209601
O O7 0.798809 0.015383 0.304275
O O8 0.680352 0.823328 0.570208
O O9 0.682337 0.144754 0.093574
O O10 0.836943 0.456308 0.671224
O O11 0.000000 0.500000 0.500000
O O12 0.045103 0.215671 0.509085
O O13 0.877416 0.176255 0.258747
O O14 0.000000 0.000000 0.000000
O O15 0.337235 0.481604 0.277821
O O16 0.219807 0.770776 0.373837
O O17 0.000000 0.000000 0.500000
#
# Coordination Sequence:
#
# PCOD9061396 Si02
#       8
#     2   1   2   2   2   2   2   2
#     4  11  26  48  68  98 135 175 231 289 347 410
#     4  12  26  42  66 104 144 186 228 284 348 420
#     4  11  24  43  71  96 130 179 228 281 343 414
#     4  12  24  43  67 105 147 182 230 290 346 415
#     4  12  23  40  67  96 139 185 227 283 349 414
#     4  11  25  44  69  98 135 177 225 289 345 406
#     4  11  23  45  70 100 136 179 231 283 346 413
#     4  12  24  42  66 100 139 179 228 281 345 419
#
# _framework density 20.671724000000001
#
# number of rings (size 3 to 8) (size 9 to 14) (size 15 to 20)
#    0.000    0.533    4.000    5.600    1.867    3.733 
#    0.000    0.000    0.000    0.000    0.000    0.000 
#    0.000    0.000    0.000    0.000    0.000    0.000 
#
# Total GULP energy -83625.983546 kJ/mol
# GULP energy per Si atom -5575.065570 kJ/mol
# Density = 2.062467 g / cm^3
# Si number density = 20.671724 Si / 1000 Ang^3
#
#
#
# Elastic Constant Matrix: (Units=GPa)
#
#
# Indices 1 2 3 4 5 6 
#
# 1 113.9205 27.4233 50.0213 5.3970 11.7692 9.3517
# 2 27.4233 95.6651 39.7446 6.8724 7.8136 2.2691
# 3 50.0213 39.7446 78.1750 25.9396 2.2272 10.1503
# 4 5.3970 6.8724 25.9396 48.0215 13.0768 -2.3756
# 5 11.7692 7.8136 2.2272 13.0768 26.2104 7.0629
# 6 9.3517 2.2691 10.1503 -2.3756 7.0629 47.8490
#
#
#
# Elastic Compliance Matrix: (Units=1/GPa)
#
#
# Indices 1 2 3 4 5 6 
#
# 1 0.014444 0.001214 -0.012330 0.007684 -0.010065 0.001602
# 2 0.001214 0.014412 -0.009991 0.005321 -0.007333 0.002545
# 3 -0.012330 -0.009991 0.032982 -0.020262 0.017914 -0.007763
# 4 0.007684 0.005321 -0.020262 0.037053 -0.023934 0.007917
# 5 -0.010065 -0.007333 0.017914 -0.023934 0.058317 -0.011282
# 6 0.001602 0.002545 -0.007763 0.007917 -0.011282 0.024170
#
#
# Mechanical properties :
#
#
# Convention : Reuss Voigt Hill
#
# Bulk Modulus (GPa) = 50.95872 58.01546 54.48709
# Shear Modulus (GPa) = 21.72628 35.78762 28.75695
#
# Velocity S-wave (km/s) = 3.24545 4.16533 3.73382
# Velocity P-wave (km/s) = 6.22486 7.15956 6.70851
#
# Compressibility (1/GPa) = 0.01962373
#
# Stress axis : x y z
#
# Youngs Moduli (GPa) = 69.23184 69.38496 30.31937
#
# Poissons Ratio (x) = -0.08425 0.37385
# Poissons Ratio (y) = -0.08407 0.30293
# Poissons Ratio (z) = 0.85366 0.69325
#
# Static dielectric constant tensor:
#      x y z
#    x 1.746290 -0.014350 0.046560 
#    y -0.014350 1.763110 -0.032530 
#    z 0.046560 -0.032530 1.772370 
# 
# From -- ./inp_files/273642.got.cif
#   From: 2010.05.17/outbox.cif.g08.bks.cpg/sg2_137_cif.got.tgz:273642.got - 2010.06.03 11:33:40.
