data_PCOD9061856
_publ_section_title
;
Structure prediction by ZEFSAII (Michael W. Deem and Ramdas Pophale) SiO2 
 PCOD9061856
Probable space group: P -1
;
_chemical_formula_sum "Si O2"
_cell_formula_units_Z 14
_cell_length_a 22.005924
_cell_length_b 8.024324
_cell_length_c 4.997219
_cell_angle_alpha 55.077523
_cell_angle_beta 116.506999
_cell_angle_gamma 134.999182
_cell_volume 510.301326
_symmetry_space_group_name_H-M "P -1"
_symmetry_group_IT_number 2
_symmetry_cell_setting 'triclinic'
loop_
_space_group_symop_operation_xyz
x,y,z
-x,-y,-z
loop_
_atom_site_type_symbol
_atom_site_label
_atom_site_fract_x
_atom_site_fract_y
_atom_site_fract_z
Si Si1 0.742077 0.918489 0.103007
Si Si2 0.917491 0.254946 0.797524
Si Si3 0.934941 0.690604 0.675391
Si Si4 0.590772 0.355321 0.254943
Si Si5 0.517489 0.767776 0.339150
Si Si6 0.684516 0.220028 0.969641
Si Si7 0.821196 0.749509 0.763562
O O1 0.656674 0.662230 0.049349
O O2 0.757713 0.809223 0.491970
O O3 0.832197 0.065274 0.987978
O O4 0.727356 0.115303 0.991458
O O5 0.917085 0.504253 0.560967
O O6 0.898898 0.032707 0.761421
O O7 0.013321 0.371348 0.975859
O O8 0.855678 0.662076 0.680717
O O9 0.000000 0.000000 0.500000
O O10 0.511692 0.256620 0.390803
O O11 0.642192 0.282927 0.596890
O O12 0.546723 0.235648 0.993153
O O13 0.500000 0.500000 0.500000
O O14 0.614481 0.993073 0.236080
O O15 0.756272 0.479816 0.039264
#
# Coordination Sequence:
#
# PCOD9061856 Si02
#       7
#     2   2   2   2   2   2   2
#     4  11  24  46  70 110 148 193 256 317 380 463
#     4  11  25  44  73 103 149 195 249 313 381 462
#     4  11  23  46  72 105 146 193 249 312 379 465
#     4  11  27  48  74 109 155 204 264 319 393 465
#     4  12  25  50  76 112 151 206 264 326 386 464
#     4  11  25  47  75 104 154 203 253 322 388 460
#     4  11  25  47  70 110 148 199 254 309 390 460
#
# _framework density 27.434773
#
# number of rings (size 3 to 8) (size 9 to 14) (size 15 to 20)
#    0.000    0.857    4.286    1.714    4.000    1.714 
#    5.143    0.000    0.000    0.000    0.000    0.000 
#    0.000    0.000    0.000    0.000    0.000    0.000 
#
# Total GULP energy -78236.108963 kJ/mol
# GULP energy per Si atom -5588.293497 kJ/mol
# Density = 2.737233 g / cm^3
# Si number density = 27.434773 Si / 1000 Ang^3
#
#
#
# Elastic Constant Matrix: (Units=GPa)
#
#
# Indices 1 2 3 4 5 6 
#
# 1 127.2052 33.0372 50.0856 -22.3151 13.2503 -30.2239
# 2 33.0372 191.4195 47.3799 -31.4651 -6.6279 -18.6717
# 3 50.0856 47.3799 65.0630 -20.9856 -5.7804 -10.1387
# 4 -22.3151 -31.4651 -20.9856 58.7106 3.5116 -0.3503
# 5 13.2503 -6.6279 -5.7804 3.5116 46.6722 -13.4339
# 6 -30.2239 -18.6717 -10.1387 -0.3503 -13.4339 52.4835
#
#
#
# Elastic Compliance Matrix: (Units=1/GPa)
#
#
# Indices 1 2 3 4 5 6 
#
# 1 0.013536 0.000867 -0.009781 0.002359 -0.003579 0.005314
# 2 0.000867 0.006806 -0.004457 0.002359 0.000635 0.002238
# 3 -0.009781 -0.004457 0.027635 0.003460 0.005151 -0.000538
# 4 0.002359 0.002359 0.003460 0.020485 -0.000630 0.002842
# 5 -0.003579 0.000635 0.005151 -0.000630 0.024802 0.005504
# 6 0.005314 0.002238 -0.000538 0.002842 0.005504 0.024234
#
#
# Mechanical properties :
#
#
# Convention : Reuss Voigt Hill
#
# Bulk Modulus (GPa) = 47.09293 71.63257 59.36275
# Shear Modulus (GPa) = 33.04298 48.45228 40.74763
#
# Velocity S-wave (km/s) = 3.47424 4.20705 3.85808
# Velocity P-wave (km/s) = 5.77031 7.05449 6.44447
#
# Compressibility (1/GPa) = 0.02123461
#
# Stress axis : x y z
#
# Youngs Moduli (GPa) = 73.87453 146.93250 36.18656
#
# Poissons Ratio (x) = -0.12737 0.35392
# Poissons Ratio (y) = -0.06404 0.16130
# Poissons Ratio (z) = 0.72253 0.65494
#
# Static dielectric constant tensor:
#      x y z
#    x 2.147700 -0.044160 -0.021250 
#    y -0.044160 2.294170 0.027740 
#    z -0.021250 0.027740 2.176560 
# 
# From -- ./inp_files/122790.got.cif
#   From: 2010.05.17/outbox.cif.g08.bks.cpg/sg2_62_cif.got.tgz:122790.got - 2010.06.03 11:33:40.
