data_PCOD9061804
_publ_section_title
;
Structure prediction by ZEFSAII (Michael W. Deem and Ramdas Pophale) SiO2 
 PCOD9061804
Probable space group: P -1
;
_chemical_formula_sum "Si O2"
_cell_formula_units_Z 16
_cell_length_a 18.547071
_cell_length_b 26.447342
_cell_length_c 14.408116
_cell_angle_alpha 160.417413
_cell_angle_beta 20.718438
_cell_angle_gamma 160.400593
_cell_volume 719.331228
_symmetry_space_group_name_H-M "P -1"
_symmetry_group_IT_number 2
_symmetry_cell_setting 'triclinic'
loop_
_space_group_symop_operation_xyz
x,y,z
-x,-y,-z
loop_
_atom_site_type_symbol
_atom_site_label
_atom_site_fract_x
_atom_site_fract_y
_atom_site_fract_z
Si Si1 0.411359 0.440970 0.107450
Si Si2 0.843186 0.282681 0.716600
Si Si3 0.009740 0.895837 0.607047
Si Si4 0.236477 0.689405 0.521710
Si Si5 0.142311 0.843607 0.716697
Si Si6 0.657599 0.373511 0.332514
Si Si7 0.427952 0.343831 0.385369
Si Si8 0.481959 0.021657 0.169548
O O1 0.137924 0.295767 0.189767
O O2 0.418347 0.600941 0.430659
O O3 0.500000 0.500000 0.000000
O O4 0.564373 0.361529 0.825206
O O5 0.936381 0.197247 0.533310
O O6 0.768022 0.180639 0.532501
O O7 0.067302 0.480769 0.768999
O O8 0.613015 0.281102 0.028742
O O9 0.256956 0.031916 0.495483
O O10 0.848341 0.778932 0.513811
O O11 0.853047 0.974667 0.969172
O O12 0.000000 0.500000 0.500000
O O13 0.226766 0.792330 0.620127
O O14 0.303972 0.820310 0.756395
O O15 0.495353 0.410569 0.523560
O O16 0.585453 0.174362 0.058523
O O17 0.500000 0.500000 0.500000
O O18 0.500000 0.000000 0.000000
#
# Coordination Sequence:
#
# PCOD9061804 Si02
#       8
#     2   2   2   2   2   2   2   2
#     4  11  23  46  71 100 145 190 239 298 361 432
#     4  11  25  46  72 104 148 190 241 302 366 431
#     4  12  25  47  71 104 147 189 242 299 365 433
#     4  12  26  47  74 105 146 192 246 297 363 440
#     4  11  26  42  73 103 141 189 243 298 363 427
#     4  11  24  45  73 106 143 193 239 297 367 429
#     4  12  24  42  70 105 143 187 242 295 360 436
#     4  12  27  47  76 107 149 191 240 304 363 434
#
# _framework density 22.242882000000002
#
# number of rings (size 3 to 8) (size 9 to 14) (size 15 to 20)
#    0.000    0.500    5.000    3.000    3.500    1.500 
#    0.000    1.875    0.000    0.000    0.000    0.000 
#    0.000    0.000    0.000    0.000    0.000    0.000 
#
# Total GULP energy -89319.340423 kJ/mol
# GULP energy per Si atom -5582.458776 kJ/mol
# Density = 2.219226 g / cm^3
# Si number density = 22.242882 Si / 1000 Ang^3
#
#
#
# Elastic Constant Matrix: (Units=GPa)
#
#
# Indices 1 2 3 4 5 6 
#
# 1 138.8538 35.1315 53.2299 -7.5560 3.1961 -3.9862
# 2 35.1315 70.7593 11.7043 1.5836 6.2702 10.7785
# 3 53.2299 11.7043 104.1707 5.3734 -7.7112 -4.8462
# 4 -7.5560 1.5836 5.3734 30.4213 1.1169 2.9863
# 5 3.1961 6.2702 -7.7112 1.1169 49.8251 1.1963
# 6 -3.9862 10.7785 -4.8462 2.9863 1.1963 39.7854
#
#
#
# Elastic Compliance Matrix: (Units=1/GPa)
#
#
# Indices 1 2 3 4 5 6 
#
# 1 0.010586 -0.004629 -0.005085 0.003663 -0.001000 0.001451
# 2 -0.004629 0.017353 0.000136 -0.001525 -0.001712 -0.004983
# 3 -0.005085 0.000136 0.012600 -0.003698 0.002313 0.001197
# 4 0.003663 -0.001525 -0.003698 0.034783 -0.001341 -0.002241
# 5 -0.001000 -0.001712 0.002313 -0.001341 0.020735 0.000123
# 6 0.001451 -0.004983 0.001197 -0.002241 0.000123 0.026940
#
#
# Mechanical properties :
#
#
# Convention : Reuss Voigt Hill
#
# Bulk Modulus (GPa) = 46.76534 57.10169 51.93352
# Shear Modulus (GPa) = 33.49349 38.25421 35.87385
#
# Velocity S-wave (km/s) = 3.88468 4.15160 4.02035
# Velocity P-wave (km/s) = 6.41806 6.97916 6.70448
#
# Compressibility (1/GPa) = 0.02138336
#
# Stress axis : x y z
#
# Youngs Moduli (GPa) = 94.46111 57.62641 79.36298
#
# Poissons Ratio (x) = 0.26677 0.40355
# Poissons Ratio (y) = 0.43729 -0.01078
# Poissons Ratio (z) = 0.48032 -0.00783
#
# Static dielectric constant tensor:
#      x y z
#    x 1.867590 0.057280 0.015180 
#    y 0.057280 1.762420 0.104120 
#    z 0.015180 0.104120 1.869740 
# 
# From -- ./inp_files/539397.got.cif
#   From: 2010.05.17/outbox.cif.g08.bks.cpg/sg2_270_cif.got.tgz:539397.got - 2010.06.03 11:33:40.
