data_PCOD9061137
_publ_section_title
;
Structure prediction by ZEFSAII (Michael W. Deem and Ramdas Pophale) SiO2 
 PCOD9061137
Probable space group: P -1
;
_chemical_formula_sum "Si O2"
_cell_formula_units_Z 16
_cell_length_a 14.778782
_cell_length_b 17.783845
_cell_length_c 9.070185
_cell_angle_alpha 29.448046
_cell_angle_beta 38.974025
_cell_angle_gamma 39.021536
_cell_volume 697.595997
_symmetry_space_group_name_H-M "P -1"
_symmetry_group_IT_number 2
_symmetry_cell_setting 'triclinic'
loop_
_space_group_symop_operation_xyz
x,y,z
-x,-y,-z
loop_
_atom_site_type_symbol
_atom_site_label
_atom_site_fract_x
_atom_site_fract_y
_atom_site_fract_z
Si Si1 0.108495 0.263447 0.663730
Si Si2 0.599325 0.071564 0.644471
Si Si3 0.642821 0.884018 0.608118
Si Si4 0.360223 0.480194 0.804911
Si Si5 0.351092 0.380499 0.315495
Si Si6 0.926245 0.051254 0.348573
Si Si7 0.056250 0.708300 0.652466
Si Si8 0.116178 0.500986 0.641491
O O1 0.205405 0.133285 0.646114
O O2 0.231022 0.286604 0.582629
O O3 0.025820 0.432627 0.402276
O O4 0.972671 0.206627 0.987793
O O5 0.503333 0.246190 0.404121
O O6 0.748560 0.080672 0.520543
O O7 0.643323 0.955436 0.645637
O O8 0.500000 0.000000 0.000000
O O9 0.500000 0.000000 0.500000
O O10 0.642040 0.699711 0.926773
O O11 0.500000 0.500000 0.500000
O O12 0.206823 0.618774 0.710772
O O13 0.372825 0.471828 0.982747
O O14 0.268909 0.476873 0.398389
O O15 0.000000 0.000000 0.500000
O O16 0.006494 0.899688 0.399767
O O17 0.094905 0.633276 0.569675
O O18 0.913633 0.653886 0.983229
#
# Coordination Sequence:
#
# PCOD9061137 Si02
#       8
#     2   2   2   2   2   2   2   2
#     4  11  23  45  74 103 142 191 240 300 356 428
#     4  12  26  46  75 107 148 192 242 299 369 437
#     4  11  23  46  73 103 142 193 240 293 368 437
#     4  11  26  44  71 105 148 190 237 298 365 438
#     4  11  24  46  75 109 142 195 240 296 374 439
#     4  12  29  45  73 109 145 187 249 308 356 423
#     4  11  25  45  70 104 142 190 236 294 361 432
#     4  11  23  44  73 103 142 186 244 288 360 439
#
# _framework density 22.935911999999998
#
# number of rings (size 3 to 8) (size 9 to 14) (size 15 to 20)
#    0.000    0.750    5.000    3.375    7.000    3.000 
#    0.000    1.250    0.000    0.000    0.000    0.000 
#    0.000    0.000    0.000    0.000    0.000    0.000 
#
# Total GULP energy -89554.117230 kJ/mol
# GULP energy per Si atom -5597.132327 kJ/mol
# Density = 2.288371 g / cm^3
# Si number density = 22.935912 Si / 1000 Ang^3
#
#
#
# Elastic Constant Matrix: (Units=GPa)
#
#
# Indices 1 2 3 4 5 6 
#
# 1 121.9493 28.4626 35.3324 13.1211 4.0004 -16.9896
# 2 28.4626 76.1777 19.4997 16.3128 9.3990 -9.9377
# 3 35.3324 19.4997 94.6713 27.1230 -11.0910 -6.8085
# 4 13.1211 16.3128 27.1230 41.4177 0.0675 9.1169
# 5 4.0004 9.3990 -11.0910 0.0675 27.4051 3.3104
# 6 -16.9896 -9.9377 -6.8085 9.1169 3.3104 50.1437
#
#
#
# Elastic Compliance Matrix: (Units=1/GPa)
#
#
# Indices 1 2 3 4 5 6 
#
# 1 0.010203 -0.002115 -0.003163 -0.000972 -0.002398 0.002944
# 2 -0.002115 0.016871 -0.001495 -0.005848 -0.006541 0.003919
# 3 -0.003163 -0.001495 0.015621 -0.009076 0.007085 0.001936
# 4 -0.000972 -0.005848 -0.009076 0.034679 -0.000525 -0.008991
# 5 -0.002398 -0.006541 0.007085 -0.000525 0.042417 -0.003852
# 6 0.002944 0.003919 0.001936 -0.008991 -0.003852 0.023869
#
#
# Mechanical properties :
#
#
# Convention : Reuss Voigt Hill
#
# Bulk Modulus (GPa) = 34.30566 51.04307 42.67436
# Shear Modulus (GPa) = 29.95427 37.76021 33.85724
#
# Velocity S-wave (km/s) = 3.61778 4.06191 3.84626
# Velocity P-wave (km/s) = 5.69568 6.65596 6.19445
#
# Compressibility (1/GPa) = 0.02914971
#
# Stress axis : x y z
#
# Youngs Moduli (GPa) = 98.00567 59.27485 64.01731
#
# Poissons Ratio (x) = 0.12535 0.20250
# Poissons Ratio (y) = 0.20725 0.09569
# Poissons Ratio (z) = 0.31001 0.08860
#
# Static dielectric constant tensor:
#      x y z
#    x 1.866340 0.013190 0.046570 
#    y 0.013190 1.890250 -0.058560 
#    z 0.046570 -0.058560 2.211850 
# 
# From -- ./inp_files/317921.got.cif
#   From: 2010.05.17/outbox.cif.g08.bks.cpg/sg2_159_cif.got.tgz:317921.got - 2010.06.03 11:33:40.
