data_PCOD9061522
_publ_section_title
;
Structure prediction by ZEFSAII (Michael W. Deem and Ramdas Pophale) SiO2 
 PCOD9061522
Probable space group: P -1
;
_chemical_formula_sum "Si O2"
_cell_formula_units_Z 12
_cell_length_a 14.769373
_cell_length_b 7.377106
_cell_length_c 13.161390
_cell_angle_alpha 30.665818
_cell_angle_beta 35.800356
_cell_angle_gamma 49.259420
_cell_volume 422.937002
_symmetry_space_group_name_H-M "P -1"
_symmetry_group_IT_number 2
_symmetry_cell_setting 'triclinic'
loop_
_space_group_symop_operation_xyz
x,y,z
-x,-y,-z
loop_
_atom_site_type_symbol
_atom_site_label
_atom_site_fract_x
_atom_site_fract_y
_atom_site_fract_z
Si Si1 0.472193 0.762204 0.301810
Si Si2 0.864331 0.613454 0.932777
Si Si3 0.040108 0.563907 0.550393
Si Si4 0.301926 0.753387 0.903440
Si Si5 0.615296 0.473090 0.738628
Si Si6 0.816041 0.550363 0.245279
O O1 0.500000 0.500000 0.500000
O O2 0.441682 0.641702 0.268923
O O3 0.296194 0.828063 0.458338
O O4 0.281689 0.642847 0.856868
O O5 0.892219 0.028315 0.676857
O O6 0.404841 0.877721 0.998941
O O7 0.847171 0.622874 0.064780
O O8 0.198753 0.377021 0.509252
O O9 0.000000 0.500000 0.500000
O O10 0.863589 0.473454 0.799337
O O11 0.978106 0.549239 0.153675
O O12 0.478091 0.690299 0.798567
O O13 0.269966 0.143150 0.776157
#
# Coordination Sequence:
#
# PCOD9061522 Si02
#       6
#     2   2   2   2   2   2
#     4  11  23  47  76 112 161 203 260 328 393 468
#     4  11  23  45  72 109 156 202 262 324 392 469
#     4  12  25  48  76 110 155 211 263 320 399 472
#     4  12  25  47  79 111 153 205 262 326 396 468
#     4  11  26  47  79 116 155 209 263 323 398 471
#     4  11  24  44  73 114 152 206 257 321 401 467
#
# _framework density 28.373021999999999
#
# number of rings (size 3 to 8) (size 9 to 14) (size 15 to 20)
#    0.000    0.667    1.667    7.000    0.000    1.333 
#    3.000    1.667    0.000    0.000    0.000    0.000 
#    0.000    0.000    0.000    0.000    0.000    0.000 
#
# Total GULP energy -67024.815518 kJ/mol
# GULP energy per Si atom -5585.401293 kJ/mol
# Density = 2.830844 g / cm^3
# Si number density = 28.373022 Si / 1000 Ang^3
#
#
#
# Elastic Constant Matrix: (Units=GPa)
#
#
# Indices 1 2 3 4 5 6 
#
# 1 145.0688 60.1109 19.4331 10.9797 -12.0991 -14.3239
# 2 60.1109 133.9698 56.8172 22.6625 -16.2780 -31.1411
# 3 19.4331 56.8172 164.6697 25.5535 -5.0812 -38.5618
# 4 10.9797 22.6625 25.5535 36.8609 -9.7854 -24.7994
# 5 -12.0991 -16.2780 -5.0812 -9.7854 62.9513 5.3464
# 6 -14.3239 -31.1411 -38.5618 -24.7994 5.3464 40.4954
#
#
#
# Elastic Compliance Matrix: (Units=1/GPa)
#
#
# Indices 1 2 3 4 5 6 
#
# 1 0.008517 -0.003833 0.000429 -0.000079 0.000639 0.000341
# 2 -0.003833 0.011558 -0.002267 -0.000859 0.001541 0.004644
# 3 0.000429 -0.002267 0.008286 -0.000538 -0.000430 0.006026
# 4 -0.000079 -0.000859 -0.000538 0.047785 0.004818 0.027426
# 5 0.000639 0.001541 -0.000430 0.004818 0.016975 0.001711
# 6 0.000341 0.004644 0.006026 0.027426 0.001711 0.050694
#
#
# Mechanical properties :
#
#
# Convention : Reuss Voigt Hill
#
# Bulk Modulus (GPa) = 58.76101 79.60343 69.18222
# Shear Modulus (GPa) = 31.08877 48.55132 39.82005
#
# Velocity S-wave (km/s) = 3.31375 4.14113 3.75033
# Velocity P-wave (km/s) = 5.94949 7.14018 6.57186
#
# Compressibility (1/GPa) = 0.01701809
#
# Stress axis : x y z
#
# Youngs Moduli (GPa) = 117.41075 86.52117 120.69015
#
# Poissons Ratio (x) = 0.33167 -0.05181
# Poissons Ratio (y) = 0.45008 0.27363
# Poissons Ratio (z) = -0.05041 0.19616
#
# Static dielectric constant tensor:
#      x y z
#    x 2.400480 0.076170 -0.126610 
#    y 0.076170 2.329770 -0.084440 
#    z -0.126610 -0.084440 2.439740 
# 
# From -- ./inp_files/526102.got.cif
#   From: 2010.05.17/outbox.cif.g08.bks.cpg/sg2_264_cif.got.tgz:526102.got - 2010.06.03 11:33:40.
