data_PCOD9061729
_publ_section_title
;
Structure prediction by ZEFSAII (Michael W. Deem and Ramdas Pophale) SiO2 
 PCOD9061729
Probable space group: P -1
;
_chemical_formula_sum "Si O2"
_cell_formula_units_Z 10
_cell_length_a 6.267099
_cell_length_b 7.438828
_cell_length_c 15.017128
_cell_angle_alpha 131.143675
_cell_angle_beta 52.032468
_cell_angle_gamma 114.704986
_cell_volume 415.533671
_symmetry_space_group_name_H-M "P -1"
_symmetry_group_IT_number 2
_symmetry_cell_setting 'triclinic'
loop_
_space_group_symop_operation_xyz
x,y,z
-x,-y,-z
loop_
_atom_site_type_symbol
_atom_site_label
_atom_site_fract_x
_atom_site_fract_y
_atom_site_fract_z
Si Si1 0.189177 0.981986 0.251352
Si Si2 0.746524 0.324739 0.028894
Si Si3 0.179924 0.560216 0.247989
Si Si4 0.690301 0.235881 0.526627
Si Si5 0.662798 0.307986 0.255123
O O1 0.469368 0.083816 0.254516
O O2 0.958161 0.174632 0.383719
O O3 0.228779 0.904949 0.114618
O O4 0.102256 0.747944 0.252977
O O5 0.533085 0.551142 0.884739
O O6 0.730523 0.280797 0.123941
O O7 0.000000 0.500000 0.000000
O O8 0.216395 0.697617 0.375994
O O9 0.943389 0.361157 0.248544
O O10 0.519942 0.458412 0.609114
O O11 0.500000 0.000000 0.500000
#
# Coordination Sequence:
#
# PCOD9061729 Si02
#       5
#     2   2   2   2   2
#     4  12  23  42  69  97 130 170 215 267 316 377
#     4  11  23  46  67  92 135 172 209 266 325 379
#     4  11  24  45  65  95 130 169 218 262 322 381
#     4  11  23  46  67  92 135 172 209 266 325 379
#     4  11  25  43  66  98 130 169 217 263 318 384
#
# _framework density 24.065439000000001
#
# number of rings (size 3 to 8) (size 9 to 14) (size 15 to 20)
#    0.000    0.800    4.000    3.600    0.000    1.600 
#   14.400    0.000    0.000    0.000    0.000    0.000 
#    0.000    0.000    0.000    0.000    0.000    0.000 
#
# Total GULP energy -56087.205952 kJ/mol
# GULP energy per Si atom -5608.720595 kJ/mol
# Density = 2.401067 g / cm^3
# Si number density = 24.065439 Si / 1000 Ang^3
#
#
#
# Elastic Constant Matrix: (Units=GPa)
#
#
# Indices 1 2 3 4 5 6 
#
# 1 109.5424 32.0322 63.9750 -0.9894 -4.1540 32.6597
# 2 32.0322 91.3257 19.7040 8.5667 1.3789 37.5881
# 3 63.9750 19.7040 185.8760 4.3386 -24.5668 13.4183
# 4 -0.9894 8.5667 4.3386 26.7609 18.8142 8.6153
# 5 -4.1540 1.3789 -24.5668 18.8142 24.6054 2.4928
# 6 32.6597 37.5881 13.4183 8.6153 2.4928 63.0547
#
#
#
# Elastic Compliance Matrix: (Units=1/GPa)
#
#
# Indices 1 2 3 4 5 6 
#
# 1 0.015397 -0.002412 -0.006934 0.015248 -0.015185 -0.006545
# 2 -0.002412 0.015163 0.000442 -0.005657 0.004247 -0.007278
# 3 -0.006934 0.000442 0.011629 -0.022305 0.027184 0.002826
# 4 0.015248 -0.005657 -0.022305 0.130232 -0.117649 -0.012922
# 5 -0.015185 0.004247 0.027184 -0.117649 0.153974 0.009536
# 6 -0.006545 -0.007278 0.002826 -0.012922 0.009536 0.024375
#
#
# Mechanical properties :
#
#
# Convention : Reuss Voigt Hill
#
# Bulk Modulus (GPa) = 41.01664 68.68517 54.85091
# Shear Modulus (GPa) = 13.27298 40.95307 27.11303
#
# Velocity S-wave (km/s) = 2.35103 4.12969 3.36018
# Velocity P-wave (km/s) = 4.94475 7.16534 6.15600
#
# Compressibility (1/GPa) = 0.02438035
#
# Stress axis : x y z
#
# Youngs Moduli (GPa) = 64.94789 65.95127 85.99070
#
# Poissons Ratio (x) = 0.15906 0.59627
# Poissons Ratio (y) = 0.15664 -0.03797
# Poissons Ratio (z) = 0.45035 -0.02912
#
# Static dielectric constant tensor:
#      x y z
#    x 1.900610 0.014550 0.000090 
#    y 0.014550 1.884030 -0.000890 
#    z 0.000090 -0.000890 1.879700 
# 
# From -- ./inp_files/33395.got.cif
#   From: 2010.05.17/outbox.cif.g08.bks.cpg/sg2_17_cif.got.tgz:33395.got - 2010.06.03 11:33:40.
