data_PCOD9061320
_publ_section_title
;
Structure prediction by ZEFSAII (Michael W. Deem and Ramdas Pophale) SiO2 
 PCOD9061320
Probable space group: P -1
;
_chemical_formula_sum "Si O2"
_cell_formula_units_Z 14
_cell_length_a 20.179760
_cell_length_b 9.759948
_cell_length_c 6.599262
_cell_angle_alpha 106.601946
_cell_angle_beta 138.538388
_cell_angle_gamma 51.620622
_cell_volume 632.975751
_symmetry_space_group_name_H-M "P -1"
_symmetry_group_IT_number 2
_symmetry_cell_setting 'triclinic'
loop_
_space_group_symop_operation_xyz
x,y,z
-x,-y,-z
loop_
_atom_site_type_symbol
_atom_site_label
_atom_site_fract_x
_atom_site_fract_y
_atom_site_fract_z
Si Si1 0.390780 0.990226 0.669864
Si Si2 0.287383 0.870079 0.712960
Si Si3 0.800480 0.599373 0.631367
Si Si4 0.980253 0.876331 0.537755
Si Si5 0.245792 0.611727 0.291835
Si Si6 0.498661 0.658144 0.465693
Si Si7 0.021764 0.537078 0.343016
O O1 0.321181 0.972277 0.688789
O O2 0.451472 0.817686 0.586980
O O3 0.288506 0.189097 0.411549
O O4 0.500000 0.000000 0.000000
O O5 0.283055 0.735509 0.501923
O O6 0.149254 0.002589 0.569918
O O7 0.399886 0.751855 0.089108
O O8 0.832166 0.586842 0.461786
O O9 0.753699 0.489614 0.551731
O O10 0.060602 0.501711 0.988996
O O11 0.972050 0.745868 0.317372
O O12 0.000000 0.000000 0.500000
O O13 0.355912 0.449359 0.327691
O O14 0.107135 0.742353 0.915459
O O15 0.500000 0.500000 0.500000
O O16 0.000000 0.500000 0.500000
#
# Coordination Sequence:
#
# PCOD9061320 Si02
#       7
#     2   2   2   2   2   2   2
#     4  12  29  47  77 110 145 193 252 310 367 441
#     4  12  27  49  75 106 154 192 249 309 372 442
#     4  11  26  43  70 105 146 188 248 295 369 435
#     4  12  26  44  76 110 149 193 251 304 375 440
#     4  12  26  46  76 110 149 198 249 306 373 445
#     4  12  27  50  77 104 149 198 247 302 373 439
#     4  11  23  45  68 100 147 195 232 298 365 441
#
# _framework density 22.117751999999999
#
# number of rings (size 3 to 8) (size 9 to 14) (size 15 to 20)
#    0.000    0.286    2.857    5.143    8.000    3.429 
#    0.000    0.000    0.000    0.000    0.000    0.000 
#    0.000    0.000    0.000    0.000    0.000    0.000 
#
# Total GULP energy -78322.835342 kJ/mol
# GULP energy per Si atom -5594.488239 kJ/mol
# Density = 2.206741 g / cm^3
# Si number density = 22.117752 Si / 1000 Ang^3
#
#
#
# Elastic Constant Matrix: (Units=GPa)
#
#
# Indices 1 2 3 4 5 6 
#
# 1 155.9679 51.7030 15.4290 -9.7609 12.3035 8.8542
# 2 51.7030 108.2702 2.0624 -0.6674 7.9546 5.1587
# 3 15.4290 2.0624 73.8650 -8.5778 10.9096 1.5439
# 4 -9.7609 -0.6674 -8.5778 40.3380 -0.9672 4.1802
# 5 12.3035 7.9546 10.9096 -0.9672 23.7300 0.6842
# 6 8.8542 5.1587 1.5439 4.1802 0.6842 55.3343
#
#
#
# Elastic Compliance Matrix: (Units=1/GPa)
#
#
# Indices 1 2 3 4 5 6 
#
# 1 0.008058 -0.003592 -0.001005 0.001725 -0.002412 -0.001027
# 2 -0.003592 0.011116 0.000710 -0.000544 -0.002201 -0.000413
# 3 -0.001005 0.000710 0.015029 0.002856 -0.006497 -0.000460
# 4 0.001725 -0.000544 0.002856 0.026019 -0.000900 -0.002260
# 5 -0.002412 -0.002201 -0.006497 -0.000900 0.047072 0.000258
# 6 -0.001027 -0.000413 -0.000460 -0.002260 0.000258 0.018455
#
#
# Mechanical properties :
#
#
# Convention : Reuss Voigt Hill
#
# Bulk Modulus (GPa) = 37.83542 52.94356 45.38949
# Shear Modulus (GPa) = 35.12890 41.80771 38.46830
#
# Velocity S-wave (km/s) = 3.98963 4.35240 4.17496
# Velocity P-wave (km/s) = 6.19406 7.01761 6.61866
#
# Compressibility (1/GPa) = 0.02643026
#
# Stress axis : x y z
#
# Youngs Moduli (GPa) = 124.09485 89.96010 66.53723
#
# Poissons Ratio (x) = 0.32316 0.06686
# Poissons Ratio (y) = 0.44578 -0.04727
# Poissons Ratio (z) = 0.12470 -0.06391
#
# Static dielectric constant tensor:
#      x y z
#    x 1.966460 -0.046430 0.055920 
#    y -0.046430 1.827390 0.025710 
#    z 0.055920 0.025710 1.997500 
# 
# From -- ./inp_files/107284.got.cif
#   From: 2010.05.17/outbox.cif.g08.bks.cpg/sg2_54_cif.got.tgz:107284.got - 2010.06.03 11:33:40.
