data_PCOD9061817
_publ_section_title
;
Structure prediction by ZEFSAII (Michael W. Deem and Ramdas Pophale) SiO2 
 PCOD9061817
Probable space group: P -1
;
_chemical_formula_sum "Si O2"
_cell_formula_units_Z 14
_cell_length_a 10.133763
_cell_length_b 11.344942
_cell_length_c 14.679421
_cell_angle_alpha 150.646027
_cell_angle_beta 53.091462
_cell_angle_gamma 135.356649
_cell_volume 580.388465
_symmetry_space_group_name_H-M "P -1"
_symmetry_group_IT_number 2
_symmetry_cell_setting 'triclinic'
loop_
_space_group_symop_operation_xyz
x,y,z
-x,-y,-z
loop_
_atom_site_type_symbol
_atom_site_label
_atom_site_fract_x
_atom_site_fract_y
_atom_site_fract_z
Si Si1 0.608934 0.378121 0.112501
Si Si2 0.800601 0.727164 0.092144
Si Si3 0.469763 0.191791 0.514434
Si Si4 0.699548 0.409334 0.752850
Si Si5 0.766950 0.131124 0.018472
Si Si6 0.331284 0.552267 0.574110
Si Si7 0.968515 0.318194 0.479228
O O1 0.690982 0.491066 0.053975
O O2 0.386374 0.173971 0.089388
O O3 0.657307 0.656686 0.336188
O O4 0.704239 0.207482 0.000230
O O5 0.702959 0.633062 0.970618
O O6 0.017712 0.800978 0.034813
O O7 0.812086 0.008376 0.313025
O O8 0.584971 0.331234 0.653590
O O9 0.591770 0.254291 0.415724
O O10 0.367858 0.871128 0.353769
O O11 0.906393 0.478071 0.683324
O O12 0.730611 0.317098 0.231755
O O13 0.500000 0.500000 0.500000
O O14 0.144700 0.303435 0.440574
O O15 0.000000 0.500000 0.500000
#
# Coordination Sequence:
#
# PCOD9061817 Si02
#       7
#     2   2   2   2   2   2   2
#     4  11  24  45  69 104 148 191 238 305 361 440
#     4  12  26  48  74 106 145 192 246 303 369 435
#     4  11  23  46  71 104 145 187 249 303 364 443
#     4  11  25  46  72 105 142 192 244 305 369 434
#     4  11  25  43  71 106 146 192 243 296 371 434
#     4  12  24  45  73 105 147 196 239 305 372 430
#     4  12  26  47  73 108 147 189 249 305 363 443
#
# _framework density 24.121775
#
# number of rings (size 3 to 8) (size 9 to 14) (size 15 to 20)
#    0.000    0.571    5.714    2.143    2.000    2.286 
#    2.571    2.143    0.000    0.000    0.000    0.000 
#    0.000    0.000    0.000    0.000    0.000    0.000 
#
# Total GULP energy -78226.086060 kJ/mol
# GULP energy per Si atom -5587.577576 kJ/mol
# Density = 2.406687 g / cm^3
# Si number density = 24.121775 Si / 1000 Ang^3
#
#
#
# Elastic Constant Matrix: (Units=GPa)
#
#
# Indices 1 2 3 4 5 6 
#
# 1 80.9200 42.6954 20.2759 -3.1292 0.7496 11.3915
# 2 42.6954 141.7601 25.9934 -12.5861 6.1191 -16.5906
# 3 20.2759 25.9934 91.1109 -6.0959 4.3125 -11.5320
# 4 -3.1292 -12.5861 -6.0959 44.0074 -1.4927 -9.7579
# 5 0.7496 6.1191 4.3125 -1.4927 32.4737 -11.6099
# 6 11.3915 -16.5906 -11.5320 -9.7579 -11.6099 40.6795
#
#
#
# Elastic Compliance Matrix: (Units=1/GPa)
#
#
# Indices 1 2 3 4 5 6 
#
# 1 0.017730 -0.006025 -0.003582 -0.003245 -0.002497 -0.009929
# 2 -0.006025 0.010065 -0.000440 0.003948 0.000943 0.006884
# 3 -0.003582 -0.000440 0.012700 0.002537 0.000440 0.005158
# 4 -0.003245 0.003948 0.002537 0.026495 0.004056 0.010751
# 5 -0.002497 0.000943 0.000440 0.004056 0.035171 0.012219
# 6 -0.009929 0.006884 0.005158 0.010751 0.012219 0.037699
#
#
# Mechanical properties :
#
#
# Convention : Reuss Voigt Hill
#
# Bulk Modulus (GPa) = 49.01947 54.63558 51.82753
# Shear Modulus (GPa) = 29.98432 38.42056 34.20244
#
# Velocity S-wave (km/s) = 3.52950 3.99529 3.76960
# Velocity P-wave (km/s) = 6.08076 6.63191 6.36230
#
# Compressibility (1/GPa) = 0.02040006
#
# Stress axis : x y z
#
# Youngs Moduli (GPa) = 56.40147 99.35495 78.73919
#
# Poissons Ratio (x) = 0.59866 0.28207
# Poissons Ratio (y) = 0.33984 0.03463
# Poissons Ratio (z) = 0.20205 0.04370
#
# Static dielectric constant tensor:
#      x y z
#    x 2.008010 0.053340 -0.006330 
#    y 0.053340 1.933630 -0.026590 
#    z -0.006330 -0.026590 1.940230 
# 
# From -- ./inp_files/426326.got.cif
#   From: 2010.05.17/outbox.cif.g08.bks.cpg/sg2_214_cif.got.tgz:426326.got - 2010.06.03 11:33:40.
