data_PCOD9061843
_publ_section_title
;
Structure prediction by ZEFSAII (Michael W. Deem and Ramdas Pophale) SiO2 
 PCOD9061843
Probable space group: P -1
;
_chemical_formula_sum "Si O2"
_cell_formula_units_Z 14
_cell_length_a 17.446191
_cell_length_b 9.082653
_cell_length_c 11.024833
_cell_angle_alpha 106.522921
_cell_angle_beta 50.927737
_cell_angle_gamma 145.211649
_cell_volume 657.837967
_symmetry_space_group_name_H-M "P -1"
_symmetry_group_IT_number 2
_symmetry_cell_setting 'triclinic'
loop_
_space_group_symop_operation_xyz
x,y,z
-x,-y,-z
loop_
_atom_site_type_symbol
_atom_site_label
_atom_site_fract_x
_atom_site_fract_y
_atom_site_fract_z
Si Si1 0.144740 0.178154 0.553569
Si Si2 0.006150 0.148620 0.122996
Si Si3 0.454805 0.855952 0.881725
Si Si4 0.146784 0.834195 0.909477
Si Si5 0.792263 0.891306 0.863261
Si Si6 0.476633 0.864011 0.371002
Si Si7 0.625142 0.790696 0.791704
O O1 0.270931 0.501902 0.495197
O O2 0.265621 0.205996 0.375670
O O3 0.109597 0.064905 0.695724
O O4 0.926212 0.940307 0.681221
O O5 0.897304 0.145331 0.168701
O O6 0.228700 0.496990 0.014403
O O7 0.000000 0.000000 0.000000
O O8 0.594339 0.893494 0.760090
O O9 0.496304 0.009679 0.754253
O O10 0.500000 0.000000 0.000000
O O11 0.360922 0.051548 0.761517
O O12 0.000000 0.500000 0.000000
O O13 0.110956 0.912063 0.067279
O O14 0.747721 0.973075 0.836468
O O15 0.589453 0.545493 0.027382
O O16 0.500000 0.000000 0.500000
#
# Coordination Sequence:
#
# PCOD9061843 Si02
#       7
#     2   2   2   2   2   2   2
#     4  12  25  45  74 109 141 191 250 301 357 449
#     4  12  25  47  76 107 147 196 246 303 366 447
#     4  12  27  50  73 109 153 193 243 310 375 435
#     4  12  23  44  72 100 143 191 239 291 376 429
#     4  11  23  46  72 103 143 191 236 300 363 441
#     4  12  27  46  71 110 151 190 247 312 367 439
#     4  11  25  44  76 102 143 190 243 293 370 434
#
# _framework density 21.281835000000001
#
# number of rings (size 3 to 8) (size 9 to 14) (size 15 to 20)
#    0.000    0.286    5.714    3.000    4.000    1.714 
#    0.000    1.429    0.000    0.000    0.000    0.000 
#    0.000    0.000    0.000    0.000    0.000    0.000 
#
# Total GULP energy -78218.727737 kJ/mol
# GULP energy per Si atom -5587.051981 kJ/mol
# Density = 2.123340 g / cm^3
# Si number density = 21.281835 Si / 1000 Ang^3
#
#
#
# Elastic Constant Matrix: (Units=GPa)
#
#
# Indices 1 2 3 4 5 6 
#
# 1 202.2065 29.6218 57.9205 0.6716 8.1406 -10.4648
# 2 29.6218 88.4640 42.4930 6.3070 10.8001 7.4394
# 3 57.9205 42.4930 142.2189 1.7197 -5.0163 -1.0391
# 4 0.6716 6.3070 1.7197 29.8449 -12.2601 1.2157
# 5 8.1406 10.8001 -5.0163 -12.2601 46.2056 2.1031
# 6 -10.4648 7.4394 -1.0391 1.2157 2.1031 29.4643
#
#
#
# Elastic Compliance Matrix: (Units=1/GPa)
#
#
# Indices 1 2 3 4 5 6 
#
# 1 0.005869 -0.000959 -0.002126 -0.000421 -0.001260 0.002359
# 2 -0.000959 0.014881 -0.004197 -0.004723 -0.004850 -0.003705
# 3 -0.002126 -0.004197 0.009232 0.001514 0.002743 0.000372
# 4 -0.000421 -0.004723 0.001514 0.039349 0.011845 -0.001373
# 5 -0.001260 -0.004850 0.002743 0.011845 0.026507 -0.001507
# 6 0.002359 -0.003705 0.000372 -0.001373 -0.001507 0.035890
#
#
# Mechanical properties :
#
#
# Convention : Reuss Voigt Hill
#
# Bulk Modulus (GPa) = 64.85205 76.99556 70.92381
# Shear Modulus (GPa) = 33.01827 41.29326 37.15576
#
# Velocity S-wave (km/s) = 3.94315 4.40967 4.18292
# Velocity P-wave (km/s) = 7.16033 7.88571 7.53176
#
# Compressibility (1/GPa) = 0.01541971
#
# Stress axis : x y z
#
# Youngs Moduli (GPa) = 170.38653 67.19840 108.31484
#
# Poissons Ratio (x) = 0.06442 0.23027
# Poissons Ratio (y) = 0.16334 0.45459
# Poissons Ratio (z) = 0.36223 0.28203
#
# Static dielectric constant tensor:
#      x y z
#    x 1.832330 0.026310 -0.001320 
#    y 0.026310 1.767100 0.037970 
#    z -0.001320 0.037970 1.760410 
# 
# From -- ./inp_files/461381.got.cif
#   From: 2010.05.17/outbox.cif.g08.bks.cpg/sg2_231_cif.got.tgz:461381.got - 2010.06.03 11:33:40.
