data_PCOD9061231
_publ_section_title
;
Structure prediction by ZEFSAII (Michael W. Deem and Ramdas Pophale) SiO2 
 PCOD9061231
Probable space group: P -1
;
_chemical_formula_sum "Si O2"
_cell_formula_units_Z 16
_cell_length_a 10.612626
_cell_length_b 15.645664
_cell_length_c 18.004354
_cell_angle_alpha 156.117075
_cell_angle_beta 36.841777
_cell_angle_gamma 145.010553
_cell_volume 676.963998
_symmetry_space_group_name_H-M "P -1"
_symmetry_group_IT_number 2
_symmetry_cell_setting 'triclinic'
loop_
_space_group_symop_operation_xyz
x,y,z
-x,-y,-z
loop_
_atom_site_type_symbol
_atom_site_label
_atom_site_fract_x
_atom_site_fract_y
_atom_site_fract_z
Si Si1 0.494888 0.065124 0.347670
Si Si2 0.931670 0.709252 0.518083
Si Si3 0.218805 0.373237 0.735681
Si Si4 0.727628 0.383499 0.617898
Si Si5 0.581914 0.816634 0.853300
Si Si6 0.222598 0.108287 0.029807
Si Si7 0.866284 0.378125 0.792458
Si Si8 0.248593 0.233457 0.779562
O O1 0.332864 0.201866 0.513162
O O2 0.685997 0.232271 0.443575
O O3 0.355770 0.844998 0.286800
O O4 0.594911 0.979836 0.163188
O O5 0.040948 0.591457 0.432578
O O6 0.962991 0.612945 0.347190
O O7 0.687226 0.695959 0.647523
O O8 0.088965 0.974969 0.657015
O O9 0.379216 0.627101 0.841144
O O10 0.204846 0.317896 0.785405
O O11 0.983198 0.337936 0.780718
O O12 0.715698 0.624362 0.795778
O O13 0.512099 0.266767 0.680318
O O14 0.774685 0.932269 0.915920
O O15 0.500000 0.000000 0.000000
O O16 0.000000 0.000000 0.000000
O O17 0.804701 0.600371 0.005487
#
# Coordination Sequence:
#
# PCOD9061231 Si02
#       8
#     2   2   2   2   2   2   2   2
#     4  11  23  44  76 102 135 190 250 290 347 427
#     4  12  28  43  72 108 149 186 237 303 363 427
#     4  11  24  46  73  98 146 191 243 291 355 437
#     4  11  24  48  71 106 143 186 239 299 358 422
#     4  12  28  51  71 107 152 190 233 310 370 421
#     4  12  27  48  78 106 142 198 246 292 359 444
#     4  12  24  41  73 109 138 192 240 295 357 431
#     4  11  23  47  69 103 143 186 239 295 356 419
#
# _framework density 23.634934999999999
#
# number of rings (size 3 to 8) (size 9 to 14) (size 15 to 20)
#    0.000    0.500    6.250    2.625    3.500    5.000 
#    0.000    0.000    0.000    0.000    0.000    0.000 
#    0.000    0.000    0.000    0.000    0.000    0.000 
#
# Total GULP energy -89656.357261 kJ/mol
# GULP energy per Si atom -5603.522329 kJ/mol
# Density = 2.358114 g / cm^3
# Si number density = 23.634935 Si / 1000 Ang^3
#
#
#
# Elastic Constant Matrix: (Units=GPa)
#
#
# Indices 1 2 3 4 5 6 
#
# 1 41.4132 18.0107 33.3590 6.9623 -8.5724 2.1410
# 2 18.0107 45.5463 10.4944 4.3364 10.4145 -12.9980
# 3 33.3590 10.4944 150.8951 -9.5943 4.5474 -19.0816
# 4 6.9623 4.3364 -9.5943 43.5639 -5.7930 3.4442
# 5 -8.5724 10.4145 4.5474 -5.7930 35.8122 1.4835
# 6 2.1410 -12.9980 -19.0816 3.4442 1.4835 22.4919
#
#
#
# Elastic Compliance Matrix: (Units=1/GPa)
#
#
# Indices 1 2 3 4 5 6 
#
# 1 0.070751 -0.045949 -0.020271 -0.002448 0.034647 -0.052397
# 2 -0.045949 0.060278 0.013451 -0.004330 -0.033152 0.053470
# 3 -0.020271 0.013451 0.013330 0.001665 -0.011078 0.021488
# 4 -0.002448 -0.004330 0.001665 0.025171 0.004742 -0.005024
# 5 0.034647 -0.033152 -0.011078 0.004742 0.049516 -0.035846
# 6 -0.052397 0.053470 0.021488 -0.005024 -0.035846 0.101712
#
#
# Mechanical properties :
#
#
# Convention : Reuss Voigt Hill
#
# Bulk Modulus (GPa) = 25.75902 40.17585 32.96743
# Shear Modulus (GPa) = 11.38336 32.10629 21.74483
#
# Velocity S-wave (km/s) = 2.19699 3.68968 3.03649
# Velocity P-wave (km/s) = 4.16630 5.93187 5.12568
#
# Compressibility (1/GPa) = 0.03882136
#
# Stress axis : x y z
#
# Youngs Moduli (GPa) = 14.13399 16.58977 75.01867
#
# Poissons Ratio (x) = 0.76228 1.52073
# Poissons Ratio (y) = 0.64944 -1.00910
# Poissons Ratio (z) = 0.28651 -0.22315
#
# Static dielectric constant tensor:
#      x y z
#    x 1.886490 0.027320 0.026020 
#    y 0.027320 1.918170 -0.011940 
#    z 0.026020 -0.011940 1.864620 
# 
# From -- ./inp_files/570776.got.cif
#   From: 2010.05.17/outbox.cif.g08.bks.cpg/sg2_286_cif.got.tgz:570776.got - 2010.06.03 11:33:40.
