data_PCOD9061042
_publ_section_title
;
Structure prediction by ZEFSAII (Michael W. Deem and Ramdas Pophale) SiO2 
 PCOD9061042
Probable space group: P -1
;
_chemical_formula_sum "Si O2"
_cell_formula_units_Z 10
_cell_length_a 7.507016
_cell_length_b 15.336390
_cell_length_c 12.434105
_cell_angle_alpha 148.964656
_cell_angle_beta 141.041795
_cell_angle_gamma 30.467589
_cell_volume 370.028800
_symmetry_space_group_name_H-M "P -1"
_symmetry_group_IT_number 2
_symmetry_cell_setting 'triclinic'
loop_
_space_group_symop_operation_xyz
x,y,z
-x,-y,-z
loop_
_atom_site_type_symbol
_atom_site_label
_atom_site_fract_x
_atom_site_fract_y
_atom_site_fract_z
Si Si1 0.004837 0.715693 0.982154
Si Si2 0.977059 0.949447 0.611366
Si Si3 0.039629 0.789319 0.826721
Si Si4 0.844287 0.707407 0.444993
Si Si5 0.781346 0.407666 0.813228
O O1 0.035339 0.771441 0.933464
O O2 0.944727 0.538752 0.744284
O O3 0.261005 0.604004 0.090984
O O4 0.797598 0.958462 0.185651
O O5 0.036448 0.798815 0.578052
O O6 0.029549 0.818235 0.391981
O O7 0.558967 0.151348 0.641053
O O8 0.426547 0.572825 0.756258
O O9 0.799370 0.760810 0.606758
O O10 0.000000 0.000000 0.000000
O O11 0.000000 0.500000 0.000000
#
# Coordination Sequence:
#
# PCOD9061042 Si02
#       5
#     2   2   2   2   2
#     4  12  25  46  73  98 137 188 225 270 347 412
#     4  11  23  44  72 100 136 181 226 277 339 404
#     4  12  25  45  71 102 138 179 229 281 337 404
#     4  11  23  44  72 100 136 181 226 277 339 404
#     4  12  25  45  71 102 138 179 229 281 337 404
#
# _framework density 27.024923000000001
#
# number of rings (size 3 to 8) (size 9 to 14) (size 15 to 20)
#    0.000    0.400    4.000    6.000    0.000    0.800 
#    0.000    7.000    0.000    0.000    0.000    0.000 
#    0.000    0.000    0.000    0.000    0.000    0.000 
#
# Total GULP energy -55830.357855 kJ/mol
# GULP energy per Si atom -5583.035786 kJ/mol
# Density = 2.696341 g / cm^3
# Si number density = 27.024923 Si / 1000 Ang^3
#
#
#
# Elastic Constant Matrix: (Units=GPa)
#
#
# Indices 1 2 3 4 5 6 
#
# 1 64.4643 70.3846 43.5802 13.5978 -13.4585 33.8283
# 2 70.3846 116.6570 53.0044 17.4945 13.2903 39.5266
# 3 43.5802 53.0044 239.4061 40.9427 -12.1467 30.9039
# 4 13.5978 17.4945 40.9427 59.1312 22.1107 2.5658
# 5 -13.4585 13.2903 -12.1467 22.1107 48.2007 -1.6210
# 6 33.8283 39.5266 30.9039 2.5658 -1.6210 52.7279
#
#
#
# Elastic Compliance Matrix: (Units=1/GPa)
#
#
# Indices 1 2 3 4 5 6 
#
# 1 0.142116 -0.082304 0.007846 -0.043672 0.083397 -0.029388
# 2 -0.082304 0.060569 -0.006363 0.024605 -0.052292 0.008324
# 3 0.007846 -0.006363 0.006310 -0.007453 0.008842 -0.003328
# 4 -0.043672 0.024605 -0.007453 0.038655 -0.038222 0.010886
# 5 0.083397 -0.052292 0.008842 -0.038222 0.077700 -0.015239
# 6 -0.029388 0.008324 -0.003328 0.010886 -0.015239 0.032532
#
#
# Mechanical properties :
#
#
# Convention : Reuss Voigt Hill
#
# Bulk Modulus (GPa) = 21.11875 83.82952 52.47414
# Shear Modulus (GPa) = 9.34040 48.91583 29.12811
#
# Velocity S-wave (km/s) = 1.86111 4.25906 3.28658
# Velocity P-wave (km/s) = 3.52843 7.43457 5.81904
#
# Compressibility (1/GPa) = 0.04735128
#
# Stress axis : x y z
#
# Youngs Moduli (GPa) = 7.03650 16.51022 158.47017
#
# Poissons Ratio (x) = 1.35887 -1.24330
# Poissons Ratio (y) = 0.57914 1.00835
# Poissons Ratio (z) = -0.05521 0.10505
#
# Static dielectric constant tensor:
#      x y z
#    x 2.246110 -0.028770 -0.034890 
#    y -0.028770 2.192010 -0.233910 
#    z -0.034890 -0.233910 2.522790 
# 
# From -- ./inp_files/144049.got.cif
#   From: 2010.05.17/outbox.cif.g08.bks.cpg/sg2_73_cif.got.tgz:144049.got - 2010.06.03 11:33:40.
