data_PCOD9061549
_publ_section_title
;
Structure prediction by ZEFSAII (Michael W. Deem and Ramdas Pophale) SiO2 
 PCOD9061549
Probable space group: P -1
;
_chemical_formula_sum "Si O2"
_cell_formula_units_Z 12
_cell_length_a 9.775787
_cell_length_b 9.030045
_cell_length_c 12.869637
_cell_angle_alpha 36.149846
_cell_angle_beta 130.562184
_cell_angle_gamma 120.897322
_cell_volume 508.959398
_symmetry_space_group_name_H-M "P -1"
_symmetry_group_IT_number 2
_symmetry_cell_setting 'triclinic'
loop_
_space_group_symop_operation_xyz
x,y,z
-x,-y,-z
loop_
_atom_site_type_symbol
_atom_site_label
_atom_site_fract_x
_atom_site_fract_y
_atom_site_fract_z
Si Si1 0.371482 0.231583 0.833901
Si Si2 0.008120 0.268839 0.557550
Si Si3 0.221374 0.651765 0.805883
Si Si4 0.484740 0.226125 0.448312
Si Si5 0.375223 0.140453 0.121674
Si Si6 0.931775 0.756481 0.771690
O O1 0.221090 0.240089 0.665410
O O2 0.456746 0.507151 0.720151
O O3 0.303819 0.162164 0.956035
O O4 0.500000 0.000000 0.000000
O O5 0.000000 0.500000 0.500000
O O6 0.878372 0.324079 0.366748
O O7 0.947488 0.995700 0.719221
O O8 0.415861 0.775801 0.829955
O O9 0.080167 0.781761 0.740444
O O10 0.267753 0.355073 0.013007
O O11 0.274621 0.255753 0.358887
O O12 0.500000 0.000000 0.500000
O O13 0.609087 0.126518 0.661770
O O14 0.000000 0.500000 0.000000
#
# Coordination Sequence:
#
# PCOD9061549 Si02
#       6
#     2   2   2   2   2   2
#     4  12  27  46  70 106 149 181 228 302 365 407
#     4  12  24  46  69 106 143 180 229 301 362 402
#     4  11  23  45  73 102 140 190 239 288 348 433
#     4  12  25  46  74 103 136 192 241 284 346 436
#     4  11  23  46  74 101 140 193 239 280 359 428
#     4  12  25  45  74 104 137 186 248 285 340 435
#
# _framework density 23.577518000000001
#
# number of rings (size 3 to 8) (size 9 to 14) (size 15 to 20)
#    0.000    0.333    3.333    7.500    2.333    0.667 
#    3.000    1.667    0.000    0.000    0.000    0.000 
#    0.000    0.000    0.000    0.000    0.000    0.000 
#
# Total GULP energy -67088.937034 kJ/mol
# GULP energy per Si atom -5590.744753 kJ/mol
# Density = 2.352385 g / cm^3
# Si number density = 23.577518 Si / 1000 Ang^3
#
#
#
# Elastic Constant Matrix: (Units=GPa)
#
#
# Indices 1 2 3 4 5 6 
#
# 1 71.1300 6.1965 26.6593 -2.4090 14.9734 -2.1337
# 2 6.1965 83.0456 36.8208 -5.4289 -14.1834 -0.0645
# 3 26.6593 36.8208 176.2043 -25.5478 4.6111 2.0206
# 4 -2.4090 -5.4289 -25.5478 46.5687 11.4369 8.1020
# 5 14.9734 -14.1834 4.6111 11.4369 40.3935 5.8764
# 6 -2.1337 -0.0645 2.0206 8.1020 5.8764 26.7861
#
#
#
# Elastic Compliance Matrix: (Units=1/GPa)
#
#
# Indices 1 2 3 4 5 6 
#
# 1 0.016509 -0.001546 -0.001889 0.000905 -0.007102 0.002738
# 2 -0.001546 0.014614 -0.003222 -0.001637 0.006654 -0.000809
# 3 -0.001889 -0.003222 0.007348 0.004387 -0.002289 -0.001538
# 4 0.000905 -0.001637 0.004387 0.026867 -0.008055 -0.006622
# 5 -0.007102 0.006654 -0.002289 -0.008055 0.033021 -0.005185
# 6 0.002738 -0.000809 -0.001538 -0.006622 -0.005185 0.040805
#
#
# Mechanical properties :
#
#
# Convention : Reuss Voigt Hill
#
# Bulk Modulus (GPa) = 39.75008 52.19256 45.97132
# Shear Modulus (GPa) = 31.08192 40.12989 35.60590
#
# Velocity S-wave (km/s) = 3.63476 4.13005 3.89030
# Velocity P-wave (km/s) = 5.87463 6.70282 6.30234
#
# Compressibility (1/GPa) = 0.02515718
#
# Stress axis : x y z
#
# Youngs Moduli (GPa) = 60.57242 68.42594 136.09101
#
# Poissons Ratio (x) = 0.10577 0.25709
# Poissons Ratio (y) = 0.09363 0.43852
# Poissons Ratio (z) = 0.11443 0.22049
#
# Static dielectric constant tensor:
#      x y z
#    x 1.917540 -0.001470 -0.089750 
#    y -0.001470 1.897060 0.011140 
#    z -0.089750 0.011140 1.839560 
# 
# From -- ./inp_files/395353.got.cif
#   From: 2010.05.17/outbox.cif.g08.bks.cpg/sg2_198_cif.got.tgz:395353.got - 2010.06.03 11:33:40.
