data_PCOD9061870
_publ_section_title
;
Structure prediction by ZEFSAII (Michael W. Deem and Ramdas Pophale) SiO2 
 PCOD9061870
Probable space group: P -1
;
_chemical_formula_sum "Si O2"
_cell_formula_units_Z 12
_cell_length_a 16.473776
_cell_length_b 5.945500
_cell_length_c 9.975227
_cell_angle_alpha 102.499544
_cell_angle_beta 33.832505
_cell_angle_gamma 89.575908
_cell_volume 498.597680
_symmetry_space_group_name_H-M "P -1"
_symmetry_group_IT_number 2
_symmetry_cell_setting 'triclinic'
loop_
_space_group_symop_operation_xyz
x,y,z
-x,-y,-z
loop_
_atom_site_type_symbol
_atom_site_label
_atom_site_fract_x
_atom_site_fract_y
_atom_site_fract_z
Si Si1 0.281820 0.694728 0.907311
Si Si2 0.031783 0.925170 0.710527
Si Si3 0.603437 0.660583 0.534949
Si Si4 0.891345 0.759659 0.124625
Si Si5 0.417434 0.297178 0.129342
Si Si6 0.173275 0.506769 0.279049
O O1 0.419852 0.778725 0.783572
O O2 0.337552 0.578866 0.670451
O O3 0.259604 0.501873 0.020135
O O4 0.113082 0.891341 0.145978
O O5 0.150096 0.765160 0.419157
O O6 0.961028 0.769692 0.884541
O O7 0.098983 0.056668 0.748068
O O8 0.709931 0.810613 0.360701
O O9 0.645397 0.605090 0.624701
O O10 0.000000 0.500000 0.000000
O O11 0.283837 0.318077 0.207088
O O12 0.500000 0.500000 0.000000
O O13 0.500000 0.000000 0.000000
O O14 0.000000 0.500000 0.500000
#
# Coordination Sequence:
#
# PCOD9061870 Si02
#       6
#     2   2   2   2   2   2
#     4  11  25  47  72 115 154 198 266 320 405 465
#     4  11  26  44  78 106 154 199 268 322 392 476
#     4  11  25  46  77 107 160 197 259 324 400 470
#     4  11  23  46  72 111 146 203 258 318 393 470
#     4  12  30  54  79 117 161 211 265 327 402 483
#     4  12  28  49  77 112 156 207 265 332 392 475
#
# _framework density 24.067502999999999
#
# number of rings (size 3 to 8) (size 9 to 14) (size 15 to 20)
#    0.000    0.667    3.333    2.500    9.333    0.667 
#    0.000    0.000    0.000    0.000    0.000    0.000 
#    0.000    0.000    0.000    0.000    0.000    0.000 
#
# Total GULP energy -67065.865454 kJ/mol
# GULP energy per Si atom -5588.822121 kJ/mol
# Density = 2.401272 g / cm^3
# Si number density = 24.067503 Si / 1000 Ang^3
#
#
#
# Elastic Constant Matrix: (Units=GPa)
#
#
# Indices 1 2 3 4 5 6 
#
# 1 132.6584 45.5530 47.5132 -7.1388 -15.3164 -21.2505
# 2 45.5530 67.4448 24.2292 6.7950 -0.2501 -12.6529
# 3 47.5132 24.2292 76.9900 -2.6148 1.8282 12.5972
# 4 -7.1388 6.7950 -2.6148 35.1953 -0.5397 -7.4675
# 5 -15.3164 -0.2501 1.8282 -0.5397 64.8714 -0.0343
# 6 -21.2505 -12.6529 12.5972 -7.4675 -0.0343 34.7538
#
#
#
# Elastic Compliance Matrix: (Units=1/GPa)
#
#
# Indices 1 2 3 4 5 6 
#
# 1 0.015792 -0.005284 -0.010049 0.006238 0.004050 0.012719
# 2 -0.005284 0.021424 -0.004463 -0.004446 -0.001073 0.005231
# 3 -0.010049 -0.004463 0.023327 -0.003074 -0.003082 -0.016888
# 4 0.006238 -0.004446 -0.003074 0.032521 0.001818 0.010299
# 5 0.004050 -0.001073 -0.003082 0.001818 0.016471 0.003610
# 6 0.012719 0.005231 -0.016888 0.010299 0.003610 0.046793
#
#
# Mechanical properties :
#
#
# Convention : Reuss Voigt Hill
#
# Bulk Modulus (GPa) = 47.72688 56.85378 52.29033
# Shear Modulus (GPa) = 24.64233 37.61730 31.12981
#
# Velocity S-wave (km/s) = 3.20329 3.95776 3.60034
# Velocity P-wave (km/s) = 5.79266 6.67526 6.24956
#
# Compressibility (1/GPa) = 0.02095255
#
# Stress axis : x y z
#
# Youngs Moduli (GPa) = 63.32213 46.67655 42.86954
#
# Poissons Ratio (x) = 0.24662 0.43078
# Poissons Ratio (y) = 0.33457 0.19132
# Poissons Ratio (z) = 0.63630 0.20831
#
# Static dielectric constant tensor:
#      x y z
#    x 1.942540 0.036110 -0.035010 
#    y 0.036110 2.022450 -0.025350 
#    z -0.035010 -0.025350 1.940180 
# 
# From -- ./inp_files/32425.got.cif
#   From: 2010.05.17/outbox.cif.g08.bks.cpg/sg2_17_cif.got.tgz:32425.got - 2010.06.03 11:33:40.
