data_PCOD9061159
_publ_section_title
;
Structure prediction by ZEFSAII (Michael W. Deem and Ramdas Pophale) SiO2 
 PCOD9061159
Probable space group: P -1
;
_chemical_formula_sum "Si O2"
_cell_formula_units_Z 12
_cell_length_a 8.443089
_cell_length_b 9.436083
_cell_length_c 9.221559
_cell_angle_alpha 106.128394
_cell_angle_beta 77.916582
_cell_angle_gamma 133.200571
_cell_volume 514.281378
_symmetry_space_group_name_H-M "P -1"
_symmetry_group_IT_number 2
_symmetry_cell_setting 'triclinic'
loop_
_space_group_symop_operation_xyz
x,y,z
-x,-y,-z
loop_
_atom_site_type_symbol
_atom_site_label
_atom_site_fract_x
_atom_site_fract_y
_atom_site_fract_z
Si Si1 0.560058 0.989675 0.647143
Si Si2 0.608275 0.688584 0.634996
Si Si3 0.051654 0.976649 0.144521
Si Si4 0.234256 0.627017 0.166171
Si Si5 0.428711 0.404629 0.829170
Si Si6 0.771486 0.207061 0.073974
O O1 0.594347 0.836300 0.602844
O O2 0.381870 0.907431 0.788305
O O3 0.500000 0.000000 0.500000
O O4 0.769499 0.217072 0.709928
O O5 0.500000 0.500000 0.500000
O O6 0.467523 0.568417 0.768523
O O7 0.843603 0.842054 0.713421
O O8 0.819715 0.788233 0.195372
O O9 0.204708 0.929570 0.062993
O O10 0.000000 0.000000 0.000000
O O11 0.412328 0.640471 0.225353
O O12 0.010341 0.401416 0.138261
O O13 0.289913 0.707578 0.011856
O O14 0.500000 0.500000 0.000000
#
# Coordination Sequence:
#
# PCOD9061159 Si02
#       6
#     2   2   2   2   2   2
#     4  12  27  45  72 104 148 199 242 300 372 441
#     4  12  28  48  69 107 153 195 244 309 369 435
#     4  12  24  43  77 114 144 191 249 300 368 443
#     4  11  23  44  73 110 142 187 244 307 365 435
#     4  12  23  43  76 108 147 189 243 304 369 435
#     4  11  24  42  76 109 142 185 251 305 364 433
#
# _framework density 23.333528999999999
#
# number of rings (size 3 to 8) (size 9 to 14) (size 15 to 20)
#    0.000    0.333    5.000    3.500    2.333    1.333 
#    0.000    3.333    0.000    0.000    0.000    0.000 
#    0.000    0.000    0.000    0.000    0.000    0.000 
#
# Total GULP energy -66940.292413 kJ/mol
# GULP energy per Si atom -5578.357701 kJ/mol
# Density = 2.328042 g / cm^3
# Si number density = 23.333529 Si / 1000 Ang^3
#
#
#
# Elastic Constant Matrix: (Units=GPa)
#
#
# Indices 1 2 3 4 5 6 
#
# 1 60.8856 22.3018 20.3130 6.3452 11.8762 -3.5361
# 2 22.3018 132.9060 32.0115 26.0938 15.6215 17.8809
# 3 20.3130 32.0115 110.6340 31.8502 31.8098 2.1615
# 4 6.3452 26.0938 31.8502 60.4656 -9.5160 9.9454
# 5 11.8762 15.6215 31.8098 -9.5160 30.3365 1.8244
# 6 -3.5361 17.8809 2.1615 9.9454 1.8244 56.9073
#
#
#
# Elastic Compliance Matrix: (Units=1/GPa)
#
#
# Indices 1 2 3 4 5 6 
#
# 1 0.019073 -0.002171 -0.000135 -0.002539 -0.007157 0.002545
# 2 -0.002171 0.009753 0.001136 -0.005322 -0.006907 -0.002091
# 3 -0.000135 0.001136 0.021947 -0.017056 -0.029058 0.002714
# 4 -0.002539 -0.005322 -0.017056 0.034006 0.032576 -0.004825
# 5 -0.007157 -0.006907 -0.029058 0.032576 0.080337 -0.005440
# 6 0.002545 -0.002091 0.002714 -0.004825 -0.005440 0.019302
#
#
# Mechanical properties :
#
#
# Convention : Reuss Voigt Hill
#
# Bulk Modulus (GPa) = 20.64732 50.40867 35.52799
# Shear Modulus (GPa) = 24.64236 44.86186 34.75211
#
# Velocity S-wave (km/s) = 3.25328 4.38954 3.86341
# Velocity P-wave (km/s) = 4.79372 6.88050 5.92963
#
# Compressibility (1/GPa) = 0.04843244
#
# Stress axis : x y z
#
# Youngs Moduli (GPa) = 52.43077 102.53339 45.56406
#
# Poissons Ratio (x) = 0.22258 0.00615
# Poissons Ratio (y) = 0.11382 -0.05174
# Poissons Ratio (z) = 0.00707 -0.11643
#
# Static dielectric constant tensor:
#      x y z
#    x 2.049510 -0.072560 -0.109460 
#    y -0.072560 1.828180 0.035320 
#    z -0.109460 0.035320 1.893570 
# 
# From -- ./inp_files/159691.got.cif
#   From: 2010.05.17/outbox.cif.g08.bks.cpg/sg2_80_cif.got.tgz:159691.got - 2010.06.03 11:33:40.
