data_PCOD9061907
_publ_section_title
;
Structure prediction by ZEFSAII (Michael W. Deem and Ramdas Pophale) SiO2 
 PCOD9061907
Probable space group: P -1
;
_chemical_formula_sum "Si O2"
_cell_formula_units_Z 12
_cell_length_a 9.257492
_cell_length_b 9.397359
_cell_length_c 11.742686
_cell_angle_alpha 140.180957
_cell_angle_beta 123.436333
_cell_angle_gamma 77.794360
_cell_volume 501.202395
_symmetry_space_group_name_H-M "P -1"
_symmetry_group_IT_number 2
_symmetry_cell_setting 'triclinic'
loop_
_space_group_symop_operation_xyz
x,y,z
-x,-y,-z
loop_
_atom_site_type_symbol
_atom_site_label
_atom_site_fract_x
_atom_site_fract_y
_atom_site_fract_z
Si Si1 0.794769 0.810326 0.377253
Si Si2 0.389827 0.441520 0.058354
Si Si3 0.460360 0.955785 0.822753
Si Si4 0.842083 0.093849 0.937466
Si Si5 0.812495 0.262592 0.772626
Si Si6 0.950942 0.401168 0.546331
O O1 0.589450 0.633142 0.220655
O O2 0.962386 0.798375 0.518550
O O3 0.795594 0.075154 0.549470
O O4 0.792547 0.677538 0.175878
O O5 0.338237 0.613695 0.227695
O O6 0.427389 0.198962 0.934236
O O7 0.268523 0.714816 0.587635
O O8 0.639906 0.961145 0.831870
O O9 0.500000 0.000000 0.000000
O O10 0.804887 0.114252 0.797629
O O11 0.930052 0.370863 0.185838
O O12 0.000000 0.000000 0.000000
O O13 0.000000 0.500000 0.000000
O O14 0.000000 0.500000 0.500000
#
# Coordination Sequence:
#
# PCOD9061907 Si02
#       6
#     2   2   2   2   2   2
#     4  11  23  46  73 106 147 197 243 318 371 445
#     4  11  23  46  75 106 148 191 261 302 376 453
#     4  12  26  46  79 107 147 207 249 309 389 450
#     4  12  27  49  71 113 155 193 259 313 373 459
#     4  12  27  44  72 114 151 196 253 313 378 450
#     4  12  23  46  76 105 148 200 247 309 381 448
#
# _framework density 23.942423000000002
#
# number of rings (size 3 to 8) (size 9 to 14) (size 15 to 20)
#    0.000    0.333    5.000    3.500    4.667    2.000 
#    0.000    0.000    0.000    0.000    0.000    0.000 
#    0.000    0.000    0.000    0.000    0.000    0.000 
#
# Total GULP energy -66909.973792 kJ/mol
# GULP energy per Si atom -5575.831149 kJ/mol
# Density = 2.388793 g / cm^3
# Si number density = 23.942423 Si / 1000 Ang^3
#
#
#
# Elastic Constant Matrix: (Units=GPa)
#
#
# Indices 1 2 3 4 5 6 
#
# 1 153.4423 37.3454 43.6203 16.2036 36.7439 -6.6237
# 2 37.3454 77.2486 -0.4523 4.1470 4.4874 -3.9286
# 3 43.6203 -0.4523 116.0213 14.5469 17.4523 13.3619
# 4 16.2036 4.1470 14.5469 33.9880 0.2718 -2.7052
# 5 36.7439 4.4874 17.4523 0.2718 44.2431 18.3843
# 6 -6.6237 -3.9286 13.3619 -2.7052 18.3843 39.6659
#
#
#
# Elastic Compliance Matrix: (Units=1/GPa)
#
#
# Indices 1 2 3 4 5 6 
#
# 1 0.011933 -0.004578 -0.003310 -0.003011 -0.011319 0.007695
# 2 -0.004578 0.015039 0.001626 -0.000424 0.001952 -0.000756
# 3 -0.003310 0.001626 0.010797 -0.003589 0.000152 -0.004344
# 4 -0.003011 -0.000424 -0.003589 0.032532 0.003172 0.001413
# 5 -0.011319 0.001952 0.000152 0.003172 0.040081 -0.020109
# 6 0.007695 -0.000756 -0.004344 0.001413 -0.020109 0.037300
#
#
# Mechanical properties :
#
#
# Convention : Reuss Voigt Hill
#
# Bulk Modulus (GPa) = 39.61062 56.41545 48.01303
# Shear Modulus (GPa) = 29.65215 41.32601 35.48908
#
# Velocity S-wave (km/s) = 3.52302 4.15909 3.85420
# Velocity P-wave (km/s) = 5.75577 6.83214 6.31693
#
# Compressibility (1/GPa) = 0.02524575
#
# Stress axis : x y z
#
# Youngs Moduli (GPa) = 83.80095 66.49476 92.61508
#
# Poissons Ratio (x) = 0.30440 0.30659
# Poissons Ratio (y) = 0.38362 -0.15063
# Poissons Ratio (z) = 0.27741 -0.10815
#
# Static dielectric constant tensor:
#      x y z
#    x 2.892470 0.420500 -0.011810 
#    y 0.420500 2.402400 0.035990 
#    z -0.011810 0.035990 1.854780 
# 
# From -- ./inp_files/383743.got.cif
#   From: 2010.05.17/outbox.cif.g08.bks.cpg/sg2_192_cif.got.tgz:383743.got - 2010.06.03 11:33:40.
