data_PCOD9061150
_publ_section_title
;
Structure prediction by ZEFSAII (Michael W. Deem and Ramdas Pophale) SiO2 
 PCOD9061150
Probable space group: P -1
;
_chemical_formula_sum "Si O2"
_cell_formula_units_Z 16
_cell_length_a 15.195761
_cell_length_b 10.744152
_cell_length_c 14.327368
_cell_angle_alpha 149.099420
_cell_angle_beta 144.321757
_cell_angle_gamma 54.637130
_cell_volume 643.707919
_symmetry_space_group_name_H-M "P -1"
_symmetry_group_IT_number 2
_symmetry_cell_setting 'triclinic'
loop_
_space_group_symop_operation_xyz
x,y,z
-x,-y,-z
loop_
_atom_site_type_symbol
_atom_site_label
_atom_site_fract_x
_atom_site_fract_y
_atom_site_fract_z
Si Si1 0.209245 0.604760 0.979717
Si Si2 0.664867 0.013599 0.202042
Si Si3 0.873348 0.829754 0.022763
Si Si4 0.869023 0.583617 0.670086
Si Si5 0.820669 0.350529 0.295488
Si Si6 0.315192 0.512563 0.200204
Si Si7 0.765612 0.904987 0.418343
Si Si8 0.531868 0.091883 0.736671
O O1 0.199001 0.337715 0.749290
O O2 0.060173 0.680408 0.872830
O O3 0.201911 0.570251 0.062417
O O4 0.379466 0.817127 0.226733
O O5 0.685074 0.999142 0.322053
O O6 0.806956 0.291148 0.473756
O O7 0.673066 0.746783 0.998997
O O8 0.500000 0.000000 0.000000
O O9 0.826621 0.078413 0.163712
O O10 0.851022 0.769703 0.854644
O O11 0.758548 0.575670 0.818571
O O12 0.058352 0.903364 0.266499
O O13 0.786587 0.525481 0.460036
O O14 0.000000 0.500000 0.500000
O O15 0.673819 0.262373 0.039780
O O16 0.476235 0.780918 0.509999
O O17 0.628390 0.845399 0.341769
#
# Coordination Sequence:
#
# PCOD9061150 Si02
#       8
#     2   2   2   2   2   2   2   2
#     4  11  23  46  71 105 147 194 241 299 360 433
#     4  11  24  43  70 107 149 191 238 302 370 425
#     4  12  26  46  77 110 143 195 246 294 367 435
#     4  12  24  45  75 101 147 189 247 291 360 433
#     4  12  26  50  71 105 151 189 237 304 363 436
#     4  11  25  44  73 105 149 187 242 306 359 428
#     4  11  23  44  73 107 146 192 242 303 362 426
#     4  12  25  44  72 107 147 192 245 297 365 433
#
# _framework density 24.855992000000001
#
# number of rings (size 3 to 8) (size 9 to 14) (size 15 to 20)
#    0.000    0.500    3.750    3.750    1.750    4.500 
#    0.000    0.000    0.000    0.000    0.000    0.000 
#    0.000    0.000    0.000    0.000    0.000    0.000 
#
# Total GULP energy -89527.978743 kJ/mol
# GULP energy per Si atom -5595.498671 kJ/mol
# Density = 2.479942 g / cm^3
# Si number density = 24.855992 Si / 1000 Ang^3
#
#
#
# Elastic Constant Matrix: (Units=GPa)
#
#
# Indices 1 2 3 4 5 6 
#
# 1 67.4546 -3.1414 0.4264 25.9115 -19.8159 -1.0353
# 2 -3.1414 50.9067 -0.9701 -6.6696 -21.0363 6.4218
# 3 0.4264 -0.9701 75.5966 22.5505 -60.3451 -3.6976
# 4 25.9115 -6.6696 22.5505 24.6775 25.6048 7.1009
# 5 -19.8159 -21.0363 -60.3451 25.6048 -13.6948 -3.6310
# 6 -1.0353 6.4218 -3.6976 7.1009 -3.6310 31.3161
#
#
#
# Elastic Compliance Matrix: (Units=1/GPa)
#
#
# Indices 1 2 3 4 5 6 
#
# 1 0.014536 -0.002894 -0.004299 -0.004956 -0.007141 0.000862
# 2 -0.002894 0.022548 -0.002054 0.011328 0.001726 -0.007331
# 3 -0.004299 -0.002054 0.006117 0.005654 -0.006727 -0.001061
# 4 -0.004956 0.011328 0.005654 0.027266 0.017422 -0.005982
# 5 -0.007141 0.001726 -0.006727 0.017422 -0.001657 -0.005527
# 6 0.000862 -0.007331 -0.001061 -0.005982 -0.005527 0.034055
#
#
# Mechanical properties :
#
#
# Convention : Reuss Voigt Hill
#
# Bulk Modulus (GPa) = 40.47195 20.73198 30.60197
# Shear Modulus (GPa) = 38.58153 21.63595 30.10874
#
# Velocity S-wave (km/s) = 3.94407 2.95354 3.48419
# Velocity P-wave (km/s) = 6.08760 4.47104 5.34084
#
# Compressibility (1/GPa) = 0.02470847
#
# Stress axis : x y z
#
# Youngs Moduli (GPa) = 68.79274 44.34929 163.47061
#
# Poissons Ratio (x) = 0.12834 0.70273
# Poissons Ratio (y) = 0.19907 0.33579
# Poissons Ratio (z) = 0.29573 0.09110
#
# Static dielectric constant tensor:
#      x y z
#    x 1.987850 0.032770 -0.023240 
#    y 0.032770 1.981300 0.010820 
#    z -0.023240 0.010820 1.971000 
# 
# From -- ./inp_files/532825.got.cif
#   From: 2010.05.17/outbox.cif.g08.bks.cpg/sg2_267_cif.got.tgz:532825.got - 2010.06.03 11:33:40.
