data_PCOD9061559
_publ_section_title
;
Structure prediction by ZEFSAII (Michael W. Deem and Ramdas Pophale) SiO2 
 PCOD9061559
Probable space group: P -1
;
_chemical_formula_sum "Si O2"
_cell_formula_units_Z 15
_cell_length_a 14.144269
_cell_length_b 5.546762
_cell_length_c 11.700295
_cell_angle_alpha 65.801711
_cell_angle_beta 53.140940
_cell_angle_gamma 86.016706
_cell_volume 650.059171
_symmetry_space_group_name_H-M "P -1"
_symmetry_group_IT_number 2
_symmetry_cell_setting 'triclinic'
loop_
_space_group_symop_operation_xyz
x,y,z
-x,-y,-z
loop_
_atom_site_type_symbol
_atom_site_label
_atom_site_fract_x
_atom_site_fract_y
_atom_site_fract_z
Si Si1 0.872132 0.197040 0.630794
Si Si2 0.779554 0.224012 0.267210
Si Si3 0.177828 0.688510 0.124306
Si Si4 0.500000 0.000000 0.500000
Si Si5 0.136596 0.117211 0.923079
Si Si6 0.400122 0.151995 0.083551
Si Si7 0.560405 0.315222 0.152064
Si Si8 0.026534 0.792277 0.681415
O O1 0.854424 0.401270 0.704302
O O2 0.904650 0.299375 0.460119
O O3 0.738706 0.997361 0.766854
O O4 0.973500 0.043034 0.629516
O O5 0.821611 0.555675 0.163773
O O6 0.875575 0.149004 0.300727
O O7 0.638536 0.141851 0.420392
O O8 0.786441 0.031694 0.189423
O O9 0.088142 0.458846 0.159386
O O10 0.319224 0.737084 0.985508
O O11 0.145290 0.973335 0.065399
O O12 0.466606 0.827702 0.679630
O O13 0.000000 0.000000 0.000000
O O14 0.449863 0.259070 0.152355
O O15 0.402763 0.359416 0.936536
O O16 0.500000 0.000000 0.000000
#
# Coordination Sequence:
#
# PCOD9061559 Si02
#       8
#     2   2   2   1   2   2   2   2
#     4  11  24  43  73 105 142 193 247 314 379 453
#     4  12  28  50  74 112 153 203 249 320 381 464
#     4  12  23  43  73 105 145 196 248 310 383 455
#     4  12  28  52  74 112 158 200 266 314 400 450
#     4  12  26  46  80 109 148 199 257 307 384 459
#     4  11  23  45  73 103 142 199 253 306 379 463
#     4  11  25  46  70 106 146 198 255 316 374 467
#     4  11  25  45  71 107 152 183 253 315 383 449
#
# _framework density 23.074824
#
# number of rings (size 3 to 8) (size 9 to 14) (size 15 to 20)
#    0.000    0.533    5.333    2.400    3.733    0.533 
#    4.800    0.000    0.000    0.000    0.000    0.000 
#    0.000    0.000    0.000    0.000    0.000    0.000 
#
# Total GULP energy -83506.764940 kJ/mol
# GULP energy per Si atom -5567.117663 kJ/mol
# Density = 2.302230 g / cm^3
# Si number density = 23.074824 Si / 1000 Ang^3
#
#
#
# Elastic Constant Matrix: (Units=GPa)
#
#
# Indices 1 2 3 4 5 6 
#
# 1 117.6289 18.7269 39.1785 -5.0976 -12.3085 12.9084
# 2 18.7269 67.0554 36.3424 -1.5774 -1.3810 -3.5322
# 3 39.1785 36.3424 134.5296 -3.0874 -3.7968 11.0161
# 4 -5.0976 -1.5774 -3.0874 22.9777 16.9778 4.0382
# 5 -12.3085 -1.3810 -3.7968 16.9778 48.8794 -3.5519
# 6 12.9084 -3.5322 11.0161 4.0382 -3.5519 34.5493
#
#
#
# Elastic Compliance Matrix: (Units=1/GPa)
#
#
# Indices 1 2 3 4 5 6 
#
# 1 0.010069 -0.001774 -0.002115 0.001149 0.001687 -0.003230
# 2 -0.001774 0.018187 -0.004744 -0.000686 0.000237 0.004140
# 3 -0.002115 -0.004744 0.009592 0.001512 -0.000664 -0.002999
# 4 0.001149 -0.000686 0.001512 0.061946 -0.021890 -0.010472
# 5 0.001687 0.000237 -0.000664 -0.021890 0.028814 0.005127
# 6 -0.003230 0.004140 -0.002999 -0.010472 0.005127 0.033281
#
#
# Mechanical properties :
#
#
# Convention : Reuss Voigt Hill
#
# Bulk Modulus (GPa) = 48.58733 56.41218 52.49975
# Shear Modulus (GPa) = 26.87940 36.27902 31.57921
#
# Velocity S-wave (km/s) = 3.41674 3.96944 3.70341
# Velocity P-wave (km/s) = 6.05538 6.74605 6.41002
#
# Compressibility (1/GPa) = 0.02058150
#
# Stress axis : x y z
#
# Youngs Moduli (GPa) = 99.31614 54.98528 104.25087
#
# Poissons Ratio (x) = 0.09756 0.22044
# Poissons Ratio (y) = 0.17622 0.49460
# Poissons Ratio (z) = 0.21001 0.26087
#
# Static dielectric constant tensor:
#      x y z
#    x 26.162120 -16.720870 -20.125780 
#    y -16.720870 13.535490 13.915310 
#    z -20.125780 13.915310 18.561630 
# 
# From -- ./inp_files/101215.got.cif
#   From: 2010.05.17/outbox.cif.g08.bks.cpg/sg2_51_cif.got.tgz:101215.got - 2010.06.03 11:33:40.
