data_PCOD9061910
_publ_section_title
;
Structure prediction by ZEFSAII (Michael W. Deem and Ramdas Pophale) SiO2 
 PCOD9061910
Probable space group: P -1
;
_chemical_formula_sum "Si O2"
_cell_formula_units_Z 16
_cell_length_a 9.229031
_cell_length_b 14.669250
_cell_length_c 12.446693
_cell_angle_alpha 115.695798
_cell_angle_beta 74.564253
_cell_angle_gamma 151.171323
_cell_volume 706.664683
_symmetry_space_group_name_H-M "P -1"
_symmetry_group_IT_number 2
_symmetry_cell_setting 'triclinic'
loop_
_space_group_symop_operation_xyz
x,y,z
-x,-y,-z
loop_
_atom_site_type_symbol
_atom_site_label
_atom_site_fract_x
_atom_site_fract_y
_atom_site_fract_z
Si Si1 0.907993 0.412186 0.590647
Si Si2 0.263260 0.047238 0.771176
Si Si3 0.056820 0.497031 0.146354
Si Si4 0.588361 0.800587 0.949566
Si Si5 0.700836 0.546787 0.058450
Si Si6 0.139236 0.319392 0.498138
Si Si7 0.099253 0.969872 0.222383
Si Si8 0.218439 0.031258 0.459364
O O1 0.017154 0.548147 0.735866
O O2 0.000000 0.500000 0.500000
O O3 0.054374 0.386964 0.562937
O O4 0.530604 0.197964 0.551186
O O5 0.634472 0.250809 0.791332
O O6 0.159347 0.092697 0.759494
O O7 0.229325 0.044939 0.905438
O O8 0.056380 0.841803 0.647216
O O9 0.759999 0.362000 0.073349
O O10 0.152459 0.449835 0.047520
O O11 0.516365 0.640889 0.910262
O O12 0.742456 0.919003 0.866860
O O13 0.955314 0.774130 0.166806
O O14 0.500000 0.500000 0.000000
O O15 0.500000 0.500000 0.500000
O O16 0.008982 0.190635 0.566316
O O17 0.313998 0.101730 0.351963
O O18 0.000000 0.000000 0.500000
#
# Coordination Sequence:
#
# PCOD9061910 Si02
#       8
#     2   2   2   2   2   2   2   2
#     4  12  27  47  71 111 153 195 250 315 371 450
#     4  11  23  46  73 106 149 188 246 315 370 443
#     4  11  24  47  72 105 152 192 240 305 378 445
#     4  11  26  45  74 109 152 187 247 309 374 449
#     4  11  24  44  73 107 142 199 241 297 378 437
#     4  12  28  48  78 109 145 205 257 309 386 444
#     4  12  25  45  75 109 148 195 248 308 370 448
#     4  12  25  48  73 105 151 197 250 306 375 451
#
# _framework density 22.641573000000001
#
# number of rings (size 3 to 8) (size 9 to 14) (size 15 to 20)
#    0.000    0.500    5.000    3.750    3.500    2.500 
#    0.000    0.000    0.000    0.000    0.000    0.000 
#    0.000    0.000    0.000    0.000    0.000    0.000 
#
# Total GULP energy -89350.088868 kJ/mol
# GULP energy per Si atom -5584.380554 kJ/mol
# Density = 2.259004 g / cm^3
# Si number density = 22.641573 Si / 1000 Ang^3
#
#
#
# Elastic Constant Matrix: (Units=GPa)
#
#
# Indices 1 2 3 4 5 6 
#
# 1 96.9792 23.4448 18.9310 -0.6239 19.2066 14.6148
# 2 23.4448 88.2989 25.7768 -15.0576 7.7336 10.1134
# 3 18.9310 25.7768 123.8731 -10.3691 24.7157 -2.7572
# 4 -0.6239 -15.0576 -10.3691 45.4751 -4.7445 18.5541
# 5 19.2066 7.7336 24.7157 -4.7445 37.0427 0.5813
# 6 14.6148 10.1134 -2.7572 18.5541 0.5813 44.6292
#
#
#
# Elastic Compliance Matrix: (Units=1/GPa)
#
#
# Indices 1 2 3 4 5 6 
#
# 1 0.012625 -0.002283 -0.000373 0.000227 -0.005734 -0.003660
# 2 -0.002283 0.014248 -0.002332 0.006381 0.000666 -0.005286
# 3 -0.000373 -0.002332 0.009841 0.000374 -0.005857 0.001179
# 4 0.000227 0.006381 0.000374 0.030184 0.002387 -0.014077
# 5 -0.005734 0.000666 -0.005857 0.002387 0.034045 -0.000071
# 6 -0.003660 -0.005286 0.001179 -0.014077 -0.000071 0.030729
#
#
# Mechanical properties :
#
#
# Convention : Reuss Voigt Hill
#
# Bulk Modulus (GPa) = 37.40070 49.49515 43.44792
# Shear Modulus (GPa) = 33.20938 41.49598 37.35268
#
# Velocity S-wave (km/s) = 3.83396 4.28569 4.06610
# Velocity P-wave (km/s) = 6.01278 6.81155 6.42459
#
# Compressibility (1/GPa) = 0.02673747
#
# Stress axis : x y z
#
# Youngs Moduli (GPa) = 79.20914 70.18754 101.61396
#
# Poissons Ratio (x) = 0.16025 0.03787
# Poissons Ratio (y) = 0.18085 0.23698
# Poissons Ratio (z) = 0.02952 0.16369
#
# Static dielectric constant tensor:
#      x y z
#    x 1.575990 0.167190 0.064570 
#    y 0.167190 1.842760 -0.055140 
#    z 0.064570 -0.055140 1.846430 
# 
# From -- ./inp_files/189063.got.cif
#   From: 2010.05.17/outbox.cif.g08.bks.cpg/sg2_95_cif.got.tgz:189063.got - 2010.06.03 11:33:40.
