data_PCOD9061449
_publ_section_title
;
Structure prediction by ZEFSAII (Michael W. Deem and Ramdas Pophale) SiO2 
 PCOD9061449
Probable space group: P -1
;
_chemical_formula_sum "Si O2"
_cell_formula_units_Z 14
_cell_length_a 18.732538
_cell_length_b 12.750170
_cell_length_c 8.617558
_cell_angle_alpha 66.870346
_cell_angle_beta 39.211854
_cell_angle_gamma 37.361040
_cell_volume 642.467159
_symmetry_space_group_name_H-M "P -1"
_symmetry_group_IT_number 2
_symmetry_cell_setting 'triclinic'
loop_
_space_group_symop_operation_xyz
x,y,z
-x,-y,-z
loop_
_atom_site_type_symbol
_atom_site_label
_atom_site_fract_x
_atom_site_fract_y
_atom_site_fract_z
Si Si1 0.003528 0.867473 0.649080
Si Si2 0.313226 0.100950 0.153076
Si Si3 0.885372 0.466906 0.513831
Si Si4 0.597145 0.814466 0.551438
Si Si5 0.571188 0.229004 0.342735
Si Si6 0.462633 0.777671 0.234545
Si Si7 0.590507 0.416527 0.721473
O O1 0.067009 0.703591 0.530504
O O2 0.177231 0.733596 0.566501
O O3 0.000000 0.000000 0.500000
O O4 0.788777 0.019875 0.009150
O O5 0.094341 0.335819 0.322906
O O6 0.272943 0.024378 0.367707
O O7 0.500000 0.000000 0.000000
O O8 0.426382 0.959175 0.891086
O O9 0.810288 0.615439 0.412794
O O10 0.690574 0.621771 0.872741
O O11 0.592655 0.706978 0.515145
O O12 0.500000 0.000000 0.500000
O O13 0.542715 0.224749 0.571407
O O14 0.539548 0.389586 0.280333
O O15 0.415968 0.702110 0.267169
O O16 0.500000 0.500000 0.000000
#
# Coordination Sequence:
#
# PCOD9061449 Si02
#       7
#     2   2   2   2   2   2   2
#     4  12  22  38  71  99 134 185 226 273 346 416
#     4  11  24  46  69  99 138 179 233 289 347 417
#     4  11  23  45  70  99 134 189 231 276 356 413
#     4  11  24  44  70 100 137 181 235 289 342 411
#     4  12  24  42  64 103 140 175 233 290 341 407
#     4  11  25  41  67 100 141 180 229 290 342 407
#     4  12  21  40  66  96 138 182 229 278 341 414
#
# _framework density 21.790997999999998
#
# number of rings (size 3 to 8) (size 9 to 14) (size 15 to 20)
#    0.000    0.571    5.714    3.000    0.000    4.571 
#    0.000    0.000    0.000    0.000    0.000    0.000 
#    0.000    0.000    0.000    0.000    0.000    0.000 
#
# Total GULP energy -77991.105873 kJ/mol
# GULP energy per Si atom -5570.793277 kJ/mol
# Density = 2.174140 g / cm^3
# Si number density = 21.790998 Si / 1000 Ang^3
#
#
#
# Elastic Constant Matrix: (Units=GPa)
#
#
# Indices 1 2 3 4 5 6 
#
# 1 142.1416 45.1037 41.4138 4.7143 -3.5343 -14.0211
# 2 45.1037 127.4153 31.2554 7.3308 0.5954 -18.6379
# 3 41.4138 31.2554 61.3587 7.8595 5.0202 -24.5117
# 4 4.7143 7.3308 7.8595 29.9489 -12.5758 3.6485
# 5 -3.5343 0.5954 5.0202 -12.5758 41.5522 -0.1970
# 6 -14.0211 -18.6379 -24.5117 3.6485 -0.1970 47.2448
#
#
#
# Elastic Compliance Matrix: (Units=1/GPa)
#
#
# Indices 1 2 3 4 5 6 
#
# 1 0.009367 -0.002108 -0.006193 0.001712 0.002087 -0.001388
# 2 -0.002108 0.009585 -0.002330 -0.001911 -0.000604 0.002092
# 3 -0.006193 -0.002330 0.028777 -0.010570 -0.007108 0.012960
# 4 0.001712 -0.001911 -0.010570 0.043594 0.014601 -0.009036
# 5 0.002087 -0.000604 -0.007108 0.014601 0.029510 -0.004311
# 6 -0.001388 0.002092 0.012960 -0.009036 -0.004311 0.028983
#
#
# Mechanical properties :
#
#
# Convention : Reuss Voigt Hill
#
# Bulk Modulus (GPa) = 37.78251 62.94016 50.36134
# Shear Modulus (GPa) = 27.79342 37.95869 32.87605
#
# Velocity S-wave (km/s) = 3.57522 4.17819 3.88841
# Velocity P-wave (km/s) = 5.86679 7.22652 6.58186
#
# Compressibility (1/GPa) = 0.02646727
#
# Stress axis : x y z
#
# Youngs Moduli (GPa) = 106.76272 104.33181 34.75020
#
# Poissons Ratio (x) = 0.21992 0.21520
# Poissons Ratio (y) = 0.22504 0.08096
# Poissons Ratio (z) = 0.66116 0.24307
#
# Static dielectric constant tensor:
#      x y z
#    x 1.760550 -0.019340 -0.080170 
#    y -0.019340 1.992490 0.013480 
#    z -0.080170 0.013480 1.805750 
# 
# From -- ./inp_files/333090.got.cif
#   From: 2010.05.17/outbox.cif.g08.bks.cpg/sg2_167_cif.got.tgz:333090.got - 2010.06.03 11:33:40.
