data_PCOD9061323
_publ_section_title
;
Structure prediction by ZEFSAII (Michael W. Deem and Ramdas Pophale) SiO2 
 PCOD9061323
Probable space group: P -1
;
_chemical_formula_sum "Si O2"
_cell_formula_units_Z 16
_cell_length_a 8.382211
_cell_length_b 12.012101
_cell_length_c 11.968461
_cell_angle_alpha 95.592870
_cell_angle_beta 64.654533
_cell_angle_gamma 50.777890
_cell_volume 717.658357
_symmetry_space_group_name_H-M "P -1"
_symmetry_group_IT_number 2
_symmetry_cell_setting 'triclinic'
loop_
_space_group_symop_operation_xyz
x,y,z
-x,-y,-z
loop_
_atom_site_type_symbol
_atom_site_label
_atom_site_fract_x
_atom_site_fract_y
_atom_site_fract_z
Si Si1 0.208565 0.030931 0.387286
Si Si2 0.595966 0.356157 0.539594
Si Si3 0.199554 0.426622 0.034264
Si Si4 0.082630 0.162771 0.687573
Si Si5 0.031866 0.866994 0.040772
Si Si6 0.412300 0.084960 0.916581
Si Si7 0.492727 0.488735 0.835407
Si Si8 0.670458 0.721459 0.334977
O O1 0.150298 0.076118 0.540275
O O2 0.911638 0.174630 0.436777
O O3 0.371004 0.036372 0.257945
O O4 0.443750 0.824466 0.313324
O O5 0.500000 0.500000 0.500000
O O6 0.495760 0.444681 0.701598
O O7 0.449433 0.309962 0.546224
O O8 0.976147 0.539614 0.207596
O O9 0.376953 0.233038 0.967383
O O10 0.354548 0.463616 0.955442
O O11 0.000000 0.500000 0.000000
O O12 0.051648 0.098333 0.799376
O O13 0.288094 0.166217 0.647636
O O14 0.795064 0.352514 0.769603
O O15 0.852480 0.853897 0.037286
O O16 0.332040 0.679798 0.917174
O O17 0.000000 0.000000 0.000000
O O18 0.500000 0.000000 0.000000
#
# Coordination Sequence:
#
# PCOD9061323 Si02
#       8
#     2   2   2   2   2   2   2   2
#     4  11  24  46  68 101 135 183 231 279 344 419
#     4  11  26  43  67  99 140 177 231 293 347 399
#     4  12  20  42  76  96 129 180 239 284 325 407
#     4  11  25  45  71  97 141 185 234 273 341 434
#     4  12  26  45  67 105 145 176 224 293 351 405
#     4  12  27  44  71 106 140 176 232 293 351 401
#     4  11  23  45  68 102 133 185 237 275 343 413
#     4  12  22  43  72  97 131 184 235 282 334 412
#
# _framework density 22.294732
#
# number of rings (size 3 to 8) (size 9 to 14) (size 15 to 20)
#    0.000    0.500    6.250    1.125    5.250    2.000 
#    0.000    1.250    0.000    0.000    0.000    0.000 
#    0.000    0.000    0.000    0.000    0.000    0.000 
#
# Total GULP energy -89184.228068 kJ/mol
# GULP energy per Si atom -5574.014254 kJ/mol
# Density = 2.224399 g / cm^3
# Si number density = 22.294732 Si / 1000 Ang^3
#
#
#
# Elastic Constant Matrix: (Units=GPa)
#
#
# Indices 1 2 3 4 5 6 
#
# 1 58.1083 47.0031 39.2648 -3.9129 -22.4957 -3.3775
# 2 47.0031 171.2990 73.9002 -15.8834 -13.1646 12.1371
# 3 39.2648 73.9002 126.5571 -3.1864 -7.2232 -4.6451
# 4 -3.9129 -15.8834 -3.1864 40.7816 -9.5849 -2.3199
# 5 -22.4957 -13.1646 -7.2232 -9.5849 42.5436 -1.0007
# 6 -3.3775 12.1371 -4.6451 -2.3199 -1.0007 35.5496
#
#
#
# Elastic Compliance Matrix: (Units=1/GPa)
#
#
# Indices 1 2 3 4 5 6 
#
# 1 0.031597 -0.004907 -0.005777 0.004539 0.015340 0.004651
# 2 -0.004907 0.009506 -0.004099 0.002719 0.000168 -0.004065
# 3 -0.005777 -0.004099 0.011977 -0.001704 -0.002621 0.002231
# 4 0.004539 0.002719 -0.001704 0.028153 0.009327 0.001380
# 5 0.015340 0.000168 -0.002621 0.009327 0.033386 0.002606
# 6 0.004651 -0.004065 0.002231 0.001380 0.002606 0.030414
#
#
# Mechanical properties :
#
#
# Convention : Reuss Voigt Hill
#
# Bulk Modulus (GPa) = 42.53090 75.14452 58.83771
# Shear Modulus (GPa) = 27.40646 36.82804 32.11725
#
# Velocity S-wave (km/s) = 3.50991 4.06873 3.79961
# Velocity P-wave (km/s) = 5.96188 7.47335 6.75999
#
# Compressibility (1/GPa) = 0.02351231
#
# Stress axis : x y z
#
# Youngs Moduli (GPa) = 31.64845 105.19799 83.49338
#
# Poissons Ratio (x) = 0.51626 0.48234
# Poissons Ratio (y) = 0.15531 0.34227
# Poissons Ratio (z) = 0.18283 0.43124
#
# Static dielectric constant tensor:
#      x y z
#    x 2.135920 -0.079390 -0.195000 
#    y -0.079390 1.822770 0.101170 
#    z -0.195000 0.101170 2.096090 
# 
# From -- ./inp_files/223196.got.cif
#   From: 2010.05.17/outbox.cif.g08.bks.cpg/sg2_112_cif.got.tgz:223196.got - 2010.06.03 11:33:40.
