data_PCOD9061578
_publ_section_title
;
Structure prediction by ZEFSAII (Michael W. Deem and Ramdas Pophale) SiO2 
 PCOD9061578
Probable space group: P -1
;
_chemical_formula_sum "Si O2"
_cell_formula_units_Z 12
_cell_length_a 9.463312
_cell_length_b 10.466041
_cell_length_c 7.095483
_cell_angle_alpha 135.826456
_cell_angle_beta 96.210096
_cell_angle_gamma 93.210473
_cell_volume 477.696046
_symmetry_space_group_name_H-M "P -1"
_symmetry_group_IT_number 2
_symmetry_cell_setting 'triclinic'
loop_
_space_group_symop_operation_xyz
x,y,z
-x,-y,-z
loop_
_atom_site_type_symbol
_atom_site_label
_atom_site_fract_x
_atom_site_fract_y
_atom_site_fract_z
Si Si1 0.035455 0.704043 0.123002
Si Si2 0.536190 0.391425 0.104427
Si Si3 0.665752 0.153530 0.569647
Si Si4 0.860657 0.015366 0.876866
Si Si5 0.431722 0.214300 0.298685
Si Si6 0.745364 0.779013 0.266871
O O1 0.879317 0.761235 0.135805
O O2 0.160845 0.801192 0.388860
O O3 0.109180 0.786030 0.020520
O O4 0.000000 0.500000 0.000000
O O5 0.382479 0.395454 0.980628
O O6 0.487823 0.273803 0.162895
O O7 0.605138 0.597500 0.409716
O O8 0.631510 0.285207 0.873664
O O9 0.561167 0.170883 0.400800
O O10 0.650619 0.940416 0.406138
O O11 0.707578 0.953604 0.897450
O O12 0.837101 0.850760 0.541606
O O13 0.000000 0.000000 0.000000
#
# Coordination Sequence:
#
# PCOD9061578 Si02
#       6
#     2   2   2   2   2   2
#     4  11  26  47  74 103 148 200 248 305 380 446
#     4  11  24  45  75 113 153 191 252 307 375 447
#     4  11  23  45  73 110 148 197 249 307 376 443
#     4  11  24  45  73 109 152 192 248 308 371 445
#     4  11  25  43  76 114 150 195 250 312 370 447
#     4  11  24  48  73 104 151 195 243 309 377 441
#
# _framework density 25.120574000000001
#
# number of rings (size 3 to 8) (size 9 to 14) (size 15 to 20)
#    0.000    1.000    1.667    5.000    4.667    2.000 
#   12.000    0.833    0.000    0.000    0.000    0.000 
#    0.000    0.000    0.000    0.000    0.000    0.000 
#
# Total GULP energy -66932.467944 kJ/mol
# GULP energy per Si atom -5577.705662 kJ/mol
# Density = 2.506340 g / cm^3
# Si number density = 25.120574 Si / 1000 Ang^3
#
#
#
# Elastic Constant Matrix: (Units=GPa)
#
#
# Indices 1 2 3 4 5 6 
#
# 1 139.5774 65.2362 45.7807 12.0747 8.6243 -25.3637
# 2 65.2362 180.4897 59.5734 7.2966 13.4764 -8.4211
# 3 45.7807 59.5734 113.6066 5.7505 7.1320 -4.0238
# 4 12.0747 7.2966 5.7505 48.7691 -2.1284 18.0473
# 5 8.6243 13.4764 7.1320 -2.1284 49.7775 -7.6432
# 6 -25.3637 -8.4211 -4.0238 18.0473 -7.6432 41.6620
#
#
#
# Elastic Compliance Matrix: (Units=1/GPa)
#
#
# Indices 1 2 3 4 5 6 
#
# 1 0.011167 -0.002600 -0.002596 -0.005124 0.000193 0.008277
# 2 -0.002600 0.007475 -0.002815 0.000018 -0.001259 -0.000583
# 3 -0.002596 -0.002815 0.011310 0.000162 -0.000591 -0.001236
# 4 -0.005124 0.000018 0.000162 0.027278 -0.000272 -0.014967
# 5 0.000193 -0.001259 -0.000591 -0.000272 0.021051 0.003786
# 6 0.008277 -0.000583 -0.001236 -0.014967 0.003786 0.035983
#
#
# Mechanical properties :
#
#
# Convention : Reuss Voigt Hill
#
# Bulk Modulus (GPa) = 71.78812 86.09493 78.94153
# Shear Modulus (GPa) = 37.05652 45.58061 41.31857
#
# Velocity S-wave (km/s) = 3.84493 4.26428 4.06003
# Velocity P-wave (km/s) = 6.95347 7.65458 7.31243
#
# Compressibility (1/GPa) = 0.01392988
#
# Stress axis : x y z
#
# Youngs Moduli (GPa) = 89.55147 133.77119 88.42100
#
# Poissons Ratio (x) = 0.34785 0.22953
# Poissons Ratio (y) = 0.23287 0.24887
# Poissons Ratio (z) = 0.23247 0.37652
#
# Static dielectric constant tensor:
#      x y z
#    x 2.047510 0.127810 0.016530 
#    y 0.127810 2.167740 0.066560 
#    z 0.016530 0.066560 2.052740 
# 
# From -- ./inp_files/152576.got.cif
#   From: 2010.05.17/outbox.cif.g08.bks.cpg/sg2_77_cif.got.tgz:152576.got - 2010.06.03 11:33:40.
