data_PCOD9061750
_publ_section_title
;
Structure prediction by ZEFSAII (Michael W. Deem and Ramdas Pophale) SiO2 
 PCOD9061750
Probable space group: P -1
;
_chemical_formula_sum "Si O2"
_cell_formula_units_Z 14
_cell_length_a 14.810518
_cell_length_b 6.716752
_cell_length_c 9.442365
_cell_angle_alpha 89.272398
_cell_angle_beta 122.366002
_cell_angle_gamma 55.128050
_cell_volume 577.964000
_symmetry_space_group_name_H-M "P -1"
_symmetry_group_IT_number 2
_symmetry_cell_setting 'triclinic'
loop_
_space_group_symop_operation_xyz
x,y,z
-x,-y,-z
loop_
_atom_site_type_symbol
_atom_site_label
_atom_site_fract_x
_atom_site_fract_y
_atom_site_fract_z
Si Si1 0.320839 0.279887 0.236975
Si Si2 0.219413 0.230295 0.711353
Si Si3 0.151936 0.828129 0.931875
Si Si4 0.428905 0.721548 0.059254
Si Si5 0.125428 0.180547 0.136312
Si Si6 0.621216 0.741767 0.400684
Si Si7 0.045217 0.183169 0.384344
O O1 0.211699 0.542947 0.045198
O O2 0.271709 0.113130 0.215629
O O3 0.313727 0.378893 0.388318
O O4 0.485521 0.066719 0.316185
O O5 0.357460 0.011492 0.928860
O O6 0.267561 0.304853 0.618474
O O7 0.088564 0.498111 0.687331
O O8 0.163767 0.089760 0.602972
O O9 0.294023 0.765493 0.001915
O O10 0.094881 0.035099 0.010289
O O11 0.032443 0.929472 0.710052
O O12 0.549378 0.637779 0.273482
O O13 0.500000 0.500000 0.000000
O O14 0.120006 0.135281 0.296804
O O15 0.000000 0.500000 0.000000
#
# Coordination Sequence:
#
# PCOD9061750 Si02
#       7
#     2   2   2   2   2   2   2
#     4  11  24  43  73  99 134 176 224 284 339 395
#     4  11  24  45  70  95 140 180 227 276 331 406
#     4  12  25  44  70 105 133 174 227 280 344 401
#     4  12  25  42  65 100 138 180 223 275 333 405
#     4  12  23  45  68 100 139 174 226 281 340 399
#     4  11  23  46  68  98 135 181 224 278 335 395
#     4  11  24  42  69 102 130 180 224 276 341 394
#
# _framework density 24.222961000000002
#
# number of rings (size 3 to 8) (size 9 to 14) (size 15 to 20)
#    0.000    0.571    4.286    4.286    0.000    2.286 
#    0.000    0.000    0.000    0.000    0.000    0.000 
#    0.000    0.000    0.000    0.000    0.000    0.000 
#
# Total GULP energy -78389.983062 kJ/mol
# GULP energy per Si atom -5599.284504 kJ/mol
# Density = 2.416783 g / cm^3
# Si number density = 24.222961 Si / 1000 Ang^3
#
#
#
# Elastic Constant Matrix: (Units=GPa)
#
#
# Indices 1 2 3 4 5 6 
#
# 1 120.3833 26.4483 21.5898 23.0601 7.5976 -3.3594
# 2 26.4483 77.4711 15.9970 27.1388 -1.6965 -19.3198
# 3 21.5898 15.9970 116.8671 49.6962 8.7896 8.1206
# 4 23.0601 27.1388 49.6962 54.2553 1.8734 6.1661
# 5 7.5976 -1.6965 8.7896 1.8734 27.6054 8.0469
# 6 -3.3594 -19.3198 8.1206 6.1661 8.0469 28.8775
#
#
#
# Elastic Compliance Matrix: (Units=1/GPa)
#
#
# Indices 1 2 3 4 5 6 
#
# 1 0.009549 -0.001887 -0.000055 -0.003116 -0.002905 0.001339
# 2 -0.001887 0.022746 0.002521 -0.014860 -0.003230 0.018362
# 3 -0.000055 0.002521 0.014666 -0.014740 -0.004032 0.001827
# 4 -0.003116 -0.014860 -0.014740 0.042400 0.006742 -0.017092
# 5 -0.002905 -0.003230 -0.004032 0.006742 0.041871 -0.014472
# 6 0.001339 0.018362 0.001827 -0.017092 -0.014472 0.054238
#
#
# Mechanical properties :
#
#
# Convention : Reuss Voigt Hill
#
# Bulk Modulus (GPa) = 20.78169 49.19909 34.99039
# Shear Modulus (GPa) = 24.95631 38.86006 31.90818
#
# Velocity S-wave (km/s) = 3.21327 4.00967 3.63336
# Velocity P-wave (km/s) = 4.72914 6.46465 5.66376
#
# Compressibility (1/GPa) = 0.04811929
#
# Stress axis : x y z
#
# Youngs Moduli (GPa) = 104.72486 43.96447 68.18510
#
# Poissons Ratio (x) = 0.08294 0.00377
# Poissons Ratio (y) = 0.19757 -0.17191
# Poissons Ratio (z) = 0.00578 -0.11085
#
# Static dielectric constant tensor:
#      x y z
#    x 1.964960 0.010130 0.029070 
#    y 0.010130 1.910470 0.035230 
#    z 0.029070 0.035230 1.900670 
# 
# From -- ./inp_files/441266.got.cif
#   From: 2010.05.17/outbox.cif.g08.bks.cpg/sg2_221_cif.got.tgz:441266.got - 2010.06.03 11:33:40.
