data_PCOD9061362
_publ_section_title
;
Structure prediction by ZEFSAII (Michael W. Deem and Ramdas Pophale) SiO2 
 PCOD9061362
Probable space group: P -1
;
_chemical_formula_sum "Si O2"
_cell_formula_units_Z 14
_cell_length_a 8.879374
_cell_length_b 22.125144
_cell_length_c 8.756322
_cell_angle_alpha 37.605014
_cell_angle_beta 47.729517
_cell_angle_gamma 31.846739
_cell_volume 553.882322
_symmetry_space_group_name_H-M "P -1"
_symmetry_group_IT_number 2
_symmetry_cell_setting 'triclinic'
loop_
_space_group_symop_operation_xyz
x,y,z
-x,-y,-z
loop_
_atom_site_type_symbol
_atom_site_label
_atom_site_fract_x
_atom_site_fract_y
_atom_site_fract_z
Si Si1 0.052321 0.254169 0.977978
Si Si2 0.908990 0.409833 0.068700
Si Si3 0.302323 0.958553 0.988793
Si Si4 0.784217 0.136087 0.475400
Si Si5 0.398742 0.495537 0.411654
Si Si6 0.319426 0.785599 0.098632
Si Si7 0.702716 0.687859 0.747797
O O1 0.387288 0.109478 0.034097
O O2 0.908790 0.358099 0.722400
O O3 0.019752 0.340816 0.968361
O O4 0.868968 0.220491 0.219843
O O5 0.602514 0.469430 0.193503
O O6 0.107949 0.309810 0.275608
O O7 0.886030 0.535419 0.858438
O O8 0.212989 0.900072 0.281255
O O9 0.336527 0.892195 0.935829
O O10 0.019001 0.123268 0.854271
O O11 0.476673 0.210911 0.470893
O O12 0.000000 0.000000 0.500000
O O13 0.500000 0.500000 0.500000
O O14 0.484812 0.351180 0.655212
O O15 0.459918 0.730462 0.946232
#
# Coordination Sequence:
#
# PCOD9061362 Si02
#       7
#     2   2   2   2   2   2   2
#     4  12  27  48  75 111 144 193 248 298 364 439
#     4  11  24  44  72 103 143 188 238 299 362 427
#     4  11  27  46  76 102 150 192 240 297 364 440
#     4  12  26  47  72 104 146 189 241 303 365 432
#     4  12  25  43  72 107 145 186 246 306 355 428
#     4  11  23  49  68 108 145 188 240 301 361 430
#     4  11  23  45  69 101 147 184 237 299 363 423
#
# _framework density 25.276126000000001
#
# number of rings (size 3 to 8) (size 9 to 14) (size 15 to 20)
#    0.000    0.571    5.714    1.286    4.000    2.286 
#    0.000    2.857    0.000    0.000    0.000    0.000 
#    0.000    0.000    0.000    0.000    0.000    0.000 
#
# Total GULP energy -78311.131529 kJ/mol
# GULP energy per Si atom -5593.652252 kJ/mol
# Density = 2.521860 g / cm^3
# Si number density = 25.276126 Si / 1000 Ang^3
#
#
#
# Elastic Constant Matrix: (Units=GPa)
#
#
# Indices 1 2 3 4 5 6 
#
# 1 97.8994 45.0662 26.9126 -14.4832 22.8308 -4.1850
# 2 45.0662 149.4398 20.4909 -6.1649 4.6321 -19.5616
# 3 26.9126 20.4909 82.3566 -10.6369 10.3818 -6.6757
# 4 -14.4832 -6.1649 -10.6369 33.3045 -7.5117 7.3625
# 5 22.8308 4.6321 10.3818 -7.5117 26.3674 -9.4391
# 6 -4.1850 -19.5616 -6.6757 7.3625 -9.4391 60.4134
#
#
#
# Elastic Compliance Matrix: (Units=1/GPa)
#
#
# Indices 1 2 3 4 5 6 
#
# 1 0.016154 -0.004399 -0.002437 0.003287 -0.012359 -0.002906
# 2 -0.004399 0.008398 -0.000933 -0.000491 0.003612 0.002936
# 3 -0.002437 -0.000933 0.013825 0.002580 -0.002297 0.000384
# 4 0.003287 -0.000491 0.002580 0.033943 0.004809 -0.003031
# 5 -0.012359 0.003612 -0.002297 0.004809 0.053045 0.007761
# 6 -0.002906 0.002936 0.000384 -0.003031 0.007761 0.018926
#
#
# Mechanical properties :
#
#
# Convention : Reuss Voigt Hill
#
# Bulk Modulus (GPa) = 43.78577 57.18169 50.48373
# Shear Modulus (GPa) = 29.86105 39.83214 34.84659
#
# Velocity S-wave (km/s) = 3.44087 3.97404 3.71703
# Velocity P-wave (km/s) = 5.75732 6.61281 6.19984
#
# Compressibility (1/GPa) = 0.02283847
#
# Stress axis : x y z
#
# Youngs Moduli (GPa) = 61.90509 119.07274 72.33424
#
# Poissons Ratio (x) = 0.52380 0.17630
# Poissons Ratio (y) = 0.27232 0.06747
# Poissons Ratio (z) = 0.15088 0.11107
#
# Static dielectric constant tensor:
#      x y z
#    x 2.063000 -0.082230 -0.016950 
#    y -0.082230 2.043980 -0.034690 
#    z -0.016950 -0.034690 2.015180 
# 
# From -- ./inp_files/225931.got.cif
#   From: 2010.05.17/outbox.cif.g08.bks.cpg/sg2_113_cif.got.tgz:225931.got - 2010.06.03 11:33:40.
