data_PCOD9061254
_publ_section_title
;
Structure prediction by ZEFSAII (Michael W. Deem and Ramdas Pophale) SiO2 
 PCOD9061254
Probable space group: P -1
;
_chemical_formula_sum "Si O2"
_cell_formula_units_Z 12
_cell_length_a 13.016528
_cell_length_b 8.750187
_cell_length_c 14.230646
_cell_angle_alpha 130.715365
_cell_angle_beta 33.999137
_cell_angle_gamma 144.879116
_cell_volume 519.737355
_symmetry_space_group_name_H-M "P -1"
_symmetry_group_IT_number 2
_symmetry_cell_setting 'triclinic'
loop_
_space_group_symop_operation_xyz
x,y,z
-x,-y,-z
loop_
_atom_site_type_symbol
_atom_site_label
_atom_site_fract_x
_atom_site_fract_y
_atom_site_fract_z
Si Si1 0.174776 0.514621 0.800143
Si Si2 0.660718 0.123987 0.656286
Si Si3 0.136738 0.252317 0.062117
Si Si4 0.051318 0.448957 0.654779
Si Si5 0.962640 0.012819 0.287703
Si Si6 0.641824 0.528882 0.719499
O O1 0.058458 0.400814 0.739529
O O2 0.411250 0.824809 0.739252
O O3 0.202742 0.302058 0.725078
O O4 0.000000 0.500000 0.000000
O O5 0.822570 0.234932 0.673463
O O6 0.802050 0.095958 0.459111
O O7 0.641822 0.338123 0.716538
O O8 0.969653 0.325887 0.231399
O O9 0.146226 0.161005 0.120819
O O10 0.392936 0.466098 0.902895
O O11 0.000000 0.000000 0.000000
O O12 0.286550 0.523770 0.454444
O O13 0.143729 0.159474 0.297335
#
# Coordination Sequence:
#
# PCOD9061254 Si02
#       6
#     2   2   2   2   2   2
#     4  12  28  45  65 104 145 178 226 288 343 406
#     4  11  23  46  74  98 138 186 223 289 341 397
#     4  12  24  40  73 105 131 180 233 278 340 406
#     4  11  25  47  70 101 138 181 233 276 343 410
#     4  11  23  46  67 100 140 178 229 281 341 405
#     4  11  23  44  76  99 135 181 229 290 332 398
#
# _framework density 23.088581999999999
#
# number of rings (size 3 to 8) (size 9 to 14) (size 15 to 20)
#    0.000    0.667    3.333    5.000    4.667    4.667 
#    6.000    0.000    0.000    0.000    0.000    0.000 
#    0.000    0.000    0.000    0.000    0.000    0.000 
#
# Total GULP energy -66997.121200 kJ/mol
# GULP energy per Si atom -5583.093433 kJ/mol
# Density = 2.303603 g / cm^3
# Si number density = 23.088582 Si / 1000 Ang^3
#
#
#
# Elastic Constant Matrix: (Units=GPa)
#
#
# Indices 1 2 3 4 5 6 
#
# 1 26.4663 -11.9262 29.1198 7.5951 28.3246 -0.2490
# 2 -11.9262 114.0675 23.5307 11.2274 14.7895 6.5557
# 3 29.1198 23.5307 138.9927 -6.9532 49.3967 9.9885
# 4 7.5951 11.2274 -6.9532 38.1016 8.1926 1.5363
# 5 28.3246 14.7895 49.3967 8.1926 18.5451 3.0340
# 6 -0.2490 6.5557 9.9885 1.5363 3.0340 17.7561
#
#
#
# Elastic Compliance Matrix: (Units=1/GPa)
#
#
# Indices 1 2 3 4 5 6 
#
# 1 0.007781 -0.000292 -0.022814 -0.017917 0.056214 0.004996
# 2 -0.000292 0.009115 -0.005867 -0.006169 0.011783 -0.001549
# 3 -0.022814 -0.005867 0.012480 0.007997 0.003815 -0.006518
# 4 -0.017917 -0.006169 0.007997 0.033985 -0.003233 -0.004860
# 5 0.056214 0.011783 0.003815 -0.003233 -0.050591 0.003216
# 6 0.004996 -0.001549 -0.006518 -0.004860 0.003216 0.060498
#
#
# Mechanical properties :
#
#
# Convention : Reuss Voigt Hill
#
# Bulk Modulus (GPa) = -35.00113 40.10833 2.55360
# Shear Modulus (GPa) = 41.08766 30.80071 35.94418
#
# Velocity S-wave (km/s) = 4.22307 3.65639 3.94990
# Velocity P-wave (km/s) = 2.93030 5.93589 4.68089
#
# Compressibility (1/GPa) = -0.02857050
#
# Stress axis : x y z
#
# Youngs Moduli (GPa) = 128.52186 109.71052 80.12671
#
# Poissons Ratio (x) = 0.03208 1.82801
# Poissons Ratio (y) = 0.03758 0.47009
# Poissons Ratio (z) = 2.93209 0.64366
#
# Static dielectric constant tensor:
#      x y z
#    x 2.001760 -0.002030 0.001860 
#    y -0.002030 2.083310 -0.362770 
#    z 0.001860 -0.362770 2.532860 
# 
# From -- ./inp_files/146392.got.cif
#   From: 2010.05.17/outbox.cif.g08.bks.cpg/sg2_74_cif.got.tgz:146392.got - 2010.06.03 11:33:40.
