data_PCOD9061484
_publ_section_title
;
Structure prediction by ZEFSAII (Michael W. Deem and Ramdas Pophale) SiO2 
 PCOD9061484
Probable space group: P -1
;
_chemical_formula_sum "Si O2"
_cell_formula_units_Z 15
_cell_length_a 5.419691
_cell_length_b 7.888256
_cell_length_c 21.614871
_cell_angle_alpha 130.227740
_cell_angle_beta 99.584107
_cell_angle_gamma 58.213631
_cell_volume 577.823536
_symmetry_space_group_name_H-M "P -1"
_symmetry_group_IT_number 2
_symmetry_cell_setting 'triclinic'
loop_
_space_group_symop_operation_xyz
x,y,z
-x,-y,-z
loop_
_atom_site_type_symbol
_atom_site_label
_atom_site_fract_x
_atom_site_fract_y
_atom_site_fract_z
Si Si1 0.000000 0.000000 0.000000
Si Si2 0.883399 0.926401 0.559377
Si Si3 0.792198 0.392071 0.189541
Si Si4 0.760229 0.526799 0.045043
Si Si5 0.807030 0.415587 0.747812
Si Si6 0.067556 0.755513 0.695238
Si Si7 0.471637 0.937431 0.765695
Si Si8 0.506731 0.276008 0.509517
O O1 0.968641 0.104753 0.096242
O O2 0.936969 0.283635 0.042500
O O3 0.863806 0.162862 0.652908
O O4 0.725896 0.045760 0.514671
O O5 0.686590 0.822440 0.554246
O O6 0.239192 0.708783 0.512837
O O7 0.439561 0.513812 0.193018
O O8 0.836180 0.360077 0.258175
O O9 0.904367 0.581634 0.220927
O O10 0.603900 0.811867 0.138202
O O11 0.500000 0.500000 0.000000
O O12 0.000000 0.500000 0.000000
O O13 0.639841 0.674071 0.755165
O O14 0.168144 0.960065 0.739018
O O15 0.267544 0.526409 0.600233
O O16 0.715121 0.876697 0.709348
#
# Coordination Sequence:
#
# PCOD9061484 Si02
#       8
#     1   2   2   2   2   2   2   2
#     4  12  28  48  74 104 138 182 244 294 346 432
#     4  10  18  25  44  78 122 162 209 267 325 390
#     4  10  21  34  54  80 116 163 209 268 332 384
#     4  12  26  47  72 102 137 179 233 298 362 417
#     4  10  18  34  52  81 124 167 211 272 333 391
#     4  10  18  34  52  82 125 167 212 270 332 391
#     4  10  19  32  53  78 114 162 206 254 329 396
#     4  10  18  25  44  78 122 164 206 269 323 390
#
# _framework density 25.959482000000001
#
# number of rings (size 3 to 8) (size 9 to 14) (size 15 to 20)
#    0.000    1.600    2.667    5.600    7.467    2.133 
#    0.000    0.000    0.000    0.000    0.000    0.000 
#    0.000   36.267    0.000    0.000    0.000    0.000 
#
# Total GULP energy -83742.047997 kJ/mol
# GULP energy per Si atom -5582.803200 kJ/mol
# Density = 2.590040 g / cm^3
# Si number density = 25.959482 Si / 1000 Ang^3
#
#
#
# Elastic Constant Matrix: (Units=GPa)
#
#
# Indices 1 2 3 4 5 6 
#
# 1 271.2286 26.7569 81.5376 18.6839 15.1682 8.4321
# 2 26.7569 75.3349 31.1180 -3.7465 -3.7402 -0.5071
# 3 81.5376 31.1180 186.1049 27.1753 15.2167 8.1076
# 4 18.6839 -3.7465 27.1753 26.7733 11.0055 0.4238
# 5 15.1682 -3.7402 15.2167 11.0055 34.1197 11.7560
# 6 8.4321 -0.5071 8.1076 0.4238 11.7560 28.0096
#
#
#
# Elastic Compliance Matrix: (Units=1/GPa)
#
#
# Indices 1 2 3 4 5 6 
#
# 1 0.004386 -0.001072 -0.001448 -0.001418 -0.000765 -0.000578
# 2 -0.001072 0.015242 -0.003010 0.005299 0.001522 0.000751
# 3 -0.001448 -0.003010 0.007627 -0.007016 -0.000272 -0.001606
# 4 -0.001418 0.005299 -0.007016 0.052401 -0.015395 0.008222
# 5 -0.000765 0.001522 -0.000272 -0.015395 0.040574 -0.016460
# 6 -0.000578 0.000751 -0.001606 0.008222 -0.016460 0.043139
#
#
# Mechanical properties :
#
#
# Convention : Reuss Voigt Hill
#
# Bulk Modulus (GPa) = 61.74086 90.16593 75.95340
# Shear Modulus (GPa) = 27.80437 43.99758 35.90098
#
# Velocity S-wave (km/s) = 3.27627 4.12133 3.72285
# Velocity P-wave (km/s) = 6.17633 7.57997 6.91386
#
# Compressibility (1/GPa) = 0.01619673
#
# Stress axis : x y z
#
# Youngs Moduli (GPa) = 227.97890 65.60720 131.10537
#
# Poissons Ratio (x) = 0.07035 0.18980
# Poissons Ratio (y) = 0.24447 0.39458
# Poissons Ratio (z) = 0.33004 0.19745
#
# Static dielectric constant tensor:
#      x y z
#    x 1.883820 0.181800 0.136530 
#    y 0.181800 1.949480 -0.181710 
#    z 0.136530 -0.181710 1.842470 
# 
# From -- ./inp_files/603699.got.cif
#   From: 2010.05.17/outbox.cif.g08.bks.cpg/sg2_302_cif.got.tgz:603699.got - 2010.06.03 11:33:40.
