data_PCOD9061519
_publ_section_title
;
Structure prediction by ZEFSAII (Michael W. Deem and Ramdas Pophale) SiO2 
 PCOD9061519
Probable space group: P -1
;
_chemical_formula_sum "Si O2"
_cell_formula_units_Z 16
_cell_length_a 5.746225
_cell_length_b 17.261402
_cell_length_c 13.837481
_cell_angle_alpha 31.544520
_cell_angle_beta 101.260565
_cell_angle_gamma 90.048144
_cell_volume 666.545067
_symmetry_space_group_name_H-M "P -1"
_symmetry_group_IT_number 2
_symmetry_cell_setting 'triclinic'
loop_
_space_group_symop_operation_xyz
x,y,z
-x,-y,-z
loop_
_atom_site_type_symbol
_atom_site_label
_atom_site_fract_x
_atom_site_fract_y
_atom_site_fract_z
Si Si1 0.372165 0.682290 0.965748
Si Si2 0.040665 0.317968 0.195380
Si Si3 0.217717 0.402815 0.689779
Si Si4 0.690099 0.370671 0.397698
Si Si5 0.258042 0.205428 0.539280
Si Si6 0.983286 0.192951 0.019651
Si Si7 0.606167 0.081675 0.007983
Si Si8 0.356653 0.104984 0.290401
O O1 0.459409 0.832098 0.821868
O O2 0.221059 0.705396 0.828519
O O3 0.576750 0.511593 0.162063
O O4 0.218076 0.700295 0.034247
O O5 0.176068 0.226647 0.397499
O O6 0.192691 0.254478 0.178280
O O7 0.000000 0.500000 0.000000
O O8 0.315204 0.533079 0.607160
O O9 0.000000 0.500000 0.500000
O O10 0.111211 0.311398 0.858857
O O11 0.422232 0.259182 0.808136
O O12 0.482203 0.282631 0.482782
O O13 0.984734 0.281915 0.490030
O O14 0.377235 0.034239 0.776937
O O15 0.874734 0.111785 0.011551
O O16 0.171903 0.063955 0.243331
O O17 0.500000 0.000000 0.000000
O O18 0.500000 0.000000 0.500000
#
# Coordination Sequence:
#
# PCOD9061519 Si02
#       8
#     2   2   2   2   2   2   2   2
#     4  11  23  45  72 107 153 201 265 316 377 468
#     4  11  25  41  67 108 151 201 252 311 379 453
#     4  12  28  50  85 108 145 209 265 327 391 483
#     4  12  25  50  78 110 155 211 263 314 395 467
#     4  12  30  47  77 116 164 205 257 334 394 460
#     4  11  25  48  76 109 155 198 262 318 396 465
#     4  12  30  51  75 113 155 199 258 336 405 467
#     4  11  26  42  72 107 151 205 256 315 384 472
#
# _framework density 24.004379
#
# number of rings (size 3 to 8) (size 9 to 14) (size 15 to 20)
#    0.000    0.500    3.750    2.250   10.500    3.000 
#    0.000    0.000    0.000    0.000    0.000    0.000 
#    0.000    0.000    0.000    0.000    0.000    0.000 
#
# Total GULP energy -89289.467677 kJ/mol
# GULP energy per Si atom -5580.591730 kJ/mol
# Density = 2.394974 g / cm^3
# Si number density = 24.004379 Si / 1000 Ang^3
#
#
#
# Elastic Constant Matrix: (Units=GPa)
#
#
# Indices 1 2 3 4 5 6 
#
# 1 76.1148 29.3851 17.6144 -4.3823 15.0604 27.1571
# 2 29.3851 141.2833 28.7095 6.9902 32.4511 35.1842
# 3 17.6144 28.7095 97.8183 27.1211 8.7381 26.6368
# 4 -4.3823 6.9902 27.1211 37.5939 12.0112 11.7175
# 5 15.0604 32.4511 8.7381 12.0112 24.4308 5.6114
# 6 27.1571 35.1842 26.6368 11.7175 5.6114 43.1354
#
#
#
# Elastic Compliance Matrix: (Units=1/GPa)
#
#
# Indices 1 2 3 4 5 6 
#
# 1 0.025419 0.005685 -0.003770 0.019464 -0.026823 -0.020110
# 2 0.005685 0.015349 -0.002771 0.012536 -0.025748 -0.014444
# 3 -0.003770 -0.002771 0.015140 -0.012448 0.007233 -0.002275
# 4 0.019464 0.012536 -0.012448 0.058227 -0.047204 -0.024468
# 5 -0.026823 -0.025748 0.007233 -0.047204 0.104798 0.032612
# 6 -0.020110 -0.014444 -0.002275 -0.024468 0.032612 0.051434
#
#
# Mechanical properties :
#
#
# Convention : Reuss Voigt Hill
#
# Bulk Modulus (GPa) = 18.45159 51.84827 35.14993
# Shear Modulus (GPa) = 17.23284 36.99917 27.11601
#
# Velocity S-wave (km/s) = 2.68228 3.93026 3.36464
# Velocity P-wave (km/s) = 4.15888 6.49941 5.45613
#
# Compressibility (1/GPa) = 0.05419587
#
# Stress axis : x y z
#
# Youngs Moduli (GPa) = 39.34125 65.14920 66.05011
#
# Poissons Ratio (x) = -0.37039 0.24901
# Poissons Ratio (y) = -0.22367 0.18305
# Poissons Ratio (z) = 0.14832 0.18055
#
# Static dielectric constant tensor:
#      x y z
#    x 2.093310 0.045510 0.087400 
#    y 0.045510 2.009480 -0.010040 
#    z 0.087400 -0.010040 1.912600 
# 
# From -- ./inp_files/485173.got.cif
#   From: 2010.05.17/outbox.cif.g08.bks.cpg/sg2_243_cif.got.tgz:485173.got - 2010.06.03 11:33:40.
