data_PCOD9061915
_publ_section_title
;
Structure prediction by ZEFSAII (Michael W. Deem and Ramdas Pophale) SiO2 
 PCOD9061915
Probable space group: P -1
;
_chemical_formula_sum "Si O2"
_cell_formula_units_Z 13
_cell_length_a 11.944155
_cell_length_b 7.977541
_cell_length_c 9.124173
_cell_angle_alpha 102.517523
_cell_angle_beta 47.247574
_cell_angle_gamma 127.659099
_cell_volume 475.169209
_symmetry_space_group_name_H-M "P -1"
_symmetry_group_IT_number 2
_symmetry_cell_setting 'triclinic'
loop_
_space_group_symop_operation_xyz
x,y,z
-x,-y,-z
loop_
_atom_site_type_symbol
_atom_site_label
_atom_site_fract_x
_atom_site_fract_y
_atom_site_fract_z
Si Si1 0.498920 0.379897 0.836300
Si Si2 0.000000 0.000000 0.000000
Si Si3 0.725912 0.214118 0.725812
Si Si4 0.986841 0.332814 0.254233
Si Si5 0.748134 0.653671 0.396819
Si Si6 0.335034 0.767809 0.687676
Si Si7 0.790772 0.084789 0.916519
O O1 0.615204 0.283904 0.745187
O O2 0.607051 0.562822 0.647254
O O3 0.276514 0.134480 0.972738
O O4 0.500000 0.500000 0.000000
O O5 0.051355 0.227006 0.071683
O O6 0.187443 0.158592 0.742427
O O7 0.843346 0.190970 0.493880
O O8 0.852956 0.429838 0.762504
O O9 0.673944 0.027341 0.856174
O O10 0.860074 0.352985 0.259479
O O11 0.638319 0.414993 0.366463
O O12 0.972847 0.769799 0.282079
O O13 0.283723 0.815472 0.895900
O O14 0.500000 0.000000 0.500000
#
# Coordination Sequence:
#
# PCOD9061915 Si02
#       7
#     2   1   2   2   2   2   2
#     4  12  29  47  72 115 153 195 253 317 379 451
#     4  12  28  42  78 108 156 198 250 316 378 444
#     4  11  23  47  76 105 150 196 255 303 375 461
#     4  11  23  46  73 112 142 203 252 306 378 445
#     4  12  25  49  71 111 150 200 251 309 382 450
#     4  12  22  47  78 108 149 196 256 315 375 453
#     4  12  24  46  80 107 148 200 253 312 378 452
#
# _framework density 27.358675999999999
#
# number of rings (size 3 to 8) (size 9 to 14) (size 15 to 20)
#    0.000    0.308    6.154    2.769    4.308    0.615 
#    0.000    1.538    0.000    0.000    0.000    0.000 
#    0.000    0.000    0.000    0.000    0.000    0.000 
#
# Total GULP energy -72432.296409 kJ/mol
# GULP energy per Si atom -5571.715108 kJ/mol
# Density = 2.729641 g / cm^3
# Si number density = 27.358676 Si / 1000 Ang^3
#
#
#
# Elastic Constant Matrix: (Units=GPa)
#
#
# Indices 1 2 3 4 5 6 
#
# 1 90.5119 -18.4902 8.4151 -16.0243 6.7742 -5.1819
# 2 -18.4902 119.8450 68.5364 15.0103 1.7489 4.6773
# 3 8.4151 68.5364 219.7585 -4.9259 35.7855 -11.3224
# 4 -16.0243 15.0103 -4.9259 60.8134 -3.3873 14.8479
# 5 6.7742 1.7489 35.7855 -3.3873 45.8985 -6.9197
# 6 -5.1819 4.6773 -11.3224 14.8479 -6.9197 20.3568
#
#
#
# Elastic Compliance Matrix: (Units=1/GPa)
#
#
# Indices 1 2 3 4 5 6 
#
# 1 0.012078 0.002073 -0.000896 0.002570 -0.000990 -0.000111
# 2 0.002073 0.011298 -0.004083 -0.001907 0.001962 -0.002281
# 3 -0.000896 -0.004083 0.006742 0.000429 -0.004545 0.002602
# 4 0.002570 -0.001907 0.000429 0.021092 -0.001269 -0.014484
# 5 -0.000990 0.001962 -0.004545 -0.001269 0.026309 0.006638
# 6 -0.000111 -0.002281 0.002602 -0.014484 0.006638 0.063887
#
#
# Mechanical properties :
#
#
# Convention : Reuss Voigt Hill
#
# Bulk Modulus (GPa) = 41.14267 60.78198 50.96233
# Shear Modulus (GPa) = 32.19172 50.19069 41.19121
#
# Velocity S-wave (km/s) = 3.43396 4.28780 3.88442
# Velocity P-wave (km/s) = 5.54921 6.83949 6.22785
#
# Compressibility (1/GPa) = 0.02430566
#
# Stress axis : x y z
#
# Youngs Moduli (GPa) = 82.79697 88.51244 148.33025
#
# Poissons Ratio (x) = -0.18344 0.13286
# Poissons Ratio (y) = -0.17160 0.60557
# Poissons Ratio (z) = 0.07416 0.36136
#
# Static dielectric constant tensor:
#      x y z
#    x 2.329960 0.011440 -0.021400 
#    y 0.011440 2.144430 -0.095930 
#    z -0.021400 -0.095930 2.392650 
# 
# From -- ./inp_files/292711.got.cif
#   From: 2010.05.17/outbox.cif.g08.bks.cpg/sg2_147_cif.got.tgz:292711.got - 2010.06.03 11:33:40.
