data_PCOD9061315
_publ_section_title
;
Structure prediction by ZEFSAII (Michael W. Deem and Ramdas Pophale) SiO2 
 PCOD9061315
Probable space group: P -1
;
_chemical_formula_sum "Si O2"
_cell_formula_units_Z 14
_cell_length_a 5.556297
_cell_length_b 6.976617
_cell_length_c 20.046137
_cell_angle_alpha 77.278432
_cell_angle_beta 128.383012
_cell_angle_gamma 91.717149
_cell_volume 588.354956
_symmetry_space_group_name_H-M "P -1"
_symmetry_group_IT_number 2
_symmetry_cell_setting 'triclinic'
loop_
_space_group_symop_operation_xyz
x,y,z
-x,-y,-z
loop_
_atom_site_type_symbol
_atom_site_label
_atom_site_fract_x
_atom_site_fract_y
_atom_site_fract_z
Si Si1 0.294490 0.880195 0.270747
Si Si2 0.641267 0.006746 0.145146
Si Si3 0.935209 0.228451 0.453862
Si Si4 0.302744 0.801701 0.717790
Si Si5 0.387280 0.639566 0.181168
Si Si6 0.479374 0.439803 0.577525
Si Si7 0.222790 0.388809 0.988598
O O1 0.466107 0.721713 0.260442
O O2 0.253583 0.730504 0.336322
O O3 0.480965 0.065560 0.297354
O O4 0.977322 0.970568 0.172311
O O5 0.743833 0.077639 0.230862
O O6 0.392452 0.178299 0.060164
O O7 0.501058 0.801207 0.139276
O O8 0.962598 0.235054 0.377558
O O9 0.613628 0.363355 0.409305
O O10 0.186745 0.319389 0.534337
O O11 0.000000 0.000000 0.500000
O O12 0.455632 0.584209 0.782521
O O13 0.023299 0.635397 0.109490
O O14 0.500000 0.500000 0.500000
O O15 0.500000 0.500000 0.000000
O O16 0.000000 0.500000 0.000000
#
# Coordination Sequence:
#
# PCOD9061315 Si02
#       7
#     2   2   2   2   2   2   2
#     4  11  25  43  66 103 137 183 235 295 358 434
#     4  11  27  43  74 104 139 182 239 293 361 435
#     4  11  24  44  66  92 139 182 227 294 354 422
#     4  11  23  45  67  99 138 183 232 289 361 428
#     4  11  25  46  73  99 142 185 232 295 364 427
#     4  11  26  41  64 100 136 179 238 291 357 425
#     4  12  27  50  78 110 150 193 246 298 369 440
#
# _framework density 23.795158000000001
#
# number of rings (size 3 to 8) (size 9 to 14) (size 15 to 20)
#    0.000    0.857    4.286    1.286    8.000    3.429 
#    0.000    0.000    0.000    0.000    0.000    0.000 
#    0.000    0.000    0.000    0.000    0.000    0.000 
#
# Total GULP energy -78141.995374 kJ/mol
# GULP energy per Si atom -5581.571098 kJ/mol
# Density = 2.374100 g / cm^3
# Si number density = 23.795158 Si / 1000 Ang^3
#
#
#
# Elastic Constant Matrix: (Units=GPa)
#
#
# Indices 1 2 3 4 5 6 
#
# 1 47.1178 40.7932 -6.4684 -11.8219 5.7158 5.3645
# 2 40.7932 173.2262 35.5734 -23.7967 4.8174 -10.9160
# 3 -6.4684 35.5734 81.0583 -23.1521 8.7590 -3.8985
# 4 -11.8219 -23.7967 -23.1521 62.7557 -3.2518 -0.7905
# 5 5.7158 4.8174 8.7590 -3.2518 31.8104 -0.5633
# 6 5.3645 -10.9160 -3.8985 -0.7905 -0.5633 28.8835
#
#
#
# Elastic Compliance Matrix: (Units=1/GPa)
#
#
# Indices 1 2 3 4 5 6 
#
# 1 0.033617 -0.009285 0.008644 0.005551 -0.006599 -0.008563
# 2 -0.009285 0.009186 -0.004689 0.000149 0.001665 0.004600
# 3 0.008644 -0.004689 0.017279 0.005953 -0.005010 -0.000980
# 4 0.005551 0.000149 0.005953 0.019202 -0.000690 0.000341
# 5 -0.006599 0.001665 -0.005010 -0.000690 0.033711 0.001817
# 6 -0.008563 0.004600 -0.000980 0.000341 0.001817 0.037863
#
#
# Mechanical properties :
#
#
# Convention : Reuss Voigt Hill
#
# Bulk Modulus (GPa) = 20.23345 49.02208 34.62776
# Shear Modulus (GPa) = 28.09123 40.12352 34.10738
#
# Velocity S-wave (km/s) = 3.43963 4.11080 3.79010
# Velocity P-wave (km/s) = 4.92914 6.57100 5.80837
#
# Compressibility (1/GPa) = 0.04942312
#
# Stress axis : x y z
#
# Youngs Moduli (GPa) = 29.74671 108.85852 57.87430
#
# Poissons Ratio (x) = 1.01078 -0.50028
# Poissons Ratio (y) = 0.27620 0.27135
# Poissons Ratio (z) = -0.25714 0.51040
#
# Static dielectric constant tensor:
#      x y z
#    x 2.005040 -0.007610 -0.012400 
#    y -0.007610 1.903580 0.014830 
#    z -0.012400 0.014830 1.952580 
# 
# From -- ./inp_files/6530.got.cif
#   From: 2010.05.17/outbox.cif.g08.bks.cpg/sg2_4_cif.got.tgz:6530.got - 2010.06.03 11:33:40.
