data_PCOD9061310
_publ_section_title
;
Structure prediction by ZEFSAII (Michael W. Deem and Ramdas Pophale) SiO2 
 PCOD9061310
Probable space group: P -1
;
_chemical_formula_sum "Si O2"
_cell_formula_units_Z 16
_cell_length_a 6.924567
_cell_length_b 19.806939
_cell_length_c 10.723295
_cell_angle_alpha 31.935520
_cell_angle_beta 95.535131
_cell_angle_gamma 91.260243
_cell_volume 769.324396
_symmetry_space_group_name_H-M "P -1"
_symmetry_group_IT_number 2
_symmetry_cell_setting 'triclinic'
loop_
_space_group_symop_operation_xyz
x,y,z
-x,-y,-z
loop_
_atom_site_type_symbol
_atom_site_label
_atom_site_fract_x
_atom_site_fract_y
_atom_site_fract_z
Si Si1 0.394468 0.747175 0.789566
Si Si2 0.587973 0.580988 0.268760
Si Si3 0.559188 0.847951 0.223307
Si Si4 0.894975 0.373552 0.190916
Si Si5 0.244742 0.179983 0.455731
Si Si6 0.156317 0.234931 0.859602
Si Si7 0.054930 0.984437 0.384841
Si Si8 0.778283 0.335459 0.525012
O O1 0.310066 0.636176 0.875357
O O2 0.594121 0.791690 0.678534
O O3 0.235647 0.871483 0.568832
O O4 0.434396 0.685235 0.025243
O O5 0.500000 0.500000 0.500000
O O6 0.747305 0.660766 0.216426
O O7 0.676724 0.476292 0.336818
O O8 0.665574 0.803951 0.427960
O O9 0.701637 0.815680 0.166073
O O10 0.376075 0.768332 0.317724
O O11 0.500000 0.000000 0.000000
O O12 0.863225 0.333610 0.393609
O O13 0.054533 0.280316 0.272544
O O14 0.000000 0.500000 0.000000
O O15 0.144105 0.049088 0.642699
O O16 0.953787 0.296827 0.691346
O O17 0.121288 0.112562 0.131353
O O18 0.000000 0.000000 0.500000
#
# Coordination Sequence:
#
# PCOD9061310 Si02
#       8
#     2   2   2   2   2   2   2   2
#     4  11  26  47  72 103 147 182 243 297 354 428
#     4  12  28  47  72 102 144 197 239 290 357 428
#     4  12  25  42  74 107 144 187 235 295 360 424
#     4  11  25  41  72 103 138 186 230 293 354 419
#     4  11  23  45  67 106 139 179 238 288 362 419
#     4  12  27  48  73 106 149 189 240 298 356 430
#     4  11  27  46  74 105 140 193 240 298 357 419
#     4  12  26  47  73 107 146 190 237 296 363 426
#
# _framework density 20.797469
#
# number of rings (size 3 to 8) (size 9 to 14) (size 15 to 20)
#    0.000    0.500    3.750    3.375    7.000    6.000 
#    0.000    0.000    0.000    0.000    0.000    0.000 
#    0.000    0.000    0.000    0.000    0.000    0.000 
#
# Total GULP energy -89440.217815 kJ/mol
# GULP energy per Si atom -5590.013613 kJ/mol
# Density = 2.075013 g / cm^3
# Si number density = 20.797469 Si / 1000 Ang^3
#
#
#
# Elastic Constant Matrix: (Units=GPa)
#
#
# Indices 1 2 3 4 5 6 
#
# 1 114.8064 35.6966 56.8373 -2.7889 -21.9740 22.8598
# 2 35.6966 72.0874 21.3342 -3.9850 -15.8672 26.6588
# 3 56.8373 21.3342 107.0162 6.6548 -30.8501 22.8183
# 4 -2.7889 -3.9850 6.6548 45.7198 4.1184 -3.0301
# 5 -21.9740 -15.8672 -30.8501 4.1184 41.2765 -0.3361
# 6 22.8598 26.6588 22.8183 -3.0301 -0.3361 53.7646
#
#
#
# Elastic Compliance Matrix: (Units=1/GPa)
#
#
# Indices 1 2 3 4 5 6 
#
# 1 0.013314 -0.004203 -0.005782 0.001125 0.001030 -0.001053
# 2 -0.004203 0.020249 0.002204 -0.000060 0.007125 -0.009147
# 3 -0.005782 0.002204 0.016444 -0.003873 0.010399 -0.005767
# 4 0.001125 -0.000060 -0.003873 0.023077 -0.004602 0.002467
# 5 0.001030 0.007125 0.010399 -0.004602 0.035677 -0.008420
# 6 -0.001053 -0.009147 -0.005767 0.002467 -0.008420 0.026117
#
#
# Mechanical properties :
#
#
# Convention : Reuss Voigt Hill
#
# Bulk Modulus (GPa) = 29.03245 57.96068 43.49656
# Shear Modulus (GPa) = 30.87918 40.15497 35.51708
#
# Velocity S-wave (km/s) = 3.85743 4.39881 4.13699
# Velocity P-wave (km/s) = 5.81633 7.33001 6.61659
#
# Compressibility (1/GPa) = 0.03444422
#
# Stress axis : x y z
#
# Youngs Moduli (GPa) = 75.11079 49.38515 60.81282
#
# Poissons Ratio (x) = 0.20759 0.35159
# Poissons Ratio (y) = 0.31572 -0.13402
# Poissons Ratio (z) = 0.43426 -0.10884
#
# Static dielectric constant tensor:
#      x y z
#    x 1.751540 0.042280 -0.002930 
#    y 0.042280 1.765770 -0.042140 
#    z -0.002930 -0.042140 1.734660 
# 
# From -- ./inp_files/70758.got.cif
#   From: 2010.05.17/outbox.cif.g08.bks.cpg/sg2_36_cif.got.tgz:70758.got - 2010.06.03 11:33:40.
