data_PCOD9061595
_publ_section_title
;
Structure prediction by ZEFSAII (Michael W. Deem and Ramdas Pophale) SiO2 
 PCOD9061595
Probable space group: P -1
;
_chemical_formula_sum "Si O2"
_cell_formula_units_Z 16
_cell_length_a 19.859170
_cell_length_b 13.762168
_cell_length_c 9.064431
_cell_angle_alpha 110.256736
_cell_angle_beta 116.184878
_cell_angle_gamma 19.241371
_cell_volume 711.567939
_symmetry_space_group_name_H-M "P -1"
_symmetry_group_IT_number 2
_symmetry_cell_setting 'triclinic'
loop_
_space_group_symop_operation_xyz
x,y,z
-x,-y,-z
loop_
_atom_site_type_symbol
_atom_site_label
_atom_site_fract_x
_atom_site_fract_y
_atom_site_fract_z
Si Si1 0.732353 0.723358 0.149627
Si Si2 0.282744 0.758034 0.832226
Si Si3 0.000976 0.425537 0.693469
Si Si4 0.984448 0.985735 0.808538
Si Si5 0.588486 0.484493 0.489755
Si Si6 0.844724 0.440760 0.381374
Si Si7 0.092514 0.215745 0.983182
Si Si8 0.420122 0.886488 0.345838
O O1 0.736781 0.655240 0.269093
O O2 0.803171 0.751141 0.255916
O O3 0.917754 0.444563 0.066700
O O4 0.500000 0.000000 0.000000
O O5 0.312998 0.696071 0.657383
O O6 0.182898 0.784424 0.815037
O O7 0.124940 0.058834 0.870876
O O8 0.500000 0.500000 0.000000
O O9 0.000200 0.315356 0.557973
O O10 0.020294 0.379544 0.862285
O O11 0.768525 0.784625 0.625170
O O12 0.019345 0.820153 0.717501
O O13 0.764898 0.304133 0.678112
O O14 0.000000 0.000000 0.000000
O O15 0.500000 0.500000 0.500000
O O16 0.444441 0.765283 0.429495
O O17 0.654253 0.635562 0.400633
O O18 0.318659 0.963862 0.141881
#
# Coordination Sequence:
#
# PCOD9061595 Si02
#       8
#     2   2   2   2   2   2   2   2
#     4  11  24  44  72 108 146 188 245 295 363 435
#     4  12  23  46  75 108 146 192 242 305 373 439
#     4  11  25  44  74 105 144 193 241 297 368 429
#     4  12  27  46  71 105 141 195 251 303 369 437
#     4  12  27  46  73 106 148 189 249 306 374 439
#     4  12  24  46  69 102 146 183 245 305 361 435
#     4  11  23  45  74 103 146 190 241 295 366 444
#     4  11  24  46  73 104 145 191 237 298 370 444
#
# _framework density 22.485555000000002
#
# number of rings (size 3 to 8) (size 9 to 14) (size 15 to 20)
#    0.000    0.500    2.500    6.375    5.250    0.000 
#    4.500    0.000    0.000    0.000    0.000    0.000 
#    0.000    0.000    0.000    0.000    0.000    0.000 
#
# Total GULP energy -89502.478245 kJ/mol
# GULP energy per Si atom -5593.904890 kJ/mol
# Density = 2.243438 g / cm^3
# Si number density = 22.485555 Si / 1000 Ang^3
#
#
#
# Elastic Constant Matrix: (Units=GPa)
#
#
# Indices 1 2 3 4 5 6 
#
# 1 147.8991 42.2324 61.8510 1.6516 -3.4134 -2.6121
# 2 42.2324 60.4201 47.3025 2.5470 13.6087 6.5676
# 3 61.8510 47.3025 163.0529 8.2147 -8.9898 13.3713
# 4 1.6516 2.5470 8.2147 47.0869 6.2676 1.8745
# 5 -3.4134 13.6087 -8.9898 6.2676 44.3880 7.9279
# 6 -2.6121 6.5676 13.3713 1.8745 7.9279 38.9661
#
#
#
# Elastic Compliance Matrix: (Units=1/GPa)
#
#
# Indices 1 2 3 4 5 6 
#
# 1 0.009222 -0.005478 -0.001974 0.000023 0.001650 0.001882
# 2 -0.005478 0.027896 -0.006585 0.001240 -0.010346 -0.000764
# 3 -0.001974 -0.006585 0.009382 -0.001695 0.004558 -0.003088
# 4 0.000023 0.001240 -0.001695 0.021973 -0.003842 0.000099
# 5 0.001650 -0.010346 0.004558 -0.003842 0.028234 -0.005269
# 6 0.001882 -0.000764 -0.003088 0.000099 -0.005269 0.028045
#
#
# Mechanical properties :
#
#
# Convention : Reuss Voigt Hill
#
# Bulk Modulus (GPa) = 54.26837 74.90488 64.58662
# Shear Modulus (GPa) = 31.45292 40.75394 36.10343
#
# Velocity S-wave (km/s) = 3.74412 4.26191 4.01138
# Velocity P-wave (km/s) = 6.54816 7.58968 7.08808
#
# Compressibility (1/GPa) = 0.01842694
#
# Stress axis : x y z
#
# Youngs Moduli (GPa) = 108.43663 35.84696 106.58840
#
# Poissons Ratio (x) = 0.19637 0.21035
# Poissons Ratio (y) = 0.59402 0.70190
# Poissons Ratio (z) = 0.21400 0.23606
#
# Static dielectric constant tensor:
#      x y z
#    x 1.821430 0.022060 0.016970 
#    y 0.022060 1.902470 0.016800 
#    z 0.016970 0.016800 1.823840 
# 
# From -- ./inp_files/347623.got.cif
#   From: 2010.05.17/outbox.cif.g08.bks.cpg/sg2_174_cif.got.tgz:347623.got - 2010.06.03 11:33:40.
