data_PCOD9061077
_publ_section_title
;
Structure prediction by ZEFSAII (Michael W. Deem and Ramdas Pophale) SiO2 
 PCOD9061077
Probable space group: P -1
;
_chemical_formula_sum "Si O2"
_cell_formula_units_Z 16
_cell_length_a 16.812938
_cell_length_b 8.529801
_cell_length_c 5.641142
_cell_angle_alpha 106.943739
_cell_angle_beta 109.448765
_cell_angle_gamma 104.368510
_cell_volume 674.175499
_symmetry_space_group_name_H-M "P -1"
_symmetry_group_IT_number 2
_symmetry_cell_setting 'triclinic'
loop_
_space_group_symop_operation_xyz
x,y,z
-x,-y,-z
loop_
_atom_site_type_symbol
_atom_site_label
_atom_site_fract_x
_atom_site_fract_y
_atom_site_fract_z
Si Si1 0.881794 0.456772 0.027092
Si Si2 0.405572 0.854790 0.756010
Si Si3 0.164189 0.128474 0.564607
Si Si4 0.766071 0.173763 0.114339
Si Si5 0.409648 0.468907 0.544128
Si Si6 0.201983 0.322915 0.185078
Si Si7 0.330844 0.086314 0.496006
Si Si8 0.942368 0.237805 0.636198
O O1 0.797522 0.347195 0.056495
O O2 0.962477 0.620838 0.299264
O O3 0.840461 0.528401 0.801493
O O4 0.923153 0.324815 0.895609
O O5 0.318045 0.829437 0.816669
O O6 0.418404 0.668134 0.703469
O O7 0.381824 0.952877 0.546093
O O8 0.500000 0.000000 0.000000
O O9 0.176616 0.237693 0.381763
O O10 0.254311 0.077201 0.610820
O O11 0.070430 0.957925 0.385450
O O12 0.166105 0.214437 0.859621
O O13 0.860524 0.203513 0.354644
O O14 0.728476 0.998257 0.835178
O O15 0.500000 0.500000 0.500000
O O16 0.310671 0.399608 0.292467
O O17 0.394542 0.295833 0.622259
#
# Coordination Sequence:
#
# PCOD9061077 Si02
#       8
#     2   2   2   2   2   2   2   2
#     4  11  26  42  71 107 145 191 253 312 373 460
#     4  12  28  46  76 111 143 196 251 310 384 456
#     4  11  24  46  75 100 149 197 249 306 382 448
#     4  12  22  46  74 101 150 196 248 313 381 449
#     4  11  26  47  73 109 145 196 255 313 379 460
#     4  11  27  47  72 109 146 202 247 315 383 447
#     4  11  25  46  73 103 146 197 241 316 374 449
#     4  11  23  44  72 105 141 198 248 303 384 451
#
# _framework density 23.732692
#
# number of rings (size 3 to 8) (size 9 to 14) (size 15 to 20)
#    0.000    0.750    2.500    4.125    7.000    4.500 
#    0.000    0.000    0.000    0.000    0.000    0.000 
#    0.000    0.000    0.000    0.000    0.000    0.000 
#
# Total GULP energy -89314.350507 kJ/mol
# GULP energy per Si atom -5582.146907 kJ/mol
# Density = 2.367868 g / cm^3
# Si number density = 23.732692 Si / 1000 Ang^3
#
#
#
# Elastic Constant Matrix: (Units=GPa)
#
#
# Indices 1 2 3 4 5 6 
#
# 1 92.7201 44.1376 25.0489 14.1927 9.0832 5.8054
# 2 44.1376 165.6142 55.8661 22.9025 15.4051 22.8023
# 3 25.0489 55.8661 106.2890 15.6627 12.8800 15.3178
# 4 14.1927 22.9025 15.6627 40.8882 -1.9172 8.4030
# 5 9.0832 15.4051 12.8800 -1.9172 30.3851 0.7230
# 6 5.8054 22.8023 15.3178 8.4030 0.7230 16.0019
#
#
#
# Elastic Compliance Matrix: (Units=1/GPa)
#
#
# Indices 1 2 3 4 5 6 
#
# 1 0.012951 -0.002690 -0.001206 -0.003040 -0.002236 0.001986
# 2 -0.002690 0.009277 -0.002367 -0.001639 -0.002785 -0.008991
# 3 -0.001206 -0.002367 0.012702 -0.001813 -0.003766 -0.007226
# 4 -0.003040 -0.001639 -0.001813 0.029505 0.004620 -0.010530
# 5 -0.002236 -0.002785 -0.003766 0.004620 0.036777 0.004297
# 6 0.001986 -0.008991 -0.007226 -0.010530 0.004297 0.086837
#
#
# Mechanical properties :
#
#
# Convention : Reuss Voigt Hill
#
# Bulk Modulus (GPa) = 44.63497 68.30315 56.46906
# Shear Modulus (GPa) = 24.03351 33.42642 28.72996
#
# Velocity S-wave (km/s) = 3.18571 3.75701 3.48309
# Velocity P-wave (km/s) = 5.69033 6.90383 6.32624
#
# Compressibility (1/GPa) = 0.02240396
#
# Stress axis : x y z
#
# Youngs Moduli (GPa) = 77.21174 107.78981 78.73057
#
# Poissons Ratio (x) = 0.28996 0.09492
# Poissons Ratio (y) = 0.20770 0.18639
# Poissons Ratio (z) = 0.09309 0.25519
#
# Static dielectric constant tensor:
#      x y z
#    x 3.084570 -1.295950 0.135940 
#    y -1.295950 3.316120 -0.180070 
#    z 0.135940 -0.180070 1.936240 
# 
# From -- ./inp_files/107402.got.cif
#   From: 2010.05.17/outbox.cif.g08.bks.cpg/sg2_54_cif.got.tgz:107402.got - 2010.06.03 11:33:40.
