data_PCOD9061230
_publ_section_title
;
Structure prediction by ZEFSAII (Michael W. Deem and Ramdas Pophale) SiO2 
 PCOD9061230
Probable space group: P -1
;
_chemical_formula_sum "Si O2"
_cell_formula_units_Z 13
_cell_length_a 12.627269
_cell_length_b 15.418280
_cell_length_c 6.255566
_cell_angle_alpha 121.333339
_cell_angle_beta 114.333444
_cell_angle_gamma 26.525098
_cell_volume 460.031600
_symmetry_space_group_name_H-M "P -1"
_symmetry_group_IT_number 2
_symmetry_cell_setting 'triclinic'
loop_
_space_group_symop_operation_xyz
x,y,z
-x,-y,-z
loop_
_atom_site_type_symbol
_atom_site_label
_atom_site_fract_x
_atom_site_fract_y
_atom_site_fract_z
Si Si1 0.282119 0.052974 0.807689
Si Si2 0.443921 0.939953 0.254429
Si Si3 0.525311 0.590336 0.791006
Si Si4 0.500000 0.500000 0.000000
Si Si5 0.027079 0.673373 0.445566
Si Si6 0.660173 0.630556 0.315782
Si Si7 0.036420 0.050702 0.786070
O O1 0.130835 0.246053 0.783601
O O2 0.087761 0.120665 0.813636
O O3 0.470936 0.838056 0.564471
O O4 0.408298 0.993460 0.049143
O O5 0.185063 0.097091 0.328585
O O6 0.500000 0.000000 0.500000
O O7 0.650794 0.702888 0.182774
O O8 0.539656 0.463444 0.713034
O O9 0.579187 0.582301 0.091033
O O10 0.737885 0.463393 0.649519
O O11 0.280410 0.830911 0.828745
O O12 0.207227 0.752843 0.035440
O O13 0.115809 0.545938 0.566458
O O14 0.000000 0.000000 0.500000
#
# Coordination Sequence:
#
# PCOD9061230 Si02
#       7
#     2   2   2   1   2   2   2
#     4  11  23  47  71 100 148 188 239 307 368 431
#     4  11  26  47  75 109 142 190 248 305 374 450
#     4  12  25  47  69 107 147 198 247 302 370 439
#     4  12  28  42  72 104 150 192 250 306 356 440
#     4  11  24  42  78 101 144 192 239 301 380 427
#     4  11  23  44  76 101 145 192 237 304 372 439
#     4  12  26  45  69 106 145 194 250 299 362 443
#
# _framework density 28.258928000000001
#
# number of rings (size 3 to 8) (size 9 to 14) (size 15 to 20)
#    0.000    0.615    4.615    2.308    0.000    4.923 
#    0.000    3.846    0.000    0.000    0.000    0.000 
#    0.000    0.000    0.000    0.000    0.000    0.000 
#
# Total GULP energy -72519.670582 kJ/mol
# GULP energy per Si atom -5578.436199 kJ/mol
# Density = 2.819461 g / cm^3
# Si number density = 28.258928 Si / 1000 Ang^3
#
#
#
# Elastic Constant Matrix: (Units=GPa)
#
#
# Indices 1 2 3 4 5 6 
#
# 1 96.0803 47.0682 30.1608 -9.3566 -20.1872 1.0688
# 2 47.0682 259.9519 92.0209 -37.0997 -17.7396 19.8965
# 3 30.1608 92.0209 147.0636 -30.3952 9.4814 -3.6946
# 4 -9.3566 -37.0997 -30.3952 85.9931 2.4262 -21.6848
# 5 -20.1872 -17.7396 9.4814 2.4262 59.6625 -10.1882
# 6 1.0688 19.8965 -3.6946 -21.6848 -10.1882 40.0780
#
#
#
# Elastic Compliance Matrix: (Units=1/GPa)
#
#
# Indices 1 2 3 4 5 6 
#
# 1 0.012621 -0.001374 -0.001901 0.000358 0.004403 0.001484
# 2 -0.001374 0.005594 -0.003270 0.000448 0.001277 -0.002475
# 3 -0.001901 -0.003270 0.010101 0.002908 -0.002745 0.003481
# 4 0.000358 0.000448 0.002908 0.014961 0.000598 0.008283
# 5 0.004403 0.001277 -0.002745 0.000598 0.019785 0.004349
# 6 0.001484 -0.002475 0.003481 0.008283 0.004349 0.032049
#
#
# Mechanical properties :
#
#
# Convention : Reuss Voigt Hill
#
# Bulk Modulus (GPa) = 65.68018 93.51062 79.59540
# Shear Modulus (GPa) = 44.13944 59.40309 51.77126
#
# Velocity S-wave (km/s) = 3.95646 4.58984 4.28487
# Velocity P-wave (km/s) = 6.64561 7.82632 7.26001
#
# Compressibility (1/GPa) = 0.01522529
#
# Stress axis : x y z
#
# Youngs Moduli (GPa) = 79.23022 178.76769 98.99602
#
# Poissons Ratio (x) = 0.24568 0.18820
# Poissons Ratio (y) = 0.10888 0.32375
# Poissons Ratio (z) = 0.15062 0.58463
#
# Static dielectric constant tensor:
#      x y z
#    x 3.778490 0.291930 -0.058780 
#    y 0.291930 2.243710 -0.126630 
#    z -0.058780 -0.126630 2.563560 
# 
# From -- ./inp_files/99908.got.cif
#   From: 2010.05.17/outbox.cif.g08.bks.cpg/sg2_50_cif.got.tgz:99908.got - 2010.06.03 11:33:40.
