data_PCOD9061770
_publ_section_title
;
Structure prediction by ZEFSAII (Michael W. Deem and Ramdas Pophale) SiO2 
 PCOD9061770
Probable space group: P -1
;
_chemical_formula_sum "Si O2"
_cell_formula_units_Z 16
_cell_length_a 14.373246
_cell_length_b 14.960216
_cell_length_c 14.644657
_cell_angle_alpha 151.415566
_cell_angle_beta 132.421675
_cell_angle_gamma 29.791581
_cell_volume 696.043736
_symmetry_space_group_name_H-M "P -1"
_symmetry_group_IT_number 2
_symmetry_cell_setting 'triclinic'
loop_
_space_group_symop_operation_xyz
x,y,z
-x,-y,-z
loop_
_atom_site_type_symbol
_atom_site_label
_atom_site_fract_x
_atom_site_fract_y
_atom_site_fract_z
Si Si1 0.336887 0.061253 0.819361
Si Si2 0.491195 0.417142 0.021067
Si Si3 0.444261 0.082116 0.430850
Si Si4 0.815246 0.162965 0.458541
Si Si5 0.829803 0.266638 0.196848
Si Si6 0.263295 0.356798 0.220830
Si Si7 0.965852 0.127035 0.847501
Si Si8 0.857164 0.660482 0.242451
O O1 0.190697 0.318811 0.878173
O O2 0.306171 0.875425 0.621897
O O3 0.568646 0.859417 0.784178
O O4 0.282011 0.187686 0.999098
O O5 0.637171 0.361171 0.133158
O O6 0.261633 0.683275 0.141921
O O7 0.500000 0.500000 0.000000
O O8 0.562033 0.120238 0.793678
O O9 0.246584 0.434542 0.601681
O O10 0.500000 0.000000 0.500000
O O11 0.638774 0.958641 0.404629
O O12 0.690373 0.496358 0.661955
O O13 0.000000 0.000000 0.500000
O O14 0.910396 0.009856 0.286074
O O15 0.916002 0.130069 0.231089
O O16 0.000000 0.000000 0.000000
O O17 0.032339 0.608965 0.324570
O O18 0.935970 0.376707 0.083637
#
# Coordination Sequence:
#
# PCOD9061770 Si02
#       8
#     2   2   2   2   2   2   2   2
#     4  11  24  46  67 103 139 184 239 291 353 419
#     4  11  23  48  73 102 140 187 228 293 360 417
#     4  11  25  45  74 105 142 184 238 290 354 434
#     4  12  24  44  70 101 141 190 234 294 353 422
#     4  12  25  48  72 102 145 184 236 299 350 426
#     4  11  24  42  72  97 143 182 234 296 348 421
#     4  11  26  45  70 105 144 182 240 293 354 424
#     4  11  23  46  70 100 140 187 237 287 358 417
#
# _framework density 22.987062999999999
#
# number of rings (size 3 to 8) (size 9 to 14) (size 15 to 20)
#    0.000    0.750    5.000    2.250    3.500    2.500 
#    2.250    0.000    0.000    0.000    0.000    0.000 
#    0.000    0.000    0.000    0.000    0.000    0.000 
#
# Total GULP energy -89564.796030 kJ/mol
# GULP energy per Si atom -5597.799752 kJ/mol
# Density = 2.293474 g / cm^3
# Si number density = 22.987063 Si / 1000 Ang^3
#
#
#
# Elastic Constant Matrix: (Units=GPa)
#
#
# Indices 1 2 3 4 5 6 
#
# 1 73.0554 28.8929 18.3711 7.2303 3.6104 -8.4177
# 2 28.8929 138.6121 35.8787 14.3270 8.2008 -2.7070
# 3 18.3711 35.8787 101.1606 20.2881 20.2791 -0.3975
# 4 7.2303 14.3270 20.2881 36.3095 4.2055 9.5766
# 5 3.6104 8.2008 20.2791 4.2055 38.6416 -0.7333
# 6 -8.4177 -2.7070 -0.3975 9.5766 -0.7333 37.3725
#
#
#
# Elastic Compliance Matrix: (Units=1/GPa)
#
#
# Indices 1 2 3 4 5 6 
#
# 1 0.015767 -0.002591 -0.001497 -0.002346 0.000193 0.003953
# 2 -0.002591 0.008513 -0.002152 -0.001732 -0.000238 0.000449
# 3 -0.001497 -0.002152 0.013243 -0.005867 -0.005695 0.001039
# 4 -0.002346 -0.001732 -0.005867 0.034525 -0.000274 -0.009568
# 5 0.000193 -0.000238 -0.005695 -0.000274 0.028941 0.000604
# 6 0.003953 0.000449 0.001039 -0.009568 0.000604 0.030155
#
#
# Mechanical properties :
#
#
# Convention : Reuss Voigt Hill
#
# Bulk Modulus (GPa) = 39.93077 53.23482 46.58279
# Shear Modulus (GPa) = 32.90059 37.77708 35.33883
#
# Velocity S-wave (km/s) = 3.78731 4.05829 3.92514
# Velocity P-wave (km/s) = 6.04431 6.72075 6.39149
#
# Compressibility (1/GPa) = 0.02504335
#
# Stress axis : x y z
#
# Youngs Moduli (GPa) = 63.42168 117.46272 75.51307
#
# Poissons Ratio (x) = 0.30433 0.11305
# Poissons Ratio (y) = 0.16432 0.16251
# Poissons Ratio (z) = 0.09495 0.25279
#
# Static dielectric constant tensor:
#      x y z
#    x 1.883500 0.022830 -0.007460 
#    y 0.022830 1.909300 0.036060 
#    z -0.007460 0.036060 1.907200 
# 
# From -- ./inp_files/534589.got.cif
#   From: 2010.05.17/outbox.cif.g08.bks.cpg/sg2_268_cif.got.tgz:534589.got - 2010.06.03 11:33:40.
