data_PCOD9061129
_publ_section_title
;
Structure prediction by ZEFSAII (Michael W. Deem and Ramdas Pophale) SiO2 
 PCOD9061129
Probable space group: P -1
;
_chemical_formula_sum "Si O2"
_cell_formula_units_Z 16
_cell_length_a 9.453500
_cell_length_b 15.813355
_cell_length_c 8.855753
_cell_angle_alpha 109.532654
_cell_angle_beta 96.821153
_cell_angle_gamma 136.698763
_cell_volume 708.824405
_symmetry_space_group_name_H-M "P -1"
_symmetry_group_IT_number 2
_symmetry_cell_setting 'triclinic'
loop_
_space_group_symop_operation_xyz
x,y,z
-x,-y,-z
loop_
_atom_site_type_symbol
_atom_site_label
_atom_site_fract_x
_atom_site_fract_y
_atom_site_fract_z
Si Si1 0.945842 0.239464 0.347301
Si Si2 0.341180 0.294627 0.381837
Si Si3 0.176094 0.048998 0.425813
Si Si4 0.694602 0.436684 0.241565
Si Si5 0.470547 0.058588 0.662324
Si Si6 0.382359 0.525500 0.208941
Si Si7 0.280712 0.292751 0.898471
Si Si8 0.113962 0.659274 0.884950
O O1 0.876420 0.264894 0.208503
O O2 0.099444 0.231561 0.305360
O O3 0.106011 0.387639 0.568030
O O4 0.721231 0.082610 0.324248
O O5 0.470551 0.325676 0.267610
O O6 0.544465 0.456240 0.598954
O O7 0.294965 0.183240 0.412406
O O8 0.976805 0.888262 0.209970
O O9 0.364897 0.087747 0.570645
O O10 0.000000 0.000000 0.500000
O O11 0.809039 0.398061 0.204736
O O12 0.540756 0.384752 0.043053
O O13 0.500000 0.000000 0.500000
O O14 0.706379 0.213560 0.882465
O O15 0.651312 0.670511 0.247769
O O16 0.168511 0.489314 0.174266
O O17 0.261610 0.379444 0.022360
#
# Coordination Sequence:
#
# PCOD9061129 Si02
#       8
#     2   2   2   2   2   2   2   2
#     4  12  25  50  73 104 148 188 240 293 354 429
#     4  12  25  47  77 101 142 190 240 298 348 419
#     4  12  24  47  72 106 142 180 242 298 347 414
#     4  12  27  45  71 113 142 187 237 296 363 418
#     4  12  29  49  74 105 146 195 232 289 365 429
#     4  11  23  44  73 102 139 188 240 292 349 425
#     4  11  24  44  73 106 138 183 244 296 353 415
#     4  12  28  47  69 109 149 189 233 291 363 429
#
# _framework density 22.572585
#
# number of rings (size 3 to 8) (size 9 to 14) (size 15 to 20)
#    0.000    0.250    5.000    3.375    5.250    1.000 
#    2.250    0.000    0.000    0.000    0.000    0.000 
#    0.000    0.000    0.000    0.000    0.000    0.000 
#
# Total GULP energy -89414.063333 kJ/mol
# GULP energy per Si atom -5588.378958 kJ/mol
# Density = 2.252121 g / cm^3
# Si number density = 22.572585 Si / 1000 Ang^3
#
#
#
# Elastic Constant Matrix: (Units=GPa)
#
#
# Indices 1 2 3 4 5 6 
#
# 1 164.3845 17.9387 32.6649 -14.1876 -4.9694 -0.0025
# 2 17.9387 83.9877 10.4055 4.2015 -3.4145 -5.9955
# 3 32.6649 10.4055 94.5992 11.9480 4.4557 -9.7428
# 4 -14.1876 4.2015 11.9480 25.7530 0.2866 5.3715
# 5 -4.9694 -3.4145 4.4557 0.2866 40.7425 -13.4375
# 6 -0.0025 -5.9955 -9.7428 5.3715 -13.4375 34.9344
#
#
#
# Elastic Compliance Matrix: (Units=1/GPa)
#
#
# Indices 1 2 3 4 5 6 
#
# 1 0.007518 -0.001629 -0.003464 0.006442 0.000431 -0.002070
# 2 -0.001629 0.012789 -0.000112 -0.003691 0.002075 0.003529
# 3 -0.003464 -0.000112 0.013473 -0.009201 -0.000162 0.005091
# 4 0.006442 -0.003691 -0.009201 0.049770 -0.002802 -0.011929
# 5 0.000431 0.002075 -0.000162 -0.002802 0.028693 0.011779
# 6 -0.002070 0.003529 0.005091 -0.011929 0.011779 0.037015
#
#
# Mechanical properties :
#
#
# Convention : Reuss Voigt Hill
#
# Bulk Modulus (GPa) = 42.78931 51.66550 47.22740
# Shear Modulus (GPa) = 29.85788 39.08347 34.47068
#
# Velocity S-wave (km/s) = 3.64091 4.16559 3.91206
# Velocity P-wave (km/s) = 6.05578 6.78782 6.43222
#
# Compressibility (1/GPa) = 0.02337033
#
# Stress axis : x y z
#
# Youngs Moduli (GPa) = 133.00746 78.19002 74.22072
#
# Poissons Ratio (x) = 0.12738 0.25710
# Poissons Ratio (y) = 0.21669 0.00833
# Poissons Ratio (z) = 0.46073 0.00878
#
# Static dielectric constant tensor:
#      x y z
#    x 1.847500 -0.044760 -0.025100 
#    y -0.044760 1.868310 0.035710 
#    z -0.025100 0.035710 1.912730 
# 
# From -- ./inp_files/208413.got.cif
#   From: 2010.05.17/outbox.cif.g08.bks.cpg/sg2_105_cif.got.tgz:208413.got - 2010.06.03 11:33:40.
