data_PCOD9061628
_publ_section_title
;
Structure prediction by ZEFSAII (Michael W. Deem and Ramdas Pophale) SiO2 
 PCOD9061628
Probable space group: P -1
;
_chemical_formula_sum "Si O2"
_cell_formula_units_Z 15
_cell_length_a 11.915101
_cell_length_b 12.729362
_cell_length_c 11.834799
_cell_angle_alpha 46.879261
_cell_angle_beta 144.725864
_cell_angle_gamma 147.000535
_cell_volume 564.558137
_symmetry_space_group_name_H-M "P -1"
_symmetry_group_IT_number 2
_symmetry_cell_setting 'triclinic'
loop_
_space_group_symop_operation_xyz
x,y,z
-x,-y,-z
loop_
_atom_site_type_symbol
_atom_site_label
_atom_site_fract_x
_atom_site_fract_y
_atom_site_fract_z
Si Si1 0.210245 0.665758 0.640278
Si Si2 0.239863 0.177747 0.995642
Si Si3 0.857137 0.736569 0.366998
Si Si4 0.500000 0.000000 0.000000
Si Si5 0.904081 0.642787 0.708985
Si Si6 0.584119 0.203731 0.683437
Si Si7 0.046741 0.326861 0.862659
Si Si8 0.329820 0.329661 0.288677
O O1 0.167280 0.545008 0.804131
O O2 0.000000 0.500000 0.500000
O O3 0.110078 0.774771 0.503625
O O4 0.509440 0.779393 0.780415
O O5 0.213270 0.167526 0.845212
O O6 0.201665 0.326733 0.888777
O O7 0.000000 0.000000 0.000000
O O8 0.883379 0.754881 0.510582
O O9 0.599194 0.506609 0.319008
O O10 0.796882 0.212753 0.112863
O O11 0.484363 0.929901 0.170033
O O12 0.773329 0.428607 0.717198
O O13 0.729177 0.606041 0.697275
O O14 0.345117 0.173776 0.455631
O O15 0.739154 0.199797 0.712625
O O16 0.110930 0.264877 0.069203
#
# Coordination Sequence:
#
# PCOD9061628 Si02
#       8
#     2   2   2   1   2   2   2   2
#     4  12  23  45  79 101 138 192 251 300 357 446
#     4  12  29  46  68 113 151 187 243 311 372 442
#     4  11  23  45  75 102 142 198 240 297 371 438
#     4  12  26  44  72 106 148 194 238 302 370 432
#     4  11  25  48  72 110 148 193 247 302 369 437
#     4  11  25  46  73 105 148 191 243 303 357 444
#     4  12  23  45  74 104 139 192 244 296 362 442
#     4  11  23  45  75 108 138 193 247 300 357 439
#
# _framework density 26.569451000000001
#
# number of rings (size 3 to 8) (size 9 to 14) (size 15 to 20)
#    0.000    0.533    6.667    3.200    0.000    3.200 
#    7.200    0.000    0.000    0.000    0.000    0.000 
#    0.000    0.000    0.000    0.000    0.000    0.000 
#
# Total GULP energy -83630.057168 kJ/mol
# GULP energy per Si atom -5575.337145 kJ/mol
# Density = 2.650898 g / cm^3
# Si number density = 26.569451 Si / 1000 Ang^3
#
#
#
# Elastic Constant Matrix: (Units=GPa)
#
#
# Indices 1 2 3 4 5 6 
#
# 1 101.5570 34.2353 29.8089 12.2908 9.3242 16.7878
# 2 34.2353 114.5850 41.5135 -2.6174 11.5385 19.6893
# 3 29.8089 41.5135 145.0587 5.1832 -4.0369 10.7702
# 4 12.2908 -2.6174 5.1832 34.5873 15.6544 -3.1273
# 5 9.3242 11.5385 -4.0369 15.6544 50.2448 -0.2857
# 6 16.7878 19.6893 10.7702 -3.1273 -0.2857 43.4065
#
#
#
# Elastic Compliance Matrix: (Units=1/GPa)
#
#
# Indices 1 2 3 4 5 6 
#
# 1 0.012304 -0.002635 -0.001361 -0.004506 -0.000404 -0.003553
# 2 -0.002635 0.011497 -0.002726 0.003491 -0.003477 -0.003291
# 3 -0.001361 -0.002726 0.008110 -0.001937 0.002131 -0.000375
# 4 -0.004506 0.003491 -0.001937 0.036559 -0.011493 0.003198
# 5 -0.000404 -0.003477 0.002131 -0.011493 0.024531 0.000538
# 6 -0.003553 -0.003291 -0.000375 0.003198 0.000538 0.026232
#
#
# Mechanical properties :
#
#
# Convention : Reuss Voigt Hill
#
# Bulk Modulus (GPa) = 54.14777 63.59068 58.86922
# Shear Modulus (GPa) = 36.01440 42.69058 39.35249
#
# Velocity S-wave (km/s) = 3.68568 4.01278 3.85270
# Velocity P-wave (km/s) = 6.20776 6.74208 6.48043
#
# Compressibility (1/GPa) = 0.01846798
#
# Stress axis : x y z
#
# Youngs Moduli (GPa) = 81.27331 86.97627 123.30607
#
# Poissons Ratio (x) = 0.22917 0.16779
# Poissons Ratio (y) = 0.21415 0.33614
# Poissons Ratio (z) = 0.11059 0.23710
#
# Static dielectric constant tensor:
#      x y z
#    x 2.263130 -0.155940 0.026070 
#    y -0.155940 2.172620 0.013430 
#    z 0.026070 0.013430 2.112760 
# 
# From -- ./inp_files/432644.got.cif
#   From: 2010.05.17/outbox.cif.g08.bks.cpg/sg2_217_cif.got.tgz:432644.got - 2010.06.03 11:33:40.
