data_PCOD9061900
_publ_section_title
;
Structure prediction by ZEFSAII (Michael W. Deem and Ramdas Pophale) SiO2 
 PCOD9061900
Probable space group: P -1
;
_chemical_formula_sum "Si O2"
_cell_formula_units_Z 16
_cell_length_a 7.796829
_cell_length_b 12.803592
_cell_length_c 7.723950
_cell_angle_alpha 72.840156
_cell_angle_beta 57.757506
_cell_angle_gamma 86.021779
_cell_volume 619.424098
_symmetry_space_group_name_H-M "P -1"
_symmetry_group_IT_number 2
_symmetry_cell_setting 'triclinic'
loop_
_space_group_symop_operation_xyz
x,y,z
-x,-y,-z
loop_
_atom_site_type_symbol
_atom_site_label
_atom_site_fract_x
_atom_site_fract_y
_atom_site_fract_z
Si Si1 0.018744 0.652480 0.081273
Si Si2 0.282218 0.564552 0.679561
Si Si3 0.082121 0.659711 0.423669
Si Si4 0.609935 0.585640 0.761229
Si Si5 0.321360 0.971715 0.472319
Si Si6 0.247156 0.899584 0.170981
Si Si7 0.082741 0.132317 0.090699
Si Si8 0.388674 0.187103 0.183935
O O1 0.832077 0.558386 0.200410
O O2 0.122212 0.629407 0.218993
O O3 0.161581 0.634604 0.849541
O O4 0.952934 0.775867 0.076489
O O5 0.505510 0.564152 0.640969
O O6 0.244950 0.620437 0.488751
O O7 0.856065 0.602891 0.617603
O O8 0.097674 0.791743 0.354073
O O9 0.561038 0.705639 0.787194
O O10 0.500000 0.500000 0.000000
O O11 0.362998 0.928575 0.278055
O O12 0.136662 0.894538 0.689485
O O13 0.500000 0.000000 0.500000
O O14 0.593661 0.140613 0.031286
O O15 0.743281 0.908567 0.592895
O O16 0.158560 0.010123 0.092491
O O17 0.248980 0.201824 0.087283
#
# Coordination Sequence:
#
# PCOD9061900 Si02
#       8
#     2   2   2   2   2   2   2   2
#     4  11  25  47  77 108 146 199 244 311 377 444
#     4  11  25  48  76 107 154 192 249 312 373 446
#     4  12  27  48  76 111 150 195 254 306 379 450
#     4  12  26  47  79 111 146 200 249 309 382 445
#     4  11  24  41  71 104 147 192 241 299 375 443
#     4  11  25  47  71 107 146 193 250 313 369 450
#     4  11  23  46  73 104 152 190 247 309 372 448
#     4  11  24  47  72 104 147 195 250 310 373 450
#
# _framework density 25.830442999999999
#
# number of rings (size 3 to 8) (size 9 to 14) (size 15 to 20)
#    0.000    0.750    0.000    9.375    5.250    3.000 
#    4.500    1.250    0.000    0.000    0.000    0.000 
#    0.000    0.000    0.000    0.000    0.000    0.000 
#
# Total GULP energy -89607.025055 kJ/mol
# GULP energy per Si atom -5600.439066 kJ/mol
# Density = 2.577165 g / cm^3
# Si number density = 25.830443 Si / 1000 Ang^3
#
#
#
# Elastic Constant Matrix: (Units=GPa)
#
#
# Indices 1 2 3 4 5 6 
#
# 1 122.0649 45.7433 51.1596 7.1144 22.3197 9.9243
# 2 45.7433 145.4902 56.1576 -18.0564 14.3986 6.3404
# 3 51.1596 56.1576 98.6120 -18.6839 26.7088 0.8347
# 4 7.1144 -18.0564 -18.6839 44.1430 6.5128 -8.2931
# 5 22.3197 14.3986 26.7088 6.5128 47.1376 0.3676
# 6 9.9243 6.3404 0.8347 -8.2931 0.3676 36.3146
#
#
#
# Elastic Compliance Matrix: (Units=1/GPa)
#
#
# Indices 1 2 3 4 5 6 
#
# 1 0.012393 -0.001997 -0.006172 -0.006100 -0.000885 -0.004280
# 2 -0.001997 0.009284 -0.003753 0.002466 -0.000101 -0.000425
# 3 -0.006172 -0.003753 0.019573 0.009775 -0.008405 0.004209
# 4 -0.006100 0.002466 0.009775 0.031493 -0.007819 0.008283
# 5 -0.000885 -0.000101 -0.008405 -0.007819 0.027520 -0.001612
# 6 -0.004280 -0.000425 0.004209 0.008283 -0.001612 0.030592
#
#
# Mechanical properties :
#
#
# Convention : Reuss Voigt Hill
#
# Bulk Modulus (GPa) = 57.45116 74.69868 66.07492
# Shear Modulus (GPa) = 31.15254 39.72616 35.43935
#
# Velocity S-wave (km/s) = 3.47658 3.92594 3.70807
# Velocity P-wave (km/s) = 6.19721 7.03792 6.63090
#
# Compressibility (1/GPa) = 0.01740609
#
# Stress axis : x y z
#
# Youngs Moduli (GPa) = 80.69138 107.70752 51.09127
#
# Poissons Ratio (x) = 0.21510 0.31534
# Poissons Ratio (y) = 0.16115 0.19174
# Poissons Ratio (z) = 0.49803 0.40421
#
# Static dielectric constant tensor:
#      x y z
#    x 2.996580 0.142940 0.330800 
#    y 0.142940 2.061150 0.090630 
#    z 0.330800 0.090630 2.148460 
# 
# From -- ./inp_files/195728.got.cif
#   From: 2010.05.17/outbox.cif.g08.bks.cpg/sg2_98_cif.got.tgz:195728.got - 2010.06.03 11:33:40.
