data_PCOD9061627
_publ_section_title
;
Structure prediction by ZEFSAII (Michael W. Deem and Ramdas Pophale) SiO2 
 PCOD9061627
Probable space group: P -1
;
_chemical_formula_sum "Si O2"
_cell_formula_units_Z 16
_cell_length_a 8.719164
_cell_length_b 14.569835
_cell_length_c 15.039741
_cell_angle_alpha 30.260960
_cell_angle_beta 62.576989
_cell_angle_gamma 80.713690
_cell_volume 725.493782
_symmetry_space_group_name_H-M "P -1"
_symmetry_group_IT_number 2
_symmetry_cell_setting 'triclinic'
loop_
_space_group_symop_operation_xyz
x,y,z
-x,-y,-z
loop_
_atom_site_type_symbol
_atom_site_label
_atom_site_fract_x
_atom_site_fract_y
_atom_site_fract_z
Si Si1 0.249973 0.027498 0.145781
Si Si2 0.047530 0.546080 0.553130
Si Si3 0.026512 0.123174 0.482161
Si Si4 0.972560 0.865478 0.032206
Si Si5 0.591356 0.332019 0.911966
Si Si6 0.472416 0.323931 0.277246
Si Si7 0.320493 0.929403 0.765705
Si Si8 0.110344 0.536901 0.033319
O O1 0.202791 0.793902 0.326265
O O2 0.124399 0.003835 0.289835
O O3 0.482382 0.193459 0.970201
O O4 0.171250 0.112488 0.017335
O O5 0.101016 0.378115 0.718637
O O6 0.832286 0.483381 0.707116
O O7 0.000000 0.500000 0.500000
O O8 0.255677 0.214433 0.378161
O O9 0.000526 0.322372 0.299796
O O10 0.000000 0.000000 0.500000
O O11 0.193422 0.967153 0.841771
O O12 0.000000 0.000000 0.000000
O O13 0.505884 0.480303 0.836129
O O14 0.563051 0.169921 0.133943
O O15 0.662998 0.411782 0.088770
O O16 0.463077 0.141122 0.494920
O O17 0.150013 0.744473 0.901818
O O18 0.000000 0.500000 0.000000
#
# Coordination Sequence:
#
# PCOD9061627 Si02
#       8
#     2   2   2   2   2   2   2   2
#     4  12  25  46  74 104 141 187 237 288 356 424
#     4  11  23  47  74 100 144 183 232 300 357 409
#     4  12  24  43  71 100 144 192 234 286 355 422
#     4  11  23  45  75 102 136 184 235 294 354 418
#     4  11  26  44  70 105 140 186 236 288 351 426
#     4  12  24  46  70  98 148 188 235 291 356 414
#     4  11  24  45  67  98 143 182 232 294 350 415
#     4  12  27  42  67 106 142 186 245 290 350 431
#
# _framework density 22.053947000000001
#
# number of rings (size 3 to 8) (size 9 to 14) (size 15 to 20)
#    0.000    0.500    5.000    3.000    5.250    1.500 
#    0.000    0.625    0.000    0.000    0.000    0.000 
#    0.000    0.000    0.000    0.000    0.000    0.000 
#
# Total GULP energy -89621.231883 kJ/mol
# GULP energy per Si atom -5601.326993 kJ/mol
# Density = 2.200375 g / cm^3
# Si number density = 22.053947 Si / 1000 Ang^3
#
#
#
# Elastic Constant Matrix: (Units=GPa)
#
#
# Indices 1 2 3 4 5 6 
#
# 1 56.7077 9.6752 21.0810 -7.1158 15.3320 21.8231
# 2 9.6752 131.5973 22.4871 -17.7429 4.2703 10.3304
# 3 21.0810 22.4871 77.7899 -16.2016 28.8785 9.8282
# 4 -7.1158 -17.7429 -16.2016 35.3902 9.9867 1.7267
# 5 15.3320 4.2703 28.8785 9.9867 40.5567 1.1562
# 6 21.8231 10.3304 9.8282 1.7267 1.1562 37.4601
#
#
#
# Elastic Compliance Matrix: (Units=1/GPa)
#
#
# Indices 1 2 3 4 5 6 
#
# 1 0.029368 0.001086 0.002544 0.012930 -0.015694 -0.018188
# 2 0.001086 0.008595 -0.000621 0.004956 -0.002008 -0.003007
# 3 0.002544 -0.000621 0.026573 0.019668 -0.024420 -0.008436
# 4 0.012930 0.004956 0.019668 0.052072 -0.031796 -0.015479
# 5 -0.015694 -0.002008 -0.024420 -0.031796 0.055567 0.015854
# 6 -0.018188 -0.003007 -0.008436 -0.015479 0.015854 0.040557
#
#
# Mechanical properties :
#
#
# Convention : Reuss Voigt Hill
#
# Bulk Modulus (GPa) = 14.17350 41.39795 27.78573
# Shear Modulus (GPa) = 21.71724 36.87151 29.29437
#
# Velocity S-wave (km/s) = 3.14145 4.09330 3.64855
# Velocity P-wave (km/s) = 4.42707 6.41499 5.51140
#
# Compressibility (1/GPa) = 0.07055419
#
# Stress axis : x y z
#
# Youngs Moduli (GPa) = 34.05073 116.35145 37.63205
#
# Poissons Ratio (x) = -0.12641 -0.09574
# Poissons Ratio (y) = -0.03699 0.02339
# Poissons Ratio (z) = -0.08663 0.07230
#
# Static dielectric constant tensor:
#      x y z
#    x 1.802450 -0.003710 0.012590 
#    y -0.003710 1.827750 0.001200 
#    z 0.012590 0.001200 1.800670 
# 
# From -- ./inp_files/218516.got.cif
#   From: 2010.05.17/outbox.cif.g08.bks.cpg/sg2_110_cif.got.tgz:218516.got - 2010.06.03 11:33:40.
