data_PCOD9061844
_publ_section_title
;
Structure prediction by ZEFSAII (Michael W. Deem and Ramdas Pophale) SiO2 
 PCOD9061844
Probable space group: P -1
;
_chemical_formula_sum "Si O2"
_cell_formula_units_Z 16
_cell_length_a 17.868496
_cell_length_b 8.836516
_cell_length_c 6.548914
_cell_angle_alpha 71.999130
_cell_angle_beta 47.718421
_cell_angle_gamma 88.093558
_cell_volume 704.819791
_symmetry_space_group_name_H-M "P -1"
_symmetry_group_IT_number 2
_symmetry_cell_setting 'triclinic'
loop_
_space_group_symop_operation_xyz
x,y,z
-x,-y,-z
loop_
_atom_site_type_symbol
_atom_site_label
_atom_site_fract_x
_atom_site_fract_y
_atom_site_fract_z
Si Si1 0.798387 0.748990 0.975142
Si Si2 0.289484 0.688543 0.181460
Si Si3 0.795221 0.070274 0.067579
Si Si4 0.390825 0.541820 0.726590
Si Si5 0.028510 0.143073 0.718530
Si Si6 0.093630 0.421283 0.810130
Si Si7 0.342667 0.969954 0.283449
Si Si8 0.494422 0.909240 0.331803
O O1 0.873048 0.844794 0.616757
O O2 0.706129 0.595033 0.131750
O O3 0.871871 0.676412 0.024169
O O4 0.760806 0.888088 0.112463
O O5 0.190348 0.564596 0.507059
O O6 0.337869 0.808099 0.226207
O O7 0.252863 0.802770 0.027903
O O8 0.360940 0.578243 0.998704
O O9 0.759384 0.055756 0.378190
O O10 0.920736 0.128140 0.801430
O O11 0.500000 0.500000 0.500000
O O12 0.417347 0.730282 0.523307
O O13 0.059820 0.305990 0.726405
O O14 0.000000 0.000000 0.000000
O O15 0.000000 0.500000 0.000000
O O16 0.434446 0.014999 0.261450
O O17 0.392459 0.100296 0.960027
O O18 0.500000 0.000000 0.500000
#
# Coordination Sequence:
#
# PCOD9061844 Si02
#       8
#     2   2   2   2   2   2   2   2
#     4  12  29  51  73 113 160 196 254 316 382 455
#     4  12  26  48  75 109 153 198 257 312 374 454
#     4  12  27  45  81 112 149 203 253 312 379 466
#     4  12  28  46  73 105 151 201 251 318 376 440
#     4  12  27  48  75 114 154 198 251 306 390 461
#     4  12  27  46  79 112 155 200 245 313 387 457
#     4  11  24  42  79 101 144 191 259 305 376 442
#     4  11  23  46  72 103 143 193 254 313 370 445
#
# _framework density 22.700838000000001
#
# number of rings (size 3 to 8) (size 9 to 14) (size 15 to 20)
#    0.000    0.250    5.000    2.625    8.750    2.000 
#    0.000    1.875    0.000    0.000    0.000    0.000 
#    0.000    0.000    0.000    0.000    0.000    0.000 
#
# Total GULP energy -89304.605321 kJ/mol
# GULP energy per Si atom -5581.537833 kJ/mol
# Density = 2.264917 g / cm^3
# Si number density = 22.700838 Si / 1000 Ang^3
#
#
#
# Elastic Constant Matrix: (Units=GPa)
#
#
# Indices 1 2 3 4 5 6 
#
# 1 101.1569 37.9366 22.7877 7.8629 4.9278 14.7002
# 2 37.9366 84.2909 32.9811 5.8617 5.9387 23.3153
# 3 22.7877 32.9811 155.9685 7.5055 -10.4781 3.1930
# 4 7.8629 5.8617 7.5055 49.7538 4.4294 -2.0726
# 5 4.9278 5.9387 -10.4781 4.4294 36.8776 -5.2574
# 6 14.7002 23.3153 3.1930 -2.0726 -5.2574 52.8342
#
#
#
# Elastic Compliance Matrix: (Units=1/GPa)
#
#
# Indices 1 2 3 4 5 6 
#
# 1 0.012149 -0.004581 -0.000797 -0.001217 -0.001176 -0.001476
# 2 -0.004581 0.017276 -0.003073 -0.000776 -0.003888 -0.006581
# 3 -0.000797 -0.003073 0.007391 -0.000836 0.003001 0.001397
# 4 -0.001217 -0.000776 -0.000836 0.020765 -0.002256 0.001322
# 5 -0.001176 -0.003888 0.003001 -0.002256 0.029698 0.004728
# 6 -0.001476 -0.006581 0.001397 0.001322 0.004728 0.022680
#
#
# Mechanical properties :
#
#
# Convention : Reuss Voigt Hill
#
# Bulk Modulus (GPa) = 50.21231 58.75856 54.48544
# Shear Modulus (GPa) = 37.45388 44.40718 40.93053
#
# Velocity S-wave (km/s) = 4.06629 4.42768 4.25083
# Velocity P-wave (km/s) = 6.64932 7.21659 6.93876
#
# Compressibility (1/GPa) = 0.01991543
#
# Stress axis : x y z
#
# Youngs Moduli (GPa) = 82.30925 57.88423 135.29940
#
# Poissons Ratio (x) = 0.26515 0.10779
# Poissons Ratio (y) = 0.37703 0.41578
# Poissons Ratio (z) = 0.06558 0.17788
#
# Static dielectric constant tensor:
#      x y z
#    x 2.015440 0.194620 -0.128660 
#    y 0.194620 2.236870 -0.241720 
#    z -0.128660 -0.241720 2.102350 
# 
# From -- ./inp_files/106636.got.cif
#   From: 2010.05.17/outbox.cif.g08.bks.cpg/sg2_54_cif.got.tgz:106636.got - 2010.06.03 11:33:40.
