data_PCOD9061408
_publ_section_title
;
Structure prediction by ZEFSAII (Michael W. Deem and Ramdas Pophale) SiO2 
 PCOD9061408
Probable space group: P -1
;
_chemical_formula_sum "Si O2"
_cell_formula_units_Z 14
_cell_length_a 11.654788
_cell_length_b 9.870421
_cell_length_c 9.692093
_cell_angle_alpha 134.895425
_cell_angle_beta 107.513971
_cell_angle_gamma 54.333100
_cell_volume 629.713408
_symmetry_space_group_name_H-M "P -1"
_symmetry_group_IT_number 2
_symmetry_cell_setting 'triclinic'
loop_
_space_group_symop_operation_xyz
x,y,z
-x,-y,-z
loop_
_atom_site_type_symbol
_atom_site_label
_atom_site_fract_x
_atom_site_fract_y
_atom_site_fract_z
Si Si1 0.105728 0.031877 0.971347
Si Si2 0.543430 0.735734 0.825218
Si Si3 0.874507 0.989367 0.520534
Si Si4 0.608071 0.646266 0.105593
Si Si5 0.073473 0.466307 0.853886
Si Si6 0.711123 0.282659 0.422767
Si Si7 0.694144 0.158317 0.848724
O O1 0.018439 0.287919 0.070411
O O2 0.233608 0.977733 0.083072
O O3 0.159098 0.858562 0.737998
O O4 0.000000 0.000000 0.000000
O O5 0.673706 0.532754 0.633551
O O6 0.415037 0.719526 0.704982
O O7 0.580750 0.646163 0.931319
O O8 0.500000 0.000000 0.000000
O O9 0.936076 0.724620 0.363271
O O10 0.746452 0.131690 0.465275
O O11 0.807083 0.088923 0.716038
O O12 0.000000 0.000000 0.500000
O O13 0.755812 0.635716 0.156803
O O14 0.447447 0.843664 0.240889
O O15 0.640511 0.422901 0.039559
O O16 0.000000 0.500000 0.000000
#
# Coordination Sequence:
#
# PCOD9061408 Si02
#       7
#     2   2   2   2   2   2   2
#     4  12  24  47  70 108 150 191 244 309 373 442
#     4  11  24  42  71 107 139 181 249 309 358 443
#     4  12  25  46  71 106 144 197 253 302 376 453
#     4  11  23  45  70 102 145 193 240 311 372 439
#     4  12  26  44  76 106 146 198 250 307 372 448
#     4  11  24  44  73 102 140 198 239 297 379 436
#     4  11  24  44  72 100 150 195 235 308 381 434
#
# _framework density 22.232336
#
# number of rings (size 3 to 8) (size 9 to 14) (size 15 to 20)
#    0.000    0.571    5.714    2.571    0.000    1.143 
#    2.571    0.000    0.000    0.000    0.000    0.000 
#    0.000    0.000    0.000    0.000    0.000    0.000 
#
# Total GULP energy -78142.638641 kJ/mol
# GULP energy per Si atom -5581.617046 kJ/mol
# Density = 2.218173 g / cm^3
# Si number density = 22.232336 Si / 1000 Ang^3
#
#
#
# Elastic Constant Matrix: (Units=GPa)
#
#
# Indices 1 2 3 4 5 6 
#
# 1 129.8486 39.8738 32.6328 7.9651 -11.3841 -6.6544
# 2 39.8738 155.5677 53.1644 5.5145 0.3968 5.1043
# 3 32.6328 53.1644 107.6319 20.9811 -17.0595 5.3438
# 4 7.9651 5.5145 20.9811 43.8467 2.4107 2.7707
# 5 -11.3841 0.3968 -17.0595 2.4107 33.1689 -0.0482
# 6 -6.6544 5.1043 5.3438 2.7707 -0.0482 32.6183
#
#
#
# Elastic Compliance Matrix: (Units=1/GPa)
#
#
# Indices 1 2 3 4 5 6 
#
# 1 0.009031 -0.001919 -0.001302 -0.001071 0.002535 0.002451
# 2 -0.001919 0.008378 -0.004300 0.001594 -0.003088 -0.001138
# 3 -0.001302 -0.004300 0.014299 -0.006386 0.007421 -0.001382
# 4 -0.001071 0.001594 -0.006386 0.026268 -0.005583 -0.001661
# 5 0.002535 -0.003088 0.007421 -0.005583 0.035279 0.000311
# 6 0.002451 -0.001138 -0.001382 -0.001661 0.000311 0.031704
#
#
# Mechanical properties :
#
#
# Convention : Reuss Voigt Hill
#
# Bulk Modulus (GPa) = 59.99842 71.59891 65.79866
# Shear Modulus (GPa) = 34.35087 39.75191 37.05139
#
# Velocity S-wave (km/s) = 3.93502 4.23309 4.08677
# Velocity P-wave (km/s) = 6.90590 7.49445 7.20619
#
# Compressibility (1/GPa) = 0.01666711
#
# Stress axis : x y z
#
# Youngs Moduli (GPa) = 110.72850 119.35688 69.93306
#
# Poissons Ratio (x) = 0.22903 0.09102
# Poissons Ratio (y) = 0.21248 0.30074
# Poissons Ratio (z) = 0.14412 0.51328
#
# Static dielectric constant tensor:
#      x y z
#    x 1.922370 -0.104420 0.011940 
#    y -0.104420 1.813380 0.027110 
#    z 0.011940 0.027110 1.778700 
# 
# From -- ./inp_files/246036.got.cif
#   From: 2010.05.17/outbox.cif.g08.bks.cpg/sg2_124_cif.got.tgz:246036.got - 2010.06.03 11:33:40.
