data_PCOD9061700
_publ_section_title
;
Structure prediction by ZEFSAII (Michael W. Deem and Ramdas Pophale) SiO2 
 PCOD9061700
Probable space group: P -1
;
_chemical_formula_sum "Si O2"
_cell_formula_units_Z 14
_cell_length_a 24.420797
_cell_length_b 18.616558
_cell_length_c 8.705921
_cell_angle_alpha 32.051556
_cell_angle_beta 141.583054
_cell_angle_gamma 165.083964
_cell_volume 522.079034
_symmetry_space_group_name_H-M "P -1"
_symmetry_group_IT_number 2
_symmetry_cell_setting 'triclinic'
loop_
_space_group_symop_operation_xyz
x,y,z
-x,-y,-z
loop_
_atom_site_type_symbol
_atom_site_label
_atom_site_fract_x
_atom_site_fract_y
_atom_site_fract_z
Si Si1 0.101631 0.446636 0.401646
Si Si2 0.302645 0.946432 0.746817
Si Si3 0.665199 0.114853 0.625905
Si Si4 0.529156 0.628877 0.176025
Si Si5 0.284031 0.418729 0.732279
Si Si6 0.928972 0.027747 0.192658
Si Si7 0.860638 0.410027 0.254292
O O1 0.122112 0.509977 0.513537
O O2 0.165375 0.392419 0.569102
O O3 0.849679 0.142980 0.369664
O O4 0.295277 0.826858 0.083915
O O5 0.148993 0.640897 0.847818
O O6 0.521158 0.287263 0.507905
O O7 0.631931 0.056192 0.473014
O O8 0.500000 0.000000 0.500000
O O9 0.628476 0.907909 0.959476
O O10 0.500000 0.500000 0.500000
O O11 0.702258 0.783857 0.179731
O O12 0.358383 0.441087 0.009422
O O13 0.104292 0.074514 0.867232
O O14 0.000000 0.000000 0.500000
O O15 0.093374 0.373329 0.992889
O O16 0.000000 0.500000 0.500000
#
# Coordination Sequence:
#
# PCOD9061700 Si02
#       7
#     2   2   2   2   2   2   2
#     4  11  24  42  79 121 152 201 271 333 391 486
#     4  11  23  45  80 117 154 203 269 333 398 477
#     4  12  24  46  80 110 145 205 268 324 394 473
#     4  12  28  51  77 116 159 210 268 335 399 472
#     4  12  26  53  77 115 166 213 263 330 414 473
#     4  12  29  50  78 116 161 210 258 329 415 478
#     4  12  22  48  77 102 151 205 256 315 394 469
#
# _framework density 26.815864000000001
#
# number of rings (size 3 to 8) (size 9 to 14) (size 15 to 20)
#    0.000    0.286    5.714    1.714    4.000    1.143 
#    0.000    1.429    0.000    0.000    0.000    0.000 
#    0.000    0.000    0.000    0.000    0.000    0.000 
#
# Total GULP energy -77962.280612 kJ/mol
# GULP energy per Si atom -5568.734329 kJ/mol
# Density = 2.675483 g / cm^3
# Si number density = 26.815864 Si / 1000 Ang^3
#
#
#
# Elastic Constant Matrix: (Units=GPa)
#
#
# Indices 1 2 3 4 5 6 
#
# 1 177.6375 32.9103 79.8066 3.1142 40.6286 1.9157
# 2 32.9103 72.7807 45.8822 17.4900 20.0627 -8.9588
# 3 79.8066 45.8822 174.3617 -0.0909 53.0914 -4.5898
# 4 3.1142 17.4900 -0.0909 43.1419 7.5038 9.9789
# 5 40.6286 20.0627 53.0914 7.5038 54.6785 -5.6919
# 6 1.9157 -8.9588 -4.5898 9.9789 -5.6919 56.3727
#
#
#
# Elastic Compliance Matrix: (Units=1/GPa)
#
#
# Indices 1 2 3 4 5 6 
#
# 1 0.007614 -0.001583 -0.002097 0.000933 -0.003291 -0.001178
# 2 -0.001583 0.019962 -0.004344 -0.008973 -0.000237 0.004437
# 3 -0.002097 -0.004344 0.009980 0.003436 -0.007129 -0.001134
# 4 0.000933 -0.008973 0.003436 0.029310 -0.005480 -0.006920
# 5 -0.003291 -0.000237 -0.007129 -0.005480 0.028847 0.003376
# 6 -0.001178 0.004437 -0.001134 -0.006920 0.003376 0.019958
#
#
# Mechanical properties :
#
#
# Convention : Reuss Voigt Hill
#
# Bulk Modulus (GPa) = 46.49231 82.44202 64.46717
# Shear Modulus (GPa) = 36.00028 48.58401 42.29214
#
# Velocity S-wave (km/s) = 3.66799 4.26110 3.97562
# Velocity P-wave (km/s) = 5.94257 7.41753 6.72064
#
# Compressibility (1/GPa) = 0.02150893
#
# Stress axis : x y z
#
# Youngs Moduli (GPa) = 131.33962 50.09529 100.19580
#
# Poissons Ratio (x) = 0.07930 0.21008
# Poissons Ratio (y) = 0.20791 0.43525
# Poissons Ratio (z) = 0.27538 0.21761
#
# Static dielectric constant tensor:
#      x y z
#    x 2.382800 0.031890 -0.199740 
#    y 0.031890 2.422620 -0.137290 
#    z -0.199740 -0.137290 2.320470 
# 
# From -- ./inp_files/354993.got.cif
#   From: 2010.05.17/outbox.cif.g08.bks.cpg/sg2_178_cif.got.tgz:354993.got - 2010.06.03 11:33:40.
