data_PCOD9061368
_publ_section_title
;
Structure prediction by ZEFSAII (Michael W. Deem and Ramdas Pophale) SiO2 
 PCOD9061368
Probable space group: P -1
;
_chemical_formula_sum "Si O2"
_cell_formula_units_Z 14
_cell_length_a 8.572214
_cell_length_b 12.252140
_cell_length_c 16.974627
_cell_angle_alpha 159.477710
_cell_angle_beta 60.194593
_cell_angle_gamma 113.796403
_cell_volume 530.934517
_symmetry_space_group_name_H-M "P -1"
_symmetry_group_IT_number 2
_symmetry_cell_setting 'triclinic'
loop_
_space_group_symop_operation_xyz
x,y,z
-x,-y,-z
loop_
_atom_site_type_symbol
_atom_site_label
_atom_site_fract_x
_atom_site_fract_y
_atom_site_fract_z
Si Si1 0.328599 0.990420 0.482225
Si Si2 0.254637 0.422591 0.028321
Si Si3 0.994653 0.887888 0.611013
Si Si4 0.386041 0.851025 0.863474
Si Si5 0.660497 0.195574 0.329958
Si Si6 0.000000 0.500000 0.000000
Si Si7 0.857640 0.521875 0.268909
Si Si8 0.000000 0.500000 0.500000
O O1 0.363567 0.665172 0.204687
O O2 0.145341 0.011956 0.599017
O O3 0.500000 0.000000 0.500000
O O4 0.266866 0.271313 0.625731
O O5 0.071368 0.471471 0.161399
O O6 0.174079 0.519667 0.029122
O O7 0.343220 0.057105 0.771157
O O8 0.852547 0.747527 0.499702
O O9 0.065563 0.639596 0.493286
O O10 0.929198 0.234462 0.898881
O O11 0.492613 0.489485 0.581385
O O12 0.355642 0.975661 0.866402
O O13 0.195671 0.814055 0.925652
O O14 0.500000 0.000000 0.000000
O O15 0.838021 0.354953 0.396852
#
# Coordination Sequence:
#
# PCOD9061368 Si02
#       8
#     2   2   2   2   2   1   2   1
#     4  11  25  45  70 107 145 190 239 303 371 440
#     4  11  24  45  75 102 142 195 251 297 367 448
#     4  11  23  45  69 102 145 189 248 298 361 446
#     4  11  28  49  71 106 155 193 241 316 380 439
#     4  11  27  48  70 111 148 191 253 304 376 449
#     4  12  20  42  70 104 142 184 242 302 354 436
#     4  11  23  47  72 102 144 199 246 299 364 448
#     4  12  24  42  76 104 142 190 244 312 352 442
#
# _framework density 26.368601000000002
#
# number of rings (size 3 to 8) (size 9 to 14) (size 15 to 20)
#    0.000    0.857    5.714    0.857    6.000    1.714 
#    2.571    1.429    0.000    0.000    0.000    0.000 
#    0.000    0.000    0.000    0.000    0.000    0.000 
#
# Total GULP energy -77968.263883 kJ/mol
# GULP energy per Si atom -5569.161706 kJ/mol
# Density = 2.630858 g / cm^3
# Si number density = 26.368601 Si / 1000 Ang^3
#
#
#
# Elastic Constant Matrix: (Units=GPa)
#
#
# Indices 1 2 3 4 5 6 
#
# 1 171.6382 39.6810 33.8714 -3.0480 36.9273 -31.1193
# 2 39.6810 114.6159 5.3493 13.7770 4.1506 -23.7102
# 3 33.8714 5.3493 44.4674 -7.6128 14.2543 -7.0166
# 4 -3.0480 13.7770 -7.6128 35.9238 -6.2965 2.2146
# 5 36.9273 4.1506 14.2543 -6.2965 64.3089 -0.8586
# 6 -31.1193 -23.7102 -7.0166 2.2146 -0.8586 53.5844
#
#
#
# Elastic Compliance Matrix: (Units=1/GPa)
#
#
# Indices 1 2 3 4 5 6 
#
# 1 0.008620 -0.001847 -0.004642 -0.000427 -0.003796 0.003538
# 2 -0.001847 0.010704 -0.000043 -0.004510 -0.000011 0.003844
# 3 -0.004642 -0.000043 0.027962 0.004974 -0.003034 0.000693
# 4 -0.000427 -0.004510 0.004974 0.031189 0.002450 -0.002842
# 5 -0.003796 -0.000011 -0.003034 0.002450 0.018611 -0.002410
# 6 0.003538 0.003844 0.000693 -0.002842 -0.002410 0.022587
#
#
# Mechanical properties :
#
#
# Convention : Reuss Voigt Hill
#
# Bulk Modulus (GPa) = 29.21966 54.28054 41.75010
# Shear Modulus (GPa) = 34.68777 47.55142 41.11960
#
# Velocity S-wave (km/s) = 3.63091 4.25118 3.95323
# Velocity P-wave (km/s) = 5.35568 6.68780 6.05846
#
# Compressibility (1/GPa) = 0.03422353
#
# Stress axis : x y z
#
# Youngs Moduli (GPa) = 116.01268 93.42361 35.76224
#
# Poissons Ratio (x) = 0.17254 0.16600
# Poissons Ratio (y) = 0.21426 0.00153
# Poissons Ratio (z) = 0.53849 0.00399
#
# Static dielectric constant tensor:
#      x y z
#    x 1.959720 0.064910 0.019660 
#    y 0.064910 2.080180 0.143290 
#    z 0.019660 0.143290 1.393140 
# 
# From -- ./inp_files/560231.got.cif
#   From: 2010.05.17/outbox.cif.g08.bks.cpg/sg2_281_cif.got.tgz:560231.got - 2010.06.03 11:33:40.
