data_PCOD9061372
_publ_section_title
;
Structure prediction by ZEFSAII (Michael W. Deem and Ramdas Pophale) SiO2 
 PCOD9061372
Probable space group: P -1
;
_chemical_formula_sum "Si O2"
_cell_formula_units_Z 16
_cell_length_a 13.077372
_cell_length_b 8.835908
_cell_length_c 18.993207
_cell_angle_alpha 126.118519
_cell_angle_beta 43.100536
_cell_angle_gamma 149.460192
_cell_volume 757.066577
_symmetry_space_group_name_H-M "P -1"
_symmetry_group_IT_number 2
_symmetry_cell_setting 'triclinic'
loop_
_space_group_symop_operation_xyz
x,y,z
-x,-y,-z
loop_
_atom_site_type_symbol
_atom_site_label
_atom_site_fract_x
_atom_site_fract_y
_atom_site_fract_z
Si Si1 0.240808 0.342128 0.945402
Si Si2 0.961991 0.665391 0.598032
Si Si3 0.429691 0.662480 0.179643
Si Si4 0.386163 0.621700 0.802807
Si Si5 0.720962 0.286420 0.869496
Si Si6 0.238430 0.682377 0.759283
Si Si7 0.487447 0.283627 0.482594
Si Si8 0.768495 0.701345 0.575493
O O1 0.468339 0.442773 0.884571
O O2 0.250833 0.376080 0.864996
O O3 0.271780 0.580006 0.027460
O O4 0.000000 0.000000 0.000000
O O5 0.000000 0.500000 0.500000
O O6 0.796353 0.505838 0.705053
O O7 0.837866 0.675853 0.606206
O O8 0.225854 0.001168 0.567547
O O9 0.344700 0.628177 0.134780
O O10 0.648128 0.011792 0.188373
O O11 0.221754 0.543576 0.801268
O O12 0.579051 0.678664 0.681875
O O13 0.534713 0.935831 0.851948
O O14 0.988411 0.460900 0.783598
O O15 0.430179 0.778656 0.635951
O O16 0.500000 0.500000 0.500000
O O17 0.659606 0.444178 0.506613
O O18 0.000000 0.000000 0.500000
#
# Coordination Sequence:
#
# PCOD9061372 Si02
#       8
#     2   2   2   2   2   2   2   2
#     4  12  25  50  72 100 137 179 234 295 348 404
#     4  12  26  43  67 103 143 181 227 288 342 412
#     4  11  25  47  69 101 142 179 228 288 350 413
#     4  11  25  45  70 102 139 178 232 283 345 414
#     4  11  26  46  73  97 134 187 226 289 348 407
#     4  11  23  45  69 103 139 179 231 278 342 419
#     4  12  24  40  69 102 137 185 229 268 342 413
#     4  12  24  43  70 101 143 185 227 282 338 416
#
# _framework density 21.134202999999999
#
# number of rings (size 3 to 8) (size 9 to 14) (size 15 to 20)
#    0.000    0.500    6.250    1.500    3.500    3.000 
#    4.500    0.000    0.000    0.000    0.000    0.000 
#    0.000    0.000    0.000    0.000    0.000    0.000 
#
# Total GULP energy -89423.780176 kJ/mol
# GULP energy per Si atom -5588.986261 kJ/mol
# Density = 2.108610 g / cm^3
# Si number density = 21.134203 Si / 1000 Ang^3
#
#
#
# Elastic Constant Matrix: (Units=GPa)
#
#
# Indices 1 2 3 4 5 6 
#
# 1 58.6654 7.9656 8.6377 -8.7867 2.3876 9.3468
# 2 7.9656 58.9207 1.8545 -10.9291 7.1198 12.3192
# 3 8.6377 1.8545 92.0615 -3.8947 4.4977 -9.4881
# 4 -8.7867 -10.9291 -3.8947 30.6389 -4.6078 0.7610
# 5 2.3876 7.1198 4.4977 -4.6078 42.8429 3.4851
# 6 9.3468 12.3192 -9.4881 0.7610 3.4851 33.9016
#
#
#
# Elastic Compliance Matrix: (Units=1/GPa)
#
#
# Indices 1 2 3 4 5 6 
#
# 1 0.019135 -0.000335 -0.002188 0.005277 0.000267 -0.005912
# 2 -0.000335 0.020087 -0.000750 0.006871 -0.001902 -0.007375
# 3 -0.002188 -0.000750 0.011595 0.000280 -0.001286 0.004247
# 4 0.005277 0.006871 0.000280 0.037205 0.002944 -0.005011
# 5 0.000267 -0.001902 -0.001286 0.002944 0.024281 -0.002305
# 6 -0.005912 -0.007375 0.004247 -0.005011 -0.002305 0.035345
#
#
# Mechanical properties :
#
#
# Convention : Reuss Voigt Hill
#
# Bulk Modulus (GPa) = 22.58794 27.39590 24.99192
# Shear Modulus (GPa) = 29.59423 34.22264 31.90843
#
# Velocity S-wave (km/s) = 3.74612 4.02842 3.88983
# Velocity P-wave (km/s) = 5.42423 5.88460 5.65910
#
# Compressibility (1/GPa) = 0.04427141
#
# Stress axis : x y z
#
# Youngs Moduli (GPa) = 52.26068 49.78270 86.24387
#
# Poissons Ratio (x) = 0.01670 0.18868
# Poissons Ratio (y) = 0.01753 0.06466
# Poissons Ratio (z) = 0.11433 0.03732
#
# Static dielectric constant tensor:
#      x y z
#    x 1.748620 -0.014870 0.002220 
#    y -0.014870 1.750770 -0.055070 
#    z 0.002220 -0.055070 1.818330 
# 
# From -- ./inp_files/242033.got.cif
#   From: 2010.05.17/outbox.cif.g08.bks.cpg/sg2_122_cif.got.tgz:242033.got - 2010.06.03 11:33:40.
