data_PCOD9061537
_publ_section_title
;
Structure prediction by ZEFSAII (Michael W. Deem and Ramdas Pophale) SiO2 
 PCOD9061537
Probable space group: P -1
;
_chemical_formula_sum "Si O2"
_cell_formula_units_Z 12
_cell_length_a 11.804710
_cell_length_b 8.531452
_cell_length_c 11.835321
_cell_angle_alpha 38.904868
_cell_angle_beta 140.302877
_cell_angle_gamma 123.661078
_cell_volume 475.190666
_symmetry_space_group_name_H-M "P -1"
_symmetry_group_IT_number 2
_symmetry_cell_setting 'triclinic'
loop_
_space_group_symop_operation_xyz
x,y,z
-x,-y,-z
loop_
_atom_site_type_symbol
_atom_site_label
_atom_site_fract_x
_atom_site_fract_y
_atom_site_fract_z
Si Si1 0.262007 0.951120 0.433802
Si Si2 0.379088 0.255086 0.793693
Si Si3 0.375523 0.223962 0.063175
Si Si4 0.225553 0.712319 0.301938
Si Si5 0.838368 0.562126 0.027563
Si Si6 0.062605 0.955116 0.700047
O O1 0.438606 0.837005 0.695051
O O2 0.103827 0.022633 0.358977
O O3 0.197059 0.798141 0.363101
O O4 0.292401 0.215979 0.252878
O O5 0.368498 0.467322 0.569485
O O6 0.181581 0.172238 0.697454
O O7 0.500000 0.000000 0.000000
O O8 0.419237 0.313519 0.921210
O O9 0.289420 0.954456 0.151366
O O10 0.237738 0.427906 0.908680
O O11 0.041859 0.634471 0.152116
O O12 0.834540 0.322543 0.078933
O O13 0.000000 0.000000 0.500000
#
# Coordination Sequence:
#
# PCOD9061537 Si02
#       6
#     2   2   2   2   2   2
#     4  11  25  45  71 101 135 183 224 281 340 401
#     4  12  28  45  70 103 139 179 227 284 340 404
#     4  11  26  46  72 101 138 181 227 280 338 404
#     4  11  24  46  73 100 135 182 231 276 340 403
#     4  11  23  45  72  99 135 180 228 279 337 404
#     4  12  25  44  67 103 139 174 228 281 342 400
#
# _framework density 25.253021
#
# number of rings (size 3 to 8) (size 9 to 14) (size 15 to 20)
#    0.000    0.667    1.667    7.500    7.000    2.667 
#    0.000    0.000    0.000    0.000    0.000    0.000 
#    0.000    0.000    0.000    0.000    0.000    0.000 
#
# Total GULP energy -67197.456610 kJ/mol
# GULP energy per Si atom -5599.788051 kJ/mol
# Density = 2.519554 g / cm^3
# Si number density = 25.253021 Si / 1000 Ang^3
#
#
#
# Elastic Constant Matrix: (Units=GPa)
#
#
# Indices 1 2 3 4 5 6 
#
# 1 58.3258 -18.9787 -5.8578 -8.7661 3.4440 2.3358
# 2 -18.9787 92.0993 24.0109 -10.6942 -0.3792 21.3582
# 3 -5.8578 24.0109 111.8923 -2.6566 -4.6836 4.7426
# 4 -8.7661 -10.6942 -2.6566 43.9368 -11.8641 4.0022
# 5 3.4440 -0.3792 -4.6836 -11.8641 33.1504 -2.9564
# 6 2.3358 21.3582 4.7426 4.0022 -2.9564 25.6605
#
#
#
# Elastic Compliance Matrix: (Units=1/GPa)
#
#
# Indices 1 2 3 4 5 6 
#
# 1 0.020835 0.007096 0.000079 0.006560 -0.000518 -0.008901
# 2 0.007096 0.017451 -0.002530 0.007002 0.000204 -0.015772
# 3 0.000079 -0.002530 0.009534 0.000332 0.001469 0.000454
# 4 0.006560 0.007002 0.000332 0.029128 0.008979 -0.009995
# 5 -0.000518 0.000204 0.001469 0.008979 0.033830 0.002103
# 6 -0.008901 -0.015772 0.000454 -0.009995 0.002103 0.054626
#
#
# Mechanical properties :
#
#
# Convention : Reuss Voigt Hill
#
# Bulk Modulus (GPa) = 17.50941 28.96291 23.23616
# Shear Modulus (GPa) = 28.54675 38.09240 33.31958
#
# Velocity S-wave (km/s) = 3.36583 3.88806 3.63634
# Velocity P-wave (km/s) = 4.69614 5.62584 5.18188
#
# Compressibility (1/GPa) = 0.05711215
#
# Stress axis : x y z
#
# Youngs Moduli (GPa) = 47.99593 57.30188 104.88370
#
# Poissons Ratio (x) = -0.40664 -0.00831
# Poissons Ratio (y) = -0.34060 0.26536
# Poissons Ratio (z) = -0.00380 0.14498
#
# Static dielectric constant tensor:
#      x y z
#    x 1.379160 0.687800 -0.054510 
#    y 0.687800 1.407490 -0.111240 
#    z -0.054510 -0.111240 2.079860 
# 
# From -- ./inp_files/155712.got.cif
#   From: 2010.05.17/outbox.cif.g08.bks.cpg/sg2_78_cif.got.tgz:155712.got - 2010.06.03 11:33:40.
