data_PCOD9061832
_publ_section_title
;
Structure prediction by ZEFSAII (Michael W. Deem and Ramdas Pophale) SiO2 
 PCOD9061832
Probable space group: P -1
;
_chemical_formula_sum "Si O2"
_cell_formula_units_Z 16
_cell_length_a 11.603022
_cell_length_b 9.138200
_cell_length_c 8.908055
_cell_angle_alpha 55.837659
_cell_angle_beta 86.481892
_cell_angle_gamma 85.021298
_cell_volume 778.509064
_symmetry_space_group_name_H-M "P -1"
_symmetry_group_IT_number 2
_symmetry_cell_setting 'triclinic'
loop_
_space_group_symop_operation_xyz
x,y,z
-x,-y,-z
loop_
_atom_site_type_symbol
_atom_site_label
_atom_site_fract_x
_atom_site_fract_y
_atom_site_fract_z
Si Si1 0.765901 0.761307 0.516843
Si Si2 0.711935 0.779518 0.849341
Si Si3 0.531139 0.322745 0.006873
Si Si4 0.879299 0.441292 0.108457
Si Si5 0.800878 0.131000 0.770209
Si Si6 0.023893 0.648949 0.533162
Si Si7 0.382371 0.556872 0.390515
Si Si8 0.229522 0.874158 0.865094
O O1 0.704149 0.802668 0.656852
O O2 0.700604 0.604888 0.532199
O O3 0.898400 0.702818 0.579910
O O4 0.774683 0.928388 0.311780
O O5 0.778186 0.937576 0.824483
O O6 0.584279 0.781580 0.927744
O O7 0.779596 0.591004 0.987714
O O8 0.573333 0.384481 0.807883
O O9 0.500000 0.500000 0.000000
O O10 0.639831 0.205619 0.128349
O O11 0.894028 0.419093 0.298545
O O12 0.850778 0.255329 0.143437
O O13 0.000000 0.500000 0.000000
O O14 0.917366 0.196465 0.650463
O O15 0.697907 0.274241 0.642796
O O16 0.800044 0.133282 0.950742
O O17 0.000000 0.500000 0.500000
O O18 0.500000 0.500000 0.500000
#
# Coordination Sequence:
#
# PCOD9061832 Si02
#       8
#     2   2   2   2   2   2   2   2
#     4  12  26  47  69 101 141 179 228 283 337 403
#     4  12  26  45  72 104 135 182 228 280 343 404
#     4  11  23  46  71  96 139 179 226 279 339 406
#     4  12  25  45  72  97 139 180 226 281 341 399
#     4  11  27  45  68 104 140 174 233 280 337 408
#     4  12  26  46  72  99 139 182 228 281 336 404
#     4  11  26  45  69 100 139 178 227 283 339 401
#     4  11  27  46  68 103 139 179 227 284 338 403
#
# _framework density 20.552104
#
# number of rings (size 3 to 8) (size 9 to 14) (size 15 to 20)
#    0.000    0.500    5.000    2.250    8.750    4.000 
#    0.000    0.000    0.000    0.000    0.000    0.000 
#    0.000    0.000    0.000    0.000    0.000    0.000 
#
# Total GULP energy -89503.429651 kJ/mol
# GULP energy per Si atom -5593.964353 kJ/mol
# Density = 2.050533 g / cm^3
# Si number density = 20.552104 Si / 1000 Ang^3
#
#
#
# Elastic Constant Matrix: (Units=GPa)
#
#
# Indices 1 2 3 4 5 6 
#
# 1 76.8505 -14.0918 27.0041 -5.8624 -18.0045 8.9631
# 2 -14.0918 58.9206 20.9786 -9.1108 -8.5118 16.0744
# 3 27.0041 20.9786 107.4984 -10.4935 -7.6555 14.8095
# 4 -5.8624 -9.1108 -10.4935 25.3236 11.1550 -8.6781
# 5 -18.0045 -8.5118 -7.6555 11.1550 44.5892 -2.3521
# 6 8.9631 16.0744 14.8095 -8.6781 -2.3521 31.6365
#
#
#
# Elastic Compliance Matrix: (Units=1/GPa)
#
#
# Indices 1 2 3 4 5 6 
#
# 1 0.019456 0.009709 -0.005186 -0.000492 0.008546 -0.007517
# 2 0.009709 0.025794 -0.005071 0.002204 0.006770 -0.012375
# 3 -0.005186 -0.005071 0.011836 0.002265 -0.001649 -0.000996
# 4 -0.000492 0.002204 0.002265 0.049762 -0.011270 0.010772
# 5 0.008546 0.006770 -0.001649 -0.011270 0.029390 -0.005995
# 6 -0.007517 -0.012375 -0.000996 0.010772 -0.005995 0.043002
#
#
# Mechanical properties :
#
#
# Convention : Reuss Voigt Hill
#
# Bulk Modulus (GPa) = 17.86011 34.56124 26.21068
# Shear Modulus (GPa) = 25.12572 34.26844 29.69708
#
# Velocity S-wave (km/s) = 3.50027 4.08780 3.80539
# Velocity P-wave (km/s) = 5.00449 6.25564 5.66472
#
# Compressibility (1/GPa) = 0.05599069
#
# Stress axis : x y z
#
# Youngs Moduli (GPa) = 51.39756 38.76820 84.49056
#
# Poissons Ratio (x) = -0.37640 0.43817
# Poissons Ratio (y) = -0.49902 0.42843
# Poissons Ratio (z) = 0.26655 0.19658
#
# Static dielectric constant tensor:
#      x y z
#    x 1.755940 -0.009800 -0.001850 
#    y -0.009800 1.711600 0.000210 
#    z -0.001850 0.000210 1.716030 
# 
# From -- ./inp_files/179900.got.cif
#   From: 2010.05.17/outbox.cif.g08.bks.cpg/sg2_90_cif.got.tgz:179900.got - 2010.06.03 11:33:40.
