data_PCOD9061503
_publ_section_title
;
Structure prediction by ZEFSAII (Michael W. Deem and Ramdas Pophale) SiO2 
 PCOD9061503
Probable space group: P -1
;
_chemical_formula_sum "Si O2"
_cell_formula_units_Z 16
_cell_length_a 17.545841
_cell_length_b 9.602917
_cell_length_c 11.875973
_cell_angle_alpha 127.822090
_cell_angle_beta 31.233003
_cell_angle_gamma 120.570528
_cell_volume 818.980029
_symmetry_space_group_name_H-M "P -1"
_symmetry_group_IT_number 2
_symmetry_cell_setting 'triclinic'
loop_
_space_group_symop_operation_xyz
x,y,z
-x,-y,-z
loop_
_atom_site_type_symbol
_atom_site_label
_atom_site_fract_x
_atom_site_fract_y
_atom_site_fract_z
Si Si1 0.073254 0.083355 0.056923
Si Si2 0.956236 0.450427 0.404777
Si Si3 0.407769 0.683101 0.701910
Si Si4 0.422278 0.020423 0.228944
Si Si5 0.618494 0.337119 0.753227
Si Si6 0.896470 0.973965 0.441415
Si Si7 0.097395 0.742385 0.229502
Si Si8 0.374436 0.858980 0.589688
O O1 0.068107 0.291433 0.146794
O O2 0.976594 0.063566 0.281047
O O3 0.225184 0.978243 0.831688
O O4 0.000000 0.000000 0.000000
O O5 0.786074 0.397207 0.589949
O O6 0.000000 0.500000 0.500000
O O7 0.989323 0.610814 0.360966
O O8 0.500000 0.500000 0.500000
O O9 0.493018 0.840764 0.733464
O O10 0.381427 0.744880 0.637599
O O11 0.251666 0.663046 0.950848
O O12 0.256291 0.089601 0.445816
O O13 0.413100 0.829901 0.208219
O O14 0.500000 0.000000 0.000000
O O15 0.611134 0.263411 0.599078
O O16 0.500000 0.500000 0.000000
O O17 0.008124 0.829472 0.281879
O O18 0.866531 0.111160 0.649241
O O19 0.500000 0.000000 0.500000
#
# Coordination Sequence:
#
# PCOD9061503 Si02
#       8
#     2   2   2   2   2   2   2   2
#     4  12  24  47  72 101 143 185 237 292 352 421
#     4  12  26  44  73 107 141 184 238 293 352 422
#     4  12  29  47  71 107 145 190 235 294 364 423
#     4  12  25  47  73 103 145 188 236 294 356 425
#     4  12  29  47  73 109 142 188 242 292 358 430
#     4  11  23  45  72 100 140 184 236 286 353 420
#     4  11  25  44  71 105 138 186 235 289 352 420
#     4  12  27  49  72 104 145 192 238 295 360 425
#
# _framework density 19.536494000000001
#
# number of rings (size 3 to 8) (size 9 to 14) (size 15 to 20)
#    0.000    0.250    7.500    0.000    7.000    0.000 
#    0.000    1.875    0.000    0.000    0.000    0.000 
#    0.000    0.000    0.000    0.000    0.000    0.000 
#
# Total GULP energy -89465.353744 kJ/mol
# GULP energy per Si atom -5591.584609 kJ/mol
# Density = 1.949203 g / cm^3
# Si number density = 19.536494 Si / 1000 Ang^3
#
#
#
# Elastic Constant Matrix: (Units=GPa)
#
#
# Indices 1 2 3 4 5 6 
#
# 1 134.7209 42.9966 49.5423 0.4939 -7.3404 9.1078
# 2 42.9966 100.4512 30.8803 -4.6134 -13.6437 6.4110
# 3 49.5423 30.8803 134.5275 7.7513 -23.2856 10.3674
# 4 0.4939 -4.6134 7.7513 39.5934 -1.9704 1.0700
# 5 -7.3404 -13.6437 -23.2856 -1.9704 33.9995 4.8171
# 6 9.1078 6.4110 10.3674 1.0700 4.8171 30.7028
#
#
#
# Elastic Compliance Matrix: (Units=1/GPa)
#
#
# Indices 1 2 3 4 5 6 
#
# 1 0.009534 -0.003279 -0.002869 0.000034 -0.001078 -0.001007
# 2 -0.003279 0.012400 -0.000892 0.001917 0.004054 -0.002018
# 3 -0.002869 -0.000892 0.010145 -0.001648 0.006346 -0.003326
# 4 0.000034 0.001917 -0.001648 0.025892 0.001284 -0.000958
# 5 -0.001078 0.004054 0.006346 0.001284 0.036421 -0.008429
# 6 -0.001007 -0.002018 -0.003326 -0.000958 -0.008429 0.035769
#
#
# Mechanical properties :
#
#
# Convention : Reuss Voigt Hill
#
# Bulk Modulus (GPa) = 55.56235 68.50422 62.03328
# Shear Modulus (GPa) = 33.27968 37.27784 35.27876
#
# Velocity S-wave (km/s) = 4.13178 4.37293 4.25407
# Velocity P-wave (km/s) = 7.15990 7.78702 7.48003
#
# Compressibility (1/GPa) = 0.01799780
#
# Stress axis : x y z
#
# Youngs Moduli (GPa) = 104.89147 80.64219 98.57442
#
# Poissons Ratio (x) = 0.26445 0.28283
# Poissons Ratio (y) = 0.34397 0.08792
# Poissons Ratio (z) = 0.30096 0.07193
#
# Static dielectric constant tensor:
#      x y z
#    x 1.678540 -0.025220 -0.030800 
#    y -0.025220 1.802940 0.025400 
#    z -0.030800 0.025400 1.672450 
# 
# From -- ./inp_files/206977.got.cif
#   From: 2010.05.17/outbox.cif.g08.bks.cpg/sg2_104_cif.got.tgz:206977.got - 2010.06.03 11:33:40.
