data_PCOD9061241
_publ_section_title
;
Structure prediction by ZEFSAII (Michael W. Deem and Ramdas Pophale) SiO2 
 PCOD9061241
Probable space group: P -1
;
_chemical_formula_sum "Si O2"
_cell_formula_units_Z 10
_cell_length_a 6.995722
_cell_length_b 9.793210
_cell_length_c 8.716260
_cell_angle_alpha 66.184906
_cell_angle_beta 81.850591
_cell_angle_gamma 50.930619
_cell_volume 418.769386
_symmetry_space_group_name_H-M "P -1"
_symmetry_group_IT_number 2
_symmetry_cell_setting 'triclinic'
loop_
_space_group_symop_operation_xyz
x,y,z
-x,-y,-z
loop_
_atom_site_type_symbol
_atom_site_label
_atom_site_fract_x
_atom_site_fract_y
_atom_site_fract_z
Si Si1 0.977544 0.121022 0.279374
Si Si2 0.258667 0.190910 0.017395
Si Si3 0.070423 0.561530 0.318336
Si Si4 0.496408 0.156312 0.329781
Si Si5 0.233969 0.711531 0.451777
O O1 0.226254 0.895956 0.366712
O O2 0.096012 0.752337 0.614324
O O3 0.029451 0.196710 0.093436
O O4 0.762247 0.103318 0.295393
O O5 0.361391 0.196990 0.164608
O O6 0.131651 0.356507 0.829677
O O7 0.500000 0.000000 0.000000
O O8 0.333377 0.366651 0.327773
O O9 0.090950 0.716739 0.316587
O O10 0.000000 0.500000 0.500000
O O11 0.500000 0.000000 0.500000
O O12 0.500000 0.500000 0.500000
#
# Coordination Sequence:
#
# PCOD9061241 Si02
#       5
#     2   2   2   2   2
#     4  11  25  48  74 109 151 189 251 307 367 442
#     4  12  28  47  72 109 150 198 249 310 367 439
#     4  12  26  46  73 107 145 197 252 303 374 441
#     4  12  25  49  76 108 150 194 246 310 370 445
#     4  11  23  44  76 107 142 195 241 303 373 441
#
# _framework density 23.879490000000001
#
# number of rings (size 3 to 8) (size 9 to 14) (size 15 to 20)
#    0.000    0.400    2.000    7.800    2.800    4.000 
#    0.000    0.000    0.000    0.000    0.000    0.000 
#    0.000    0.000    0.000    0.000    0.000    0.000 
#
# Total GULP energy -55874.499817 kJ/mol
# GULP energy per Si atom -5587.449982 kJ/mol
# Density = 2.382514 g / cm^3
# Si number density = 23.879490 Si / 1000 Ang^3
#
#
#
# Elastic Constant Matrix: (Units=GPa)
#
#
# Indices 1 2 3 4 5 6 
#
# 1 110.1758 36.8150 45.1076 8.7807 16.9220 3.4022
# 2 36.8150 200.3780 42.5612 7.4414 8.1878 23.1051
# 3 45.1076 42.5612 163.2079 2.5549 15.9980 -0.8438
# 4 8.7807 7.4414 2.5549 41.7081 -9.0590 6.8286
# 5 16.9220 8.1878 15.9980 -9.0590 32.3901 4.9619
# 6 3.4022 23.1051 -0.8438 6.8286 4.9619 44.7613
#
#
#
# Elastic Compliance Matrix: (Units=1/GPa)
#
#
# Indices 1 2 3 4 5 6 
#
# 1 0.011575 -0.001406 -0.002214 -0.003448 -0.005710 0.000963
# 2 -0.001406 0.005830 -0.001169 -0.000139 0.000248 -0.002931
# 3 -0.002214 -0.001169 0.007303 -0.000522 -0.002495 0.001266
# 4 -0.003448 -0.000139 -0.000522 0.027918 0.010687 -0.005120
# 5 -0.005710 0.000248 -0.002495 0.010687 0.038886 -0.005682
# 6 0.000963 -0.002931 0.001266 -0.005120 -0.005682 0.025215
#
#
# Mechanical properties :
#
#
# Convention : Reuss Voigt Hill
#
# Bulk Modulus (GPa) = 66.09258 80.30327 73.19792
# Shear Modulus (GPa) = 38.06665 47.05710 42.56188
#
# Velocity S-wave (km/s) = 3.99697 4.44397 4.22638
# Velocity P-wave (km/s) = 7.00276 7.74812 7.38485
#
# Compressibility (1/GPa) = 0.01513029
#
# Stress axis : x y z
#
# Youngs Moduli (GPa) = 86.39551 171.52079 136.92794
#
# Poissons Ratio (x) = 0.24117 0.30311
# Poissons Ratio (y) = 0.12148 0.16008
# Poissons Ratio (z) = 0.19125 0.20053
#
# Static dielectric constant tensor:
#      x y z
#    x 2.206140 0.084890 -0.008570 
#    y 0.084890 2.183100 -0.071720 
#    z -0.008570 -0.071720 1.993910 
# 
# From -- ./inp_files/199297.got.cif
#   From: 2010.05.17/outbox.cif.g08.bks.cpg/sg2_100_cif.got.tgz:199297.got - 2010.06.03 11:33:40.
