data_PCOD9061353
_publ_section_title
;
Structure prediction by ZEFSAII (Michael W. Deem and Ramdas Pophale) SiO2 
 PCOD9061353
Probable space group: P -1
;
_chemical_formula_sum "Si O2"
_cell_formula_units_Z 12
_cell_length_a 12.363605
_cell_length_b 6.847910
_cell_length_c 15.215374
_cell_angle_alpha 113.542497
_cell_angle_beta 151.457679
_cell_angle_gamma 61.856162
_cell_volume 542.399864
_symmetry_space_group_name_H-M "P -1"
_symmetry_group_IT_number 2
_symmetry_cell_setting 'triclinic'
loop_
_space_group_symop_operation_xyz
x,y,z
-x,-y,-z
loop_
_atom_site_type_symbol
_atom_site_label
_atom_site_fract_x
_atom_site_fract_y
_atom_site_fract_z
Si Si1 0.542038 0.478500 0.667510
Si Si2 0.061213 0.728046 0.596267
Si Si3 0.164684 0.789095 0.030101
Si Si4 0.742205 0.070078 0.073790
Si Si5 0.101110 0.589767 0.249779
Si Si6 0.643889 0.092288 0.299814
O O1 0.605328 0.311059 0.763857
O O2 0.287660 0.511883 0.448016
O O3 0.740299 0.398818 0.720450
O O4 0.544348 0.721876 0.746893
O O5 0.209939 0.753839 0.792345
O O6 0.205582 0.778449 0.625086
O O7 0.000000 0.500000 0.500000
O O8 0.816772 0.920859 0.455803
O O9 0.218204 0.857593 0.983630
O O10 0.035997 0.594212 0.896540
O O11 0.000000 0.000000 0.000000
O O12 0.922048 0.830355 0.180408
O O13 0.482791 0.035630 0.880287
#
# Coordination Sequence:
#
# PCOD9061353 Si02
#       6
#     2   2   2   2   2   2
#     4  11  23  45  69 100 142 185 217 283 341 411
#     4  11  28  48  70 101 134 179 242 292 337 401
#     4  12  25  40  69 109 144 175 228 279 339 418
#     4  12  25  45  74 103 137 184 229 282 351 410
#     4  11  24  44  70 101 144 182 226 273 350 416
#     4  11  25  46  73  96 139 182 228 286 348 405
#
# _framework density 22.123901
#
# number of rings (size 3 to 8) (size 9 to 14) (size 15 to 20)
#    0.000    0.667    5.000    2.000    4.667    1.333 
#    0.000    0.000    0.000    0.000    0.000    0.000 
#    0.000    0.000    0.000    0.000    0.000    0.000 
#
# Total GULP energy -67197.521943 kJ/mol
# GULP energy per Si atom -5599.793495 kJ/mol
# Density = 2.207355 g / cm^3
# Si number density = 22.123901 Si / 1000 Ang^3
#
#
#
# Elastic Constant Matrix: (Units=GPa)
#
#
# Indices 1 2 3 4 5 6 
#
# 1 27.0478 19.1448 4.7964 8.2405 -12.7417 10.7990
# 2 19.1448 89.9400 40.0339 10.8842 -13.8416 15.9468
# 3 4.7964 40.0339 123.3077 10.3345 -18.3795 16.5145
# 4 8.2405 10.8842 10.3345 45.8993 0.6711 -5.8636
# 5 -12.7417 -13.8416 -18.3795 0.6711 35.6787 2.4889
# 6 10.7990 15.9468 16.5145 -5.8636 2.4889 30.3926
#
#
#
# Elastic Compliance Matrix: (Units=1/GPa)
#
#
# Indices 1 2 3 4 5 6 
#
# 1 0.075191 -0.007205 0.010509 -0.019097 0.032270 -0.034974
# 2 -0.007205 0.015611 -0.003779 -0.002113 0.001865 -0.004138
# 3 0.010509 -0.003779 0.012097 -0.005138 0.009319 -0.010079
# 4 -0.019097 -0.002113 -0.005138 0.029262 -0.012045 0.017318
# 5 0.032270 0.001865 0.009319 -0.012045 0.046955 -0.023677
# 6 -0.034974 -0.004138 -0.010079 0.017318 -0.023677 0.058258
#
#
# Mechanical properties :
#
#
# Convention : Reuss Voigt Hill
#
# Bulk Modulus (GPa) = 9.80870 40.91616 25.36243
# Shear Modulus (GPa) = 18.36172 34.14882 26.25527
#
# Velocity S-wave (km/s) = 2.88401 3.93304 3.44864
# Velocity P-wave (km/s) = 3.94121 6.25774 5.22936
#
# Compressibility (1/GPa) = 0.10195028
#
# Stress axis : x y z
#
# Youngs Moduli (GPa) = 13.29944 64.05924 82.66273
#
# Poissons Ratio (x) = 0.46152 -0.86869
# Poissons Ratio (y) = 0.09582 0.31235
# Poissons Ratio (z) = -0.13976 0.24206
#
# Static dielectric constant tensor:
#      x y z
#    x 1.811040 -0.019880 -0.005780 
#    y -0.019880 1.787710 -0.001700 
#    z -0.005780 -0.001700 1.831350 
# 
# From -- ./inp_files/27998.got.cif
#   From: 2010.05.17/outbox.cif.g08.bks.cpg/sg2_14_cif.got.tgz:27998.got - 2010.06.03 11:33:40.
