data_PCOD9061606
_publ_section_title
;
Structure prediction by ZEFSAII (Michael W. Deem and Ramdas Pophale) SiO2 
 PCOD9061606
Probable space group: P -1
;
_chemical_formula_sum "Si O2"
_cell_formula_units_Z 16
_cell_length_a 9.333329
_cell_length_b 15.006215
_cell_length_c 12.562812
_cell_angle_alpha 70.053930
_cell_angle_beta 131.878385
_cell_angle_gamma 70.060064
_cell_volume 717.685914
_symmetry_space_group_name_H-M "P -1"
_symmetry_group_IT_number 2
_symmetry_cell_setting 'triclinic'
loop_
_space_group_symop_operation_xyz
x,y,z
-x,-y,-z
loop_
_atom_site_type_symbol
_atom_site_label
_atom_site_fract_x
_atom_site_fract_y
_atom_site_fract_z
Si Si1 0.417858 0.244673 0.958972
Si Si2 0.637518 0.770299 0.686892
Si Si3 0.554560 0.367948 0.101497
Si Si4 0.372817 0.436223 0.224801
Si Si5 0.295782 0.995878 0.623660
Si Si6 0.394386 0.937898 0.287438
Si Si7 0.313286 0.534290 0.497372
Si Si8 0.628277 0.206155 0.842868
O O1 0.535931 0.202050 0.913838
O O2 0.070939 0.330822 0.764690
O O3 0.385873 0.365596 0.934484
O O4 0.666784 0.090845 0.224306
O O5 0.574230 0.688422 0.648514
O O6 0.383157 0.906475 0.594314
O O7 0.616236 0.843209 0.542351
O O8 0.000015 0.622526 0.979709
O O9 0.411694 0.403991 0.132051
O O10 0.500000 0.500000 0.000000
O O11 0.939107 0.186655 0.365705
O O12 0.622770 0.413241 0.401711
O O13 0.557679 0.976919 0.770411
O O14 0.481436 0.824214 0.289657
O O15 0.020967 0.065651 0.085768
O O16 0.500000 0.500000 0.500000
O O17 0.464136 0.373552 0.673145
#
# Coordination Sequence:
#
# PCOD9061606 Si02
#       8
#     2   2   2   2   2   2   2   2
#     4  12  27  48  76 104 155 194 242 313 367 449
#     4  11  23  45  74 105 144 192 252 311 364 438
#     4  12  27  46  75 110 148 192 249 307 371 438
#     4  11  25  42  73 108 142 189 251 300 372 435
#     4  12  26  46  76 111 148 192 250 307 380 434
#     4  11  25  43  72 101 145 195 249 302 365 446
#     4  12  26  47  74 105 153 197 247 300 378 443
#     4  11  26  45  68 106 149 196 249 297 375 440
#
# _framework density 22.293875
#
# number of rings (size 3 to 8) (size 9 to 14) (size 15 to 20)
#    0.000    0.500    1.250    6.375    8.750    1.500 
#    0.000    0.000    0.000    0.000    0.000    0.000 
#    0.000    0.000    0.000    0.000    0.000    0.000 
#
# Total GULP energy -89656.334474 kJ/mol
# GULP energy per Si atom -5603.520905 kJ/mol
# Density = 2.224313 g / cm^3
# Si number density = 22.293875 Si / 1000 Ang^3
#
#
#
# Elastic Constant Matrix: (Units=GPa)
#
#
# Indices 1 2 3 4 5 6 
#
# 1 133.2175 37.9278 34.2620 -4.7628 -8.4880 -4.6416
# 2 37.9278 95.7010 51.3323 -3.6071 2.6957 6.2028
# 3 34.2620 51.3323 80.9611 -10.3935 4.3162 5.1535
# 4 -4.7628 -3.6071 -10.3935 34.9842 4.8985 0.8951
# 5 -8.4880 2.6957 4.3162 4.8985 43.7605 1.3564
# 6 -4.6416 6.2028 5.1535 0.8951 1.3564 48.9380
#
#
#
# Elastic Compliance Matrix: (Units=1/GPa)
#
#
# Indices 1 2 3 4 5 6 
#
# 1 0.009008 -0.002369 -0.002522 -0.000098 0.002111 0.001363
# 2 -0.002369 0.016566 -0.009579 -0.001380 -0.000341 -0.001281
# 3 -0.002522 -0.009579 0.020351 0.005087 -0.002439 -0.001194
# 4 -0.000098 -0.001380 0.005087 0.030497 -0.003824 -0.000822
# 5 0.002111 -0.000341 -0.002439 -0.003824 0.023954 -0.000094
# 6 0.001363 -0.001281 -0.001194 -0.000822 -0.000094 0.020869
#
#
# Mechanical properties :
#
#
# Convention : Reuss Voigt Hill
#
# Bulk Modulus (GPa) = 58.86947 61.88042 60.37494
# Shear Modulus (GPa) = 32.08289 37.96039 35.02164
#
# Velocity S-wave (km/s) = 3.79765 4.13089 3.96777
# Velocity P-wave (km/s) = 6.75966 7.11121 6.93766
#
# Compressibility (1/GPa) = 0.01698673
#
# Stress axis : x y z
#
# Youngs Moduli (GPa) = 111.01169 60.36293 49.13698
#
# Poissons Ratio (x) = 0.14298 0.12393
# Poissons Ratio (y) = 0.26296 0.47067
# Poissons Ratio (z) = 0.27998 0.57820
#
# Static dielectric constant tensor:
#      x y z
#    x 1.830360 0.025250 -0.005090 
#    y 0.025250 1.795290 -0.005600 
#    z -0.005090 -0.005600 1.843180 
# 
# From -- ./inp_files/398985.got.cif
#   From: 2010.05.17/outbox.cif.g08.bks.cpg/sg2_200_cif.got.tgz:398985.got - 2010.06.03 11:33:40.
