data_PCOD9061863
_publ_section_title
;
Structure prediction by ZEFSAII (Michael W. Deem and Ramdas Pophale) SiO2 
 PCOD9061863
Probable space group: P -1
;
_chemical_formula_sum "Si O2"
_cell_formula_units_Z 13
_cell_length_a 8.800865
_cell_length_b 10.859778
_cell_length_c 5.086461
_cell_angle_alpha 83.092418
_cell_angle_beta 97.602475
_cell_angle_gamma 87.846395
_cell_volume 477.662531
_symmetry_space_group_name_H-M "P -1"
_symmetry_group_IT_number 2
_symmetry_cell_setting 'triclinic'
loop_
_space_group_symop_operation_xyz
x,y,z
-x,-y,-z
loop_
_atom_site_type_symbol
_atom_site_label
_atom_site_fract_x
_atom_site_fract_y
_atom_site_fract_z
Si Si1 0.864760 0.860684 0.101719
Si Si2 0.414947 0.098520 0.648871
Si Si3 0.322538 0.539607 0.401818
Si Si4 0.000000 0.500000 0.500000
Si Si5 0.034909 0.783992 0.645561
Si Si6 0.350450 0.759972 0.018083
Si Si7 0.348727 0.317785 0.150551
O O1 0.734487 0.941649 0.213094
O O2 0.004008 0.843952 0.339169
O O3 0.763652 0.740822 0.067224
O O4 0.935567 0.864923 0.823980
O O5 0.544719 0.134579 0.875185
O O6 0.365456 0.219579 0.424492
O O7 0.500000 0.000000 0.500000
O O8 0.500000 0.500000 0.500000
O O9 0.300829 0.681529 0.277323
O O10 0.287295 0.454258 0.167684
O O11 0.184874 0.506756 0.564529
O O12 0.015326 0.358150 0.377398
O O13 0.205574 0.784798 0.796107
O O14 0.479105 0.675547 0.916532
#
# Coordination Sequence:
#
# PCOD9061863 Si02
#       7
#     2   2   2   1   2   2   2
#     4  11  24  46  73 101 152 194 249 313 379 457
#     4  11  25  51  82 108 142 203 270 326 388 463
#     4  12  23  44  73 114 159 206 254 309 393 469
#     4  12  26  40  74 110 158 216 254 298 384 470
#     4  12  26  45  69 112 155 200 251 309 387 464
#     4  11  27  42  75 112 157 199 256 322 382 474
#     4  11  23  46  72 107 148 202 249 313 386 463
#
# _framework density 27.215869000000001
#
# number of rings (size 3 to 8) (size 9 to 14) (size 15 to 20)
#    0.000    0.615    4.615    2.308    6.462    3.692 
#    0.000    1.538    0.000    0.000    0.000    0.000 
#    0.000    0.000    0.000    0.000    0.000    0.000 
#
# Total GULP energy -72426.258000 kJ/mol
# GULP energy per Si atom -5571.250615 kJ/mol
# Density = 2.715392 g / cm^3
# Si number density = 27.215869 Si / 1000 Ang^3
#
#
#
# Elastic Constant Matrix: (Units=GPa)
#
#
# Indices 1 2 3 4 5 6 
#
# 1 126.5968 28.4703 36.0029 0.5594 31.0780 -5.4173
# 2 28.4703 89.3312 31.3822 10.7975 -5.9241 -7.7072
# 3 36.0029 31.3822 151.8591 5.7435 24.6431 -3.6366
# 4 0.5594 10.7975 5.7435 35.2855 -9.1757 -12.4357
# 5 31.0780 -5.9241 24.6431 -9.1757 57.8129 15.7445
# 6 -5.4173 -7.7072 -3.6366 -12.4357 15.7445 33.6929
#
#
#
# Elastic Compliance Matrix: (Units=1/GPa)
#
#
# Indices 1 2 3 4 5 6 
#
# 1 0.010718 -0.003354 -0.000649 0.000708 -0.006908 0.004375
# 2 -0.003354 0.013742 -0.002604 -0.002902 0.004033 -0.000633
# 3 -0.000649 -0.002604 0.007988 -0.000931 -0.003920 0.001650
# 4 0.000708 -0.002902 -0.000931 0.033730 0.002130 0.010803
# 5 -0.006908 0.004033 -0.003920 0.002130 0.026795 -0.012346
# 6 0.004375 -0.000633 0.001650 0.010803 -0.012346 0.040174
#
#
# Mechanical properties :
#
#
# Convention : Reuss Voigt Hill
#
# Bulk Modulus (GPa) = 51.99432 62.16643 57.08038
# Shear Modulus (GPa) = 32.72850 43.48704 38.10777
#
# Velocity S-wave (km/s) = 3.47155 4.00166 3.74599
# Velocity P-wave (km/s) = 5.93420 6.65151 6.30307
#
# Compressibility (1/GPa) = 0.01923287
#
# Stress axis : x y z
#
# Youngs Moduli (GPa) = 93.30287 72.77047 125.18798
#
# Poissons Ratio (x) = 0.24407 0.08123
# Poissons Ratio (y) = 0.31294 0.32605
# Poissons Ratio (z) = 0.06054 0.18953
#
# Static dielectric constant tensor:
#      x y z
#    x 1.509490 0.130360 -0.228400 
#    y 0.130360 2.196150 0.041500 
#    z -0.228400 0.041500 2.123590 
# 
# From -- ./inp_files/24813.got.cif
#   From: 2010.05.17/outbox.cif.g08.bks.cpg/sg2_13_cif.got.tgz:24813.got - 2010.06.03 11:33:40.
