data_PCOD9061642
_publ_section_title
;
Structure prediction by ZEFSAII (Michael W. Deem and Ramdas Pophale) SiO2 
 PCOD9061642
Probable space group: P -1
;
_chemical_formula_sum "Si O2"
_cell_formula_units_Z 14
_cell_length_a 29.960854
_cell_length_b 23.785335
_cell_length_c 15.040448
_cell_angle_alpha 160.697309
_cell_angle_beta 19.530812
_cell_angle_gamma 169.619306
_cell_volume 620.198916
_symmetry_space_group_name_H-M "P -1"
_symmetry_group_IT_number 2
_symmetry_cell_setting 'triclinic'
loop_
_space_group_symop_operation_xyz
x,y,z
-x,-y,-z
loop_
_atom_site_type_symbol
_atom_site_label
_atom_site_fract_x
_atom_site_fract_y
_atom_site_fract_z
Si Si1 0.032502 0.886341 0.200706
Si Si2 0.706881 0.293312 0.438068
Si Si3 0.615054 0.176342 0.951945
Si Si4 0.938388 0.885810 0.180047
Si Si5 0.467138 0.701181 0.063026
Si Si6 0.101771 0.773524 0.270841
Si Si7 0.233885 0.872354 0.574297
O O1 0.914867 0.803101 0.202434
O O2 0.881041 0.560838 0.035853
O O3 0.000000 0.000000 0.500000
O O4 0.333751 0.179818 0.070874
O O5 0.703122 0.367641 0.654727
O O6 0.972978 0.618299 0.377430
O O7 0.631424 0.013847 0.165084
O O8 0.475796 0.120614 0.555996
O O9 0.671911 0.096229 0.650761
O O10 0.500000 0.000000 0.000000
O O11 0.404216 0.077780 0.161259
O O12 0.988185 0.141026 0.467936
O O13 0.693803 0.588915 0.133627
O O14 0.140044 0.965247 0.883420
O O15 0.000000 0.500000 0.000000
O O16 0.000000 0.500000 0.500000
#
# Coordination Sequence:
#
# PCOD9061642 Si02
#       7
#     2   2   2   2   2   2   2
#     4  12  27  46  74 111 146 194 255 305 371 446
#     4  11  23  45  75 106 147 191 247 302 380 444
#     4  12  27  48  76 111 156 193 245 314 381 440
#     4  12  28  48  76 110 149 197 255 308 371 449
#     4  11  24  46  79 107 143 192 251 311 364 455
#     4  12  29  49  70 107 151 199 242 314 380 438
#     4  12  22  49  77 110 148 196 251 307 367 450
#
# _framework density 22.573402000000002
#
# number of rings (size 3 to 8) (size 9 to 14) (size 15 to 20)
#    0.000    0.286    5.714    1.714    8.000    2.286 
#    2.571    0.000    0.000    0.000    0.000    0.000 
#    0.000    0.000    0.000    0.000    0.000    0.000 
#
# Total GULP energy -78297.019121 kJ/mol
# GULP energy per Si atom -5592.644223 kJ/mol
# Density = 2.252202 g / cm^3
# Si number density = 22.573402 Si / 1000 Ang^3
#
#
#
# Elastic Constant Matrix: (Units=GPa)
#
#
# Indices 1 2 3 4 5 6 
#
# 1 104.7336 36.6662 45.7040 6.0595 16.6137 -7.2779
# 2 36.6662 76.0988 31.5087 -10.7009 4.6341 14.3559
# 3 45.7040 31.5087 153.2562 0.3486 -0.3461 -3.3268
# 4 6.0595 -10.7009 0.3486 34.9003 0.9701 6.3568
# 5 16.6137 4.6341 -0.3461 0.9701 42.7575 -0.3891
# 6 -7.2779 14.3559 -3.3268 6.3568 -0.3891 40.7994
#
#
#
# Elastic Compliance Matrix: (Units=1/GPa)
#
#
# Indices 1 2 3 4 5 6 
#
# 1 0.014994 -0.007775 -0.002739 -0.005931 -0.004816 0.006065
# 2 -0.007775 0.021172 -0.002284 0.009774 0.000390 -0.010542
# 3 -0.002739 -0.002284 0.007839 -0.000533 0.001397 0.001051
# 4 -0.005931 0.009774 -0.000533 0.034480 0.000368 -0.009909
# 5 -0.004816 0.000390 0.001397 0.000368 0.025213 -0.000699
# 6 0.006065 -0.010542 0.001051 -0.009909 -0.000699 0.030924
#
#
# Mechanical properties :
#
#
# Convention : Reuss Voigt Hill
#
# Bulk Modulus (GPa) = 54.32407 62.42738 58.37573
# Shear Modulus (GPa) = 30.05635 38.37209 34.21422
#
# Velocity S-wave (km/s) = 3.65292 4.12743 3.89741
# Velocity P-wave (km/s) = 6.47376 7.10138 6.79482
#
# Compressibility (1/GPa) = 0.01840805
#
# Stress axis : x y z
#
# Youngs Moduli (GPa) = 66.69490 47.23135 127.57468
#
# Poissons Ratio (x) = 0.36724 0.34937
# Poissons Ratio (y) = 0.51858 0.29143
# Poissons Ratio (z) = 0.18265 0.10789
#
# Static dielectric constant tensor:
#      x y z
#    x 1.839660 0.014480 -0.045180 
#    y 0.014480 1.845050 -0.037560 
#    z -0.045180 -0.037560 1.857400 
# 
# From -- ./inp_files/545153.got.cif
#   From: 2010.05.17/outbox.cif.g08.bks.cpg/sg2_273_cif.got.tgz:545153.got - 2010.06.03 11:33:40.
