data_PCOD9061123
_publ_section_title
;
Structure prediction by ZEFSAII (Michael W. Deem and Ramdas Pophale) SiO2 
 PCOD9061123
Probable space group: P -1
;
_chemical_formula_sum "Si O2"
_cell_formula_units_Z 13
_cell_length_a 16.332921
_cell_length_b 7.690067
_cell_length_c 15.324393
_cell_angle_alpha 45.191277
_cell_angle_beta 22.589236
_cell_angle_gamma 48.525224
_cell_volume 524.060684
_symmetry_space_group_name_H-M "P -1"
_symmetry_group_IT_number 2
_symmetry_cell_setting 'triclinic'
loop_
_space_group_symop_operation_xyz
x,y,z
-x,-y,-z
loop_
_atom_site_type_symbol
_atom_site_label
_atom_site_fract_x
_atom_site_fract_y
_atom_site_fract_z
Si Si1 0.590866 0.727464 0.024535
Si Si2 0.540852 0.112106 0.638476
Si Si3 0.226312 0.338415 0.502219
Si Si4 0.859772 0.384287 0.988836
Si Si5 0.500000 0.000000 0.500000
Si Si6 0.233973 0.382754 0.742214
Si Si7 0.684749 0.692862 0.759373
O O1 0.389450 0.553238 0.278854
O O2 0.715304 0.153323 0.211650
O O3 0.745049 0.682941 0.803725
O O4 0.500000 0.000000 0.000000
O O5 0.302937 0.204569 0.817151
O O6 0.681820 0.347601 0.419160
O O7 0.840733 0.654701 0.536789
O O8 0.575116 0.956153 0.747008
O O9 0.372483 0.079740 0.455968
O O10 0.033439 0.347241 0.754025
O O11 0.725095 0.633645 0.008627
O O12 0.993725 0.395383 0.941836
O O13 0.382064 0.260425 0.563848
O O14 0.500000 0.500000 0.000000
#
# Coordination Sequence:
#
# PCOD9061123 Si02
#       7
#     2   2   2   2   1   2   2
#     4  11  24  43  75 106 147 183 236 300 349 421
#     4   9  21  44  72 101 145 186 232 294 354 411
#     4   9  22  45  70 104 137 190 240 284 360 416
#     4  12  26  44  72 104 137 191 241 292 363 424
#     4  12  28  46  70 100 152 180 234 310 348 422
#     4  11  23  44  73 101 141 185 240 289 356 428
#     4   8  19  42  71  97 143 189 225 288 351 416
#
# _framework density 24.806287999999999
#
# number of rings (size 3 to 8) (size 9 to 14) (size 15 to 20)
#    0.923    0.923    0.000    3.231    4.308    1.231 
#    0.000   11.538    0.000    0.000    0.000    0.000 
#    0.000    0.000    0.000    0.000    0.000    0.000 
#
# Total GULP energy -72515.673756 kJ/mol
# GULP energy per Si atom -5578.128750 kJ/mol
# Density = 2.474983 g / cm^3
# Si number density = 24.806288 Si / 1000 Ang^3
#
#
#
# Elastic Constant Matrix: (Units=GPa)
#
#
# Indices 1 2 3 4 5 6 
#
# 1 111.2430 40.3096 52.4131 -1.3352 -11.1043 -23.8317
# 2 40.3096 189.0014 67.0831 -18.8126 -16.4327 -2.0952
# 3 52.4131 67.0831 131.1990 -3.9061 10.3704 -1.7411
# 4 -1.3352 -18.8126 -3.9061 36.7863 2.6818 4.4088
# 5 -11.1043 -16.4327 10.3704 2.6818 43.7444 -0.2211
# 6 -23.8317 -2.0952 -1.7411 4.4088 -0.2211 48.9166
#
#
#
# Elastic Compliance Matrix: (Units=1/GPa)
#
#
# Indices 1 2 3 4 5 6 
#
# 1 0.013646 -0.000657 -0.005440 -0.001546 0.004635 0.006587
# 2 -0.000657 0.007317 -0.003647 0.003142 0.003252 -0.000405
# 3 -0.005440 -0.003647 0.012070 -0.000084 -0.005620 -0.002395
# 4 -0.001546 0.003142 -0.000084 0.029189 -0.000998 -0.003257
# 5 0.004635 0.003252 -0.005620 -0.000998 0.026664 0.002408
# 6 0.006587 -0.000405 -0.002395 -0.003257 0.002408 0.023854
#
#
# Mechanical properties :
#
#
# Convention : Reuss Voigt Hill
#
# Bulk Modulus (GPa) = 73.83959 83.45056 78.64507
# Shear Modulus (GPa) = 36.56483 43.99865 40.28174
#
# Velocity S-wave (km/s) = 3.84345 4.21609 4.03408
# Velocity P-wave (km/s) = 7.03756 7.57723 7.31238
#
# Compressibility (1/GPa) = 0.01354287
#
# Stress axis : x y z
#
# Youngs Moduli (GPa) = 73.28197 136.67354 82.84857
#
# Poissons Ratio (x) = 0.08983 0.45073
# Poissons Ratio (y) = 0.04817 0.30218
# Poissons Ratio (z) = 0.39868 0.49850
#
# Static dielectric constant tensor:
#      x y z
#    x 1.725850 0.101380 -0.035020 
#    y 0.101380 1.975640 0.107140 
#    z -0.035020 0.107140 1.804070 
# 
# From -- ./inp_files/574971.got.cif
#   From: 2010.05.17/outbox.cif.g08.bks.cpg/sg2_288_cif.got.tgz:574971.got - 2010.06.03 11:33:40.
