data_PCOD9061552
_publ_section_title
;
Structure prediction by ZEFSAII (Michael W. Deem and Ramdas Pophale) SiO2 
 PCOD9061552
Probable space group: P -1
;
_chemical_formula_sum "Si O2"
_cell_formula_units_Z 14
_cell_length_a 9.926272
_cell_length_b 11.840268
_cell_length_c 9.203483
_cell_angle_alpha 101.116399
_cell_angle_beta 47.426744
_cell_angle_gamma 127.127625
_cell_volume 590.750563
_symmetry_space_group_name_H-M "P -1"
_symmetry_group_IT_number 2
_symmetry_cell_setting 'triclinic'
loop_
_space_group_symop_operation_xyz
x,y,z
-x,-y,-z
loop_
_atom_site_type_symbol
_atom_site_label
_atom_site_fract_x
_atom_site_fract_y
_atom_site_fract_z
Si Si1 0.660987 0.455998 0.339430
Si Si2 0.013410 0.297660 0.087239
Si Si3 0.947766 0.308837 0.705725
Si Si4 0.146350 0.980998 0.278751
Si Si5 0.800619 0.331734 0.532247
Si Si6 0.766226 0.854149 0.047122
Si Si7 0.397510 0.807089 0.822608
O O1 0.500000 0.500000 0.500000
O O2 0.552468 0.287641 0.332175
O O3 0.812761 0.517804 0.394482
O O4 0.833803 0.563515 0.104952
O O5 0.174503 0.257543 0.012219
O O6 0.916047 0.325858 0.303025
O O7 0.762245 0.170816 0.150916
O O8 0.837456 0.252982 0.614595
O O9 0.987446 0.193809 0.702466
O O10 0.763401 0.293637 0.946031
O O11 0.212313 0.081134 0.112647
O O12 0.379549 0.047486 0.221428
O O13 0.000000 0.000000 0.500000
O O14 0.000000 0.500000 0.500000
O O15 0.510583 0.238748 0.718907
O O16 0.000000 0.000000 0.000000
#
# Coordination Sequence:
#
# PCOD9061552 Si02
#       7
#     2   2   2   2   2   2   2
#     4  11  24  44  75 105 146 197 254 307 373 455
#     4  11  27  44  74 109 148 196 251 309 385 444
#     4  11  23  46  72 103 146 202 247 307 373 450
#     4  12  26  46  74 108 147 198 260 308 371 456
#     4  12  27  48  76 110 159 195 248 319 384 447
#     4  12  29  49  75 112 154 198 253 315 380 450
#     4  11  23  45  73 102 145 194 251 305 371 450
#
# _framework density 23.698664999999998
#
# number of rings (size 3 to 8) (size 9 to 14) (size 15 to 20)
#    0.000    0.571    1.429    7.286    8.000    1.143 
#    0.000    0.000    0.000    0.000    0.000    0.000 
#    0.000    0.000    0.000    0.000    0.000    0.000 
#
# Total GULP energy -78110.291826 kJ/mol
# GULP energy per Si atom -5579.306559 kJ/mol
# Density = 2.364473 g / cm^3
# Si number density = 23.698665 Si / 1000 Ang^3
#
#
#
# Elastic Constant Matrix: (Units=GPa)
#
#
# Indices 1 2 3 4 5 6 
#
# 1 137.7593 31.9417 54.4944 0.9399 9.6747 10.9609
# 2 31.9417 102.2664 36.6483 -4.7435 3.9476 2.0541
# 3 54.4944 36.6483 163.5834 8.5798 4.0935 11.2666
# 4 0.9399 -4.7435 8.5798 35.5145 5.5382 -2.5699
# 5 9.6747 3.9476 4.0935 5.5382 33.6959 8.1062
# 6 10.9609 2.0541 11.2666 -2.5699 8.1062 42.4662
#
#
#
# Elastic Compliance Matrix: (Units=1/GPa)
#
#
# Indices 1 2 3 4 5 6 
#
# 1 0.008857 -0.001784 -0.002440 0.000312 -0.001803 -0.001189
# 2 -0.001784 0.011208 -0.002064 0.002277 -0.001121 0.000818
# 3 -0.002440 -0.002064 0.007597 -0.002281 0.000772 -0.001571
# 4 0.000312 0.002277 -0.002281 0.030158 -0.005843 0.003355
# 5 -0.001803 -0.001121 0.000772 -0.005843 0.032704 -0.006282
# 6 -0.001189 0.000818 -0.001571 0.003355 -0.006282 0.025635
#
#
# Mechanical properties :
#
#
# Convention : Reuss Voigt Hill
#
# Bulk Modulus (GPa) = 66.29172 72.19754 69.24463
# Shear Modulus (GPa) = 37.37926 41.03695 39.20810
#
# Velocity S-wave (km/s) = 3.97580 4.16578 4.07190
# Velocity P-wave (km/s) = 7.00781 7.32593 7.16864
#
# Compressibility (1/GPa) = 0.01508484
#
# Stress axis : x y z
#
# Youngs Moduli (GPa) = 112.90390 89.22333 131.63110
#
# Poissons Ratio (x) = 0.15917 0.32121
# Poissons Ratio (y) = 0.20142 0.27173
# Poissons Ratio (z) = 0.27551 0.18419
#
# Static dielectric constant tensor:
#      x y z
#    x -100.236910 -79.723180 50.522880 
#    y -79.723180 -60.046110 39.225030 
#    z 50.522880 39.225030 -22.988680 
# 
# From -- ./inp_files/188266.got.cif
#   From: 2010.05.17/outbox.cif.g08.bks.cpg/sg2_95_cif.got.tgz:188266.got - 2010.06.03 11:33:40.
