data_PCOD9061063
_publ_section_title
;
Structure prediction by ZEFSAII (Michael W. Deem and Ramdas Pophale) SiO2 
 PCOD9061063
Probable space group: P -1
;
_chemical_formula_sum "Si O2"
_cell_formula_units_Z 16
_cell_length_a 9.197240
_cell_length_b 18.518018
_cell_length_c 15.626711
_cell_angle_alpha 33.009791
_cell_angle_beta 35.728584
_cell_angle_gamma 31.007724
_cell_volume 704.680147
_symmetry_space_group_name_H-M "P -1"
_symmetry_group_IT_number 2
_symmetry_cell_setting 'triclinic'
loop_
_space_group_symop_operation_xyz
x,y,z
-x,-y,-z
loop_
_atom_site_type_symbol
_atom_site_label
_atom_site_fract_x
_atom_site_fract_y
_atom_site_fract_z
Si Si1 0.339416 0.945491 0.386769
Si Si2 0.464499 0.108345 0.830745
Si Si3 0.395164 0.680875 0.336895
Si Si4 0.650286 0.572042 0.614027
Si Si5 0.716407 0.633781 0.784214
Si Si6 0.188768 0.502648 0.824696
Si Si7 0.688443 0.887486 0.441400
Si Si8 0.804199 0.360033 0.909790
O O1 0.373218 0.995403 0.226890
O O2 0.511791 0.756250 0.492179
O O3 0.499699 0.974399 0.359673
O O4 0.000000 0.000000 0.500000
O O5 0.557296 0.227440 0.700687
O O6 0.117404 0.223228 0.860415
O O7 0.500000 0.000000 0.000000
O O8 0.500000 0.500000 0.500000
O O9 0.606584 0.649885 0.184318
O O10 0.046909 0.805358 0.352266
O O11 0.434747 0.541423 0.691095
O O12 0.636399 0.495299 0.785028
O O13 0.000000 0.500000 0.500000
O O14 0.694328 0.728955 0.616779
O O15 0.833439 0.452875 0.882731
O O16 0.933717 0.629992 0.754990
O O17 0.389367 0.708008 0.903854
O O18 0.000000 0.500000 0.000000
O O19 0.500000 0.000000 0.500000
#
# Coordination Sequence:
#
# PCOD9061063 Si02
#       8
#     2   2   2   2   2   2   2   2
#     4  12  28  46  71 108 145 199 248 309 379 453
#     4  12  28  48  72 106 154 197 245 311 385 458
#     4  12  25  49  78 109 147 197 258 313 372 453
#     4  12  24  44  75 105 139 190 261 309 364 453
#     4  11  24  43  70 106 146 189 242 310 373 443
#     4  12  25  42  71 113 146 184 246 318 374 438
#     4  12  27  47  73 107 150 194 251 313 379 451
#     4  11  23  44  72 103 145 195 246 305 379 447
#
# _framework density 22.705337
#
# number of rings (size 3 to 8) (size 9 to 14) (size 15 to 20)
#    0.000    0.250    6.250    2.250    5.250    1.000 
#    0.000    0.625    0.000    0.000    0.000    0.000 
#    0.000    0.000    0.000    0.000    0.000    0.000 
#
# Total GULP energy -89264.923516 kJ/mol
# GULP energy per Si atom -5579.057720 kJ/mol
# Density = 2.265366 g / cm^3
# Si number density = 22.705337 Si / 1000 Ang^3
#
#
#
# Elastic Constant Matrix: (Units=GPa)
#
#
# Indices 1 2 3 4 5 6 
#
# 1 153.1374 28.8949 37.2152 22.2031 2.5326 -6.2576
# 2 28.8949 102.0461 14.1611 30.6036 -2.1489 -14.7059
# 3 37.2152 14.1611 88.5133 27.7512 15.9388 -6.2003
# 4 22.2031 30.6036 27.7512 48.7599 -2.7808 -2.8596
# 5 2.5326 -2.1489 15.9388 -2.7808 46.6206 8.0933
# 6 -6.2576 -14.7059 -6.2003 -2.8596 8.0933 31.1305
#
#
#
# Elastic Compliance Matrix: (Units=1/GPa)
#
#
# Indices 1 2 3 4 5 6 
#
# 1 0.007606 -0.001461 -0.002719 -0.000971 0.000372 0.000111
# 2 -0.001461 0.013331 0.001821 -0.008471 -0.001470 0.005970
# 3 -0.002719 0.001821 0.016682 -0.009523 -0.006827 0.004536
# 4 -0.000971 -0.008471 -0.009523 0.031736 0.005616 -0.004639
# 5 0.000372 -0.001470 -0.006827 0.005616 0.025433 -0.008076
# 6 0.000111 0.005970 0.004536 -0.004639 -0.008076 0.037543
#
#
# Mechanical properties :
#
#
# Convention : Reuss Voigt Hill
#
# Bulk Modulus (GPa) = 30.39525 56.02657 43.21091
# Shear Modulus (GPa) = 33.78038 42.86390 38.32214
#
# Velocity S-wave (km/s) = 3.86135 4.34963 4.11275
# Velocity P-wave (km/s) = 5.77026 7.06787 6.45177
#
# Compressibility (1/GPa) = 0.03289988
#
# Stress axis : x y z
#
# Youngs Moduli (GPa) = 131.48058 75.01569 59.94377
#
# Poissons Ratio (x) = 0.10961 0.16297
# Poissons Ratio (y) = 0.19212 -0.10913
# Poissons Ratio (z) = 0.35745 -0.13657
#
# Static dielectric constant tensor:
#      x y z
#    x 1.908860 0.078470 0.042710 
#    y 0.078470 1.890400 0.054090 
#    z 0.042710 0.054090 1.901390 
# 
# From -- ./inp_files/507278.got.cif
#   From: 2010.05.17/outbox.cif.g08.bks.cpg/sg2_254_cif.got.tgz:507278.got - 2010.06.03 11:33:40.
