data_PCOD9061266
_publ_section_title
;
Structure prediction by ZEFSAII (Michael W. Deem and Ramdas Pophale) SiO2 
 PCOD9061266
Probable space group: P -1
;
_chemical_formula_sum "Si O2"
_cell_formula_units_Z 16
_cell_length_a 5.420084
_cell_length_b 11.148166
_cell_length_c 20.468836
_cell_angle_alpha 135.027339
_cell_angle_beta 62.933325
_cell_angle_gamma 126.265463
_cell_volume 703.353217
_symmetry_space_group_name_H-M "P -1"
_symmetry_group_IT_number 2
_symmetry_cell_setting 'triclinic'
loop_
_space_group_symop_operation_xyz
x,y,z
-x,-y,-z
loop_
_atom_site_type_symbol
_atom_site_label
_atom_site_fract_x
_atom_site_fract_y
_atom_site_fract_z
Si Si1 0.811016 0.188333 0.875556
Si Si2 0.185895 0.170340 0.494232
Si Si3 0.558797 0.451469 0.047526
Si Si4 0.493496 0.992256 0.709123
Si Si5 0.358843 0.423712 0.688668
Si Si6 0.157160 0.185255 0.256219
Si Si7 0.350346 0.651867 0.247498
Si Si8 0.162020 0.375777 0.463299
O O1 0.713603 0.116845 0.786731
O O2 0.114554 0.380970 0.908734
O O3 0.841747 0.012977 0.836714
O O4 0.575769 0.253173 0.965154
O O5 0.389454 0.336036 0.582238
O O6 0.999859 0.245992 0.496316
O O7 0.375747 0.103319 0.395894
O O8 0.000000 0.000000 0.500000
O O9 0.337843 0.481778 0.137769
O O10 0.500000 0.500000 0.000000
O O11 0.437399 0.149321 0.735211
O O12 0.190875 0.843957 0.724700
O O13 0.572113 0.645245 0.746225
O O14 0.492114 0.349816 0.703593
O O15 0.996361 0.368603 0.714983
O O16 0.189026 0.243103 0.351478
O O17 0.500000 0.500000 0.500000
O O18 0.000000 0.500000 0.500000
#
# Coordination Sequence:
#
# PCOD9061266 Si02
#       8
#     2   2   2   2   2   2   2   2
#     4  11  23  44  77 113 142 187 261 317 374 445
#     4  12  27  47  75 116 161 209 260 317 387 451
#     4  11  23  44  80 111 143 190 259 324 381 450
#     4  12  25  45  78 109 153 194 270 308 373 462
#     4  12  31  48  73 110 168 199 248 314 392 448
#     4  12  27  45  75 105 152 203 254 308 381 453
#     4  12  27  50  73 114 149 199 249 323 382 454
#     4  12  27  47  72 105 151 207 263 307 365 456
#
# _framework density 22.748169999999998
#
# number of rings (size 3 to 8) (size 9 to 14) (size 15 to 20)
#    0.000    0.250    6.250    1.500    7.000    0.500 
#    0.000    1.250    0.000    0.000    0.000    0.000 
#    0.000    0.000    0.000    0.000    0.000    0.000 
#
# Total GULP energy -89463.052964 kJ/mol
# GULP energy per Si atom -5591.440810 kJ/mol
# Density = 2.269639 g / cm^3
# Si number density = 22.748170 Si / 1000 Ang^3
#
#
#
# Elastic Constant Matrix: (Units=GPa)
#
#
# Indices 1 2 3 4 5 6 
#
# 1 124.2156 24.5323 39.7162 -5.0048 4.3438 -2.9285
# 2 24.5323 66.6919 -5.6273 17.2511 -6.7052 -1.4635
# 3 39.7162 -5.6273 153.9186 6.1602 -14.0139 7.2906
# 4 -5.0048 17.2511 6.1602 33.7380 -5.0800 3.3448
# 5 4.3438 -6.7052 -14.0139 -5.0800 45.5427 2.7355
# 6 -2.9285 -1.4635 7.2906 3.3448 2.7355 40.7228
#
#
#
# Elastic Compliance Matrix: (Units=1/GPa)
#
#
# Indices 1 2 3 4 5 6 
#
# 1 0.010511 -0.005549 -0.003361 0.004555 -0.002402 0.000945
# 2 -0.005549 0.020571 0.002902 -0.011453 0.003140 0.000550
# 3 -0.003361 0.002902 0.007925 -0.002833 0.002962 -0.001523
# 4 0.004555 -0.011453 -0.002833 0.037157 0.001316 -0.002717
# 5 -0.002402 0.003140 0.002962 0.001316 0.023845 -0.002300
# 6 0.000945 0.000550 -0.001523 -0.002717 -0.002300 0.025294
#
#
# Mechanical properties :
#
#
# Convention : Reuss Voigt Hill
#
# Bulk Modulus (GPa) = 37.04838 51.34093 44.19466
# Shear Modulus (GPa) = 34.17272 43.08104 38.62688
#
# Velocity S-wave (km/s) = 3.88005 4.35653 4.12518
# Velocity P-wave (km/s) = 6.03280 6.92272 6.49303
#
# Compressibility (1/GPa) = 0.02699173
#
# Stress axis : x y z
#
# Youngs Moduli (GPa) = 95.14029 48.61288 126.17627
#
# Poissons Ratio (x) = 0.26975 0.42405
# Poissons Ratio (y) = 0.52792 -0.36617
# Poissons Ratio (z) = 0.31975 -0.14108
#
# Static dielectric constant tensor:
#      x y z
#    x 1.947930 0.016390 -0.069010 
#    y 0.016390 1.905190 0.009410 
#    z -0.069010 0.009410 1.892690 
# 
# From -- ./inp_files/604326.got.cif
#   From: 2010.05.17/outbox.cif.g08.bks.cpg/sg2_303_cif.got.tgz:604326.got - 2010.06.03 11:33:40.
