data_PCOD9061303
_publ_section_title
;
Structure prediction by ZEFSAII (Michael W. Deem and Ramdas Pophale) SiO2 
 PCOD9061303
Probable space group: P -1
;
_chemical_formula_sum "Si O2"
_cell_formula_units_Z 13
_cell_length_a 9.803571
_cell_length_b 14.128116
_cell_length_c 11.861101
_cell_angle_alpha 149.292951
_cell_angle_beta 136.221120
_cell_angle_gamma 59.487639
_cell_volume 549.903658
_symmetry_space_group_name_H-M "P -1"
_symmetry_group_IT_number 2
_symmetry_cell_setting 'triclinic'
loop_
_space_group_symop_operation_xyz
x,y,z
-x,-y,-z
loop_
_atom_site_type_symbol
_atom_site_label
_atom_site_fract_x
_atom_site_fract_y
_atom_site_fract_z
Si Si1 0.089651 0.228953 0.311245
Si Si2 0.083883 0.212425 0.710843
Si Si3 0.500000 0.500000 0.500000
Si Si4 0.454115 0.757918 0.346324
Si Si5 0.815406 0.435421 0.453360
Si Si6 0.274378 0.614471 0.325485
Si Si7 0.493557 0.213198 0.843309
O O1 0.328960 0.274937 0.531002
O O2 0.067943 0.354802 0.317902
O O3 0.966068 0.304247 0.410445
O O4 0.000000 0.000000 0.000000
O O5 0.259213 0.216133 0.727399
O O6 0.889873 0.280893 0.628109
O O7 0.200468 0.375852 0.042044
O O8 0.000000 0.000000 0.500000
O O9 0.699838 0.455492 0.517764
O O10 0.498397 0.664817 0.568288
O O11 0.297119 0.653610 0.244154
O O12 0.409927 0.702731 0.133162
O O13 0.482849 0.987568 0.608825
O O14 0.633142 0.325029 0.143579
#
# Coordination Sequence:
#
# PCOD9061303 Si02
#       7
#     2   2   1   2   2   2   2
#     4  11  23  45  67 100 137 174 228 275 339 408
#     4  11  23  45  67 100 137 174 228 275 339 408
#     4  12  24  48  68 100 136 188 230 276 348 412
#     4  11  23  45  71 100 135 178 228 284 341 409
#     4  11  25  45  68  97 138 179 225 279 336 411
#     4  11  25  45  68  97 138 179 225 279 336 411
#     4  11  23  45  71 100 135 178 228 284 341 409
#
# _framework density 23.640504
#
# number of rings (size 3 to 8) (size 9 to 14) (size 15 to 20)
#    0.000    0.923    6.154    0.000    2.154    2.462 
#   11.077    5.385    0.000    0.000    0.000    0.000 
#    0.000    0.000    0.000    0.000    0.000    0.000 
#
# Total GULP energy -72476.017729 kJ/mol
# GULP energy per Si atom -5575.078287 kJ/mol
# Density = 2.358670 g / cm^3
# Si number density = 23.640504 Si / 1000 Ang^3
#
#
#
# Elastic Constant Matrix: (Units=GPa)
#
#
# Indices 1 2 3 4 5 6 
#
# 1 153.4016 54.1744 13.5619 10.7486 -14.7682 -34.2576
# 2 54.1744 108.3089 19.0507 20.4290 -13.1265 -40.8405
# 3 13.5619 19.0507 70.9124 32.7363 -6.8095 2.2514
# 4 10.7486 20.4290 32.7363 42.5592 -4.7219 -2.4200
# 5 -14.7682 -13.1265 -6.8095 -4.7219 27.1221 0.7336
# 6 -34.2576 -40.8405 2.2514 -2.4200 0.7336 59.8218
#
#
#
# Elastic Compliance Matrix: (Units=1/GPa)
#
#
# Indices 1 2 3 4 5 6 
#
# 1 0.008483 -0.002607 -0.000853 0.000286 0.003109 0.003083
# 2 -0.002607 0.015632 -0.001317 -0.004796 0.004737 0.008977
# 3 -0.000853 -0.001317 0.022446 -0.016388 0.001759 -0.002917
# 4 0.000286 -0.004796 -0.016388 0.038325 0.000418 -0.000949
# 5 0.003109 0.004737 0.001759 0.000418 0.041250 0.004460
# 6 0.003083 0.008977 -0.002917 -0.000949 0.004460 0.024627
#
#
# Mechanical properties :
#
#
# Convention : Reuss Voigt Hill
#
# Bulk Modulus (GPa) = 27.02224 56.24411 41.63318
# Shear Modulus (GPa) = 28.95974 42.28968 35.62471
#
# Velocity S-wave (km/s) = 3.50380 4.23409 3.88614
# Velocity P-wave (km/s) = 5.27486 6.90988 6.14697
#
# Compressibility (1/GPa) = 0.03700655
#
# Stress axis : x y z
#
# Youngs Moduli (GPa) = 117.88356 63.97013 44.55134
#
# Poissons Ratio (x) = 0.16680 0.03800
# Poissons Ratio (y) = 0.30737 0.05867
# Poissons Ratio (z) = 0.10056 0.08424
#
# Static dielectric constant tensor:
#      x y z
#    x 2.022700 0.439250 -0.632860 
#    y 0.439250 3.898070 -3.356070 
#    z -0.632860 -3.356070 7.673370 
# 
# From -- ./inp_files/395010.got.cif
#   From: 2010.05.17/outbox.cif.g08.bks.cpg/sg2_198_cif.got.tgz:395010.got - 2010.06.03 11:33:40.
