data_PCOD9061044
_publ_section_title
;
Structure prediction by ZEFSAII (Michael W. Deem and Ramdas Pophale) SiO2 
 PCOD9061044
Probable space group: P -1
;
_chemical_formula_sum "Si O2"
_cell_formula_units_Z 16
_cell_length_a 14.560522
_cell_length_b 15.975370
_cell_length_c 15.751578
_cell_angle_alpha 151.535893
_cell_angle_beta 36.004420
_cell_angle_gamma 152.459969
_cell_volume 800.170896
_symmetry_space_group_name_H-M "P -1"
_symmetry_group_IT_number 2
_symmetry_cell_setting 'triclinic'
loop_
_space_group_symop_operation_xyz
x,y,z
-x,-y,-z
loop_
_atom_site_type_symbol
_atom_site_label
_atom_site_fract_x
_atom_site_fract_y
_atom_site_fract_z
Si Si1 0.978828 0.581732 0.678353
Si Si2 0.163602 0.048905 0.024234
Si Si3 0.575243 0.250980 0.977139
Si Si4 0.186825 0.086658 0.710849
Si Si5 0.597960 0.481414 0.830438
Si Si6 0.120586 0.667840 0.308414
Si Si7 0.170709 0.260544 0.706574
Si Si8 0.838524 0.125214 0.705516
O O1 0.740177 0.437577 0.726274
O O2 0.020079 0.527465 0.692350
O O3 0.000000 0.500000 0.500000
O O4 0.100758 0.849354 0.829468
O O5 0.341420 0.103619 0.001099
O O6 0.262151 0.284569 0.115155
O O7 0.963205 0.970427 0.152162
O O8 0.658138 0.474972 0.167910
O O9 0.700762 0.326305 0.860219
O O10 0.649773 0.123311 0.852214
O O11 0.417172 0.294144 0.740204
O O12 0.110138 0.146597 0.742419
O O13 0.189235 0.884985 0.504062
O O14 0.500000 0.500000 0.000000
O O15 0.041370 0.701640 0.310109
O O16 0.986093 0.218191 0.757356
O O17 0.224548 0.118108 0.489077
#
# Coordination Sequence:
#
# PCOD9061044 Si02
#       8
#     2   2   2   2   2   2   2   2
#     4  12  26  39  62  93 128 167 217 273 313 378
#     4  12  25  43  60  95 129 166 217 267 319 380
#     4  10  20  38  65  92 126 167 208 263 317 376
#     4  11  23  42  68  90 131 169 212 265 326 378
#     4  12  25  43  65  88 122 174 215 261 323 382
#     4   9  22  42  60  96 123 169 210 262 321 377
#     4  10  17  40  68  96 125 169 208 262 323 379
#     4   8  20  35  70  97 123 166 217 254 320 391
#
# _framework density 19.995726999999999
#
# number of rings (size 3 to 8) (size 9 to 14) (size 15 to 20)
#    0.750    0.750    2.500    3.000    3.500    0.500 
#    2.250    0.625    0.000    2.250    0.000    0.000 
#    0.000    0.000    0.000    0.000    0.000    0.000 
#
# Total GULP energy -89094.268000 kJ/mol
# GULP energy per Si atom -5568.391750 kJ/mol
# Density = 1.995022 g / cm^3
# Si number density = 19.995727 Si / 1000 Ang^3
#
#
#
# Elastic Constant Matrix: (Units=GPa)
#
#
# Indices 1 2 3 4 5 6 
#
# 1 99.8683 18.1570 20.8111 16.9835 -1.2277 13.3277
# 2 18.1570 52.0856 21.2170 20.3498 8.3743 11.5306
# 3 20.8111 21.2170 75.0537 12.1993 12.5002 18.7430
# 4 16.9835 20.3498 12.1993 17.8574 0.4411 -1.1746
# 5 -1.2277 8.3743 12.5002 0.4411 27.6062 3.4092
# 6 13.3277 11.5306 18.7430 -1.1746 3.4092 24.7733
#
#
#
# Elastic Compliance Matrix: (Units=1/GPa)
#
#
# Indices 1 2 3 4 5 6 
#
# 1 0.013966 0.005504 0.000849 -0.020917 0.000353 -0.011758
# 2 0.005504 0.051417 0.005466 -0.069391 -0.012696 -0.032571
# 3 0.000849 0.005466 0.021447 -0.022733 -0.008607 -0.019120
# 4 -0.020917 -0.069391 -0.022733 0.174383 0.019433 0.066344
# 5 0.000353 -0.012696 -0.008607 0.019433 0.042780 0.007265
# 6 -0.011758 -0.032571 -0.019120 0.066344 0.007265 0.078464
#
#
# Mechanical properties :
#
#
# Convention : Reuss Voigt Hill
#
# Bulk Modulus (GPa) = 9.05242 38.59751 23.82496
# Shear Modulus (GPa) = 12.63773 25.16888 18.90330
#
# Velocity S-wave (km/s) = 2.51673 3.55168 3.07802
# Velocity P-wave (km/s) = 3.60309 6.01366 4.95713
#
# Compressibility (1/GPa) = 0.11046772
#
# Stress axis : x y z
#
# Youngs Moduli (GPa) = 71.60126 19.44893 46.62748
#
# Poissons Ratio (x) = -0.10705 -0.03958
# Poissons Ratio (y) = -0.39410 -0.25488
# Poissons Ratio (z) = -0.06078 -0.10631
#
# Static dielectric constant tensor:
#      x y z
#    x 1.759820 0.001970 -0.013170 
#    y 0.001970 1.732300 0.044070 
#    z -0.013170 0.044070 1.737820 
# 
# From -- ./inp_files/83984.got.cif
#   From: 2010.05.17/outbox.cif.g08.bks.cpg/sg2_42_cif.got.tgz:83984.got - 2010.06.03 11:33:40.
