data_PCOD9061263
_publ_section_title
;
Structure prediction by ZEFSAII (Michael W. Deem and Ramdas Pophale) SiO2 
 PCOD9061263
Probable space group: P -1
;
_chemical_formula_sum "Si O2"
_cell_formula_units_Z 14
_cell_length_a 5.505283
_cell_length_b 8.311992
_cell_length_c 13.759473
_cell_angle_alpha 118.148063
_cell_angle_beta 114.970789
_cell_angle_gamma 78.341419
_cell_volume 503.267487
_symmetry_space_group_name_H-M "P -1"
_symmetry_group_IT_number 2
_symmetry_cell_setting 'triclinic'
loop_
_space_group_symop_operation_xyz
x,y,z
-x,-y,-z
loop_
_atom_site_type_symbol
_atom_site_label
_atom_site_fract_x
_atom_site_fract_y
_atom_site_fract_z
Si Si1 0.067485 0.752223 0.162486
Si Si2 0.488657 0.013625 0.385499
Si Si3 0.401711 0.469897 0.625626
Si Si4 0.261383 0.202271 0.228286
Si Si5 0.457664 0.102042 0.922537
Si Si6 0.137899 0.695673 0.471397
Si Si7 0.155692 0.616067 0.919826
O O1 0.840774 0.908176 0.170455
O O2 0.945235 0.589300 0.159911
O O3 0.349700 0.829368 0.270001
O O4 0.068367 0.683971 0.031812
O O5 0.500000 0.000000 0.500000
O O6 0.306763 0.171993 0.343302
O O7 0.781423 0.095254 0.430367
O O8 0.535383 0.650949 0.744788
O O9 0.245314 0.565325 0.537499
O O10 0.660155 0.362295 0.597420
O O11 0.174557 0.351799 0.607535
O O12 0.982326 0.271417 0.159017
O O13 0.342325 0.007252 0.144372
O O14 0.538840 0.314394 0.009763
O O15 0.500000 0.000000 0.000000
#
# Coordination Sequence:
#
# PCOD9061263 Si02
#       7
#     2   2   2   2   2   2   2
#     4  11  25  46  73 105 150 188 249 306 381 442
#     4  11  25  46  71 106 148 203 248 312 380 457
#     4   9  20  39  69 105 141 192 247 316 367 449
#     4  11  23  44  77 107 149 193 254 311 382 460
#     4  12  23  43  75 114 142 191 249 311 379 455
#     4   9  20  41  65  98 148 191 254 301 375 446
#     4  11  24  47  73 107 147 193 242 313 375 451
#
# _framework density 27.818206
#
# number of rings (size 3 to 8) (size 9 to 14) (size 15 to 20)
#    0.000    1.429    2.857    1.714    2.000    6.857 
#    0.000    2.857    0.000    0.000    0.000    0.000 
#    0.000    0.000    0.000    0.000    0.000    0.000 
#
# Total GULP energy -78234.271991 kJ/mol
# GULP energy per Si atom -5588.162285 kJ/mol
# Density = 2.775489 g / cm^3
# Si number density = 27.818206 Si / 1000 Ang^3
#
#
#
# Elastic Constant Matrix: (Units=GPa)
#
#
# Indices 1 2 3 4 5 6 
#
# 1 132.6562 46.7169 48.8497 6.0894 45.9669 21.6445
# 2 46.7169 128.2987 71.2960 1.6745 22.8363 26.2082
# 3 48.8497 71.2960 132.5272 -3.8552 30.4354 15.9368
# 4 6.0894 1.6745 -3.8552 74.2312 19.5055 22.0334
# 5 45.9669 22.8363 30.4354 19.5055 56.1184 6.3382
# 6 21.6445 26.2082 15.9368 22.0334 6.3382 51.1922
#
#
#
# Elastic Compliance Matrix: (Units=1/GPa)
#
#
# Indices 1 2 3 4 5 6 
#
# 1 0.012183 -0.001407 -0.001028 0.002639 -0.009304 -0.004095
# 2 -0.001407 0.012317 -0.005354 0.001088 -0.000836 -0.004409
# 3 -0.001028 -0.005354 0.011927 0.002190 -0.004099 -0.000973
# 4 0.002639 0.001088 0.002190 0.018478 -0.009179 -0.009171
# 5 -0.009304 -0.000836 -0.004099 -0.009179 0.030539 0.005808
# 6 -0.004095 -0.004409 -0.000973 -0.009171 0.005808 0.027054
#
#
# Mechanical properties :
#
#
# Convention : Reuss Voigt Hill
#
# Bulk Modulus (GPa) = 47.96175 80.80082 64.38128
# Shear Modulus (GPa) = 37.03012 51.41631 44.22321
#
# Velocity S-wave (km/s) = 3.65245 4.30385 3.99146
# Velocity P-wave (km/s) = 5.92163 7.33529 6.66604
#
# Compressibility (1/GPa) = 0.02084995
#
# Stress axis : x y z
#
# Youngs Moduli (GPa) = 82.07972 81.18877 83.84501
#
# Poissons Ratio (x) = 0.11422 0.08619
# Poissons Ratio (y) = 0.11548 0.44888
# Poissons Ratio (z) = 0.08437 0.43466
#
# Static dielectric constant tensor:
#      x y z
#    x 2.140980 0.032570 -0.039000 
#    y 0.032570 2.244990 0.056430 
#    z -0.039000 0.056430 2.267120 
# 
# From -- ./inp_files/480868.got.cif
#   From: 2010.05.17/outbox.cif.g08.bks.cpg/sg2_241_cif.got.tgz:480868.got - 2010.06.03 11:33:40.
