data_PCOD9061493
_publ_section_title
;
Structure prediction by ZEFSAII (Michael W. Deem and Ramdas Pophale) SiO2 
 PCOD9061493
Probable space group: P -1
;
_chemical_formula_sum "Si O2"
_cell_formula_units_Z 16
_cell_length_a 13.411136
_cell_length_b 12.500772
_cell_length_c 8.786303
_cell_angle_alpha 89.915707
_cell_angle_beta 133.044305
_cell_angle_gamma 54.793610
_cell_volume 659.688408
_symmetry_space_group_name_H-M "P -1"
_symmetry_group_IT_number 2
_symmetry_cell_setting 'triclinic'
loop_
_space_group_symop_operation_xyz
x,y,z
-x,-y,-z
loop_
_atom_site_type_symbol
_atom_site_label
_atom_site_fract_x
_atom_site_fract_y
_atom_site_fract_z
Si Si1 0.445720 0.693811 0.842659
Si Si2 0.436967 0.371714 0.365048
Si Si3 0.100822 0.081069 0.465754
Si Si4 0.829063 0.844489 0.961701
Si Si5 0.223584 0.318552 0.309556
Si Si6 0.136899 0.767604 0.080740
Si Si7 0.197140 0.626197 0.585634
Si Si8 0.591105 0.920118 0.263447
O O1 0.553763 0.670777 0.800230
O O2 0.346798 0.637418 0.699776
O O3 0.244202 0.894811 0.680331
O O4 0.630867 0.564111 0.164074
O O5 0.396840 0.300502 0.438619
O O6 0.245063 0.581534 0.175978
O O7 0.670228 0.281250 0.648142
O O8 0.273335 0.055310 0.565349
O O9 0.965950 0.229292 0.452098
O O10 0.935605 0.147341 0.160320
O O11 0.925923 0.886224 0.971986
O O12 0.044394 0.679290 0.289717
O O13 0.750776 0.807608 0.755895
O O14 0.624462 0.977861 0.863292
O O15 0.237748 0.278730 0.502130
O O16 0.000000 0.500000 0.000000
O O17 0.500000 0.000000 0.000000
#
# Coordination Sequence:
#
# PCOD9061493 Si02
#       8
#     2   2   2   2   2   2   2   2
#     4  11  25  42  75 107 145 194 240 306 370 437
#     4  11  23  45  71 112 139 189 254 296 364 442
#     4  12  24  48  71 104 147 195 241 304 371 433
#     4  12  24  46  74  98 143 195 233 304 366 422
#     4  12  26  46  75 105 143 189 248 297 363 442
#     4  11  24  44  76 100 147 189 239 313 362 426
#     4  11  25  48  69 107 154 186 246 301 369 438
#     4  12  27  47  70 101 150 190 240 305 367 442
#
# _framework density 24.253875000000001
#
# number of rings (size 3 to 8) (size 9 to 14) (size 15 to 20)
#    0.000    0.500    6.250    1.500    1.750    2.500 
#    2.250    1.875    0.000    0.000    0.000    0.000 
#    0.000    0.000    0.000    0.000    0.000    0.000 
#
# Total GULP energy -89536.292076 kJ/mol
# GULP energy per Si atom -5596.018255 kJ/mol
# Density = 2.419867 g / cm^3
# Si number density = 24.253875 Si / 1000 Ang^3
#
#
#
# Elastic Constant Matrix: (Units=GPa)
#
#
# Indices 1 2 3 4 5 6 
#
# 1 90.9644 25.2175 23.8494 -4.9396 -16.7799 -4.0751
# 2 25.2175 43.9303 35.3233 -14.8075 -14.4317 -5.3457
# 3 23.8494 35.3233 149.9348 -11.0323 -34.6619 0.2937
# 4 -4.9396 -14.8075 -11.0323 32.0781 4.4450 -1.3728
# 5 -16.7799 -14.4317 -34.6619 4.4450 51.0071 -2.2129
# 6 -4.0751 -5.3457 0.2937 -1.3728 -2.2129 34.7072
#
#
#
# Elastic Compliance Matrix: (Units=1/GPa)
#
#
# Indices 1 2 3 4 5 6 
#
# 1 0.013436 -0.007441 0.000078 -0.001668 0.002536 0.000527
# 2 -0.007441 0.038587 -0.006091 0.014362 0.003335 0.005902
# 3 0.000078 -0.006091 0.009107 -0.000321 0.004487 -0.000733
# 4 -0.001668 0.014362 -0.000321 0.037562 0.000176 0.003516
# 5 0.002536 0.003335 0.004487 0.000176 0.024519 0.002344
# 6 0.000527 0.005902 -0.000733 0.003516 0.002344 0.030078
#
#
# Mechanical properties :
#
#
# Convention : Reuss Voigt Hill
#
# Bulk Modulus (GPa) = 29.21935 50.40109 39.81022
# Shear Modulus (GPa) = 26.09540 36.92111 31.50825
#
# Velocity S-wave (km/s) = 3.28369 3.90587 3.60822
# Velocity P-wave (km/s) = 5.14298 6.41614 5.81451
#
# Compressibility (1/GPa) = 0.03422389
#
# Stress axis : x y z
#
# Youngs Moduli (GPa) = 74.42444 25.91556 109.80153
#
# Poissons Ratio (x) = 0.19283 -0.00860
# Poissons Ratio (y) = 0.55377 0.66879
# Poissons Ratio (z) = -0.00583 0.15785
#
# Static dielectric constant tensor:
#      x y z
#    x 1.939590 -0.009810 -0.013560 
#    y -0.009810 1.957390 -0.057630 
#    z -0.013560 -0.057630 2.014120 
# 
# From -- ./inp_files/315347.got.cif
#   From: 2010.05.17/outbox.cif.g08.bks.cpg/sg2_158_cif.got.tgz:315347.got - 2010.06.03 11:33:40.
