data_PCOD9061048
_publ_section_title
;
Structure prediction by ZEFSAII (Michael W. Deem and Ramdas Pophale) SiO2 
 PCOD9061048
Probable space group: P -1
;
_chemical_formula_sum "Si O2"
_cell_formula_units_Z 16
_cell_length_a 15.400024
_cell_length_b 10.047062
_cell_length_c 18.665692
_cell_angle_alpha 44.591833
_cell_angle_beta 156.805592
_cell_angle_gamma 143.854129
_cell_volume 665.261263
_symmetry_space_group_name_H-M "P -1"
_symmetry_group_IT_number 2
_symmetry_cell_setting 'triclinic'
loop_
_space_group_symop_operation_xyz
x,y,z
-x,-y,-z
loop_
_atom_site_type_symbol
_atom_site_label
_atom_site_fract_x
_atom_site_fract_y
_atom_site_fract_z
Si Si1 0.272195 0.853134 0.827612
Si Si2 0.372052 0.272086 0.313739
Si Si3 0.764845 0.446008 0.417008
Si Si4 0.551457 0.626907 0.065800
Si Si5 0.720028 0.051515 0.353096
Si Si6 0.128867 0.707511 0.077745
Si Si7 0.276027 0.468199 0.395418
Si Si8 0.868203 0.064833 0.611626
O O1 0.271590 0.998493 0.704854
O O2 0.011536 0.735369 0.721513
O O3 0.334969 0.676448 0.907393
O O4 0.500000 0.000000 0.000000
O O5 0.548212 0.299686 0.369741
O O6 0.571583 0.487597 0.430733
O O7 0.294743 0.078805 0.388416
O O8 0.103836 0.253458 0.098631
O O9 0.611344 0.501563 0.221102
O O10 0.853767 0.285405 0.516213
O O11 0.029564 0.680864 0.555115
O O12 0.834099 0.863840 0.180986
O O13 0.500000 0.500000 0.000000
O O14 0.779785 0.961218 0.505062
O O15 0.403477 0.934900 0.171245
O O16 0.200413 0.630086 0.234854
O O17 0.000000 0.500000 0.000000
O O18 0.500000 0.500000 0.500000
#
# Coordination Sequence:
#
# PCOD9061048 Si02
#       8
#     2   2   2   2   2   2   2   2
#     4  12  26  45  74 112 148 194 260 314 374 453
#     4  12  25  46  71 104 148 194 247 308 376 438
#     4  11  24  46  72 108 144 197 253 312 373 452
#     4  11  24  46  76 109 152 195 250 316 379 452
#     4  11  23  44  72 101 144 191 242 303 369 447
#     4  12  25  45  72 104 141 192 249 293 373 459
#     4  12  26  47  72 100 153 199 238 312 381 441
#     4  11  24  45  76 103 148 199 248 307 387 443
#
# _framework density 24.050701
#
# number of rings (size 3 to 8) (size 9 to 14) (size 15 to 20)
#    0.000    0.500    3.750    5.625    1.750    0.000 
#    0.000    5.000    0.000    0.000    0.000    0.000 
#    0.000    0.000    0.000    0.000    0.000    0.000 
#
# Total GULP energy -89293.211022 kJ/mol
# GULP energy per Si atom -5580.825689 kJ/mol
# Density = 2.399596 g / cm^3
# Si number density = 24.050701 Si / 1000 Ang^3
#
#
#
# Elastic Constant Matrix: (Units=GPa)
#
#
# Indices 1 2 3 4 5 6 
#
# 1 146.9017 58.2871 64.8399 -9.0530 0.3718 24.8754
# 2 58.2871 86.8963 57.4148 6.4632 15.1414 34.4151
# 3 64.8399 57.4148 184.6089 2.1357 1.4698 12.3028
# 4 -9.0530 6.4632 2.1357 41.5745 8.1562 6.1626
# 5 0.3718 15.1414 1.4698 8.1562 56.2753 -2.6842
# 6 24.8754 34.4151 12.3028 6.1626 -2.6842 51.5639
#
#
#
# Elastic Compliance Matrix: (Units=1/GPa)
#
#
# Indices 1 2 3 4 5 6 
#
# 1 0.010216 -0.005652 -0.001805 0.003157 0.000993 -0.001052
# 2 -0.005652 0.024947 -0.004838 -0.001581 -0.006937 -0.012942
# 3 -0.001805 -0.004838 0.007387 -0.000650 0.001333 0.002484
# 4 0.003157 -0.001581 -0.000650 0.026257 -0.003557 -0.003636
# 5 0.000993 -0.006937 0.001333 -0.003557 0.020364 0.005318
# 6 -0.001052 -0.012942 0.002484 -0.003636 0.005318 0.028657
#
#
# Mechanical properties :
#
#
# Convention : Reuss Voigt Hill
#
# Bulk Modulus (GPa) = 55.67370 86.61004 71.14187
# Shear Modulus (GPa) = 33.69177 45.74042 39.71610
#
# Velocity S-wave (km/s) = 3.74687 4.36573 4.06809
# Velocity P-wave (km/s) = 6.47437 7.84235 7.19096
#
# Compressibility (1/GPa) = 0.01796180
#
# Stress axis : x y z
#
# Youngs Moduli (GPa) = 97.88094 40.08469 135.37742
#
# Poissons Ratio (x) = 0.22654 0.24436
# Poissons Ratio (y) = 0.55318 0.65493
# Poissons Ratio (z) = 0.17667 0.19392
#
# Static dielectric constant tensor:
#      x y z
#    x 1.925440 -0.047890 -0.021250 
#    y -0.047890 2.095350 0.001270 
#    z -0.021250 0.001270 1.902830 
# 
# From -- ./inp_files/600069.got.cif
#   From: 2010.05.17/outbox.cif.g08.bks.cpg/sg2_301_cif.got.tgz:600069.got - 2010.06.03 11:33:40.
