data_PCOD9061142
_publ_section_title
;
Structure prediction by ZEFSAII (Michael W. Deem and Ramdas Pophale) SiO2 
 PCOD9061142
Probable space group: P -1
;
_chemical_formula_sum "Si O2"
_cell_formula_units_Z 14
_cell_length_a 11.524254
_cell_length_b 14.228109
_cell_length_c 14.212039
_cell_angle_alpha 139.583935
_cell_angle_beta 34.160063
_cell_angle_gamma 150.821171
_cell_volume 631.469183
_symmetry_space_group_name_H-M "P -1"
_symmetry_group_IT_number 2
_symmetry_cell_setting 'triclinic'
loop_
_space_group_symop_operation_xyz
x,y,z
-x,-y,-z
loop_
_atom_site_type_symbol
_atom_site_label
_atom_site_fract_x
_atom_site_fract_y
_atom_site_fract_z
Si Si1 0.138457 0.842615 0.496539
Si Si2 0.183313 0.307983 0.598067
Si Si3 0.790356 0.716283 0.966135
Si Si4 0.597204 0.089764 0.898663
Si Si5 0.997885 0.489828 0.381906
Si Si6 0.849057 0.909925 0.884429
Si Si7 0.539961 0.811556 0.572894
O O1 0.964576 0.782919 0.472083
O O2 0.213100 0.710933 0.366934
O O3 0.966941 0.830059 0.686969
O O4 0.393555 0.066487 0.472812
O O5 0.500000 0.500000 0.500000
O O6 0.232162 0.192974 0.544765
O O7 0.929468 0.272570 0.797389
O O8 0.774726 0.818549 0.967752
O O9 0.982603 0.668310 0.779774
O O10 0.500000 0.500000 0.000000
O O11 0.909284 0.857201 0.083406
O O12 0.510129 0.915182 0.755245
O O13 0.413323 0.139914 0.027452
O O14 0.500000 0.000000 0.000000
O O15 0.721113 0.406920 0.449106
O O16 0.000000 0.500000 0.500000
#
# Coordination Sequence:
#
# PCOD9061142 Si02
#       7
#     2   2   2   2   2   2   2
#     4  11  24  42  74  96 141 184 238 283 357 428
#     4  11  23  44  73 106 140 187 239 297 351 434
#     4  11  27  44  68  98 146 178 237 294 353 413
#     4  11  23  45  73 101 144 185 232 290 369 421
#     4  12  25  45  67 103 134 185 242 284 351 423
#     4  11  24  46  67 103 138 186 229 294 358 416
#     4  11  24  44  72  99 141 185 235 290 352 430
#
# _framework density 22.17052
#
# number of rings (size 3 to 8) (size 9 to 14) (size 15 to 20)
#    0.000    0.857    4.286    3.429    6.000    0.571 
#    2.571    1.429    0.000    0.000    0.000    0.000 
#    0.000    0.000    0.000    0.000    0.000    0.000 
#
# Total GULP energy -78043.795995 kJ/mol
# GULP energy per Si atom -5574.556857 kJ/mol
# Density = 2.212006 g / cm^3
# Si number density = 22.170520 Si / 1000 Ang^3
#
#
#
# Elastic Constant Matrix: (Units=GPa)
#
#
# Indices 1 2 3 4 5 6 
#
# 1 94.1408 16.0579 20.7757 -4.4717 -10.2944 -13.5789
# 2 16.0579 93.3630 12.3117 -19.1442 -5.1942 -11.8070
# 3 20.7757 12.3117 68.1180 -8.3708 0.7800 9.1509
# 4 -4.4717 -19.1442 -8.3708 38.8524 -3.7735 -4.1560
# 5 -10.2944 -5.1942 0.7800 -3.7735 31.6255 4.8633
# 6 -13.5789 -11.8070 9.1509 -4.1560 4.8633 36.5268
#
#
#
# Elastic Compliance Matrix: (Units=1/GPa)
#
#
# Indices 1 2 3 4 5 6 
#
# 1 0.012922 -0.000503 -0.004472 0.001200 0.003543 0.005427
# 2 -0.000503 0.013222 -0.002117 0.006750 0.002080 0.005108
# 3 -0.004472 -0.002117 0.017476 0.001416 -0.001078 -0.006420
# 4 0.001200 0.006750 0.001416 0.030478 0.004306 0.005168
# 5 0.003543 0.002080 -0.001078 0.004306 0.033927 -0.001768
# 6 0.005427 0.005108 -0.006420 0.005168 -0.001768 0.033478
#
#
# Mechanical properties :
#
#
# Convention : Reuss Voigt Hill
#
# Bulk Modulus (GPa) = 33.97270 39.32359 36.64814
# Shear Modulus (GPa) = 30.21132 35.16602 32.68867
#
# Velocity S-wave (km/s) = 3.69545 3.98698 3.84398
# Velocity P-wave (km/s) = 5.79354 6.24260 6.02226
#
# Compressibility (1/GPa) = 0.02943540
#
# Stress axis : x y z
#
# Youngs Moduli (GPa) = 77.38509 75.62956 57.22160
#
# Poissons Ratio (x) = 0.03807 0.25592
# Poissons Ratio (y) = 0.03895 0.12113
# Poissons Ratio (z) = 0.34609 0.16010
#
# Static dielectric constant tensor:
#      x y z
#    x 1.966310 0.135500 -0.537390 
#    y 0.135500 2.010650 -0.407220 
#    z -0.537390 -0.407220 3.206040 
# 
# From -- ./inp_files/520994.got.cif
#   From: 2010.05.17/outbox.cif.g08.bks.cpg/sg2_261_cif.got.tgz:520994.got - 2010.06.03 11:33:40.
