data_PCOD9061259
_publ_section_title
;
Structure prediction by ZEFSAII (Michael W. Deem and Ramdas Pophale) SiO2 
 PCOD9061259
Probable space group: P -1
;
_chemical_formula_sum "Si O2"
_cell_formula_units_Z 12
_cell_length_a 15.060114
_cell_length_b 12.324715
_cell_length_c 8.744330
_cell_angle_alpha 134.059882
_cell_angle_beta 38.420750
_cell_angle_gamma 150.518787
_cell_volume 495.901646
_symmetry_space_group_name_H-M "P -1"
_symmetry_group_IT_number 2
_symmetry_cell_setting 'triclinic'
loop_
_space_group_symop_operation_xyz
x,y,z
-x,-y,-z
loop_
_atom_site_type_symbol
_atom_site_label
_atom_site_fract_x
_atom_site_fract_y
_atom_site_fract_z
Si Si1 0.667114 0.995484 0.765150
Si Si2 0.478245 0.402981 0.251596
Si Si3 0.747315 0.106325 0.415473
Si Si4 0.903291 0.745598 0.510694
Si Si5 0.941189 0.870773 0.110376
Si Si6 0.376592 0.669204 0.299799
O O1 0.555168 0.760435 0.748196
O O2 0.750371 0.057565 0.539609
O O3 0.881191 0.168873 0.745909
O O4 0.500000 0.000000 0.000000
O O5 0.276748 0.355330 0.466452
O O6 0.695516 0.653023 0.233411
O O7 0.506188 0.350071 0.994377
O O8 0.724343 0.268366 0.592911
O O9 0.542522 0.869989 0.388378
O O10 0.937868 0.193748 0.140599
O O11 0.792084 0.556183 0.601321
O O12 0.974049 0.959322 0.700962
O O13 0.000000 0.000000 0.000000
#
# Coordination Sequence:
#
# PCOD9061259 Si02
#       6
#     2   2   2   2   2   2
#     4  12  27  46  68 104 149 187 228 286 360 422
#     4  12  25  45  73 106 145 183 230 293 357 410
#     4  11  24  45  72 110 137 185 239 289 349 418
#     4  12  26  47  74 105 141 185 239 290 346 416
#     4  12  23  43  77 104 134 185 243 287 340 416
#     4  11  23  44  77 103 141 183 240 293 343 413
#
# _framework density 24.198346000000001
#
# number of rings (size 3 to 8) (size 9 to 14) (size 15 to 20)
#    0.000    0.333    6.667    2.000    2.333    2.000 
#    3.000    0.833    0.000    0.000    0.000    0.000 
#    0.000    0.000    0.000    0.000    0.000    0.000 
#
# Total GULP energy -67263.496991 kJ/mol
# GULP energy per Si atom -5605.291416 kJ/mol
# Density = 2.414327 g / cm^3
# Si number density = 24.198346 Si / 1000 Ang^3
#
#
#
# Elastic Constant Matrix: (Units=GPa)
#
#
# Indices 1 2 3 4 5 6 
#
# 1 113.1892 78.9282 28.1920 -27.4223 -21.5098 -2.9081
# 2 78.9282 175.5086 39.7160 -34.3248 -17.5889 -0.1918
# 3 28.1920 39.7160 98.4009 -21.8908 -35.5290 9.7687
# 4 -27.4223 -34.3248 -21.8908 28.5735 11.8953 -1.6221
# 5 -21.5098 -17.5889 -35.5290 11.8953 47.1629 -10.6741
# 6 -2.9081 -0.1918 9.7687 -1.6221 -10.6741 44.4341
#
#
#
# Elastic Compliance Matrix: (Units=1/GPa)
#
#
# Indices 1 2 3 4 5 6 
#
# 1 0.014644 -0.004945 0.000597 0.007034 0.003967 0.002015
# 2 -0.004945 0.009259 -0.001546 0.005789 -0.001445 -0.000080
# 3 0.000597 -0.001546 0.015653 0.006657 0.009615 -0.000856
# 4 0.007034 0.005789 0.006657 0.055277 -0.003516 0.000195
# 5 0.003967 -0.001445 0.009615 -0.003516 0.031887 0.005671
# 6 0.002015 -0.000080 -0.000856 0.000195 0.005671 0.024194
#
#
# Mechanical properties :
#
#
# Convention : Reuss Voigt Hill
#
# Bulk Modulus (GPa) = 36.01359 75.64122 55.82741
# Shear Modulus (GPa) = 29.07684 40.05159 34.56422
#
# Velocity S-wave (km/s) = 3.47018 4.07275 3.78348
# Velocity P-wave (km/s) = 5.56517 7.31048 6.49670
#
# Compressibility (1/GPa) = 0.02776729
#
# Stress axis : x y z
#
# Youngs Moduli (GPa) = 68.28650 108.00460 63.88601
#
# Poissons Ratio (x) = 0.53413 -0.03817
# Poissons Ratio (y) = 0.33771 0.09879
# Poissons Ratio (z) = -0.04080 0.16701
#
# Static dielectric constant tensor:
#      x y z
#    x 1.958320 0.018250 -0.026150 
#    y 0.018250 1.868050 0.002680 
#    z -0.026150 0.002680 1.983630 
# 
# From -- ./inp_files/158140.got.cif
#   From: 2010.05.17/outbox.cif.g08.bks.cpg/sg2_80_cif.got.tgz:158140.got - 2010.06.03 11:33:40.
