data_PCOD9061248
_publ_section_title
;
Structure prediction by ZEFSAII (Michael W. Deem and Ramdas Pophale) SiO2 
 PCOD9061248
Probable space group: P -1
;
_chemical_formula_sum "Si O2"
_cell_formula_units_Z 14
_cell_length_a 11.958629
_cell_length_b 13.053267
_cell_length_c 7.332833
_cell_angle_alpha 110.198425
_cell_angle_beta 112.793125
_cell_angle_gamma 32.119026
_cell_volume 560.718153
_symmetry_space_group_name_H-M "P -1"
_symmetry_group_IT_number 2
_symmetry_cell_setting 'triclinic'
loop_
_space_group_symop_operation_xyz
x,y,z
-x,-y,-z
loop_
_atom_site_type_symbol
_atom_site_label
_atom_site_fract_x
_atom_site_fract_y
_atom_site_fract_z
Si Si1 0.925127 0.484341 0.114811
Si Si2 0.473565 0.906358 0.034277
Si Si3 0.103114 0.685103 0.566764
Si Si4 0.430314 0.639891 0.393359
Si Si5 0.123082 0.743733 0.017846
Si Si6 0.259281 0.166238 0.382089
Si Si7 0.162162 0.992939 0.689698
O O1 0.690965 0.705058 0.140658
O O2 0.116502 0.360400 0.304212
O O3 0.886392 0.380676 0.011100
O O4 0.000000 0.500000 0.000000
O O5 0.302398 0.047780 0.173711
O O6 0.378953 0.896169 0.818088
O O7 0.500000 0.000000 0.000000
O O8 0.905151 0.751597 0.519881
O O9 0.346981 0.461807 0.570031
O O10 0.022946 0.803772 0.408049
O O11 0.106119 0.756219 0.796264
O O12 0.500000 0.500000 0.500000
O O13 0.337867 0.643354 0.164349
O O14 0.246566 0.844831 0.504256
O O15 0.942336 0.945328 0.139322
O O16 0.500000 0.000000 0.500000
#
# Coordination Sequence:
#
# PCOD9061248 Si02
#       7
#     2   2   2   2   2   2   2
#     4  11  23  44  76 108 146 205 245 311 387 453
#     4  12  23  44  74 107 149 199 252 312 379 452
#     4  11  26  46  74 109 153 197 252 319 380 455
#     4  12  26  48  75 110 148 201 256 315 378 458
#     4  11  24  50  72 110 154 196 257 314 384 452
#     4  11  25  48  72 112 157 194 258 317 383 461
#     4  12  25  47  76 105 153 197 252 311 385 449
#
# _framework density 24.967981000000002
#
# number of rings (size 3 to 8) (size 9 to 14) (size 15 to 20)
#    0.000    0.571    5.714    2.571    0.000    3.429 
#    2.571    1.429    0.000    0.000    0.000    0.000 
#    0.000    0.000    0.000    0.000    0.000    0.000 
#
# Total GULP energy -78158.703553 kJ/mol
# GULP energy per Si atom -5582.764539 kJ/mol
# Density = 2.491115 g / cm^3
# Si number density = 24.967981 Si / 1000 Ang^3
#
#
#
# Elastic Constant Matrix: (Units=GPa)
#
#
# Indices 1 2 3 4 5 6 
#
# 1 66.2594 21.1589 -4.9789 -6.6271 14.9046 -21.8625
# 2 21.1589 144.9526 23.1276 -13.8906 6.7777 -33.5775
# 3 -4.9789 23.1276 127.0925 -16.8478 15.4056 -0.3846
# 4 -6.6271 -13.8906 -16.8478 59.7589 -15.1220 3.3327
# 5 14.9046 6.7777 15.4056 -15.1220 40.7167 0.0210
# 6 -21.8625 -33.5775 -0.3846 3.3327 0.0210 41.6932
#
#
#
# Elastic Compliance Matrix: (Units=1/GPa)
#
#
# Indices 1 2 3 4 5 6 
#
# 1 0.020707 -0.000520 0.001941 0.000062 -0.008210 0.010456
# 2 -0.000520 0.008901 -0.001428 0.001147 -0.000329 0.006791
# 3 0.001941 -0.001428 0.008801 0.001559 -0.003224 -0.000174
# 4 0.000062 0.001147 0.001559 0.019067 0.006278 -0.000557
# 5 -0.008210 -0.000329 -0.003224 0.006278 0.031174 -0.005117
# 6 0.010456 0.006791 -0.000174 -0.000557 -0.005117 0.034982
#
#
# Mechanical properties :
#
#
# Convention : Reuss Voigt Hill
#
# Bulk Modulus (GPa) = 26.04512 46.32440 36.18476
# Shear Modulus (GPa) = 36.64495 48.36688 42.50591
#
# Velocity S-wave (km/s) = 3.83518 4.40609 4.13051
# Velocity P-wave (km/s) = 5.48321 6.66923 6.10509
#
# Compressibility (1/GPa) = 0.03839491
#
# Stress axis : x y z
#
# Youngs Moduli (GPa) = 48.29208 112.34870 113.62353
#
# Poissons Ratio (x) = 0.05847 -0.22054
# Poissons Ratio (y) = 0.02513 0.16222
# Poissons Ratio (z) = -0.09373 0.16040
#
# Static dielectric constant tensor:
#      x y z
#    x 2.108440 -0.005320 0.071600 
#    y -0.005320 1.910580 0.006720 
#    z 0.071600 0.006720 1.994510 
# 
# From -- ./inp_files/221246.got.cif
#   From: 2010.05.17/outbox.cif.g08.bks.cpg/sg2_111_cif.got.tgz:221246.got - 2010.06.03 11:33:40.
