data_PCOD9061214
_publ_section_title
;
Structure prediction by ZEFSAII (Michael W. Deem and Ramdas Pophale) SiO2 
 PCOD9061214
Probable space group: P -1
;
_chemical_formula_sum "Si O2"
_cell_formula_units_Z 13
_cell_length_a 9.147312
_cell_length_b 9.502925
_cell_length_c 12.142587
_cell_angle_alpha 61.067015
_cell_angle_beta 35.306835
_cell_angle_gamma 81.947516
_cell_volume 461.256791
_symmetry_space_group_name_H-M "P -1"
_symmetry_group_IT_number 2
_symmetry_cell_setting 'triclinic'
loop_
_space_group_symop_operation_xyz
x,y,z
-x,-y,-z
loop_
_atom_site_type_symbol
_atom_site_label
_atom_site_fract_x
_atom_site_fract_y
_atom_site_fract_z
Si Si1 0.618905 0.369344 0.636982
Si Si2 0.545742 0.193293 0.268345
Si Si3 0.670754 0.718752 0.949262
Si Si4 0.500000 0.000000 0.000000
Si Si5 0.969529 0.208578 0.820181
Si Si6 0.476704 0.802413 0.476963
Si Si7 0.126068 0.328890 0.374700
O O1 0.331924 0.312572 0.906445
O O2 0.591432 0.317616 0.546372
O O3 0.823266 0.589572 0.437496
O O4 0.788566 0.271563 0.632073
O O5 0.640932 0.280811 0.298293
O O6 0.305164 0.238568 0.350458
O O7 0.415475 0.971741 0.439824
O O8 0.816360 0.251341 0.998930
O O9 0.683531 0.911402 0.855651
O O10 0.346893 0.548053 0.178031
O O11 0.877217 0.697385 0.744947
O O12 0.268795 0.931330 0.063588
O O13 0.178236 0.126552 0.750734
#
# Coordination Sequence:
#
# PCOD9061214 Si02
#       7
#     2   2   2   1   2   2   2
#     4  12  26  45  76 112 142 193 238 301 364 432
#     4  11  25  49  70 106 146 195 240 295 358 432
#     4  11  24  44  71 113 141 186 240 299 363 414
#     4  12  24  44  74 106 138 188 240 296 352 416
#     4  12  25  48  72 105 147 189 244 296 361 429
#     4  11  28  47  72 105 149 193 240 292 366 431
#     4  11  23  44  75 106 150 184 241 301 355 434
#
# _framework density 28.183869000000001
#
# number of rings (size 3 to 8) (size 9 to 14) (size 15 to 20)
#    0.000    0.615    3.077    4.154    2.154    4.923 
#    0.000    0.000    0.000    0.000    0.000    0.000 
#    0.000    0.000    0.000    0.000    0.000    0.000 
#
# Total GULP energy -72718.770496 kJ/mol
# GULP energy per Si atom -5593.751577 kJ/mol
# Density = 2.811972 g / cm^3
# Si number density = 28.183869 Si / 1000 Ang^3
#
#
#
# Elastic Constant Matrix: (Units=GPa)
#
#
# Indices 1 2 3 4 5 6 
#
# 1 117.9893 60.6089 40.7227 18.6416 -4.0649 11.5735
# 2 60.6089 175.9599 32.6629 21.6045 8.5351 10.7620
# 3 40.7227 32.6629 80.1868 39.0716 13.2406 0.7554
# 4 18.6416 21.6045 39.0716 65.2488 9.9228 18.6375
# 5 -4.0649 8.5351 13.2406 9.9228 42.3020 10.2191
# 6 11.5735 10.7620 0.7554 18.6375 10.2191 57.8206
#
#
#
# Elastic Compliance Matrix: (Units=1/GPa)
#
#
# Indices 1 2 3 4 5 6 
#
# 1 0.012656 -0.003366 -0.006543 0.001651 0.004308 -0.003115
# 2 -0.003366 0.007123 -0.000574 -0.000805 -0.001357 -0.000145
# 3 -0.006543 -0.000574 0.023183 -0.012664 -0.006324 0.006313
# 4 0.001651 -0.000805 -0.012664 0.024968 0.000393 -0.008133
# 5 0.004308 -0.001357 -0.006324 0.000393 0.027549 -0.005523
# 6 -0.003115 -0.000145 0.006313 -0.008133 -0.005523 0.021460
#
#
# Mechanical properties :
#
#
# Convention : Reuss Voigt Hill
#
# Bulk Modulus (GPa) = 45.46349 71.34724 58.40536
# Shear Modulus (GPa) = 34.42700 49.08369 41.75535
#
# Velocity S-wave (km/s) = 3.49881 4.17772 3.85325
# Velocity P-wave (km/s) = 5.69985 6.97431 6.36904
#
# Compressibility (1/GPa) = 0.02199567
#
# Stress axis : x y z
#
# Youngs Moduli (GPa) = 79.01690 140.39781 43.13517
#
# Poissons Ratio (x) = 0.47256 0.28221
# Poissons Ratio (y) = 0.26596 0.02477
# Poissons Ratio (z) = 0.51697 0.08063
#
# Static dielectric constant tensor:
#      x y z
#    x 2.140780 0.117440 -0.006790 
#    y 0.117440 1.835860 0.212580 
#    z -0.006790 0.212580 1.964960 
# 
# From -- ./inp_files/381568.got.cif
#   From: 2010.05.17/outbox.cif.g08.bks.cpg/sg2_191_cif.got.tgz:381568.got - 2010.06.03 11:33:40.
