data_PCOD9061567
_publ_section_title
;
Structure prediction by ZEFSAII (Michael W. Deem and Ramdas Pophale) SiO2 
 PCOD9061567
Probable space group: P -1
;
_chemical_formula_sum "Si O2"
_cell_formula_units_Z 14
_cell_length_a 21.314513
_cell_length_b 6.480711
_cell_length_c 9.465588
_cell_angle_alpha 71.096373
_cell_angle_beta 141.874024
_cell_angle_gamma 83.299798
_cell_volume 589.292893
_symmetry_space_group_name_H-M "P -1"
_symmetry_group_IT_number 2
_symmetry_cell_setting 'triclinic'
loop_
_space_group_symop_operation_xyz
x,y,z
-x,-y,-z
loop_
_atom_site_type_symbol
_atom_site_label
_atom_site_fract_x
_atom_site_fract_y
_atom_site_fract_z
Si Si1 0.611653 0.900325 0.607723
Si Si2 0.881738 0.722267 0.849067
Si Si3 0.746262 0.358172 0.133363
Si Si4 0.666031 0.658198 0.489183
Si Si5 0.272928 0.821539 0.124737
Si Si6 0.359034 0.588270 0.770413
Si Si7 0.995148 0.726622 0.344508
O O1 0.577976 0.933439 0.375112
O O2 0.500000 0.000000 0.500000
O O3 0.712658 0.569727 0.899956
O O4 0.684303 0.014849 0.762433
O O5 0.801449 0.607518 0.752497
O O6 0.765880 0.065166 0.536458
O O7 0.952891 0.706767 0.119596
O O8 0.000000 0.500000 0.000000
O O9 0.728061 0.164087 0.050537
O O10 0.650021 0.474725 0.069119
O O11 0.881949 0.276947 0.444717
O O12 0.658115 0.590399 0.329080
O O13 0.642153 0.465066 0.572326
O O14 0.123469 0.974514 0.865740
O O15 0.500000 0.500000 0.000000
O O16 0.000000 0.500000 0.500000
#
# Coordination Sequence:
#
# PCOD9061567 Si02
#       7
#     2   2   2   2   2   2   2
#     4  11  25  45  74 102 141 188 247 303 365 430
#     4  12  28  48  74 108 150 193 245 299 359 437
#     4  11  27  41  71 108 140 192 238 304 363 438
#     4  11  24  48  73 101 143 197 238 304 361 431
#     4  11  23  45  73 105 140 184 242 305 367 429
#     4  12  30  50  71 106 151 198 246 294 370 438
#     4  12  22  45  72 107 144 181 244 301 370 426
#
# _framework density 23.757287000000002
#
# number of rings (size 3 to 8) (size 9 to 14) (size 15 to 20)
#    0.000    0.571    4.286    2.143   10.000    4.000 
#    0.000    0.000    0.000    0.000    0.000    0.000 
#    0.000    0.000    0.000    0.000    0.000    0.000 
#
# Total GULP energy -78005.925265 kJ/mol
# GULP energy per Si atom -5571.851805 kJ/mol
# Density = 2.370321 g / cm^3
# Si number density = 23.757287 Si / 1000 Ang^3
#
#
#
# Elastic Constant Matrix: (Units=GPa)
#
#
# Indices 1 2 3 4 5 6 
#
# 1 133.3888 43.7207 19.0395 -3.7513 1.5154 -48.4634
# 2 43.7207 67.8205 26.0877 3.0699 -18.8810 -45.4997
# 3 19.0395 26.0877 61.4383 -6.9093 -7.0379 -20.8664
# 4 -3.7513 3.0699 -6.9093 19.1775 -13.7476 -15.6205
# 5 1.5154 -18.8810 -7.0379 -13.7476 44.2627 2.9209
# 6 -48.4634 -45.4997 -20.8664 -15.6205 2.9209 56.6103
#
#
#
# Elastic Compliance Matrix: (Units=1/GPa)
#
#
# Indices 1 2 3 4 5 6 
#
# 1 -0.008979 -0.072983 -0.029750 -0.146180 -0.073444 -0.113858
# 2 -0.072983 -0.203034 -0.109518 -0.510649 -0.234068 -0.394860
# 3 -0.029750 -0.109518 -0.024448 -0.216504 -0.105161 -0.176818
# 4 -0.146180 -0.510649 -0.216504 -1.063402 -0.519324 -0.882002
# 5 -0.073444 -0.234068 -0.105161 -0.519324 -0.224944 -0.421456
# 6 -0.113858 -0.394860 -0.176818 -0.882002 -0.421456 -0.683971
#
#
# Mechanical properties :
#
#
# Convention : Reuss Voigt Hill
#
# Bulk Modulus (GPa) = -1.51294 48.92705 23.70705
# Shear Modulus (GPa) = -2.49427 35.59674 16.55123
#
# Velocity S-wave (km/s) = -1.02576 3.87505 2.64233
# Velocity P-wave (km/s) = 1.42868 6.37657 4.39429
#
# Compressibility (1/GPa) = -0.66096369
#
# Stress axis : x y z
#
# Youngs Moduli (GPa) = -111.37160 -4.92528 -40.90316
#
# Poissons Ratio (x) = -0.35946 -1.21686
# Poissons Ratio (y) = -8.12827 -4.47964
# Poissons Ratio (z) = -3.31327 -0.53941
#
# Static dielectric constant tensor:
#      x y z
#    x 1.741570 0.024800 -0.036130 
#    y 0.024800 2.132020 -0.088360 
#    z -0.036130 -0.088360 2.007160 
# 
# From -- ./inp_files/46628.got.cif
#   From: 2010.05.17/outbox.cif.g08.bks.cpg/sg2_24_cif.got.tgz:46628.got - 2010.06.03 11:33:40.
