data_PCOD9061959
_publ_section_title
;
Structure prediction by ZEFSAII (Michael W. Deem and Ramdas Pophale) SiO2 
 PCOD9061959
Probable space group: P -1
;
_chemical_formula_sum "Si O2"
_cell_formula_units_Z 14
_cell_length_a 13.937355
_cell_length_b 7.309300
_cell_length_c 13.098055
_cell_angle_alpha 62.470265
_cell_angle_beta 31.104605
_cell_angle_gamma 60.643217
_cell_volume 598.122111
_symmetry_space_group_name_H-M "P -1"
_symmetry_group_IT_number 2
_symmetry_cell_setting 'triclinic'
loop_
_space_group_symop_operation_xyz
x,y,z
-x,-y,-z
loop_
_atom_site_type_symbol
_atom_site_label
_atom_site_fract_x
_atom_site_fract_y
_atom_site_fract_z
Si Si1 0.974604 0.279484 0.529792
Si Si2 0.566606 0.220610 0.870437
Si Si3 0.663625 0.019175 0.632133
Si Si4 0.130363 0.779398 0.967490
Si Si5 0.509493 0.323485 0.202669
Si Si6 0.705593 0.350424 0.360927
Si Si7 0.880150 0.500776 0.364612
O O1 0.767229 0.223675 0.741433
O O2 0.992287 0.315934 0.382884
O O3 0.000000 0.500000 0.500000
O O4 0.135224 0.101582 0.477239
O O5 0.446607 0.457226 0.937538
O O6 0.591721 0.209865 0.726383
O O7 0.469176 0.152005 0.203351
O O8 0.500000 0.000000 0.000000
O O9 0.678191 0.119724 0.482220
O O10 0.325943 0.787020 0.843890
O O11 0.012563 0.663654 0.180755
O O12 0.187948 0.656978 0.841019
O O13 0.000000 0.000000 0.000000
O O14 0.308342 0.392263 0.427948
O O15 0.500000 0.500000 0.500000
O O16 0.822190 0.426350 0.327016
#
# Coordination Sequence:
#
# PCOD9061959 Si02
#       7
#     2   2   2   2   2   2   2
#     4  11  23  46  75 106 152 195 251 311 380 462
#     4  11  25  44  70 109 147 195 247 310 380 452
#     4  12  24  45  77 102 145 205 242 309 390 447
#     4  12  28  45  74 113 145 199 259 314 374 452
#     4  11  25  50  71 108 154 193 251 315 381 450
#     4  12  25  48  78 104 151 202 252 313 379 448
#     4  11  24  48  72 105 152 193 250 309 377 451
#
# _framework density 23.406590999999999
#
# number of rings (size 3 to 8) (size 9 to 14) (size 15 to 20)
#    0.000    0.571    7.143    1.714    4.000    2.857 
#    2.571    0.000    0.000    0.000    0.000    0.000 
#    0.000    0.000    0.000    0.000    0.000    0.000 
#
# Total GULP energy -78328.204460 kJ/mol
# GULP energy per Si atom -5594.871747 kJ/mol
# Density = 2.335332 g / cm^3
# Si number density = 23.406591 Si / 1000 Ang^3
#
#
#
# Elastic Constant Matrix: (Units=GPa)
#
#
# Indices 1 2 3 4 5 6 
#
# 1 154.9917 50.4148 18.6609 5.9860 -13.5014 0.6617
# 2 50.4148 131.7583 27.4065 -6.1830 -17.4736 -14.0904
# 3 18.6609 27.4065 81.0873 -13.1813 -8.4342 -5.3177
# 4 5.9860 -6.1830 -13.1813 35.4410 10.9512 1.0164
# 5 -13.5014 -17.4736 -8.4342 10.9512 25.6662 1.8362
# 6 0.6617 -14.0904 -5.3177 1.0164 1.8362 63.3000
#
#
#
# Elastic Compliance Matrix: (Units=1/GPa)
#
#
# Indices 1 2 3 4 5 6 
#
# 1 0.007849 -0.002539 -0.001169 -0.003249 0.003460 -0.000793
# 2 -0.002539 0.009810 -0.002153 -0.000122 0.004552 0.001899
# 3 -0.001169 -0.002153 0.014222 0.004960 0.000431 0.000636
# 4 -0.003249 -0.000122 0.004960 0.035289 -0.015241 0.000299
# 5 0.003460 0.004552 0.000431 -0.015241 0.050540 -0.000208
# 6 -0.000793 0.001899 0.000636 0.000299 -0.000208 0.016283
#
#
# Mechanical properties :
#
#
# Convention : Reuss Voigt Hill
#
# Bulk Modulus (GPa) = 49.60422 62.31131 55.95777
# Shear Modulus (GPa) = 32.80126 42.97176 37.88651
#
# Velocity S-wave (km/s) = 3.74755 4.28937 4.02758
# Velocity P-wave (km/s) = 6.32170 7.15616 6.75183
#
# Compressibility (1/GPa) = 0.02015957
#
# Stress axis : x y z
#
# Youngs Moduli (GPa) = 127.41045 101.93784 70.31437
#
# Poissons Ratio (x) = 0.25878 0.08217
# Poissons Ratio (y) = 0.32344 0.15140
# Poissons Ratio (z) = 0.14890 0.21949
#
# Static dielectric constant tensor:
#      x y z
#    x 1.840180 0.034570 0.019440 
#    y 0.034570 1.891990 -0.046610 
#    z 0.019440 -0.046610 1.956260 
# 
# From -- ./inp_files/446889.got.cif
#   From: 2010.05.17/outbox.cif.g08.bks.cpg/sg2_224_cif.got.tgz:446889.got - 2010.06.03 11:33:40.
