data_PCOD9061671
_publ_section_title
;
Structure prediction by ZEFSAII (Michael W. Deem and Ramdas Pophale) SiO2 
 PCOD9061671
Probable space group: P -1
;
_chemical_formula_sum "Si O2"
_cell_formula_units_Z 14
_cell_length_a 15.709546
_cell_length_b 9.689528
_cell_length_c 12.298297
_cell_angle_alpha 40.571610
_cell_angle_beta 151.058482
_cell_angle_gamma 131.959299
_cell_volume 589.152977
_symmetry_space_group_name_H-M "P -1"
_symmetry_group_IT_number 2
_symmetry_cell_setting 'triclinic'
loop_
_space_group_symop_operation_xyz
x,y,z
-x,-y,-z
loop_
_atom_site_type_symbol
_atom_site_label
_atom_site_fract_x
_atom_site_fract_y
_atom_site_fract_z
Si Si1 0.578869 0.638040 0.298243
Si Si2 0.708817 0.028335 0.514736
Si Si3 0.415784 0.988292 0.051477
Si Si4 0.455305 0.338873 0.148031
Si Si5 0.900292 0.621037 0.986571
Si Si6 0.948324 0.686146 0.250638
Si Si7 0.201252 0.686762 0.123497
O O1 0.448132 0.792667 0.123693
O O2 0.494380 0.472186 0.220212
O O3 0.689759 0.505552 0.587045
O O4 0.677784 0.814769 0.228079
O O5 0.588207 0.144972 0.398276
O O6 0.900904 0.135170 0.674787
O O7 0.606406 0.063688 0.265465
O O8 0.733902 0.777107 0.705095
O O9 0.315343 0.891044 0.099591
O O10 0.500000 0.500000 0.000000
O O11 0.253087 0.263920 0.974307
O O12 0.871057 0.404733 0.017005
O O13 0.954666 0.606315 0.180742
O O14 0.050292 0.730895 0.014403
O O15 0.000000 0.500000 0.500000
#
# Coordination Sequence:
#
# PCOD9061671 Si02
#       7
#     2   2   2   2   2   2   2
#     4  11  23  45  76 110 147 193 257 304 373 454
#     4  12  26  47  68 111 147 189 253 299 374 454
#     4  11  24  44  78 110 145 198 252 306 377 448
#     4  12  25  45  75 109 146 199 246 299 383 445
#     4  11  27  49  68 112 146 193 256 309 378 448
#     4  12  26  47  73 103 156 191 240 315 364 441
#     4  11  25  48  78 104 153 197 250 317 375 440
#
# _framework density 23.762929
#
# number of rings (size 3 to 8) (size 9 to 14) (size 15 to 20)
#    0.000    0.571    4.286    2.571    4.000    1.714 
#    0.000    1.429    0.000    0.000    0.000    0.000 
#    0.000    0.000    0.000    0.000    0.000    0.000 
#
# Total GULP energy -78336.853058 kJ/mol
# GULP energy per Si atom -5595.489504 kJ/mol
# Density = 2.370884 g / cm^3
# Si number density = 23.762929 Si / 1000 Ang^3
#
#
#
# Elastic Constant Matrix: (Units=GPa)
#
#
# Indices 1 2 3 4 5 6 
#
# 1 137.6694 80.4099 60.3232 9.3652 4.7515 -6.5115
# 2 80.4099 88.7783 35.0768 10.2508 15.2400 -27.5955
# 3 60.3232 35.0768 51.8701 -0.4727 10.6562 4.8288
# 4 9.3652 10.2508 -0.4727 41.6165 -3.2530 -0.5269
# 5 4.7515 15.2400 10.6562 -3.2530 51.5076 6.4654
# 6 -6.5115 -27.5955 4.8288 -0.5269 6.4654 43.6919
#
#
#
# Elastic Compliance Matrix: (Units=1/GPa)
#
#
# Indices 1 2 3 4 5 6 
#
# 1 0.026980 -0.021744 -0.017621 -0.000350 0.008705 -0.009057
# 2 -0.021744 0.044416 -0.004461 -0.006852 -0.014073 0.027305
# 3 -0.017621 -0.004461 0.044711 0.005077 -0.004777 -0.009617
# 4 -0.000350 -0.006852 0.005077 0.026046 0.003296 -0.005115
# 5 0.008705 -0.014073 -0.004777 0.003296 0.025324 -0.010771
# 6 -0.009057 0.027305 -0.009617 -0.005115 -0.010771 0.041378
#
#
# Mechanical properties :
#
#
# Convention : Reuss Voigt Hill
#
# Bulk Modulus (GPa) = 35.14413 69.99307 52.56860
# Shear Modulus (GPa) = 16.34025 34.19706 25.26866
#
# Velocity S-wave (km/s) = 2.62513 3.79765 3.26446
# Velocity P-wave (km/s) = 4.90000 6.98199 6.03151
#
# Compressibility (1/GPa) = 0.02845425
#
# Stress axis : x y z
#
# Youngs Moduli (GPa) = 37.06429 22.51465 22.36565
#
# Poissons Ratio (x) = 0.48956 0.39411
# Poissons Ratio (y) = 0.80593 0.09978
# Poissons Ratio (z) = 0.65311 0.10044
#
# Static dielectric constant tensor:
#      x y z
#    x 1.957480 0.047220 0.003820 
#    y 0.047220 1.932230 0.023060 
#    z 0.003820 0.023060 1.917090 
# 
# From -- ./inp_files/446867.got.cif
#   From: 2010.05.17/outbox.cif.g08.bks.cpg/sg2_224_cif.got.tgz:446867.got - 2010.06.03 11:33:40.
