data_PCOD9061316
_publ_section_title
;
Structure prediction by ZEFSAII (Michael W. Deem and Ramdas Pophale) SiO2 
 PCOD9061316
Probable space group: P -1
;
_chemical_formula_sum "Si O2"
_cell_formula_units_Z 14
_cell_length_a 24.003848
_cell_length_b 6.039915
_cell_length_c 18.330141
_cell_angle_alpha 66.565785
_cell_angle_beta 160.185939
_cell_angle_gamma 123.381305
_cell_volume 681.338026
_symmetry_space_group_name_H-M "P -1"
_symmetry_group_IT_number 2
_symmetry_cell_setting 'triclinic'
loop_
_space_group_symop_operation_xyz
x,y,z
-x,-y,-z
loop_
_atom_site_type_symbol
_atom_site_label
_atom_site_fract_x
_atom_site_fract_y
_atom_site_fract_z
Si Si1 0.730928 0.057556 0.491527
Si Si2 0.934319 0.308841 0.157048
Si Si3 0.945842 0.112251 0.604498
Si Si4 0.938573 0.827021 0.872162
Si Si5 0.722980 0.245766 0.057351
Si Si6 0.730159 0.214154 0.772275
Si Si7 0.394341 0.150218 0.895260
O O1 0.806998 0.117326 0.494273
O O2 0.849864 0.385654 0.627598
O O3 0.813057 0.898678 0.657698
O O4 0.494290 0.858241 0.225105
O O5 0.843987 0.271181 0.131049
O O6 0.788061 0.299359 0.917204
O O7 0.968299 0.053400 0.229444
O O8 0.798449 0.941652 0.378513
O O9 0.135508 0.432114 0.775664
O O10 0.813159 0.490294 0.785490
O O11 0.141809 0.914944 0.072648
O O12 0.000000 0.000000 0.000000
O O13 0.677121 0.014318 0.093723
O O14 0.500000 0.000000 0.500000
O O15 0.500000 0.500000 0.000000
O O16 0.500000 0.000000 0.000000
#
# Coordination Sequence:
#
# PCOD9061316 Si02
#       7
#     2   2   2   2   2   2   2
#     4  11  23  45  67  99 139 179 231 285 357 420
#     4  11  25  43  66 102 138 180 231 294 347 430
#     4  11  25  46  72 101 145 175 238 289 349 433
#     4  11  24  43  66  93 134 182 225 287 348 417
#     4  11  27  43  74 104 133 188 230 290 364 421
#     4  11  26  42  63  99 135 178 235 288 351 415
#     4  12  27  50  78 107 147 193 239 296 368 432
#
# _framework density 20.547805
#
# number of rings (size 3 to 8) (size 9 to 14) (size 15 to 20)
#    0.000    0.857    4.286    1.286    8.000    2.286 
#    0.000    0.000    0.000    0.000    0.000    0.000 
#    0.000    0.000    0.000    0.000    0.000    0.000 
#
# Total GULP energy -78078.209296 kJ/mol
# GULP energy per Si atom -5577.014950 kJ/mol
# Density = 2.050104 g / cm^3
# Si number density = 20.547805 Si / 1000 Ang^3
#
#
#
# Elastic Constant Matrix: (Units=GPa)
#
#
# Indices 1 2 3 4 5 6 
#
# 1 76.8624 21.9178 25.5147 7.8256 -9.9534 13.3254
# 2 21.9178 116.3052 50.7053 13.3479 -4.1476 9.8635
# 3 25.5147 50.7053 132.6116 29.4764 -12.7037 11.7944
# 4 7.8256 13.3479 29.4764 31.5704 5.4552 -11.7689
# 5 -9.9534 -4.1476 -12.7037 5.4552 38.7534 -5.3390
# 6 13.3254 9.8635 11.7944 -11.7689 -5.3390 24.8844
#
#
#
# Elastic Compliance Matrix: (Units=1/GPa)
#
#
# Indices 1 2 3 4 5 6 
#
# 1 0.016832 -0.001210 0.001038 -0.010177 0.004184 -0.012942
# 2 -0.001210 0.010727 -0.002964 -0.002751 -0.000236 -0.003551
# 3 0.001038 -0.002964 0.014287 -0.018370 0.005332 -0.013697
# 4 -0.010177 -0.002751 -0.018370 0.072079 -0.012653 0.046621
# 5 0.004184 -0.000236 0.005332 -0.012653 0.029795 -0.004265
# 6 -0.012942 -0.003551 -0.013697 0.046621 -0.004265 0.076149
#
#
# Mechanical properties :
#
#
# Convention : Reuss Voigt Hill
#
# Bulk Modulus (GPa) = 28.11067 58.00608 43.05837
# Shear Modulus (GPa) = 21.00858 34.21774 27.61316
#
# Velocity S-wave (km/s) = 3.20101 4.08520 3.66983
# Velocity P-wave (km/s) = 5.23185 7.10936 6.24160
#
# Compressibility (1/GPa) = 0.03557369
#
# Stress axis : x y z
#
# Youngs Moduli (GPa) = 59.40959 93.22537 69.99556
#
# Poissons Ratio (x) = 0.11279 -0.07266
# Poissons Ratio (y) = 0.07188 0.20748
# Poissons Ratio (z) = -0.06167 0.27633
#
# Static dielectric constant tensor:
#      x y z
#    x 1.794300 -0.069930 -0.023240 
#    y -0.069930 1.691290 -0.033610 
#    z -0.023240 -0.033610 1.699140 
# 
# From -- ./inp_files/6286.got.cif
#   From: 2010.05.17/outbox.cif.g08.bks.cpg/sg2_4_cif.got.tgz:6286.got - 2010.06.03 11:33:40.
