data_PCOD9061138
_publ_section_title
;
Structure prediction by ZEFSAII (Michael W. Deem and Ramdas Pophale) SiO2 
 PCOD9061138
Probable space group: P -1
;
_chemical_formula_sum "Si O2"
_cell_formula_units_Z 12
_cell_length_a 9.160284
_cell_length_b 26.289685
_cell_length_c 26.699073
_cell_angle_alpha 10.134319
_cell_angle_beta 25.061220
_cell_angle_gamma 24.306229
_cell_volume 462.292761
_symmetry_space_group_name_H-M "P -1"
_symmetry_group_IT_number 2
_symmetry_cell_setting 'triclinic'
loop_
_space_group_symop_operation_xyz
x,y,z
-x,-y,-z
loop_
_atom_site_type_symbol
_atom_site_label
_atom_site_fract_x
_atom_site_fract_y
_atom_site_fract_z
Si Si1 0.065368 0.458094 0.278634
Si Si2 0.760600 0.787365 0.269652
Si Si3 0.921138 0.685833 0.996571
Si Si4 0.386554 0.944103 0.144786
Si Si5 0.063944 0.905667 0.487663
Si Si6 0.639630 0.759663 0.850143
O O1 0.947942 0.191436 0.603201
O O2 0.325761 0.599460 0.094099
O O3 0.142500 0.497089 0.157209
O O4 0.693732 0.716230 0.140433
O O5 0.712719 0.739580 0.272219
O O6 0.000000 0.500000 0.500000
O O7 0.372580 0.998384 0.203511
O O8 0.000000 0.000000 0.000000
O O9 0.101801 0.837237 0.750329
O O10 0.790712 0.424499 0.261442
O O11 0.500000 0.000000 0.000000
O O12 0.739378 0.901165 0.630528
O O13 0.362303 0.010696 0.326076
O O14 0.000000 0.500000 0.000000
#
# Coordination Sequence:
#
# PCOD9061138 Si02
#       6
#     2   2   2   2   2   2
#     4  11  26  45  76 102 150 193 239 310 364 431
#     4  11  23  44  73 104 146 184 240 312 360 427
#     4  11  23  45  70 110 143 192 250 294 373 436
#     4  11  25  48  72 108 142 191 249 299 372 445
#     4  11  24  44  71 103 151 187 248 297 356 445
#     4  11  26  48  70 107 154 192 248 300 364 436
#
# _framework density 25.957577000000001
#
# number of rings (size 3 to 8) (size 9 to 14) (size 15 to 20)
#    0.000    1.000    1.667    5.500    4.667    2.667 
#    3.000    1.667    0.000    0.000    0.000    0.000 
#    0.000    0.000    0.000    0.000    0.000    0.000 
#
# Total GULP energy -66815.107655 kJ/mol
# GULP energy per Si atom -5567.925638 kJ/mol
# Density = 2.589850 g / cm^3
# Si number density = 25.957577 Si / 1000 Ang^3
#
#
#
# Elastic Constant Matrix: (Units=GPa)
#
#
# Indices 1 2 3 4 5 6 
#
# 1 163.1245 62.9232 82.2414 11.4418 24.0047 -0.1703
# 2 62.9232 54.4773 40.0892 -0.5030 28.0998 -5.6323
# 3 82.2414 40.0892 225.0530 8.5110 33.8733 4.0465
# 4 11.4418 -0.5030 8.5110 48.3869 10.9679 -5.6903
# 5 24.0047 28.0998 33.8733 10.9679 49.3418 5.9187
# 6 -0.1703 -5.6323 4.0465 -5.6903 5.9187 32.9855
#
#
#
# Elastic Compliance Matrix: (Units=1/GPa)
#
#
# Indices 1 2 3 4 5 6 
#
# 1 0.013803 -0.018349 -0.002582 -0.005229 0.007263 -0.004950
# 2 -0.018349 0.055569 0.000190 0.013130 -0.027762 0.016617
# 3 -0.002582 0.000190 0.005776 0.000226 -0.002851 -0.000139
# 4 -0.005229 0.013130 0.000226 0.025716 -0.011855 0.008751
# 5 0.007263 -0.027762 -0.002851 -0.011855 0.038737 -0.013349
# 6 -0.004950 0.016617 -0.000139 0.008751 -0.013349 0.037050
#
#
# Mechanical properties :
#
#
# Convention : Reuss Voigt Hill
#
# Bulk Modulus (GPa) = 29.70379 90.35138 60.02758
# Shear Modulus (GPa) = 21.80027 43.30293 32.55160
#
# Velocity S-wave (km/s) = 2.90115 4.08882 3.54507
# Velocity P-wave (km/s) = 4.76343 7.56136 6.31919
#
# Compressibility (1/GPa) = 0.03366574
#
# Stress axis : x y z
#
# Youngs Moduli (GPa) = 72.44983 17.99556 173.12703
#
# Poissons Ratio (x) = 0.33020 0.44698
# Poissons Ratio (y) = 1.32939 -0.03286
# Poissons Ratio (z) = 0.18705 -0.00342
#
# Static dielectric constant tensor:
#      x y z
#    x 2.431330 0.055900 0.220610 
#    y 0.055900 2.469940 -0.066640 
#    z 0.220610 -0.066640 2.173120 
# 
# From -- ./inp_files/617622.got.cif
#   From: 2010.05.17/outbox.cif.g08.bks.cpg/sg2_309_cif.got.tgz:617622.got - 2010.06.03 11:33:40.
