data_PCOD9061643
_publ_section_title
;
Structure prediction by ZEFSAII (Michael W. Deem and Ramdas Pophale) SiO2 
 PCOD9061643
Probable space group: P -1
;
_chemical_formula_sum "Si O2"
_cell_formula_units_Z 16
_cell_length_a 12.020982
_cell_length_b 26.443403
_cell_length_c 9.029621
_cell_angle_alpha 31.139884
_cell_angle_beta 142.976820
_cell_angle_gamma 151.966722
_cell_volume 686.648886
_symmetry_space_group_name_H-M "P -1"
_symmetry_group_IT_number 2
_symmetry_cell_setting 'triclinic'
loop_
_space_group_symop_operation_xyz
x,y,z
-x,-y,-z
loop_
_atom_site_type_symbol
_atom_site_label
_atom_site_fract_x
_atom_site_fract_y
_atom_site_fract_z
Si Si1 0.935868 0.231278 0.654331
Si Si2 0.793312 0.560204 0.836166
Si Si3 0.876376 0.909811 0.858950
Si Si4 0.787244 0.246668 0.985633
Si Si5 0.326519 0.168171 0.829796
Si Si6 0.540789 0.444680 0.321704
Si Si7 0.096270 0.613971 0.529640
Si Si8 0.421476 0.012496 0.724817
O O1 0.659453 0.107389 0.639362
O O2 0.072964 0.344124 0.397873
O O3 0.906934 0.288731 0.622510
O O4 0.077881 0.177603 0.952028
O O5 0.536574 0.520516 0.701207
O O6 0.960472 0.646754 0.936521
O O7 0.795311 0.443337 0.128609
O O8 0.713717 0.930654 0.545241
O O9 0.753316 0.853156 0.030933
O O10 0.128148 0.046342 0.826347
O O11 0.576395 0.196838 0.001882
O O12 0.767457 0.313901 0.657318
O O13 0.751085 0.125068 0.191622
O O14 0.372834 0.293563 0.512228
O O15 0.814436 0.500738 0.481745
O O16 0.500000 0.500000 0.000000
O O17 0.500000 0.000000 0.000000
#
# Coordination Sequence:
#
# PCOD9061643 Si02
#       8
#     2   2   2   2   2   2   2   2
#     4  12  27  48  71 106 142 190 234 293 367 421
#     4  12  25  45  74 103 142 183 245 293 350 426
#     4  11  26  46  74 105 143 182 239 298 355 426
#     4  12  23  46  74 104 140 186 238 293 354 420
#     4  11  23  45  75 107 139 182 238 301 353 412
#     4  12  24  43  71 105 141 187 235 292 354 416
#     4  12  27  46  68 104 146 188 237 291 354 428
#     4  12  27  48  71 106 146 188 231 295 366 428
#
# _framework density 23.301573999999999
#
# number of rings (size 3 to 8) (size 9 to 14) (size 15 to 20)
#    0.000    0.250    6.250    3.000    1.750    3.000 
#    2.250    0.000    0.000    0.000    0.000    0.000 
#    0.000    0.000    0.000    0.000    0.000    0.000 
#
# Total GULP energy -89630.605295 kJ/mol
# GULP energy per Si atom -5601.912831 kJ/mol
# Density = 2.324854 g / cm^3
# Si number density = 23.301574 Si / 1000 Ang^3
#
#
#
# Elastic Constant Matrix: (Units=GPa)
#
#
# Indices 1 2 3 4 5 6 
#
# 1 96.2331 22.2230 31.9811 -12.4585 25.9340 3.7177
# 2 22.2230 46.2968 27.8460 -19.3395 4.2925 2.5223
# 3 31.9811 27.8460 126.7428 -19.6260 19.3052 -6.4372
# 4 -12.4585 -19.3395 -19.6260 32.7243 1.2653 2.4868
# 5 25.9340 4.2925 19.3052 1.2653 48.2971 -9.4018
# 6 3.7177 2.5223 -6.4372 2.4868 -9.4018 40.5691
#
#
#
# Elastic Compliance Matrix: (Units=1/GPa)
#
#
# Indices 1 2 3 4 5 6 
#
# 1 0.014248 -0.004025 -0.001303 0.002794 -0.007461 -0.003163
# 2 -0.004025 0.032600 -0.003847 0.015686 -0.000249 -0.003288
# 3 -0.001303 -0.003847 0.010064 0.003294 -0.002855 0.001092
# 4 0.002794 0.015686 0.003294 0.043478 -0.006290 -0.004831
# 5 -0.007461 -0.000249 -0.002855 -0.006290 0.027399 0.006981
# 6 -0.003163 -0.003288 0.001092 -0.004831 0.006981 0.027231
#
#
# Mechanical properties :
#
#
# Convention : Reuss Voigt Hill
#
# Bulk Modulus (GPa) = 25.93063 48.15254 37.04159
# Shear Modulus (GPa) = 26.84931 36.79961 31.82446
#
# Velocity S-wave (km/s) = 3.39817 3.97832 3.69963
# Velocity P-wave (km/s) = 5.15259 6.46626 5.84644
#
# Compressibility (1/GPa) = 0.03856443
#
# Stress axis : x y z
#
# Youngs Moduli (GPa) = 70.18341 30.67449 99.36127
#
# Poissons Ratio (x) = 0.12346 0.12942
# Poissons Ratio (y) = 0.28248 0.38223
# Poissons Ratio (z) = 0.09142 0.11800
#
# Static dielectric constant tensor:
#      x y z
#    x 1.900590 0.008130 0.000310 
#    y 0.008130 1.902320 -0.005340 
#    z 0.000310 -0.005340 1.847400 
# 
# From -- ./inp_files/272313.got.cif
#   From: 2010.05.17/outbox.cif.g08.bks.cpg/sg2_137_cif.got.tgz:272313.got - 2010.06.03 11:33:40.
