data_PCOD9061285
_publ_section_title
;
Structure prediction by ZEFSAII (Michael W. Deem and Ramdas Pophale) SiO2 
 PCOD9061285
Probable space group: P -1
;
_chemical_formula_sum "Si O2"
_cell_formula_units_Z 14
_cell_length_a 7.494503
_cell_length_b 19.025583
_cell_length_c 11.950059
_cell_angle_alpha 147.454140
_cell_angle_beta 97.898924
_cell_angle_gamma 59.069248
_cell_volume 603.444256
_symmetry_space_group_name_H-M "P -1"
_symmetry_group_IT_number 2
_symmetry_cell_setting 'triclinic'
loop_
_space_group_symop_operation_xyz
x,y,z
-x,-y,-z
loop_
_atom_site_type_symbol
_atom_site_label
_atom_site_fract_x
_atom_site_fract_y
_atom_site_fract_z
Si Si1 0.423091 0.617554 0.038002
Si Si2 0.574375 0.819876 0.392582
Si Si3 0.130230 0.736984 0.798697
Si Si4 0.977072 0.567098 0.462743
Si Si5 0.590515 0.402418 0.558330
Si Si6 0.528252 0.159829 0.339160
Si Si7 0.899367 0.729095 0.098989
O O1 0.424727 0.769818 0.270396
O O2 0.137020 0.707377 0.098615
O O3 0.500000 0.500000 0.000000
O O4 0.628710 0.486923 0.776071
O O5 0.618843 0.781034 0.475944
O O6 0.834142 0.706623 0.185921
O O7 0.370818 0.050951 0.668940
O O8 0.154553 0.602854 0.530438
O O9 0.316420 0.599733 0.734269
O O10 0.263268 0.759802 0.750432
O O11 0.826169 0.935313 0.068504
O O12 0.000000 0.500000 0.500000
O O13 0.675781 0.778218 0.690744
O O14 0.049042 0.415543 0.178516
O O15 0.555881 0.297224 0.498975
#
# Coordination Sequence:
#
# PCOD9061285 Si02
#       7
#     2   2   2   2   2   2   2
#     4  12  22  43  68  95 136 176 220 275 340 399
#     4  11  25  44  70 100 133 179 227 284 337 402
#     4  11  25  41  70  95 134 176 221 280 337 396
#     4  12  22  43  67  94 136 176 218 279 337 390
#     4  11  23  45  65 100 133 172 225 279 334 405
#     4  12  23  44  68  98 132 176 228 271 338 407
#     4  11  25  44  68 102 136 173 232 280 337 405
#
# _framework density 23.200156
#
# number of rings (size 3 to 8) (size 9 to 14) (size 15 to 20)
#    0.000    0.571    4.286    3.857    0.000    3.429 
#    0.000    2.857    0.000    0.000    0.000    0.000 
#    0.000    0.000    0.000    0.000    0.000    0.000 
#
# Total GULP energy -78095.486493 kJ/mol
# GULP energy per Si atom -5578.249035 kJ/mol
# Density = 2.314735 g / cm^3
# Si number density = 23.200156 Si / 1000 Ang^3
#
#
#
# Elastic Constant Matrix: (Units=GPa)
#
#
# Indices 1 2 3 4 5 6 
#
# 1 -15.7215 -8.0648 27.8316 -5.9142 -23.3838 -14.4244
# 2 -8.0648 129.2945 50.2500 -19.4616 -28.0679 14.7702
# 3 27.8316 50.2500 112.6259 -2.5652 -10.1246 6.1497
# 4 -5.9142 -19.4616 -2.5652 31.9355 9.0523 -11.1534
# 5 -23.3838 -28.0679 -10.1246 9.0523 38.0185 -13.6723
# 6 -14.4244 14.7702 6.1497 -11.1534 -13.6723 44.1812
#
#
#
# Elastic Compliance Matrix: (Units=1/GPa)
#
#
# Indices 1 2 3 4 5 6 
#
# 1 -0.016072 -0.006255 0.005815 -0.005515 -0.015267 -0.010082
# 2 -0.006255 0.009127 -0.002226 0.002764 0.000192 -0.004026
# 3 0.005815 -0.002226 0.008750 -0.000025 0.005377 0.003083
# 4 -0.005515 0.002764 -0.000025 0.035667 -0.008541 0.003640
# 5 -0.015267 0.000192 0.005377 -0.008541 0.019871 -0.001804
# 6 -0.010082 -0.004026 0.003083 0.003640 -0.001804 0.020620
#
#
# Mechanical properties :
#
#
# Convention : Reuss Voigt Hill
#
# Bulk Modulus (GPa) = -283.45259 40.69251 -121.38004
# Shear Modulus (GPa) = 60.88611 33.23919 47.06265
#
# Velocity S-wave (km/s) = 5.12843 3.78923 4.50883
# Velocity P-wave (km/s) = 9.34743 6.05988 5.03251
#
# Compressibility (1/GPa) = -0.00352793
#
# Stress axis : x y z
#
# Youngs Moduli (GPa) = -62.22113 109.56311 114.28675
#
# Poissons Ratio (x) = 0.68532 -0.66455
# Poissons Ratio (y) = -0.38919 0.25446
# Poissons Ratio (z) = 0.36180 0.24394
#
# Static dielectric constant tensor:
#      x y z
#    x 1.453780 -0.191850 0.135350 
#    y -0.191850 1.756930 0.020210 
#    z 0.135350 0.020210 1.896080 
# 
# From -- ./inp_files/405116.got.cif
#   From: 2010.05.17/outbox.cif.g08.bks.cpg/sg2_203_cif.got.tgz:405116.got - 2010.06.03 11:33:40.
