data_PCOD9061833
_publ_section_title
;
Structure prediction by ZEFSAII (Michael W. Deem and Ramdas Pophale) SiO2 
 PCOD9061833
Probable space group: P -1
;
_chemical_formula_sum "Si O2"
_cell_formula_units_Z 15
_cell_length_a 10.059506
_cell_length_b 21.871055
_cell_length_c 9.963033
_cell_angle_alpha 151.370625
_cell_angle_beta 42.771357
_cell_angle_gamma 133.262544
_cell_volume 707.522252
_symmetry_space_group_name_H-M "P -1"
_symmetry_group_IT_number 2
_symmetry_cell_setting 'triclinic'
loop_
_space_group_symop_operation_xyz
x,y,z
-x,-y,-z
loop_
_atom_site_type_symbol
_atom_site_label
_atom_site_fract_x
_atom_site_fract_y
_atom_site_fract_z
Si Si1 0.968990 0.962618 0.295556
Si Si2 0.500000 0.500000 0.500000
Si Si3 0.904839 0.629380 0.351666
Si Si4 0.890185 0.755734 0.324525
Si Si5 0.482832 0.649288 0.315600
Si Si6 0.678894 0.293970 0.165294
Si Si7 0.781812 0.198665 0.371844
Si Si8 0.461950 0.000505 0.371045
O O1 0.737193 0.935515 0.386099
O O2 0.000000 0.000000 0.500000
O O3 0.051909 0.092663 0.405664
O O4 0.093330 0.853289 0.941813
O O5 0.714461 0.590137 0.507066
O O6 0.600560 0.390202 0.302508
O O7 0.840680 0.686186 0.368139
O O8 0.067283 0.730780 0.496893
O O9 0.000000 0.500000 0.000000
O O10 0.701625 0.726676 0.312927
O O11 0.086195 0.705238 0.024483
O O12 0.375644 0.668851 0.573124
O O13 0.357971 0.702168 0.391362
O O14 0.500000 0.500000 0.000000
O O15 0.582043 0.146824 0.928724
O O16 0.642774 0.081217 0.316314
O O17 0.500000 0.000000 0.500000
#
# Coordination Sequence:
#
# PCOD9061833 Si02
#       8
#     2   1   2   2   2   2   2   2
#     4  11  25  46  71 102 142 186 227 289 350 418
#     4  12  26  44  76  96 142 188 238 282 354 406
#     4  12  26  46  70 102 139 187 231 293 346 412
#     4  11  23  46  71  97 142 183 232 286 353 412
#     4  12  27  45  68 102 140 190 232 282 347 415
#     4  11  25  45  72 103 141 185 233 288 348 417
#     4  12  27  45  73 107 141 179 237 290 353 418
#     4  11  26  45  74 108 138 179 234 293 356 414
#
# _framework density 21.200748000000001
#
# number of rings (size 3 to 8) (size 9 to 14) (size 15 to 20)
#    0.000    0.533    2.667    5.600    1.867    3.200 
#    2.400    0.000    0.000    0.000    0.000    0.000 
#    0.000    0.000    0.000    0.000    0.000    0.000 
#
# Total GULP energy -83726.911396 kJ/mol
# GULP energy per Si atom -5581.794093 kJ/mol
# Density = 2.115249 g / cm^3
# Si number density = 21.200748 Si / 1000 Ang^3
#
#
#
# Elastic Constant Matrix: (Units=GPa)
#
#
# Indices 1 2 3 4 5 6 
#
# 1 97.4506 24.5897 4.8373 -16.9393 -11.3442 14.7526
# 2 24.5897 122.0863 20.1752 0.3377 -2.8000 17.9594
# 3 4.8373 20.1752 70.7912 -12.0528 3.9804 -1.7066
# 4 -16.9393 0.3377 -12.0528 18.1220 -3.0020 -7.6190
# 5 -11.3442 -2.8000 3.9804 -3.0020 33.5691 4.0530
# 6 14.7526 17.9594 -1.7066 -7.6190 4.0530 47.2160
#
#
#
# Elastic Compliance Matrix: (Units=1/GPa)
#
#
# Indices 1 2 3 4 5 6 
#
# 1 0.014482 -0.002977 0.002119 0.015422 0.005935 -0.001337
# 2 -0.002977 0.010115 -0.004059 -0.007442 0.000170 -0.004280
# 3 0.002119 -0.004059 0.017937 0.015575 -0.000854 0.004117
# 4 0.015422 -0.007442 0.015575 0.086541 0.009063 0.011762
# 5 0.005935 0.000170 -0.000854 0.009063 0.033123 -0.003331
# 6 -0.001337 -0.004280 0.004117 0.011762 -0.003331 0.025557
#
#
# Mechanical properties :
#
#
# Convention : Reuss Voigt Hill
#
# Bulk Modulus (GPa) = 30.58162 43.28137 36.93149
# Shear Modulus (GPa) = 23.98200 35.82983 29.90592
#
# Velocity S-wave (km/s) = 3.36696 4.11545 3.75988
# Velocity P-wave (km/s) = 5.43795 6.56064 6.02550
#
# Compressibility (1/GPa) = 0.03269938
#
# Stress axis : x y z
#
# Youngs Moduli (GPa) = 69.05338 98.85998 55.75013
#
# Poissons Ratio (x) = 0.29428 -0.11811
# Poissons Ratio (y) = 0.20556 0.22630
# Poissons Ratio (z) = -0.14630 0.40129
#
# Static dielectric constant tensor:
#      x y z
#    x 1.749990 -0.007240 -0.018380 
#    y -0.007240 1.756030 -0.020050 
#    z -0.018380 -0.020050 1.847780 
# 
# From -- ./inp_files/224332.got.cif
#   From: 2010.05.17/outbox.cif.g08.bks.cpg/sg2_113_cif.got.tgz:224332.got - 2010.06.03 11:33:40.
