data_PCOD9061173
_publ_section_title
;
Structure prediction by ZEFSAII (Michael W. Deem and Ramdas Pophale) SiO2 
 PCOD9061173
Probable space group: P -1
;
_chemical_formula_sum "Si O2"
_cell_formula_units_Z 16
_cell_length_a 9.070260
_cell_length_b 13.501221
_cell_length_c 16.855115
_cell_angle_alpha 24.006433
_cell_angle_beta 99.369681
_cell_angle_gamma 89.062791
_cell_volume 755.236372
_symmetry_space_group_name_H-M "P -1"
_symmetry_group_IT_number 2
_symmetry_cell_setting 'triclinic'
loop_
_space_group_symop_operation_xyz
x,y,z
-x,-y,-z
loop_
_atom_site_type_symbol
_atom_site_label
_atom_site_fract_x
_atom_site_fract_y
_atom_site_fract_z
Si Si1 0.922739 0.607745 0.612810
Si Si2 0.864991 0.893487 0.090838
Si Si3 0.856046 0.376377 0.938980
Si Si4 0.116340 0.794343 0.597133
Si Si5 0.731584 0.941398 0.212255
Si Si6 0.768540 0.811354 0.888269
Si Si7 0.575051 0.179612 0.746278
Si Si8 0.335181 0.100262 0.360221
O O1 0.858160 0.495716 0.763667
O O2 0.790315 0.734054 0.441269
O O3 0.078678 0.379017 0.752957
O O4 0.991164 0.812601 0.502761
O O5 0.853707 0.854116 0.211739
O O6 0.692340 0.095755 0.894032
O O7 0.000000 0.000000 0.000000
O O8 0.785141 0.617314 0.818714
O O9 0.048652 0.204521 0.099919
O O10 0.745027 0.209843 0.047090
O O11 0.256708 0.887453 0.519527
O O12 0.192363 0.487847 0.857845
O O13 0.000000 0.000000 0.500000
O O14 0.561039 0.940498 0.170870
O O15 0.660862 0.864273 0.760214
O O16 0.681262 0.033220 0.785158
O O17 0.500000 0.500000 0.500000
O O18 0.500000 0.000000 0.500000
#
# Coordination Sequence:
#
# PCOD9061173 Si02
#       8
#     2   2   2   2   2   2   2   2
#     4  11  23  44  74 100 138 185 242 279 353 423
#     4  12  23  48  71 102 138 187 241 291 345 431
#     4  11  24  47  71 104 143 187 241 289 341 439
#     4  11  23  44  74 100 139 186 237 284 345 427
#     4  12  27  41  74 104 142 182 234 300 362 401
#     4  11  25  49  71 101 144 192 239 285 348 432
#     4  12  28  48  72 105 146 189 233 301 356 416
#     4  12  28  41  72 109 146 182 232 296 362 410
#
# _framework density 21.185420000000001
#
# number of rings (size 3 to 8) (size 9 to 14) (size 15 to 20)
#    0.000    0.500    6.250    2.625    5.250    2.500 
#    0.000    0.000    0.000    0.000    0.000    0.000 
#    0.000    0.000    0.000    0.000    0.000    0.000 
#
# Total GULP energy -89457.706697 kJ/mol
# GULP energy per Si atom -5591.106669 kJ/mol
# Density = 2.113720 g / cm^3
# Si number density = 21.185420 Si / 1000 Ang^3
#
#
#
# Elastic Constant Matrix: (Units=GPa)
#
#
# Indices 1 2 3 4 5 6 
#
# 1 90.0496 -1.8338 15.4802 -3.7403 -0.3040 25.9494
# 2 -1.8338 106.3622 30.7492 -4.8912 8.7891 -3.3428
# 3 15.4802 30.7492 79.1838 -1.4360 -1.9333 1.3926
# 4 -3.7403 -4.8912 -1.4360 54.0520 6.4903 5.0963
# 5 -0.3040 8.7891 -1.9333 6.4903 25.8199 -3.0203
# 6 25.9494 -3.3428 1.3926 5.0963 -3.0203 38.8789
#
#
#
# Elastic Compliance Matrix: (Units=1/GPa)
#
#
# Indices 1 2 3 4 5 6 
#
# 1 0.014642 0.001127 -0.003137 0.002239 -0.002182 -0.010026
# 2 0.001127 0.011208 -0.004653 0.001532 -0.004556 -0.000177
# 3 -0.003137 -0.004653 0.015083 -0.000742 0.003037 0.001486
# 4 0.002239 0.001532 -0.000742 0.019921 -0.006075 -0.004419
# 5 -0.002182 -0.004556 0.003037 -0.006075 0.042602 0.005062
# 6 -0.010026 -0.000177 0.001486 -0.004419 0.005062 0.033317
#
#
# Mechanical properties :
#
#
# Convention : Reuss Voigt Hill
#
# Bulk Modulus (GPa) = 36.22020 40.48742 38.35381
# Shear Modulus (GPa) = 31.38721 39.16350 35.27535
#
# Velocity S-wave (km/s) = 3.85326 4.30421 4.08496
# Velocity P-wave (km/s) = 6.07707 6.62224 6.35550
#
# Compressibility (1/GPa) = 0.02760890
#
# Stress axis : x y z
#
# Youngs Moduli (GPa) = 68.29622 89.22297 66.29762
#
# Poissons Ratio (x) = -0.10059 0.20795
# Poissons Ratio (y) = -0.07700 0.30849
# Poissons Ratio (z) = 0.21422 0.41516
#
# Static dielectric constant tensor:
#      x y z
#    x 1.751210 -0.022720 0.011990 
#    y -0.022720 1.671720 0.058410 
#    z 0.011990 0.058410 1.770670 
# 
# From -- ./inp_files/499735.got.cif
#   From: 2010.05.17/outbox.cif.g08.bks.cpg/sg2_250_cif.got.tgz:499735.got - 2010.06.03 11:33:40.
