data_PCOD9061367
_publ_section_title
;
Structure prediction by ZEFSAII (Michael W. Deem and Ramdas Pophale) SiO2 
 PCOD9061367
Probable space group: P -1
;
_chemical_formula_sum "Si O2"
_cell_formula_units_Z 16
_cell_length_a 14.111295
_cell_length_b 14.265071
_cell_length_c 9.576390
_cell_angle_alpha 90.924270
_cell_angle_beta 111.679149
_cell_angle_gamma 148.181636
_cell_volume 698.034376
_symmetry_space_group_name_H-M "P -1"
_symmetry_group_IT_number 2
_symmetry_cell_setting 'triclinic'
loop_
_space_group_symop_operation_xyz
x,y,z
-x,-y,-z
loop_
_atom_site_type_symbol
_atom_site_label
_atom_site_fract_x
_atom_site_fract_y
_atom_site_fract_z
Si Si1 0.437120 0.530269 0.358755
Si Si2 0.151654 0.452099 0.857807
Si Si3 0.418968 0.866549 0.079341
Si Si4 0.116673 0.017749 0.966983
Si Si5 0.383947 0.970170 0.318583
Si Si6 0.942414 0.199009 0.449838
Si Si7 0.433261 0.674413 0.579552
Si Si8 0.316787 0.205171 0.769079
O O1 0.500000 0.500000 0.500000
O O2 0.518241 0.697116 0.480836
O O3 0.594670 0.648715 0.301956
O O4 0.122885 0.258902 0.166872
O O5 0.889683 0.213635 0.795562
O O6 0.079626 0.357379 0.663091
O O7 0.214235 0.615186 0.911775
O O8 0.407053 0.612895 0.048064
O O9 0.334024 0.863969 0.155131
O O10 0.672312 0.024470 0.274244
O O11 0.500000 0.000000 0.000000
O O12 0.194800 0.119902 0.855335
O O13 0.371443 0.193713 0.188178
O O14 0.000000 0.000000 0.000000
O O15 0.500000 0.000000 0.500000
O O16 0.575277 0.220745 0.416034
O O17 0.145477 0.391189 0.442756
O O18 0.877339 0.034334 0.412836
#
# Coordination Sequence:
#
# PCOD9061367 Si02
#       8
#     2   2   2   2   2   2   2   2
#     4  12  27  50  75 111 147 193 247 309 376 449
#     4  11  23  45  69 102 145 189 247 299 366 431
#     4  11  26  41  67 104 142 194 248 300 359 434
#     4  12  26  51  75 114 146 191 251 308 382 450
#     4  12  26  44  70 106 149 197 246 301 371 440
#     4  11  23  45  73 105 145 196 247 302 375 431
#     4  12  26  47  74 104 153 192 250 315 365 446
#     4  11  26  46  79 108 148 194 244 305 375 452
#
# _framework density 22.921506999999998
#
# number of rings (size 3 to 8) (size 9 to 14) (size 15 to 20)
#    0.000    0.500    5.000    2.625    5.250    3.000 
#    0.000    0.000    0.000    0.000    0.000    0.000 
#    0.000    0.000    0.000    0.000    0.000    0.000 
#
# Total GULP energy -89492.272657 kJ/mol
# GULP energy per Si atom -5593.267041 kJ/mol
# Density = 2.286934 g / cm^3
# Si number density = 22.921507 Si / 1000 Ang^3
#
#
#
# Elastic Constant Matrix: (Units=GPa)
#
#
# Indices 1 2 3 4 5 6 
#
# 1 87.2883 25.8565 35.9235 -15.3297 -20.3579 18.3257
# 2 25.8565 125.5306 22.6341 -10.6165 -14.4190 16.9768
# 3 35.9235 22.6341 81.1653 1.3200 -34.3414 -3.4161
# 4 -15.3297 -10.6165 1.3200 45.7909 7.5967 -3.7388
# 5 -20.3579 -14.4190 -34.3414 7.5967 40.4906 -1.0143
# 6 18.3257 16.9768 -3.4161 -3.7388 -1.0143 38.2266
#
#
#
# Elastic Compliance Matrix: (Units=1/GPa)
#
#
# Indices 1 2 3 4 5 6 
#
# 1 0.017686 -0.000574 -0.007684 0.005160 0.000992 -0.008379
# 2 -0.000574 0.009217 -0.002187 0.001570 0.000748 -0.003840
# 3 -0.007684 -0.002187 0.023854 -0.006026 0.016886 0.006645
# 4 0.005160 0.001570 -0.006026 0.025099 -0.006702 -0.001433
# 5 0.000992 0.000748 0.016886 -0.006702 0.041070 0.001135
# 6 -0.008379 -0.003840 0.006645 -0.001433 0.001135 0.032366
#
#
# Mechanical properties :
#
#
# Convention : Reuss Voigt Hill
#
# Bulk Modulus (GPa) = 33.48296 51.42359 42.45327
# Shear Modulus (GPa) = 27.75685 38.87297 33.31491
#
# Velocity S-wave (km/s) = 3.48365 4.12262 3.81653
# Velocity P-wave (km/s) = 5.55162 6.71898 6.16300
#
# Compressibility (1/GPa) = 0.02986594
#
# Stress axis : x y z
#
# Youngs Moduli (GPa) = 56.54309 108.49807 41.92230
#
# Poissons Ratio (x) = 0.06224 0.32215
# Poissons Ratio (y) = 0.03244 0.09168
# Poissons Ratio (z) = 0.43450 0.23728
#
# Static dielectric constant tensor:
#      x y z
#    x 1.838470 0.072690 0.041050 
#    y 0.072690 1.788280 -0.127790 
#    z 0.041050 -0.127790 1.719730 
# 
# From -- ./inp_files/315329.got.cif
#   From: 2010.05.17/outbox.cif.g08.bks.cpg/sg2_158_cif.got.tgz:315329.got - 2010.06.03 11:33:40.
