data_PCOD9061339
_publ_section_title
;
Structure prediction by ZEFSAII (Michael W. Deem and Ramdas Pophale) SiO2 
 PCOD9061339
Probable space group: P -1
;
_chemical_formula_sum "Si O2"
_cell_formula_units_Z 16
_cell_length_a 5.682416
_cell_length_b 24.549852
_cell_length_c 5.023284
_cell_angle_alpha 118.975140
_cell_angle_beta 86.504487
_cell_angle_gamma 85.071332
_cell_volume 606.533834
_symmetry_space_group_name_H-M "P -1"
_symmetry_group_IT_number 2
_symmetry_cell_setting 'triclinic'
loop_
_space_group_symop_operation_xyz
x,y,z
-x,-y,-z
loop_
_atom_site_type_symbol
_atom_site_label
_atom_site_fract_x
_atom_site_fract_y
_atom_site_fract_z
Si Si1 0.617230 0.399941 0.231433
Si Si2 0.248015 0.342134 0.427987
Si Si3 0.932320 0.270696 0.893392
Si Si4 0.862833 0.440775 0.835707
Si Si5 0.854345 0.942742 0.829347
Si Si6 0.655190 0.778317 0.642387
Si Si7 0.739636 0.152178 0.558120
Si Si8 0.603939 0.904002 0.235537
O O1 0.366150 0.391768 0.359790
O O2 0.768240 0.429290 0.520106
O O3 0.727397 0.328137 0.992730
O O4 0.648119 0.438300 0.052573
O O5 0.067469 0.381783 0.734627
O O6 0.431447 0.287878 0.422733
O O7 0.101999 0.300058 0.155260
O O8 0.095808 0.245899 0.574368
O O9 0.823265 0.209330 0.850396
O O10 0.000000 0.500000 0.000000
O O11 0.757651 0.932472 0.517398
O O12 0.048468 0.881582 0.715293
O O13 0.641013 0.940448 0.048468
O O14 0.000000 0.000000 0.000000
O O15 0.475472 0.816348 0.536270
O O16 0.678540 0.829802 0.990207
O O17 0.654231 0.099213 0.629178
#
# Coordination Sequence:
#
# PCOD9061339 Si02
#       8
#     2   2   2   2   2   2   2   2
#     4  11  25  44  75 102 142 192 233 298 361 407
#     4  11  26  44  71 107 148 185 241 290 360 431
#     4  11  23  45  68 106 148 183 234 293 360 427
#     4  11  26  47  71 104 143 189 245 295 349 421
#     4  12  29  52  75 103 144 189 240 294 349 420
#     4  12  23  44  72 108 146 180 237 290 358 432
#     4  12  26  45  77 105 147 188 230 293 362 416
#     4  12  26  51  72 111 140 186 241 289 356 426
#
# _framework density 26.379401000000001
#
# number of rings (size 3 to 8) (size 9 to 14) (size 15 to 20)
#    0.000    0.500    3.750    3.750    5.250    3.000 
#    2.250    0.000    0.000    0.000    0.000    0.000 
#    0.000    0.000    0.000    0.000    0.000    0.000 
#
# Total GULP energy -89693.932331 kJ/mol
# GULP energy per Si atom -5605.870771 kJ/mol
# Density = 2.631936 g / cm^3
# Si number density = 26.379401 Si / 1000 Ang^3
#
#
#
# Elastic Constant Matrix: (Units=GPa)
#
#
# Indices 1 2 3 4 5 6 
#
# 1 58.7687 8.1602 37.3644 6.2902 7.5323 22.0556
# 2 8.1602 98.2000 51.9017 11.6202 5.7591 31.2708
# 3 37.3644 51.9017 142.6921 14.2532 29.0331 6.9005
# 4 6.2902 11.6202 14.2532 55.9551 12.2145 3.2921
# 5 7.5323 5.7591 29.0331 12.2145 50.4017 4.3889
# 6 22.0556 31.2708 6.9005 3.2921 4.3889 45.2819
#
#
#
# Elastic Compliance Matrix: (Units=1/GPa)
#
#
# Indices 1 2 3 4 5 6 
#
# 1 0.029592 0.009399 -0.010592 -0.002048 0.002792 -0.019412
# 2 0.009399 0.019883 -0.009390 -0.002632 0.003856 -0.017061
# 3 -0.010592 -0.009390 0.013965 0.000377 -0.006360 0.010105
# 4 -0.002048 -0.002632 0.000377 0.019424 -0.004473 0.001779
# 5 0.002792 0.003856 -0.006360 -0.004473 0.024172 -0.005071
# 6 -0.019412 -0.017061 0.010105 0.001779 -0.005071 0.042143
#
#
# Mechanical properties :
#
#
# Convention : Reuss Voigt Hill
#
# Bulk Modulus (GPa) = 23.65520 54.94591 39.30055
# Shear Modulus (GPa) = 27.10982 43.81006 35.45994
#
# Velocity S-wave (km/s) = 3.20924 4.07967 3.67035
# Velocity P-wave (km/s) = 4.76645 6.56247 5.73520
#
# Compressibility (1/GPa) = 0.04227400
#
# Stress axis : x y z
#
# Youngs Moduli (GPa) = 33.79323 50.29379 71.60867
#
# Poissons Ratio (x) = -0.47273 0.75850
# Poissons Ratio (y) = -0.31764 0.67241
# Poissons Ratio (z) = 0.35795 0.47226
#
# Static dielectric constant tensor:
#      x y z
#    x 2.059110 -0.009710 -0.007070 
#    y -0.009710 2.135980 -0.024050 
#    z -0.007070 -0.024050 1.984350 
# 
# From -- ./inp_files/14780.got.cif
#   From: 2010.05.17/outbox.cif.g08.bks.cpg/sg2_8_cif.got.tgz:14780.got - 2010.06.03 11:33:40.
