data_PCOD9061586
_publ_section_title
;
Structure prediction by ZEFSAII (Michael W. Deem and Ramdas Pophale) SiO2 
 PCOD9061586
Probable space group: P -1
;
_chemical_formula_sum "Si O2"
_cell_formula_units_Z 14
_cell_length_a 18.642729
_cell_length_b 9.446486
_cell_length_c 12.344160
_cell_angle_alpha 144.713900
_cell_angle_beta 27.579739
_cell_angle_gamma 135.834008
_cell_volume 581.247864
_symmetry_space_group_name_H-M "P -1"
_symmetry_group_IT_number 2
_symmetry_cell_setting 'triclinic'
loop_
_space_group_symop_operation_xyz
x,y,z
-x,-y,-z
loop_
_atom_site_type_symbol
_atom_site_label
_atom_site_fract_x
_atom_site_fract_y
_atom_site_fract_z
Si Si1 0.910727 0.466601 0.985466
Si Si2 0.127705 0.031332 0.194427
Si Si3 0.367359 0.802510 0.558353
Si Si4 0.580455 0.496627 0.215161
Si Si5 0.853255 0.426239 0.447675
Si Si6 0.386982 0.198349 0.433294
Si Si7 0.168828 0.759282 0.404243
O O1 0.006742 0.580328 0.829864
O O2 0.892747 0.175419 0.816313
O O3 0.745718 0.600677 0.295819
O O4 0.000000 0.500000 0.000000
O O5 0.195802 0.286942 0.302001
O O6 0.965255 0.104666 0.399511
O O7 0.239694 0.904060 0.876786
O O8 0.451831 0.555446 0.334241
O O9 0.280648 0.739229 0.524564
O O10 0.500000 0.000000 0.500000
O O11 0.533015 0.262407 0.203635
O O12 0.576127 0.727885 0.447028
O O13 0.746827 0.453165 0.911345
O O14 0.894330 0.338974 0.458775
O O15 0.308016 0.942374 0.359946
#
# Coordination Sequence:
#
# PCOD9061586 Si02
#       7
#     2   2   2   2   2   2   2
#     4  12  22  49  74 106 140 190 241 293 351 424
#     4  12  26  47  76 104 143 186 242 294 351 428
#     4  12  26  47  71 102 147 189 235 291 354 427
#     4  11  25  45  68 105 145 186 239 287 351 425
#     4  12  27  44  74 109 145 185 235 298 363 411
#     4  11  23  45  74 100 144 194 232 289 356 419
#     4  12  26  45  72 110 142 182 238 299 354 420
#
# _framework density 24.086110000000001
#
# number of rings (size 3 to 8) (size 9 to 14) (size 15 to 20)
#    0.000    0.286    4.286    3.857    0.000    6.857 
#    0.000    0.000    0.000    0.000    0.000    0.000 
#    0.000    0.000    0.000    0.000    0.000    0.000 
#
# Total GULP energy -78469.976199 kJ/mol
# GULP energy per Si atom -5604.998300 kJ/mol
# Density = 2.403129 g / cm^3
# Si number density = 24.086110 Si / 1000 Ang^3
#
#
#
# Elastic Constant Matrix: (Units=GPa)
#
#
# Indices 1 2 3 4 5 6 
#
# 1 94.1825 19.7458 20.9567 -25.7136 1.8853 -1.2835
# 2 19.7458 116.8976 -0.3827 -17.6193 20.3146 7.1609
# 3 20.9567 -0.3827 95.9970 -24.4442 -0.9186 -12.8450
# 4 -25.7136 -17.6193 -24.4442 34.7939 -2.4110 10.2773
# 5 1.8853 20.3146 -0.9186 -2.4110 28.1395 3.1458
# 6 -1.2835 7.1609 -12.8450 10.2773 3.1458 45.8628
#
#
#
# Elastic Compliance Matrix: (Units=1/GPa)
#
#
# Indices 1 2 3 4 5 6 
#
# 1 0.013566 -0.000840 -0.000747 0.009692 0.000718 -0.001919
# 2 -0.000840 0.010984 0.001416 0.006105 -0.007055 -0.002226
# 3 -0.000747 0.001416 0.013046 0.008918 0.000060 0.001409
# 4 0.009692 0.006105 0.008918 0.047926 0.000341 -0.008947
# 5 0.000718 -0.007055 0.000060 0.000341 0.040808 -0.001737
# 6 -0.001919 -0.002226 0.001409 -0.008947 -0.001737 0.024617
#
#
# Mechanical properties :
#
#
# Convention : Reuss Voigt Hill
#
# Bulk Modulus (GPa) = 26.84347 43.07965 34.96156
# Shear Modulus (GPa) = 30.54272 39.54306 35.04289
#
# Velocity S-wave (km/s) = 3.56485 4.05623 3.81845
# Velocity P-wave (km/s) = 5.30219 6.31362 5.82988
#
# Compressibility (1/GPa) = 0.03725301
#
# Stress axis : x y z
#
# Youngs Moduli (GPa) = 73.71611 91.04532 76.65338
#
# Poissons Ratio (x) = 0.07651 0.05725
# Poissons Ratio (y) = 0.06195 -0.10857
# Poissons Ratio (z) = 0.05506 -0.12895
#
# Static dielectric constant tensor:
#      x y z
#    x 1.955490 0.010040 0.045580 
#    y 0.010040 1.954470 -0.003200 
#    z 0.045580 -0.003200 1.875870 
# 
# From -- ./inp_files/263781.got.cif
#   From: 2010.05.17/outbox.cif.g08.bks.cpg/sg2_132_cif.got.tgz:263781.got - 2010.06.03 11:33:40.
