data_PCOD9061891
_publ_section_title
;
Structure prediction by ZEFSAII (Michael W. Deem and Ramdas Pophale) SiO2 
 PCOD9061891
Probable space group: P -1
;
_chemical_formula_sum "Si O2"
_cell_formula_units_Z 16
_cell_length_a 14.376811
_cell_length_b 8.669958
_cell_length_c 19.325896
_cell_angle_alpha 53.229578
_cell_angle_beta 22.537831
_cell_angle_gamma 51.079754
_cell_volume 716.997946
_symmetry_space_group_name_H-M "P -1"
_symmetry_group_IT_number 2
_symmetry_cell_setting 'triclinic'
loop_
_space_group_symop_operation_xyz
x,y,z
-x,-y,-z
loop_
_atom_site_type_symbol
_atom_site_label
_atom_site_fract_x
_atom_site_fract_y
_atom_site_fract_z
Si Si1 0.494781 0.355509 0.767914
Si Si2 0.170247 0.762028 0.630769
Si Si3 0.733618 0.098956 0.795871
Si Si4 0.814567 0.247281 0.089853
Si Si5 0.650642 0.884748 0.311584
Si Si6 0.746898 0.322721 0.868761
Si Si7 0.221896 0.411923 0.589014
Si Si8 0.894202 0.879580 0.935275
O O1 0.682674 0.214486 0.728222
O O2 0.309808 0.522886 0.895632
O O3 0.611924 0.481463 0.600337
O O4 0.331050 0.227035 0.877389
O O5 0.447446 0.796740 0.434965
O O6 0.170305 0.550209 0.655707
O O7 0.048582 0.804870 0.779098
O O8 0.985400 0.925682 0.667211
O O9 0.756896 0.245832 0.803450
O O10 0.500000 0.000000 0.000000
O O11 0.927616 0.192509 0.103299
O O12 0.609437 0.117282 0.259962
O O13 0.057368 0.187800 0.890761
O O14 0.646639 0.806150 0.413787
O O15 0.980582 0.401529 0.713601
O O16 0.777001 0.116184 0.946555
O O17 0.500000 0.500000 0.000000
#
# Coordination Sequence:
#
# PCOD9061891 Si02
#       8
#     2   2   2   2   2   2   2   2
#     4  12  26  43  74 102 142 181 238 283 350 420
#     4  11  24  44  75  97 144 181 234 287 344 421
#     4  11  24  48  71 101 137 188 229 280 356 412
#     4  11  25  44  72 104 143 182 237 290 349 416
#     4  11  25  44  70 106 142 184 230 294 353 409
#     4  11  25  43  75 100 141 188 231 287 346 419
#     4  12  26  45  69 108 141 181 236 290 351 408
#     4  11  23  46  73 103 136 188 234 281 355 409
#
# _framework density 22.315266000000001
#
# number of rings (size 3 to 8) (size 9 to 14) (size 15 to 20)
#    0.000    0.750    3.750    3.750    5.250    2.000 
#    2.250    0.000    0.000    0.000    0.000    0.000 
#    0.000    0.000    0.000    0.000    0.000    0.000 
#
# Total GULP energy -89503.420505 kJ/mol
# GULP energy per Si atom -5593.963782 kJ/mol
# Density = 2.226448 g / cm^3
# Si number density = 22.315266 Si / 1000 Ang^3
#
#
#
# Elastic Constant Matrix: (Units=GPa)
#
#
# Indices 1 2 3 4 5 6 
#
# 1 74.3367 13.7360 35.8623 -12.2873 -11.8848 2.8282
# 2 13.7360 92.9007 41.1950 -8.3349 -6.5301 7.6043
# 3 35.8623 41.1950 120.1024 -34.1290 -16.7817 2.2863
# 4 -12.2873 -8.3349 -34.1290 38.5588 1.0755 -5.6290
# 5 -11.8848 -6.5301 -16.7817 1.0755 38.9646 -15.7898
# 6 2.8282 7.6043 2.2863 -5.6290 -15.7898 36.6185
#
#
#
# Elastic Compliance Matrix: (Units=1/GPa)
#
#
# Indices 1 2 3 4 5 6 
#
# 1 0.016143 -0.000415 -0.003673 0.001835 0.003585 0.000897
# 2 -0.000415 0.013077 -0.005159 -0.002320 -0.001447 -0.003342
# 3 -0.003673 -0.005159 0.015342 0.011838 0.006294 0.004931
# 4 0.001835 -0.002320 0.011838 0.037553 0.007768 0.008723
# 5 0.003585 -0.001447 0.006294 0.007768 0.035560 0.016158
# 6 0.000897 -0.003342 0.004931 0.008723 0.016158 0.035934
#
#
# Mechanical properties :
#
#
# Convention : Reuss Voigt Hill
#
# Bulk Modulus (GPa) = 38.36063 52.10291 45.23177
# Shear Modulus (GPa) = 27.65614 35.93149 31.79381
#
# Velocity S-wave (km/s) = 3.52424 4.01705 3.77869
# Velocity P-wave (km/s) = 5.81274 6.70185 6.27307
#
# Compressibility (1/GPa) = 0.02606839
#
# Stress axis : x y z
#
# Youngs Moduli (GPa) = 61.94562 76.46991 65.17981
#
# Poissons Ratio (x) = 0.03174 0.23939
# Poissons Ratio (y) = 0.02571 0.33628
# Poissons Ratio (z) = 0.22751 0.39453
#
# Static dielectric constant tensor:
#      x y z
#    x 1.819210 0.042050 0.036610 
#    y 0.042050 1.855490 0.015200 
#    z 0.036610 0.015200 1.824500 
# 
# From -- ./inp_files/185691.got.cif
#   From: 2010.05.17/outbox.cif.g08.bks.cpg/sg2_93_cif.got.tgz:185691.got - 2010.06.03 11:33:40.
