data_PCOD9061440
_publ_section_title
;
Structure prediction by ZEFSAII (Michael W. Deem and Ramdas Pophale) SiO2 
 PCOD9061440
Probable space group: P -1
;
_chemical_formula_sum "Si O2"
_cell_formula_units_Z 12
_cell_length_a 8.798726
_cell_length_b 7.609449
_cell_length_c 9.768493
_cell_angle_alpha 88.502939
_cell_angle_beta 73.276821
_cell_angle_gamma 52.084770
_cell_volume 484.230017
_symmetry_space_group_name_H-M "P -1"
_symmetry_group_IT_number 2
_symmetry_cell_setting 'triclinic'
loop_
_space_group_symop_operation_xyz
x,y,z
-x,-y,-z
loop_
_atom_site_type_symbol
_atom_site_label
_atom_site_fract_x
_atom_site_fract_y
_atom_site_fract_z
Si Si1 0.588224 0.536162 0.845573
Si Si2 0.293827 0.606794 0.467865
Si Si3 0.912380 0.840808 0.723404
Si Si4 0.014587 0.399813 0.800070
Si Si5 0.283260 0.193498 0.484739
Si Si6 0.812025 0.995279 0.036599
O O1 0.667749 0.365337 0.699849
O O2 0.776907 0.517607 0.852461
O O3 0.394027 0.789550 0.843485
O O4 0.500000 0.500000 0.000000
O O5 0.500000 0.500000 0.500000
O O6 0.263296 0.417089 0.466067
O O7 0.096041 0.814455 0.598726
O O8 0.033726 0.594605 0.773350
O O9 0.766881 0.865480 0.642951
O O10 0.785280 0.002470 0.880252
O O11 0.117168 0.251754 0.638864
O O12 0.122825 0.231461 0.902920
O O13 0.500000 0.000000 0.500000
O O14 0.000000 0.000000 0.000000
#
# Coordination Sequence:
#
# PCOD9061440 Si02
#       6
#     2   2   2   2   2   2
#     4  12  24  44  69 100 146 180 226 290 349 409
#     4  11  23  45  70  97 136 182 232 287 347 409
#     4  11  24  47  72 100 141 185 234 294 343 412
#     4  11  23  47  71  99 142 183 233 287 344 420
#     4  11  23  46  73 102 137 186 236 290 346 413
#     4  12  26  44  69 105 142 184 233 285 353 417
#
# _framework density 24.781610000000001
#
# number of rings (size 3 to 8) (size 9 to 14) (size 15 to 20)
#    0.000    0.667    5.000    3.500    0.000    2.000 
#    3.000    2.500    0.000    0.000    0.000    0.000 
#    0.000    0.000    0.000    0.000    0.000    0.000 
#
# Total GULP energy -67201.723881 kJ/mol
# GULP energy per Si atom -5600.143657 kJ/mol
# Density = 2.472521 g / cm^3
# Si number density = 24.781610 Si / 1000 Ang^3
#
#
#
# Elastic Constant Matrix: (Units=GPa)
#
#
# Indices 1 2 3 4 5 6 
#
# 1 81.4939 3.6341 37.1440 7.2331 -1.3970 -20.8665
# 2 3.6341 89.8759 24.9231 -9.9732 -10.5804 -20.3825
# 3 37.1440 24.9231 189.1287 -6.5845 2.2107 -0.4801
# 4 7.2331 -9.9732 -6.5845 48.1568 -6.2317 -1.6022
# 5 -1.3970 -10.5804 2.2107 -6.2317 48.2392 6.1469
# 6 -20.8665 -20.3825 -0.4801 -1.6022 6.1469 35.5875
#
#
#
# Elastic Compliance Matrix: (Units=1/GPa)
#
#
# Indices 1 2 3 4 5 6 
#
# 1 0.016947 0.002623 -0.003716 -0.002196 -0.000497 0.011375
# 2 0.002623 0.014432 -0.002321 0.002918 0.002518 0.009469
# 3 -0.003716 -0.002321 0.006346 0.000785 -0.000383 -0.003321
# 4 -0.002196 0.002918 0.000785 0.022263 0.003311 0.000825
# 5 -0.000497 0.002518 -0.000383 0.003311 0.022033 -0.002511
# 6 0.011375 0.009469 -0.003321 0.000825 -0.002511 0.040619
#
#
# Mechanical properties :
#
#
# Convention : Reuss Voigt Hill
#
# Bulk Modulus (GPa) = 32.36529 54.65567 43.51048
# Shear Modulus (GPa) = 35.77420 46.04985 40.91202
#
# Velocity S-wave (km/s) = 3.80357 4.31539 4.06754
# Velocity P-wave (km/s) = 5.69017 6.85076 6.29726
#
# Compressibility (1/GPa) = 0.03089730
#
# Stress axis : x y z
#
# Youngs Moduli (GPa) = 59.00919 69.29268 157.57143
#
# Poissons Ratio (x) = -0.18174 0.58547
# Poissons Ratio (y) = -0.15476 0.36567
# Poissons Ratio (z) = 0.21926 0.16080
#
# Static dielectric constant tensor:
#      x y z
#    x 1.912310 0.041250 0.007500 
#    y 0.041250 2.024460 0.013090 
#    z 0.007500 0.013090 2.054370 
# 
# From -- ./inp_files/151621.got.cif
#   From: 2010.05.17/outbox.cif.g08.bks.cpg/sg2_76_cif.got.tgz:151621.got - 2010.06.03 11:33:40.
