data_PCOD9061949
_publ_section_title
;
Structure prediction by ZEFSAII (Michael W. Deem and Ramdas Pophale) SiO2 
 PCOD9061949
Probable space group: P -1
;
_chemical_formula_sum "Si O2"
_cell_formula_units_Z 14
_cell_length_a 9.391298
_cell_length_b 17.620515
_cell_length_c 24.547422
_cell_angle_alpha 20.196720
_cell_angle_beta 29.020999
_cell_angle_gamma 29.466958
_cell_volume 649.375704
_symmetry_space_group_name_H-M "P -1"
_symmetry_group_IT_number 2
_symmetry_cell_setting 'triclinic'
loop_
_space_group_symop_operation_xyz
x,y,z
-x,-y,-z
loop_
_atom_site_type_symbol
_atom_site_label
_atom_site_fract_x
_atom_site_fract_y
_atom_site_fract_z
Si Si1 0.881991 0.475343 0.442163
Si Si2 0.788531 0.299961 0.012989
Si Si3 0.904912 0.981624 0.482920
Si Si4 0.208854 0.505135 0.662849
Si Si5 0.729346 0.998067 0.134211
Si Si6 0.955268 0.769422 0.826905
Si Si7 0.774524 0.011516 0.311163
O O1 0.570209 0.400288 0.602681
O O2 0.954592 0.488569 0.344880
O O3 0.126118 0.265060 0.530908
O O4 0.819966 0.738807 0.303071
O O5 0.692590 0.174604 0.077695
O O6 0.906578 0.113286 0.146859
O O7 0.500000 0.500000 0.000000
O O8 0.053865 0.397024 0.834537
O O9 0.162683 0.767774 0.515966
O O10 0.590090 0.919502 0.622663
O O11 0.000000 0.000000 0.500000
O O12 0.903584 0.196715 0.301574
O O13 0.405286 0.083868 0.152830
O O14 0.000000 0.000000 0.000000
O O15 0.127493 0.876176 0.743340
O O16 0.000000 0.500000 0.000000
#
# Coordination Sequence:
#
# PCOD9061949 Si02
#       7
#     2   2   2   2   2   2   2
#     4  11  24  47  73 104 141 199 244 300 370 441
#     4  12  26  45  74 109 148 194 242 307 373 432
#     4  12  26  47  73 105 144 202 244 297 373 447
#     4  11  23  46  74  96 150 197 238 293 379 441
#     4  12  26  48  74 106 150 198 245 299 373 444
#     4  12  27  45  72 112 148 193 254 304 363 442
#     4  12  27  45  73 110 148 185 248 310 368 436
#
# _framework density 21.559166999999999
#
# number of rings (size 3 to 8) (size 9 to 14) (size 15 to 20)
#    0.000    0.286    5.714    3.000    4.000    1.143 
#    0.000    0.000    0.000    0.000    0.000    0.000 
#    0.000    0.000    0.000    0.000    0.000    0.000 
#
# Total GULP energy -78250.168658 kJ/mol
# GULP energy per Si atom -5589.297761 kJ/mol
# Density = 2.151010 g / cm^3
# Si number density = 21.559167 Si / 1000 Ang^3
#
#
#
# Elastic Constant Matrix: (Units=GPa)
#
#
# Indices 1 2 3 4 5 6 
#
# 1 125.9598 44.1204 40.3627 3.1486 -3.1178 4.8520
# 2 44.1204 89.5930 41.7018 -1.3579 -1.2680 7.9704
# 3 40.3627 41.7018 163.8639 7.5649 20.1377 2.7927
# 4 3.1486 -1.3579 7.5649 42.2458 12.9211 -5.2370
# 5 -3.1178 -1.2680 20.1377 12.9211 36.0733 -3.1305
# 6 4.8520 7.9704 2.7927 -5.2370 -3.1305 34.8885
#
#
#
# Elastic Compliance Matrix: (Units=1/GPa)
#
#
# Indices 1 2 3 4 5 6 
#
# 1 0.009994 -0.004142 -0.001594 -0.001253 0.002029 -0.000322
# 2 -0.004142 0.014788 -0.002898 0.000594 0.001362 -0.002359
# 3 -0.001594 -0.002898 0.007802 0.000022 -0.004616 -0.000152
# 4 -0.001253 0.000594 0.000022 0.027095 -0.009523 0.003250
# 5 0.002029 0.001362 -0.004616 -0.009523 0.034054 0.001402
# 6 -0.000322 -0.002359 -0.000152 0.003250 0.001402 0.029872
#
#
# Mechanical properties :
#
#
# Convention : Reuss Voigt Hill
#
# Bulk Modulus (GPa) = 65.28474 70.19851 67.74162
# Shear Modulus (GPa) = 34.25185 39.52363 36.88774
#
# Velocity S-wave (km/s) = 3.99022 4.28631 4.14091
# Velocity P-wave (km/s) = 7.18168 7.55832 7.37240
#
# Compressibility (1/GPa) = 0.01531752
#
# Stress axis : x y z
#
# Youngs Moduli (GPa) = 100.05614 67.62189 128.18008
#
# Poissons Ratio (x) = 0.28006 0.20429
# Poissons Ratio (y) = 0.41439 0.37145
# Poissons Ratio (z) = 0.15947 0.19596
#
# Static dielectric constant tensor:
#      x y z
#    x 1.739440 -0.026470 -0.038220 
#    y -0.026470 1.790110 -0.023620 
#    z -0.038220 -0.023620 1.837610 
# 
# From -- ./inp_files/204974.got.cif
#   From: 2010.05.17/outbox.cif.g08.bks.cpg/sg2_103_cif.got.tgz:204974.got - 2010.06.03 11:33:40.
