data_PCOD9061187
_publ_section_title
;
Structure prediction by ZEFSAII (Michael W. Deem and Ramdas Pophale) SiO2 
 PCOD9061187
Probable space group: P -1
;
_chemical_formula_sum "Si O2"
_cell_formula_units_Z 16
_cell_length_a 18.849584
_cell_length_b 11.598229
_cell_length_c 9.195077
_cell_angle_alpha 43.621650
_cell_angle_beta 57.179075
_cell_angle_gamma 29.373835
_cell_volume 656.404805
_symmetry_space_group_name_H-M "P -1"
_symmetry_group_IT_number 2
_symmetry_cell_setting 'triclinic'
loop_
_space_group_symop_operation_xyz
x,y,z
-x,-y,-z
loop_
_atom_site_type_symbol
_atom_site_label
_atom_site_fract_x
_atom_site_fract_y
_atom_site_fract_z
Si Si1 0.638818 0.104566 0.071781
Si Si2 0.016747 0.736774 0.804406
Si Si3 0.860532 0.325025 0.791707
Si Si4 0.265047 0.587830 0.557172
Si Si5 0.809233 0.698665 0.729267
Si Si6 0.404200 0.431685 0.267264
Si Si7 0.963528 0.433603 0.368935
Si Si8 0.467942 0.852669 0.162357
O O1 0.549401 0.170198 0.246182
O O2 0.811612 0.787751 0.203272
O O3 0.602482 0.361427 0.873875
O O4 0.588755 0.109197 0.968224
O O5 0.162430 0.610134 0.716424
O O6 0.987376 0.673821 0.753525
O O7 0.068195 0.569319 0.047151
O O8 0.861856 0.088538 0.668502
O O9 0.795341 0.576521 0.738624
O O10 0.733737 0.398358 0.833620
O O11 0.918097 0.329427 0.581641
O O12 0.000000 0.000000 0.000000
O O13 0.380700 0.362439 0.503314
O O14 0.372066 0.486662 0.656364
O O15 0.897419 0.717322 0.557925
O O16 0.660262 0.978631 0.730596
O O17 0.500000 0.000000 0.000000
#
# Coordination Sequence:
#
# PCOD9061187 Si02
#       8
#     2   2   2   2   2   2   2   2
#     4  11  26  48  72 105 144 187 242 295 354 429
#     4  11  23  44  74 104 144 188 236 291 360 432
#     4  12  27  47  71 103 145 188 242 292 354 431
#     4  11  24  43  71 106 141 189 238 285 363 424
#     4  12  26  45  75 108 144 187 237 305 352 421
#     4  11  26  48  72  99 146 195 232 292 361 427
#     4  12  25  46  73 106 142 191 239 291 364 427
#     4  12  25  46  71 111 142 181 240 302 355 417
#
# _framework density 24.375202999999999
#
# number of rings (size 3 to 8) (size 9 to 14) (size 15 to 20)
#    0.000    0.500    3.750    3.750    5.250    1.000 
#    2.250    0.000    0.000    0.000    0.000    0.000 
#    0.000    0.000    0.000    0.000    0.000    0.000 
#
# Total GULP energy -89592.582465 kJ/mol
# GULP energy per Si atom -5599.536404 kJ/mol
# Density = 2.431972 g / cm^3
# Si number density = 24.375203 Si / 1000 Ang^3
#
#
#
# Elastic Constant Matrix: (Units=GPa)
#
#
# Indices 1 2 3 4 5 6 
#
# 1 136.5083 70.9524 8.4989 4.0533 13.8024 -8.9275
# 2 70.9524 117.0071 14.2570 17.4692 3.5623 -18.4016
# 3 8.4989 14.2570 49.1809 1.4027 10.8049 -9.9118
# 4 4.0533 17.4692 1.4027 42.4071 -5.3856 5.8897
# 5 13.8024 3.5623 10.8049 -5.3856 24.1365 3.7419
# 6 -8.9275 -18.4016 -9.9118 5.8897 3.7419 44.2389
#
#
#
# Elastic Compliance Matrix: (Units=1/GPa)
#
#
# Indices 1 2 3 4 5 6 
#
# 1 0.011506 -0.007111 0.001347 0.001031 -0.005908 0.000028
# 2 -0.007111 0.014753 -0.002030 -0.005933 0.000702 0.004977
# 3 0.001347 -0.002030 0.024994 -0.002709 -0.013274 0.006511
# 4 0.001031 -0.005933 -0.002709 0.028174 0.008928 -0.007373
# 5 -0.005908 0.000702 -0.013274 0.008928 0.054135 -0.009642
# 6 0.000028 0.004977 0.006511 -0.007373 -0.009642 0.027937
#
#
# Mechanical properties :
#
#
# Convention : Reuss Voigt Hill
#
# Bulk Modulus (GPa) = 28.03753 54.45698 41.24725
# Shear Modulus (GPa) = 26.45846 36.08905 31.27376
#
# Velocity S-wave (km/s) = 3.29822 3.85198 3.58581
# Velocity P-wave (km/s) = 5.10213 6.49410 5.83974
#
# Compressibility (1/GPa) = 0.03566648
#
# Stress axis : x y z
#
# Youngs Moduli (GPa) = 86.90804 67.78234 40.00897
#
# Poissons Ratio (x) = 0.48201 -0.05391
# Poissons Ratio (y) = 0.61802 0.08121
# Poissons Ratio (z) = -0.11709 0.13759
#
# Static dielectric constant tensor:
#      x y z
#    x 1.967000 0.011740 -0.031370 
#    y 0.011740 1.933690 -0.005290 
#    z -0.031370 -0.005290 1.986960 
# 
# From -- ./inp_files/332870.got.cif
#   From: 2010.05.17/outbox.cif.g08.bks.cpg/sg2_167_cif.got.tgz:332870.got - 2010.06.03 11:33:40.
