data_PCOD9061120
_publ_section_title
;
Structure prediction by ZEFSAII (Michael W. Deem and Ramdas Pophale) SiO2 
 PCOD9061120
Probable space group: P -1
;
_chemical_formula_sum "Si O2"
_cell_formula_units_Z 16
_cell_length_a 8.668074
_cell_length_b 15.545894
_cell_length_c 8.908533
_cell_angle_alpha 68.041126
_cell_angle_beta 52.637981
_cell_angle_gamma 101.653463
_cell_volume 719.697555
_symmetry_space_group_name_H-M "P -1"
_symmetry_group_IT_number 2
_symmetry_cell_setting 'triclinic'
loop_
_space_group_symop_operation_xyz
x,y,z
-x,-y,-z
loop_
_atom_site_type_symbol
_atom_site_label
_atom_site_fract_x
_atom_site_fract_y
_atom_site_fract_z
Si Si1 0.408442 0.841546 0.056497
Si Si2 0.398895 0.406316 0.747469
Si Si3 0.673433 0.482014 0.006294
Si Si4 0.986038 0.818234 0.766432
Si Si5 0.859342 0.969038 0.259235
Si Si6 0.650276 0.773865 0.726269
Si Si7 0.506865 0.933920 0.256367
Si Si8 0.859155 0.401553 0.525846
O O1 0.533066 0.879936 0.123743
O O2 0.186780 0.713342 0.305029
O O3 0.545981 0.830369 0.846689
O O4 0.381108 0.938004 0.950400
O O5 0.500000 0.500000 0.500000
O O6 0.349796 0.471695 0.856165
O O7 0.606217 0.384808 0.663255
O O8 0.143858 0.283077 0.967913
O O9 0.553001 0.347655 0.144393
O O10 0.500000 0.500000 0.000000
O O11 0.951359 0.554338 0.749047
O O12 0.797335 0.764333 0.776293
O O13 0.228622 0.862224 0.507745
O O14 0.036479 0.928597 0.750734
O O15 0.818300 0.862086 0.440766
O O16 0.612407 0.934087 0.354308
O O17 0.000000 0.000000 0.000000
O O18 0.000000 0.500000 0.500000
#
# Coordination Sequence:
#
# PCOD9061120 Si02
#       8
#     2   2   2   2   2   2   2   2
#     4  11  23  44  73 101 139 178 240 274 362 414
#     4  12  29  46  72 109 146 186 235 302 357 415
#     4  12  24  47  73 107 140 188 245 286 350 427
#     4  12  24  48  68 100 138 183 231 287 350 420
#     4  12  29  44  67 104 142 180 235 291 356 411
#     4  12  25  44  75  98 139 188 230 291 346 427
#     4  11  27  43  71 103 137 185 230 295 349 424
#     4  12  23  44  76 104 139 188 237 290 347 431
#
# _framework density 22.231560999999999
#
# number of rings (size 3 to 8) (size 9 to 14) (size 15 to 20)
#    0.000    0.250    6.250    2.250    5.250    2.500 
#    0.000    0.000    0.000    0.000    0.000    0.000 
#    0.000    0.000    0.000    0.000    0.000    0.000 
#
# Total GULP energy -89250.279982 kJ/mol
# GULP energy per Si atom -5578.142499 kJ/mol
# Density = 2.218096 g / cm^3
# Si number density = 22.231561 Si / 1000 Ang^3
#
#
#
# Elastic Constant Matrix: (Units=GPa)
#
#
# Indices 1 2 3 4 5 6 
#
# 1 17.5342 -0.4713 15.1166 -3.7162 -2.4114 -4.7268
# 2 -0.4713 108.3448 53.1020 -4.5513 -7.4186 -0.7725
# 3 15.1166 53.1020 167.7626 1.4914 5.7828 -5.4022
# 4 -3.7162 -4.5513 1.4914 56.0432 -8.0020 -1.1899
# 5 -2.4114 -7.4186 5.7828 -8.0020 31.4037 -2.0671
# 6 -4.7268 -0.7725 -5.4022 -1.1899 -2.0671 14.9181
#
#
#
# Elastic Compliance Matrix: (Units=1/GPa)
#
#
# Indices 1 2 3 4 5 6 
#
# 1 0.073709 0.005634 -0.008168 0.007761 0.011985 0.022969
# 2 0.005634 0.011823 -0.004378 0.002154 0.004688 0.001633
# 3 -0.008168 -0.004378 0.008207 -0.001643 -0.003623 -0.000476
# 4 0.007761 0.002154 -0.001643 0.019629 0.006703 0.004470
# 5 0.011985 0.004688 -0.003623 0.006703 0.036797 0.008362
# 6 0.022969 0.001633 -0.000476 0.004470 0.008362 0.075738
#
#
# Mechanical properties :
#
#
# Convention : Reuss Voigt Hill
#
# Bulk Modulus (GPa) = 12.51317 47.68180 30.09749
# Shear Modulus (GPa) = 18.77126 35.53262 27.15194
#
# Velocity S-wave (km/s) = 2.90893 4.00221 3.49854
# Velocity P-wave (km/s) = 4.11379 6.54609 5.46692
#
# Compressibility (1/GPa) = 0.07991581
#
# Stress axis : x y z
#
# Youngs Moduli (GPa) = 13.56684 84.57822 121.85040
#
# Poissons Ratio (x) = -0.47653 0.99522
# Poissons Ratio (y) = -0.07644 0.53350
# Poissons Ratio (z) = 0.11081 0.37031
#
# Static dielectric constant tensor:
#      x y z
#    x 2.003830 -0.101420 -0.142730 
#    y -0.101420 1.773010 -0.035680 
#    z -0.142730 -0.035680 1.785120 
# 
# From -- ./inp_files/206195.got.cif
#   From: 2010.05.17/outbox.cif.g08.bks.cpg/sg2_104_cif.got.tgz:206195.got - 2010.06.03 11:33:40.
