data_PCOD9061584
_publ_section_title
;
Structure prediction by ZEFSAII (Michael W. Deem and Ramdas Pophale) SiO2 
 PCOD9061584
Probable space group: P -1
;
_chemical_formula_sum "Si O2"
_cell_formula_units_Z 16
_cell_length_a 9.135290
_cell_length_b 6.975072
_cell_length_c 18.638634
_cell_angle_alpha 128.271494
_cell_angle_beta 126.289965
_cell_angle_gamma 79.088448
_cell_volume 721.439590
_symmetry_space_group_name_H-M "P -1"
_symmetry_group_IT_number 2
_symmetry_cell_setting 'triclinic'
loop_
_space_group_symop_operation_xyz
x,y,z
-x,-y,-z
loop_
_atom_site_type_symbol
_atom_site_label
_atom_site_fract_x
_atom_site_fract_y
_atom_site_fract_z
Si Si1 0.860692 0.098601 0.076013
Si Si2 0.099848 0.497297 0.452199
Si Si3 0.470663 0.384723 0.588465
Si Si4 0.999269 0.696579 0.224041
Si Si5 0.766005 0.052123 0.191576
Si Si6 0.254939 0.885719 0.473827
Si Si7 0.866807 0.229799 0.872769
Si Si8 0.398252 0.083517 0.175391
O O1 0.725772 0.052530 0.095659
O O2 0.937203 0.396907 0.150600
O O3 0.025742 0.977349 0.120355
O O4 0.753599 0.962790 0.943450
O O5 0.292607 0.420844 0.501348
O O6 0.159893 0.768454 0.492758
O O7 0.000000 0.500000 0.500000
O O8 0.951071 0.289977 0.313621
O O9 0.608035 0.278207 0.553641
O O10 0.577216 0.650601 0.716334
O O11 0.379436 0.175444 0.574110
O O12 0.094039 0.842156 0.356030
O O13 0.144472 0.761269 0.214139
O O14 0.825997 0.801472 0.173267
O O15 0.596207 0.082684 0.197664
O O16 0.672622 0.141975 0.839421
O O17 0.000000 0.500000 0.000000
#
# Coordination Sequence:
#
# PCOD9061584 Si02
#       8
#     2   2   2   2   2   2   2   2
#     4  11  24  47  72  98 143 186 230 282 350 413
#     4  12  24  48  69  99 144 182 233 285 347 411
#     4  11  26  44  71 106 136 181 234 292 342 407
#     4  11  23  45  73  98 137 190 229 278 355 413
#     4  11  25  46  69 103 141 189 228 288 345 413
#     4  11  25  46  73 100 137 186 234 281 354 416
#     4  11  25  44  71 104 137 179 233 292 342 406
#     4  12  25  46  70 106 143 177 238 290 342 418
#
# _framework density 22.177876999999999
#
# number of rings (size 3 to 8) (size 9 to 14) (size 15 to 20)
#    0.000    0.750    5.000    1.875    3.500    3.000 
#    4.500    0.000    0.000    0.000    0.000    0.000 
#    0.000    0.000    0.000    0.000    0.000    0.000 
#
# Total GULP energy -89604.024018 kJ/mol
# GULP energy per Si atom -5600.251501 kJ/mol
# Density = 2.212740 g / cm^3
# Si number density = 22.177877 Si / 1000 Ang^3
#
#
#
# Elastic Constant Matrix: (Units=GPa)
#
#
# Indices 1 2 3 4 5 6 
#
# 1 73.0380 39.4393 22.3900 -3.0281 4.4023 29.0649
# 2 39.4393 122.9816 23.0218 7.8422 5.6401 35.2892
# 3 22.3900 23.0218 61.8249 11.5434 6.9394 20.4281
# 4 -3.0281 7.8422 11.5434 40.0375 6.3544 2.8902
# 5 4.4023 5.6401 6.9394 6.3544 25.2742 -4.9265
# 6 29.0649 35.2892 20.4281 2.8902 -4.9265 34.3215
#
#
#
# Elastic Compliance Matrix: (Units=1/GPa)
#
#
# Indices 1 2 3 4 5 6 
#
# 1 0.023206 -0.001816 -0.001736 0.005213 -0.008046 -0.018344
# 2 -0.001816 0.012370 0.000865 -0.001164 -0.004783 -0.012284
# 3 -0.001736 0.000865 0.022712 -0.004656 -0.007614 -0.013637
# 4 0.005213 -0.001164 -0.004656 0.028373 -0.007259 -0.003878
# 5 -0.008046 -0.004783 -0.007614 -0.007259 0.050657 0.024147
# 6 -0.018344 -0.012284 -0.013637 -0.003878 0.024147 0.069211
#
#
# Mechanical properties :
#
#
# Convention : Reuss Voigt Hill
#
# Bulk Modulus (GPa) = 18.89959 47.50518 33.20239
# Shear Modulus (GPa) = 21.78240 31.45952 26.62096
#
# Velocity S-wave (km/s) = 3.13736 3.77040 3.46835
# Velocity P-wave (km/s) = 4.65450 6.35776 5.57160
#
# Compressibility (1/GPa) = 0.05291119
#
# Stress axis : x y z
#
# Youngs Moduli (GPa) = 43.09288 80.83758 44.03050
#
# Poissons Ratio (x) = 0.14683 0.07646
# Poissons Ratio (y) = 0.07827 -0.03807
# Poissons Ratio (z) = 0.07483 -0.06989
#
# Static dielectric constant tensor:
#      x y z
#    x 1.834360 0.003640 -0.003610 
#    y 0.003640 1.810080 -0.009140 
#    z -0.003610 -0.009140 1.797540 
# 
# From -- ./inp_files/476036.got.cif
#   From: 2010.05.17/outbox.cif.g08.bks.cpg/sg2_239_cif.got.tgz:476036.got - 2010.06.03 11:33:40.
