data_PCOD9061297
_publ_section_title
;
Structure prediction by ZEFSAII (Michael W. Deem and Ramdas Pophale) SiO2 
 PCOD9061297
Probable space group: P -1
;
_chemical_formula_sum "Si O2"
_cell_formula_units_Z 16
_cell_length_a 8.512256
_cell_length_b 10.340915
_cell_length_c 18.374563
_cell_angle_alpha 129.000007
_cell_angle_beta 145.200750
_cell_angle_gamma 65.181229
_cell_volume 699.979381
_symmetry_space_group_name_H-M "P -1"
_symmetry_group_IT_number 2
_symmetry_cell_setting 'triclinic'
loop_
_space_group_symop_operation_xyz
x,y,z
-x,-y,-z
loop_
_atom_site_type_symbol
_atom_site_label
_atom_site_fract_x
_atom_site_fract_y
_atom_site_fract_z
Si Si1 0.669033 0.951800 0.841188
Si Si2 0.684734 0.495445 0.359226
Si Si3 0.372047 0.121711 0.547314
Si Si4 0.052008 0.688217 0.123168
Si Si5 0.439751 0.164317 0.077556
Si Si6 0.673656 0.610225 0.669495
Si Si7 0.161572 0.443547 0.842828
Si Si8 0.845972 0.905138 0.338601
O O1 0.552967 0.886855 0.853469
O O2 0.649774 0.805429 0.720996
O O3 0.475062 0.080215 0.789505
O O4 0.000000 0.000000 0.000000
O O5 0.671172 0.690968 0.418351
O O6 0.617423 0.362624 0.218892
O O7 0.477622 0.435983 0.326996
O O8 0.000000 0.500000 0.500000
O O9 0.637298 0.191166 0.727575
O O10 0.500000 0.000000 0.500000
O O11 0.055445 0.010728 0.396490
O O12 0.974632 0.636871 0.160441
O O13 0.000000 0.500000 0.000000
O O14 0.848274 0.798990 0.050569
O O15 0.500000 0.000000 0.000000
O O16 0.500000 0.500000 0.500000
O O17 0.987630 0.577514 0.791942
O O18 0.121020 0.286917 0.716320
O O19 0.500000 0.500000 0.000000
O O20 0.000000 0.000000 0.500000
#
# Coordination Sequence:
#
# PCOD9061297 Si02
#       8
#     2   2   2   2   2   2   2   2
#     4  11  25  46  65  98 139 175 223 281 336 408
#     4  11  24  43  68  98 134 177 225 288 338 400
#     4  12  24  45  71  97 142 176 232 292 333 409
#     4  12  24  45  71 100 133 185 233 279 347 402
#     4  11  25  43  67  99 136 176 234 276 340 410
#     4  11  23  45  66  96 133 176 225 271 341 406
#     4  12  26  46  69 101 139 177 228 285 339 413
#     4  12  27  45  69 105 135 182 228 279 349 404
#
# _framework density 22.857816
#
# number of rings (size 3 to 8) (size 9 to 14) (size 15 to 20)
#    0.000    0.500    3.750    4.500    5.250    2.000 
#    0.000    0.000    0.000    0.000    0.000    0.000 
#    0.000    0.000    0.000    0.000    0.000    0.000 
#
# Total GULP energy -89135.523020 kJ/mol
# GULP energy per Si atom -5570.970189 kJ/mol
# Density = 2.280579 g / cm^3
# Si number density = 22.857816 Si / 1000 Ang^3
#
#
#
# Elastic Constant Matrix: (Units=GPa)
#
#
# Indices 1 2 3 4 5 6 
#
# 1 39.8287 30.5965 14.3306 1.7017 -6.4647 -24.5168
# 2 30.5965 154.6766 28.4945 -3.3276 -8.6663 -45.9091
# 3 14.3306 28.4945 104.3676 3.7607 1.2132 -35.9782
# 4 1.7017 -3.3276 3.7607 63.8543 -14.6256 -5.9476
# 5 -6.4647 -8.6663 1.2132 -14.6256 43.9006 4.0588
# 6 -24.5168 -45.9091 -35.9782 -5.9476 4.0588 33.7182
#
#
#
# Elastic Compliance Matrix: (Units=1/GPa)
#
#
# Indices 1 2 3 4 5 6 
#
# 1 0.053144 0.004730 0.010779 0.004571 0.004731 0.056820
# 2 0.004730 0.012469 0.004700 0.003026 0.001654 0.025766
# 3 0.010779 0.004700 0.018672 0.001953 -0.000546 0.034570
# 4 0.004571 0.003026 0.001953 0.018104 0.006140 0.011982
# 5 0.004731 0.001654 -0.000546 0.006140 0.025575 0.003114
# 6 0.056820 0.025766 0.034570 0.011982 0.003114 0.144680
#
#
# Mechanical properties :
#
#
# Convention : Reuss Voigt Hill
#
# Bulk Modulus (GPa) = 8.01906 49.52400 28.77153
# Shear Modulus (GPa) = 18.26201 43.32470 30.79335
#
# Velocity S-wave (km/s) = 2.82962 4.35834 3.67436
# Velocity P-wave (km/s) = 3.76716 6.85857 5.53315
#
# Compressibility (1/GPa) = 0.12470287
#
# Stress axis : x y z
#
# Youngs Moduli (GPa) = 18.81677 80.19922 53.55755
#
# Poissons Ratio (x) = -0.37933 -0.57730
# Poissons Ratio (y) = -0.08900 -0.25174
# Poissons Ratio (z) = -0.20283 -0.37696
#
# Static dielectric constant tensor:
#      x y z
#    x 1.927750 0.022250 0.008770 
#    y 0.022250 1.874820 0.016760 
#    z 0.008770 0.016760 1.942760 
# 
# From -- ./inp_files/589670.got.cif
#   From: 2010.05.17/outbox.cif.g08.bks.cpg/sg2_295_cif.got.tgz:589670.got - 2010.06.03 11:33:40.
