data_PCOD9061847
_publ_section_title
;
Structure prediction by ZEFSAII (Michael W. Deem and Ramdas Pophale) SiO2 
 PCOD9061847
Probable space group: P -1
;
_chemical_formula_sum "Si O2"
_cell_formula_units_Z 14
_cell_length_a 19.578431
_cell_length_b 11.133949
_cell_length_c 14.205021
_cell_angle_alpha 34.016481
_cell_angle_beta 147.058554
_cell_angle_gamma 157.251675
_cell_volume 628.492700
_symmetry_space_group_name_H-M "P -1"
_symmetry_group_IT_number 2
_symmetry_cell_setting 'triclinic'
loop_
_space_group_symop_operation_xyz
x,y,z
-x,-y,-z
loop_
_atom_site_type_symbol
_atom_site_label
_atom_site_fract_x
_atom_site_fract_y
_atom_site_fract_z
Si Si1 0.723734 0.711937 0.419521
Si Si2 0.816219 0.311238 0.469682
Si Si3 0.586424 0.176383 0.733966
Si Si4 0.307016 0.122549 0.042799
Si Si5 0.859593 0.774681 0.349796
Si Si6 0.306787 0.825664 0.938144
Si Si7 0.075148 0.869003 0.131175
O O1 0.616379 0.446487 0.547548
O O2 0.714347 0.578221 0.395813
O O3 0.678055 0.898404 0.224538
O O4 0.936399 0.981529 0.528012
O O5 0.832718 0.550149 0.392141
O O6 0.000000 0.500000 0.500000
O O7 0.809700 0.110496 0.668277
O O8 0.637834 0.118225 0.321846
O O9 0.651246 0.073721 0.802261
O O10 0.690528 0.265555 0.893945
O O11 0.500000 0.500000 0.000000
O O12 0.165840 0.033967 0.857796
O O13 0.211000 0.051090 0.078428
O O14 0.113826 0.504110 0.873779
O O15 0.500000 0.000000 0.000000
O O16 0.000000 0.000000 0.000000
#
# Coordination Sequence:
#
# PCOD9061847 Si02
#       7
#     2   2   2   2   2   2   2
#     4  11  26  46  75 106 148 192 249 312 374 445
#     4  12  26  47  73 107 153 197 251 308 372 450
#     4  12  28  45  78 112 144 197 255 304 384 444
#     4  12  26  45  78 110 153 192 257 316 370 450
#     4  11  23  46  72 103 148 193 239 311 372 429
#     4  12  28  51  75 109 156 195 252 320 376 449
#     4  12  29  49  78 108 150 206 251 305 392 452
#
# _framework density 22.275517000000001
#
# number of rings (size 3 to 8) (size 9 to 14) (size 15 to 20)
#    0.000    0.286    4.286    3.429    8.000    2.857 
#    0.000    0.000    0.000    0.000    0.000    0.000 
#    0.000    0.000    0.000    0.000    0.000    0.000 
#
# Total GULP energy -78341.630186 kJ/mol
# GULP energy per Si atom -5595.830728 kJ/mol
# Density = 2.222482 g / cm^3
# Si number density = 22.275517 Si / 1000 Ang^3
#
#
#
# Elastic Constant Matrix: (Units=GPa)
#
#
# Indices 1 2 3 4 5 6 
#
# 1 95.6998 18.0704 34.6815 -11.6611 4.4627 18.3156
# 2 18.0704 34.8018 13.4796 -9.1093 14.5443 3.2203
# 3 34.6815 13.4796 112.6780 8.7675 -8.6933 5.1983
# 4 -11.6611 -9.1093 8.7675 35.9061 6.0883 -0.2381
# 5 4.4627 14.5443 -8.6933 6.0883 38.8450 -0.8465
# 6 18.3156 3.2203 5.1983 -0.2381 -0.8465 33.7098
#
#
#
# Elastic Compliance Matrix: (Units=1/GPa)
#
#
# Indices 1 2 3 4 5 6 
#
# 1 0.014777 -0.002589 -0.004569 0.005685 -0.002797 -0.007107
# 2 -0.002589 0.046485 -0.007590 0.016424 -0.021430 -0.002286
# 3 -0.004569 -0.007590 0.012284 -0.007645 0.007346 0.001444
# 4 0.005685 0.016424 -0.007645 0.038178 -0.014575 -0.003575
# 5 -0.002797 -0.021430 0.007346 -0.014575 0.038089 0.003288
# 6 -0.007107 -0.002286 0.001444 -0.003575 0.003288 0.033580
#
#
# Mechanical properties :
#
#
# Convention : Reuss Voigt Hill
#
# Bulk Modulus (GPa) = 22.70107 41.73807 32.21957
# Shear Modulus (GPa) = 21.97114 33.48870 27.72992
#
# Velocity S-wave (km/s) = 3.14401 3.88156 3.53209
# Velocity P-wave (km/s) = 4.83662 6.23430 5.57940
#
# Compressibility (1/GPa) = 0.04405079
#
# Stress axis : x y z
#
# Youngs Moduli (GPa) = 67.67129 21.51244 81.40604
#
# Poissons Ratio (x) = 0.05569 0.37194
# Poissons Ratio (y) = 0.17518 0.61788
# Poissons Ratio (z) = 0.30919 0.16328
#
# Static dielectric constant tensor:
#      x y z
#    x 1.833300 -0.009570 -0.007090 
#    y -0.009570 1.833130 -0.065080 
#    z -0.007090 -0.065080 1.830830 
# 
# From -- ./inp_files/438625.got.cif
#   From: 2010.05.17/outbox.cif.g08.bks.cpg/sg2_220_cif.got.tgz:438625.got - 2010.06.03 11:33:40.
