data_PCOD9061158
_publ_section_title
;
Structure prediction by ZEFSAII (Michael W. Deem and Ramdas Pophale) SiO2 
 PCOD9061158
Probable space group: P -1
;
_chemical_formula_sum "Si O2"
_cell_formula_units_Z 12
_cell_length_a 4.890632
_cell_length_b 21.985921
_cell_length_c 15.448292
_cell_angle_alpha 16.008740
_cell_angle_beta 75.959057
_cell_angle_gamma 81.133875
_cell_volume 424.555039
_symmetry_space_group_name_H-M "P -1"
_symmetry_group_IT_number 2
_symmetry_cell_setting 'triclinic'
loop_
_space_group_symop_operation_xyz
x,y,z
-x,-y,-z
loop_
_atom_site_type_symbol
_atom_site_label
_atom_site_fract_x
_atom_site_fract_y
_atom_site_fract_z
Si Si1 0.684297 0.610518 0.204657
Si Si2 0.270550 0.260716 0.270661
Si Si3 0.286277 0.576217 0.137154
Si Si4 0.123207 0.279456 0.778048
Si Si5 0.327108 0.801068 0.549254
Si Si6 0.384129 0.068443 0.822715
O O1 0.466673 0.694575 0.045278
O O2 0.453151 0.377723 0.578807
O O3 0.809754 0.761998 0.070724
O O4 0.000000 0.500000 0.500000
O O5 0.357604 0.128569 0.525405
O O6 0.922926 0.156587 0.427289
O O7 0.519431 0.288034 0.142194
O O8 0.283137 0.525240 0.926988
O O9 0.950375 0.574921 0.175343
O O10 0.305009 0.312821 0.496083
O O11 0.898638 0.112860 0.955103
O O12 0.352557 0.880244 0.339304
O O13 0.500000 0.000000 0.000000
#
# Coordination Sequence:
#
# PCOD9061158 Si02
#       6
#     2   2   2   2   2   2
#     4  11  24  45  70 100 138 196 228 283 354 422
#     4   9  18  38  68  95 135 178 224 287 350 412
#     4  11  23  44  73 110 136 178 244 296 343 407
#     4  11  24  49  66  97 148 197 229 272 362 436
#     4   9  19  40  63  97 138 179 220 284 360 406
#     4  11  26  46  73 109 145 180 238 299 347 414
#
# _framework density 28.264889
#
# number of rings (size 3 to 8) (size 9 to 14) (size 15 to 20)
#    0.000    1.667    1.667    2.000    0.000    5.333 
#   15.000    0.000    0.000    6.000    0.000    0.000 
#    0.000    0.000    0.000    0.000    0.000    0.000 
#
# Total GULP energy -67123.475797 kJ/mol
# GULP energy per Si atom -5593.622983 kJ/mol
# Density = 2.820056 g / cm^3
# Si number density = 28.264889 Si / 1000 Ang^3
#
#
#
# Elastic Constant Matrix: (Units=GPa)
#
#
# Indices 1 2 3 4 5 6 
#
# 1 169.2502 52.5302 50.0760 6.7323 -49.4246 -10.0933
# 2 52.5302 155.4276 73.0291 8.6415 -10.4842 23.5634
# 3 50.0760 73.0291 112.3565 -9.4550 -14.0183 3.7262
# 4 6.7323 8.6415 -9.4550 73.1031 -7.5004 -6.7101
# 5 -49.4246 -10.4842 -14.0183 -7.5004 49.9303 -5.5239
# 6 -10.0933 23.5634 3.7262 -6.7101 -5.5239 66.7036
#
#
#
# Elastic Compliance Matrix: (Units=1/GPa)
#
#
# Indices 1 2 3 4 5 6 
#
# 1 0.010156 -0.002466 -0.001821 0.000396 0.009452 0.003332
# 2 -0.002466 0.010889 -0.006403 -0.002577 -0.002822 -0.004355
# 3 -0.001821 -0.006403 0.014265 0.003072 0.001499 0.001623
# 4 0.000396 -0.002577 0.003072 0.014913 0.003238 0.002567
# 5 0.009452 -0.002822 0.001499 0.003238 0.030272 0.005176
# 6 0.003332 -0.004355 0.001623 0.002567 0.005176 0.017631
#
#
# Mechanical properties :
#
#
# Convention : Reuss Voigt Hill
#
# Bulk Modulus (GPa) = 71.79002 87.58945 79.68974
# Shear Modulus (GPa) = 40.27400 55.37401 47.82400
#
# Velocity S-wave (km/s) = 3.77885 4.43098 4.11785
# Velocity P-wave (km/s) = 6.67036 7.56533 7.13190
#
# Compressibility (1/GPa) = 0.01392951
#
# Stress axis : x y z
#
# Youngs Moduli (GPa) = 98.46512 91.83451 70.09953
#
# Poissons Ratio (x) = 0.22650 0.12766
# Poissons Ratio (y) = 0.24285 0.44884
# Poissons Ratio (z) = 0.17932 0.58801
#
# Static dielectric constant tensor:
#      x y z
#    x 2.191160 -0.012840 0.094760 
#    y -0.012840 2.218710 -0.000570 
#    z 0.094760 -0.000570 2.398470 
# 
# From -- ./inp_files/76134.got.cif
#   From: 2010.05.17/outbox.cif.g08.bks.cpg/sg2_39_cif.got.tgz:76134.got - 2010.06.03 11:33:40.
