data_PCOD9061632
_publ_section_title
;
Structure prediction by ZEFSAII (Michael W. Deem and Ramdas Pophale) SiO2 
 PCOD9061632
Probable space group: P -1
;
_chemical_formula_sum "Si O2"
_cell_formula_units_Z 16
_cell_length_a 11.682454
_cell_length_b 9.044796
_cell_length_c 13.545845
_cell_angle_alpha 132.348032
_cell_angle_beta 112.747940
_cell_angle_gamma 39.336999
_cell_volume 642.391385
_symmetry_space_group_name_H-M "P -1"
_symmetry_group_IT_number 2
_symmetry_cell_setting 'triclinic'
loop_
_space_group_symop_operation_xyz
x,y,z
-x,-y,-z
loop_
_atom_site_type_symbol
_atom_site_label
_atom_site_fract_x
_atom_site_fract_y
_atom_site_fract_z
Si Si1 0.097497 0.214604 0.830040
Si Si2 0.663533 0.640551 0.414256
Si Si3 0.290353 0.426542 0.218708
Si Si4 0.590846 0.103562 0.854265
Si Si5 0.057363 0.136851 0.211208
Si Si6 0.388400 0.727494 0.859379
Si Si7 0.297748 0.643911 0.508812
Si Si8 0.164204 0.574348 0.935102
O O1 0.155524 0.366674 0.887382
O O2 0.877280 0.447542 0.847630
O O3 0.193307 0.042067 0.888069
O O4 0.179097 0.957024 0.663807
O O5 0.596921 0.515368 0.283336
O O6 0.681688 0.565514 0.502559
O O7 0.879092 0.411650 0.343779
O O8 0.500000 0.000000 0.500000
O O9 0.452036 0.329213 0.163015
O O10 0.228114 0.662361 0.386707
O O11 0.362143 0.153963 0.184724
O O12 0.375563 0.342118 0.858345
O O13 0.752247 0.962399 0.765597
O O14 0.601146 0.258723 0.014264
O O15 0.978376 0.257255 0.128268
O O16 0.119179 0.828575 0.098568
O O17 0.500000 0.500000 0.500000
#
# Coordination Sequence:
#
# PCOD9061632 Si02
#       8
#     2   2   2   2   2   2   2   2
#     4  11  24  43  75 104 150 190 246 310 366 435
#     4  11  27  48  80 104 148 198 244 307 377 435
#     4  12  24  42  75 107 145 196 250 300 374 434
#     4  12  25  45  74 109 149 197 243 305 378 436
#     4  11  26  47  69 108 147 197 247 295 375 452
#     4  11  25  47  70 112 147 188 247 307 372 442
#     4  11  23  49  72 105 145 193 250 300 363 436
#     4  11  23  45  75 103 156 193 240 309 369 440
#
# _framework density 24.906936999999999
#
# number of rings (size 3 to 8) (size 9 to 14) (size 15 to 20)
#    0.000    0.750    5.000    2.625    3.500    3.500 
#    2.250    0.625    0.000    0.000    0.000    0.000 
#    0.000    0.000    0.000    0.000    0.000    0.000 
#
# Total GULP energy -89715.102203 kJ/mol
# GULP energy per Si atom -5607.193888 kJ/mol
# Density = 2.485025 g / cm^3
# Si number density = 24.906937 Si / 1000 Ang^3
#
#
#
# Elastic Constant Matrix: (Units=GPa)
#
#
# Indices 1 2 3 4 5 6 
#
# 1 195.0639 60.4552 38.5554 22.6993 -10.7091 -15.2424
# 2 60.4552 102.7653 32.6808 18.5190 4.5237 -6.1324
# 3 38.5554 32.6808 95.6815 14.0252 0.4887 0.0750
# 4 22.6993 18.5190 14.0252 52.6531 3.6018 1.3423
# 5 -10.7091 4.5237 0.4887 3.6018 43.8486 7.4836
# 6 -15.2424 -6.1324 0.0750 1.3423 7.4836 55.5392
#
#
#
# Elastic Compliance Matrix: (Units=1/GPa)
#
#
# Indices 1 2 3 4 5 6 
#
# 1 0.006811 -0.003286 -0.001403 -0.001572 0.001928 0.001287
# 2 -0.003286 0.013121 -0.002806 -0.002331 -0.002085 0.000888
# 3 -0.001403 -0.002806 0.012217 -0.001649 0.000062 -0.000680
# 4 -0.001572 -0.002331 -0.001649 0.021069 -0.001690 -0.000968
# 5 0.001928 -0.002085 0.000062 -0.001690 0.024127 -0.002911
# 6 0.001287 0.000888 -0.000680 -0.000968 -0.002911 0.018873
#
#
# Mechanical properties :
#
#
# Convention : Reuss Voigt Hill
#
# Bulk Modulus (GPa) = 58.27396 72.98818 65.63107
# Shear Modulus (GPa) = 42.76140 47.86281 45.31211
#
# Velocity S-wave (km/s) = 4.14798 4.38844 4.26990
# Velocity P-wave (km/s) = 6.81091 7.41929 7.12160
#
# Compressibility (1/GPa) = 0.01716032
#
# Stress axis : x y z
#
# Youngs Moduli (GPa) = 146.81201 76.21355 81.85289
#
# Poissons Ratio (x) = 0.25042 0.11483
# Poissons Ratio (y) = 0.48239 0.22968
# Poissons Ratio (z) = 0.20596 0.21385
#
# Static dielectric constant tensor:
#      x y z
#    x 1.985230 0.007800 -0.030750 
#    y 0.007800 1.939880 0.026120 
#    z -0.030750 0.026120 2.006940 
# 
# From -- ./inp_files/516270.got.cif
#   From: 2010.05.17/outbox.cif.g08.bks.cpg/sg2_259_cif.got.tgz:516270.got - 2010.06.03 11:33:40.
