data_PCOD9061618
_publ_section_title
;
Structure prediction by ZEFSAII (Michael W. Deem and Ramdas Pophale) SiO2 
 PCOD9061618
Probable space group: P -1
;
_chemical_formula_sum "Si O2"
_cell_formula_units_Z 15
_cell_length_a 7.114948
_cell_length_b 7.913161
_cell_length_c 13.998437
_cell_angle_alpha 86.292289
_cell_angle_beta 132.336878
_cell_angle_gamma 93.833157
_cell_volume 581.079046
_symmetry_space_group_name_H-M "P -1"
_symmetry_group_IT_number 2
_symmetry_cell_setting 'triclinic'
loop_
_space_group_symop_operation_xyz
x,y,z
-x,-y,-z
loop_
_atom_site_type_symbol
_atom_site_label
_atom_site_fract_x
_atom_site_fract_y
_atom_site_fract_z
Si Si1 0.999146 0.886911 0.410134
Si Si2 0.260639 0.063621 0.321364
Si Si3 0.593445 0.471309 0.876685
Si Si4 0.218072 0.031689 0.938310
Si Si5 0.000000 0.500000 0.500000
Si Si6 0.893122 0.583700 0.160245
Si Si7 0.422567 0.428396 0.333915
Si Si8 0.426941 0.899102 0.195083
O O1 0.199295 0.960847 0.399690
O O2 0.018269 0.693248 0.455450
O O3 0.722123 0.913919 0.269265
O O4 0.000000 0.000000 0.500000
O O5 0.396486 0.244387 0.378229
O O6 0.397206 0.953120 0.291936
O O7 0.986322 0.096423 0.175226
O O8 0.307998 0.469179 0.823407
O O9 0.607892 0.603051 0.790417
O O10 0.648255 0.293435 0.851312
O O11 0.783473 0.501333 0.028030
O O12 0.129620 0.216947 0.872552
O O13 0.500000 0.000000 0.000000
O O14 0.259328 0.014189 0.066012
O O15 0.696005 0.523592 0.428721
O O16 0.178095 0.530398 0.280512
#
# Coordination Sequence:
#
# PCOD9061618 Si02
#       8
#     2   2   2   2   1   2   2   2
#     4  12  29  57  84 117 163 218 288 353 411 495
#     4  12  28  50  84 122 163 217 273 339 428 506
#     4  11  23  45  74 117 165 209 265 337 406 500
#     4  12  23  45  80 123 168 217 258 340 429 504
#     4  12  30  58  84 114 162 218 290 358 406 482
#     4  11  25  43  79 117 169 216 269 331 418 506
#     4  12  27  50  78 116 160 217 276 343 413 486
#     4  12  24  49  80 117 171 210 274 336 420 505
#
# _framework density 25.814045
#
# number of rings (size 3 to 8) (size 9 to 14) (size 15 to 20)
#    0.000    0.267    4.000    4.000    1.867    4.267 
#    2.400    3.333    0.000    0.000    0.000    0.000 
#    0.000    0.000    0.000    0.000    0.000    0.000 
#
# Total GULP energy -83889.458075 kJ/mol
# GULP energy per Si atom -5592.630538 kJ/mol
# Density = 2.575529 g / cm^3
# Si number density = 25.814045 Si / 1000 Ang^3
#
#
#
# Elastic Constant Matrix: (Units=GPa)
#
#
# Indices 1 2 3 4 5 6 
#
# 1 182.9396 88.1561 44.7513 -20.0751 10.5843 18.4817
# 2 88.1561 129.2801 49.6508 -17.5980 7.5583 21.8150
# 3 44.7513 49.6508 97.6275 -19.5534 29.2302 -0.3054
# 4 -20.0751 -17.5980 -19.5534 41.6876 -5.0377 0.1296
# 5 10.5843 7.5583 29.2302 -5.0377 65.3348 2.1311
# 6 18.4817 21.8150 -0.3054 0.1296 2.1311 53.3837
#
#
#
# Elastic Compliance Matrix: (Units=1/GPa)
#
#
# Indices 1 2 3 4 5 6 
#
# 1 0.008356 -0.004980 -0.000945 0.001455 -0.000215 -0.000858
# 2 -0.004980 0.013805 -0.004991 0.001303 0.001674 -0.004016
# 3 -0.000945 -0.004991 0.015893 0.004141 -0.006148 0.002693
# 4 0.001455 0.001303 0.004141 0.027172 -0.000109 -0.001074
# 5 -0.000215 0.001674 -0.006148 -0.000109 0.017934 -0.001361
# 6 -0.000858 -0.004016 0.002693 -0.001074 -0.001361 0.020743
#
#
# Mechanical properties :
#
#
# Convention : Reuss Voigt Hill
#
# Bulk Modulus (GPa) = 61.63920 86.10707 73.87314
# Shear Modulus (GPa) = 38.12737 47.23381 42.68059
#
# Velocity S-wave (km/s) = 3.84735 4.28222 4.07060
# Velocity P-wave (km/s) = 6.60803 7.60783 7.12549
#
# Compressibility (1/GPa) = 0.01622344
#
# Stress axis : x y z
#
# Youngs Moduli (GPa) = 119.67775 72.43950 62.92068
#
# Poissons Ratio (x) = 0.36071 0.05944
# Poissons Ratio (y) = 0.59594 0.31403
# Poissons Ratio (z) = 0.11305 0.36154
#
# Static dielectric constant tensor:
#      x y z
#    x 2.070100 0.022590 -0.023370 
#    y 0.022590 1.982730 0.023950 
#    z -0.023370 0.023950 2.128240 
# 
# From -- ./inp_files/164023.got.cif
#   From: 2010.05.17/outbox.cif.g08.bks.cpg/sg2_83_cif.got.tgz:164023.got - 2010.06.03 11:33:40.
