data_PCOD9061888
_publ_section_title
;
Structure prediction by ZEFSAII (Michael W. Deem and Ramdas Pophale) SiO2 
 PCOD9061888
Probable space group: P -1
;
_chemical_formula_sum "Si O2"
_cell_formula_units_Z 16
_cell_length_a 9.547927
_cell_length_b 15.142500
_cell_length_c 10.358540
_cell_angle_alpha 64.393642
_cell_angle_beta 137.984420
_cell_angle_gamma 86.274334
_cell_volume 694.859218
_symmetry_space_group_name_H-M "P -1"
_symmetry_group_IT_number 2
_symmetry_cell_setting 'triclinic'
loop_
_space_group_symop_operation_xyz
x,y,z
-x,-y,-z
loop_
_atom_site_type_symbol
_atom_site_label
_atom_site_fract_x
_atom_site_fract_y
_atom_site_fract_z
Si Si1 0.407896 0.440638 0.729068
Si Si2 0.328983 0.114489 0.913356
Si Si3 0.030917 0.601601 0.593654
Si Si4 0.920979 0.100441 0.770136
Si Si5 0.007349 0.230368 0.175881
Si Si6 0.143315 0.388679 0.269540
Si Si7 0.676658 0.334759 0.629532
Si Si8 0.214986 0.957603 0.559140
O O1 0.203667 0.409147 0.592817
O O2 0.369075 0.544425 0.538259
O O3 0.295487 0.513525 0.742891
O O4 0.721757 0.315962 0.006248
O O5 0.502055 0.132736 0.114207
O O6 0.106616 0.250558 0.607796
O O7 0.193618 0.074871 0.935364
O O8 0.500000 0.000000 0.000000
O O9 0.070549 0.564450 0.792700
O O10 0.732767 0.240397 0.614593
O O11 0.812892 0.092238 0.563264
O O12 0.000000 0.000000 0.000000
O O13 0.187845 0.268672 0.316219
O O14 0.162242 0.084942 0.401683
O O15 0.917705 0.265904 0.942634
O O16 0.419670 0.362519 0.509226
O O17 0.000000 0.500000 0.000000
O O18 0.000000 0.000000 0.500000
#
# Coordination Sequence:
#
# PCOD9061888 Si02
#       8
#     2   2   2   2   2   2   2   2
#     4  11  23  46  73 102 142 191 235 297 369 426
#     4  12  26  49  77 105 149 194 246 303 365 434
#     4  11  25  46  73 107 145 190 240 307 366 428
#     4  12  28  49  74 107 150 194 242 311 365 425
#     4  12  25  44  75 102 146 191 237 298 364 435
#     4  12  26  45  72 108 140 190 243 288 370 446
#     4  12  25  50  71 103 151 187 237 303 368 432
#     4  12  27  46  74 111 141 194 250 291 368 440
#
# _framework density 23.026247000000001
#
# number of rings (size 3 to 8) (size 9 to 14) (size 15 to 20)
#    0.000    0.250    6.250    2.625    3.500    2.000 
#    6.750    0.000    0.000    0.000    0.000    0.000 
#    0.000    0.000    0.000    0.000    0.000    0.000 
#
# Total GULP energy -89468.316407 kJ/mol
# GULP energy per Si atom -5591.769775 kJ/mol
# Density = 2.297384 g / cm^3
# Si number density = 23.026247 Si / 1000 Ang^3
#
#
#
# Elastic Constant Matrix: (Units=GPa)
#
#
# Indices 1 2 3 4 5 6 
#
# 1 131.3647 30.2872 11.1319 8.6899 -17.8231 -3.6343
# 2 30.2872 131.8701 6.2313 6.2040 -7.7015 -7.5348
# 3 11.1319 6.2313 48.5838 9.1287 -17.4998 -4.4729
# 4 8.6899 6.2040 9.1287 42.0046 2.3710 -1.0736
# 5 -17.8231 -7.7015 -17.4998 2.3710 34.6704 2.9266
# 6 -3.6343 -7.5348 -4.4729 -1.0736 2.9266 47.7885
#
#
#
# Elastic Compliance Matrix: (Units=1/GPa)
#
#
# Indices 1 2 3 4 5 6 
#
# 1 0.008688 -0.001660 0.000110 -0.001814 0.004268 0.000107
# 2 -0.001660 0.008121 -0.000086 -0.000860 0.000876 0.001073
# 3 0.000110 -0.000086 0.026991 -0.006627 0.013987 0.001516
# 4 -0.001814 -0.000860 -0.006627 0.026105 -0.006260 0.000076
# 5 0.004268 0.000876 0.013987 -0.006260 0.038782 -0.000744
# 6 0.000107 0.001073 0.001516 0.000076 -0.000744 0.021292
#
#
# Mechanical properties :
#
#
# Convention : Reuss Voigt Hill
#
# Bulk Modulus (GPa) = 24.67260 45.23550 34.95405
# Shear Modulus (GPa) = 34.06922 42.50391 38.28657
#
# Velocity S-wave (km/s) = 3.85071 4.30104 4.08209
# Velocity P-wave (km/s) = 5.52348 6.65981 6.11809
#
# Compressibility (1/GPa) = 0.04053078
#
# Stress axis : x y z
#
# Youngs Moduli (GPa) = 115.10384 123.13152 37.04879
#
# Poissons Ratio (x) = 0.20438 -0.00409
# Poissons Ratio (y) = 0.19105 0.00317
# Poissons Ratio (z) = -0.01271 0.01053
#
# Static dielectric constant tensor:
#      x y z
#    x 1.543610 -0.624520 -0.039500 
#    y -0.624520 0.729050 -0.040870 
#    z -0.039500 -0.040870 1.911760 
# 
# From -- ./inp_files/206538.got.cif
#   From: 2010.05.17/outbox.cif.g08.bks.cpg/sg2_104_cif.got.tgz:206538.got - 2010.06.03 11:33:40.
