data_PCOD9061837
_publ_section_title
;
Structure prediction by ZEFSAII (Michael W. Deem and Ramdas Pophale) SiO2 
 PCOD9061837
Probable space group: P -1
;
_chemical_formula_sum "Si O2"
_cell_formula_units_Z 16
_cell_length_a 14.593219
_cell_length_b 21.026771
_cell_length_c 8.060553
_cell_angle_alpha 107.385925
_cell_angle_beta 63.892319
_cell_angle_gamma 160.686260
_cell_volume 675.716329
_symmetry_space_group_name_H-M "P -1"
_symmetry_group_IT_number 2
_symmetry_cell_setting 'triclinic'
loop_
_space_group_symop_operation_xyz
x,y,z
-x,-y,-z
loop_
_atom_site_type_symbol
_atom_site_label
_atom_site_fract_x
_atom_site_fract_y
_atom_site_fract_z
Si Si1 0.710083 0.097609 0.767461
Si Si2 0.389487 0.662360 0.006474
Si Si3 0.782643 0.515627 0.522829
Si Si4 0.731680 0.742790 0.678928
Si Si5 0.622348 0.848022 0.325430
Si Si6 0.753672 0.250167 0.377184
Si Si7 0.411435 0.419473 0.827611
Si Si8 0.151144 0.957586 0.225586
O O1 0.798026 0.077424 0.736605
O O2 0.014204 0.332038 0.673934
O O3 0.497502 0.956463 0.662107
O O4 0.500000 0.000000 0.000000
O O5 0.505205 0.664521 0.838317
O O6 0.524144 0.804321 0.894250
O O7 0.567373 0.782704 0.136914
O O8 0.015150 0.431134 0.168699
O O9 0.544335 0.306299 0.532949
O O10 0.586462 0.457845 0.695652
O O11 0.037641 0.650640 0.563585
O O12 0.541634 0.556106 0.704222
O O13 0.911650 0.854904 0.446113
O O14 0.013823 0.917852 0.727836
O O15 0.433498 0.800546 0.451335
O O16 0.039232 0.179438 0.896450
O O17 0.500000 0.500000 0.000000
#
# Coordination Sequence:
#
# PCOD9061837 Si02
#       8
#     2   2   2   2   2   2   2   2
#     4  12  29  43  69 101 142 183 225 283 349 413
#     4  11  25  42  74  99 139 185 230 282 334 417
#     4  11  24  45  71 100 134 182 229 285 335 406
#     4  12  24  46  68 104 140 179 230 285 346 405
#     4  11  23  46  72 102 137 181 236 282 338 404
#     4  11  25  48  70 102 136 185 236 282 335 406
#     4  12  25  44  73  99 137 180 231 286 341 413
#     4  12  27  46  66 105 141 180 226 286 352 406
#
# _framework density 23.678578000000002
#
# number of rings (size 3 to 8) (size 9 to 14) (size 15 to 20)
#    0.000    0.500    2.500    6.000    7.000    1.500 
#    0.000    0.000    0.000    0.000    0.000    0.000 
#    0.000    0.000    0.000    0.000    0.000    0.000 
#
# Total GULP energy -89704.580685 kJ/mol
# GULP energy per Si atom -5606.536293 kJ/mol
# Density = 2.362468 g / cm^3
# Si number density = 23.678578 Si / 1000 Ang^3
#
#
#
# Elastic Constant Matrix: (Units=GPa)
#
#
# Indices 1 2 3 4 5 6 
#
# 1 78.9791 22.7534 11.7999 -9.2975 -1.4846 -10.3252
# 2 22.7534 84.5621 3.5946 -1.6872 -0.9422 -4.9073
# 3 11.7999 3.5946 76.3289 -1.6034 -0.0166 -6.2171
# 4 -9.2975 -1.6872 -1.6034 41.7602 -6.6486 14.1049
# 5 -1.4846 -0.9422 -0.0166 -6.6486 36.1677 -6.9300
# 6 -10.3252 -4.9073 -6.2171 14.1049 -6.9300 41.4430
#
#
#
# Elastic Compliance Matrix: (Units=1/GPa)
#
#
# Indices 1 2 3 4 5 6 
#
# 1 0.014611 -0.003653 -0.001845 0.002473 0.001404 0.002324
# 2 -0.003653 0.012849 0.000017 -0.000537 0.000247 0.000838
# 3 -0.001845 0.000017 0.013519 -0.000455 0.000184 0.001756
# 4 0.002473 -0.000537 -0.000455 0.027868 0.003601 -0.008398
# 5 0.001404 0.000247 0.000184 0.003601 0.029152 0.004056
# 6 0.002324 0.000838 0.001756 -0.008398 0.004056 0.028608
#
#
# Mechanical properties :
#
#
# Convention : Reuss Voigt Hill
#
# Bulk Modulus (GPa) = 33.31622 35.12953 34.22287
# Shear Modulus (GPa) = 33.88122 37.32233 35.60178
#
# Velocity S-wave (km/s) = 3.78680 3.97445 3.88176
# Velocity P-wave (km/s) = 5.76373 5.99416 5.88007
#
# Compressibility (1/GPa) = 0.03001541
#
# Stress axis : x y z
#
# Youngs Moduli (GPa) = 68.44148 77.82989 73.96910
#
# Poissons Ratio (x) = 0.28432 0.13649
# Poissons Ratio (y) = 0.25003 -0.00123
# Poissons Ratio (z) = 0.12629 -0.00130
#
# Static dielectric constant tensor:
#      x y z
#    x 1.883650 0.006610 0.053390 
#    y 0.006610 1.912580 -0.024750 
#    z 0.053390 -0.024750 1.919480 
# 
# From -- ./inp_files/184312.got.cif
#   From: 2010.05.17/outbox.cif.g08.bks.cpg/sg2_93_cif.got.tgz:184312.got - 2010.06.03 11:33:40.
