data_PCOD9061468
_publ_section_title
;
Structure prediction by ZEFSAII (Michael W. Deem and Ramdas Pophale) SiO2 
 PCOD9061468
Probable space group: P -1
;
_chemical_formula_sum "Si O2"
_cell_formula_units_Z 16
_cell_length_a 9.454375
_cell_length_b 15.834521
_cell_length_c 9.202898
_cell_angle_alpha 144.284967
_cell_angle_beta 87.119935
_cell_angle_gamma 106.600780
_cell_volume 728.932085
_symmetry_space_group_name_H-M "P -1"
_symmetry_group_IT_number 2
_symmetry_cell_setting 'triclinic'
loop_
_space_group_symop_operation_xyz
x,y,z
-x,-y,-z
loop_
_atom_site_type_symbol
_atom_site_label
_atom_site_fract_x
_atom_site_fract_y
_atom_site_fract_z
Si Si1 0.648801 0.085336 0.508191
Si Si2 0.455364 0.512400 0.187653
Si Si3 0.144806 0.103972 0.238233
Si Si4 0.271602 0.436235 0.564215
Si Si5 0.468785 0.115210 0.277139
Si Si6 0.928375 0.988020 0.329020
Si Si7 0.918173 0.426521 0.054712
Si Si8 0.157048 0.364045 0.158668
O O1 0.566520 0.103583 0.392798
O O2 0.500000 0.000000 0.500000
O O3 0.761304 0.994989 0.350617
O O4 0.772263 0.257471 0.798301
O O5 0.561674 0.469407 0.236983
O O6 0.470480 0.691402 0.471255
O O7 0.282521 0.388906 0.061165
O O8 0.500000 0.500000 0.000000
O O9 0.240007 0.255370 0.345414
O O10 0.279645 0.050395 0.207885
O O11 0.055788 0.124229 0.413803
O O12 0.000000 0.000000 0.000000
O O13 0.147750 0.461171 0.707335
O O14 0.243723 0.464594 0.437707
O O15 0.500000 0.000000 0.000000
O O16 0.914555 0.817387 0.037629
O O17 0.000000 0.000000 0.500000
O O18 0.030249 0.404825 0.139989
O O19 0.000000 0.500000 0.000000
#
# Coordination Sequence:
#
# PCOD9061468 Si02
#       8
#     2   2   2   2   2   2   2   2
#     4  12  27  44  70 105 143 183 237 302 362 434
#     4  11  26  47  72 102 142 193 242 294 369 443
#     4  11  23  45  71 102 142 187 236 291 365 435
#     4  11  25  44  73 101 141 186 239 298 359 436
#     4  11  26  45  71 105 141 188 235 298 363 432
#     4  12  25  44  71 103 141 186 241 294 361 438
#     4  12  26  48  71 105 142 191 239 301 372 439
#     4  12  26  45  72 103 140 187 244 298 359 439
#
# _framework density 21.949919000000001
#
# number of rings (size 3 to 8) (size 9 to 14) (size 15 to 20)
#    0.000    0.500    2.500    5.250    8.750    2.000 
#    0.000    0.000    0.000    0.000    0.000    0.000 
#    0.000    0.000    0.000    0.000    0.000    0.000 
#
# Total GULP energy -89288.827062 kJ/mol
# GULP energy per Si atom -5580.551691 kJ/mol
# Density = 2.189996 g / cm^3
# Si number density = 21.949919 Si / 1000 Ang^3
#
#
#
# Elastic Constant Matrix: (Units=GPa)
#
#
# Indices 1 2 3 4 5 6 
#
# 1 181.3127 38.0205 16.3418 -14.8450 9.7307 -30.2360
# 2 38.0205 91.9792 18.0790 -20.9750 3.2437 -14.2078
# 3 16.3418 18.0790 52.4698 -18.3349 6.4370 -17.7987
# 4 -14.8450 -20.9750 -18.3349 36.4759 -3.0885 8.2059
# 5 9.7307 3.2437 6.4370 -3.0885 39.3251 -5.9498
# 6 -30.2360 -14.2078 -17.7987 8.2059 -5.9498 50.0231
#
#
#
# Elastic Compliance Matrix: (Units=1/GPa)
#
#
# Indices 1 2 3 4 5 6 
#
# 1 0.006579 -0.002041 0.000123 0.000766 -0.000935 0.003204
# 2 -0.002041 0.013544 -0.001626 0.005918 0.000285 0.001098
# 3 0.000123 -0.001626 0.025790 0.010352 -0.002273 0.006821
# 4 0.000766 0.005918 0.010352 0.036393 0.000473 -0.000087
# 5 -0.000935 0.000285 -0.002273 0.000473 0.026312 0.001759
# 6 0.003204 0.001098 0.006821 -0.000087 0.001759 0.024890
#
#
# Mechanical properties :
#
#
# Convention : Reuss Voigt Hill
#
# Bulk Modulus (GPa) = 25.75552 52.29381 39.02467
# Shear Modulus (GPa) = 32.56507 42.05287 37.30897
#
# Velocity S-wave (km/s) = 3.85594 4.38180 4.12725
# Velocity P-wave (km/s) = 5.61993 7.03392 6.36631
#
# Compressibility (1/GPa) = 0.03882663
#
# Stress axis : x y z
#
# Youngs Moduli (GPa) = 151.98728 73.83127 38.77431
#
# Poissons Ratio (x) = 0.15072 -0.00479
# Poissons Ratio (y) = 0.31027 0.06304
# Poissons Ratio (z) = -0.01876 0.12004
#
# Static dielectric constant tensor:
#      x y z
#    x 1.808260 -0.025460 0.033300 
#    y -0.025460 1.904600 0.062760 
#    z 0.033300 0.062760 1.926530 
# 
# From -- ./inp_files/209309.got.cif
#   From: 2010.05.17/outbox.cif.g08.bks.cpg/sg2_105_cif.got.tgz:209309.got - 2010.06.03 11:33:40.
