data_PCOD9061180
_publ_section_title
;
Structure prediction by ZEFSAII (Michael W. Deem and Ramdas Pophale) SiO2 
 PCOD9061180
Probable space group: P -1
;
_chemical_formula_sum "Si O2"
_cell_formula_units_Z 16
_cell_length_a 9.707109
_cell_length_b 17.706926
_cell_length_c 11.705050
_cell_angle_alpha 29.028666
_cell_angle_beta 123.351842
_cell_angle_gamma 135.238966
_cell_volume 672.405275
_symmetry_space_group_name_H-M "P -1"
_symmetry_group_IT_number 2
_symmetry_cell_setting 'triclinic'
loop_
_space_group_symop_operation_xyz
x,y,z
-x,-y,-z
loop_
_atom_site_type_symbol
_atom_site_label
_atom_site_fract_x
_atom_site_fract_y
_atom_site_fract_z
Si Si1 0.529601 0.896278 0.048317
Si Si2 0.147825 0.756834 0.906919
Si Si3 0.986027 0.947669 0.725850
Si Si4 0.968300 0.134751 0.885462
Si Si5 0.533711 0.632343 0.946486
Si Si6 0.288965 0.802309 0.655531
Si Si7 0.354174 0.351249 0.436383
Si Si8 0.062543 0.383098 0.413175
O O1 0.358641 0.836530 0.958562
O O2 0.555420 0.737878 0.324827
O O3 0.500000 0.000000 0.000000
O O4 0.736717 0.049664 0.881899
O O5 0.025176 0.545233 0.177241
O O6 0.175588 0.753231 0.789649
O O7 0.056666 0.867749 0.764501
O O8 0.745122 0.836045 0.754249
O O9 0.162285 0.171522 0.519979
O O10 0.997609 0.875248 0.952988
O O11 0.090066 0.335391 0.615603
O O12 0.000000 0.000000 0.000000
O O13 0.511154 0.512725 0.207827
O O14 0.500000 0.500000 0.000000
O O15 0.357995 0.664526 0.838886
O O16 0.134964 0.790842 0.508703
O O17 0.500000 0.000000 0.500000
O O18 0.252717 0.429160 0.365850
#
# Coordination Sequence:
#
# PCOD9061180 Si02
#       8
#     2   2   2   2   2   2   2   2
#     4  11  23  45  71 107 141 186 243 289 365 428
#     4  12  26  45  73 104 148 185 235 306 359 429
#     4  11  26  48  72 109 142 191 238 297 371 417
#     4  11  23  44  74 102 140 184 240 295 353 431
#     4  12  29  48  73 109 144 191 250 296 351 440
#     4  12  28  48  73 105 142 196 243 293 362 437
#     4  11  25  47  73 104 148 187 239 300 357 429
#     4  12  25  45  73 104 144 189 239 299 360 428
#
# _framework density 23.795172999999998
#
# number of rings (size 3 to 8) (size 9 to 14) (size 15 to 20)
#    0.000    0.500    6.250    2.625    7.000    3.500 
#    0.000    0.000    0.000    0.000    0.000    0.000 
#    0.000    0.000    0.000    0.000    0.000    0.000 
#
# Total GULP energy -89524.809098 kJ/mol
# GULP energy per Si atom -5595.300569 kJ/mol
# Density = 2.374101 g / cm^3
# Si number density = 23.795173 Si / 1000 Ang^3
#
#
#
# Elastic Constant Matrix: (Units=GPa)
#
#
# Indices 1 2 3 4 5 6 
#
# 1 143.9864 22.8899 18.8578 6.3936 3.2287 -10.6527
# 2 22.8899 69.9567 -16.7909 10.3590 1.6177 5.5491
# 3 18.8578 -16.7909 65.9450 1.8178 -1.5479 -15.9544
# 4 6.3936 10.3590 1.8178 40.4915 -1.1308 -2.4153
# 5 3.2287 1.6177 -1.5479 -1.1308 42.1709 1.6342
# 6 -10.6527 5.5491 -15.9544 -2.4153 1.6342 37.1938
#
#
#
# Elastic Compliance Matrix: (Units=1/GPa)
#
#
# Indices 1 2 3 4 5 6 
#
# 1 0.007983 -0.003357 -0.002755 -0.000199 -0.000652 0.001621
# 2 -0.003357 0.017383 0.005102 -0.004251 -0.000273 -0.001630
# 3 -0.002755 0.005102 0.018854 -0.001321 0.000423 0.006433
# 4 -0.000199 -0.004251 -0.001321 0.025995 0.000762 0.001665
# 5 -0.000652 -0.000273 0.000423 0.000762 0.023847 -0.000963
# 6 0.001621 -0.001630 0.006433 0.001665 -0.000963 0.030504
#
#
# Mechanical properties :
#
#
# Convention : Reuss Voigt Hill
#
# Bulk Modulus (GPa) = 23.69707 36.64461 30.17084
# Shear Modulus (GPa) = 35.54859 40.96665 38.25762
#
# Velocity S-wave (km/s) = 3.86935 4.15376 4.01407
# Velocity P-wave (km/s) = 5.47201 6.19987 5.84728
#
# Compressibility (1/GPa) = 0.04219932
#
# Stress axis : x y z
#
# Youngs Moduli (GPa) = 125.26456 57.52781 53.03951
#
# Poissons Ratio (x) = 0.19314 0.14614
# Poissons Ratio (y) = 0.42056 -0.27063
# Poissons Ratio (z) = 0.34514 -0.29353
#
# Static dielectric constant tensor:
#      x y z
#    x 1.820740 -0.076940 0.067280 
#    y -0.076940 1.064330 0.345600 
#    z 0.067280 0.345600 1.820900 
# 
# From -- ./inp_files/307152.got.cif
#   From: 2010.05.17/outbox.cif.g08.bks.cpg/sg2_154_cif.got.tgz:307152.got - 2010.06.03 11:33:40.
