data_PCOD9061593
_publ_section_title
;
Structure prediction by ZEFSAII (Michael W. Deem and Ramdas Pophale) SiO2 
 PCOD9061593
Probable space group: P -1
;
_chemical_formula_sum "Si O2"
_cell_formula_units_Z 10
_cell_length_a 8.580855
_cell_length_b 9.613874
_cell_length_c 7.049169
_cell_angle_alpha 84.146807
_cell_angle_beta 119.243101
_cell_angle_gamma 56.041404
_cell_volume 360.013100
_symmetry_space_group_name_H-M "P -1"
_symmetry_group_IT_number 2
_symmetry_cell_setting 'triclinic'
loop_
_space_group_symop_operation_xyz
x,y,z
-x,-y,-z
loop_
_atom_site_type_symbol
_atom_site_label
_atom_site_fract_x
_atom_site_fract_y
_atom_site_fract_z
Si Si1 0.243634 0.346189 0.481813
Si Si2 0.251402 0.248571 0.906554
Si Si3 0.006649 0.832515 0.976859
Si Si4 0.341999 0.888515 0.562124
Si Si5 0.439718 0.530402 0.737595
O O1 0.254659 0.238499 0.683260
O O2 0.311117 0.459341 0.601494
O O3 0.964518 0.517342 0.212130
O O4 0.443933 0.207011 0.458479
O O5 0.163427 0.161522 0.981280
O O6 0.517145 0.153673 0.154694
O O7 0.889307 0.896905 0.685698
O O8 0.285564 0.619822 0.174100
O O9 0.000000 0.000000 0.000000
O O10 0.288355 0.752377 0.561321
O O11 0.500000 0.500000 0.000000
#
# Coordination Sequence:
#
# PCOD9061593 Si02
#       5
#     2   2   2   2   2
#     4  11  23  45  74 103 142 189 233 296 351 423
#     4  11  25  44  72 109 140 190 240 290 358 423
#     4  12  26  46  74 105 146 190 235 297 358 424
#     4  12  24  46  76 104 145 185 242 294 356 421
#     4  12  25  48  74 104 143 190 239 290 358 425
#
# _framework density 27.776765999999999
#
# number of rings (size 3 to 8) (size 9 to 14) (size 15 to 20)
#    0.000    0.400    6.000    3.000    0.000    1.600 
#    0.000    0.000    0.000    0.000    0.000    0.000 
#    0.000    0.000    0.000    0.000    0.000    0.000 
#
# Total GULP energy -56217.736275 kJ/mol
# GULP energy per Si atom -5621.773627 kJ/mol
# Density = 2.771354 g / cm^3
# Si number density = 27.776766 Si / 1000 Ang^3
#
#
#
# Elastic Constant Matrix: (Units=GPa)
#
#
# Indices 1 2 3 4 5 6 
#
# 1 80.2598 17.5485 16.2093 -5.3996 -21.1145 17.1724
# 2 17.5485 82.1304 33.6298 -5.9373 -6.8700 26.2396
# 3 16.2093 33.6298 179.2164 -7.6138 -19.4639 21.0074
# 4 -5.3996 -5.9373 -7.6138 48.2121 -0.5214 -5.1729
# 5 -21.1145 -6.8700 -19.4639 -0.5214 59.9919 -1.7401
# 6 17.1724 26.2396 21.0074 -5.1729 -1.7401 46.6114
#
#
#
# Elastic Compliance Matrix: (Units=1/GPa)
#
#
# Indices 1 2 3 4 5 6 
#
# 1 0.015113 -0.001277 0.000000 0.001103 0.005051 -0.004538
# 2 -0.001277 0.015678 -0.001870 0.000703 0.000530 -0.007415
# 3 0.000000 -0.001870 0.006349 0.000612 0.001802 -0.001673
# 4 0.001103 0.000703 0.000612 0.021198 0.000890 0.001308
# 5 0.005051 0.000530 0.001802 0.000890 0.019037 -0.002162
# 6 -0.004538 -0.007415 -0.001673 0.001308 -0.002162 0.028119
#
#
# Mechanical properties :
#
#
# Convention : Reuss Voigt Hill
#
# Bulk Modulus (GPa) = 32.41919 52.93131 42.67525
# Shear Modulus (GPa) = 40.96021 49.24435 45.10228
#
# Velocity S-wave (km/s) = 3.84425 4.21510 4.03394
# Velocity P-wave (km/s) = 5.60366 6.54116 6.09047
#
# Compressibility (1/GPa) = 0.03084593
#
# Stress axis : x y z
#
# Youngs Moduli (GPa) = 66.16989 63.78169 157.51385
#
# Poissons Ratio (x) = 0.08145 -0.00002
# Poissons Ratio (y) = 0.08450 0.29454
# Poissons Ratio (z) = -0.00001 0.11927
#
# Static dielectric constant tensor:
#      x y z
#    x 2.103010 0.005030 0.012860 
#    y 0.005030 2.198070 0.030590 
#    z 0.012860 0.030590 2.146230 
# 
# From -- ./inp_files/146009.got.cif
#   From: 2010.05.17/outbox.cif.g08.bks.cpg/sg2_74_cif.got.tgz:146009.got - 2010.06.03 11:33:40.
