data_PCOD9061101
_publ_section_title
;
Structure prediction by ZEFSAII (Michael W. Deem and Ramdas Pophale) SiO2 
 PCOD9061101
Probable space group: P -1
;
_chemical_formula_sum "Si O2"
_cell_formula_units_Z 16
_cell_length_a 15.306238
_cell_length_b 14.991982
_cell_length_c 14.822868
_cell_angle_alpha 28.008629
_cell_angle_beta 37.923825
_cell_angle_gamma 27.441288
_cell_volume 735.888286
_symmetry_space_group_name_H-M "P -1"
_symmetry_group_IT_number 2
_symmetry_cell_setting 'triclinic'
loop_
_space_group_symop_operation_xyz
x,y,z
-x,-y,-z
loop_
_atom_site_type_symbol
_atom_site_label
_atom_site_fract_x
_atom_site_fract_y
_atom_site_fract_z
Si Si1 0.921876 0.378657 0.454818
Si Si2 0.903496 0.903137 0.619629
Si Si3 0.302887 0.730309 0.190906
Si Si4 0.528036 0.644485 0.777270
Si Si5 0.338897 0.197980 0.025731
Si Si6 0.711096 0.810487 0.577703
Si Si7 0.415329 0.541713 0.630982
Si Si8 0.578874 0.968503 0.218205
O O1 0.890728 0.205763 0.685285
O O2 0.724984 0.666513 0.362153
O O3 0.975956 0.291203 0.385567
O O4 0.088818 0.344258 0.398603
O O5 0.829926 0.804364 0.834630
O O6 0.711965 0.166969 0.499022
O O7 0.000000 0.000000 0.500000
O O8 0.417486 0.502282 0.229645
O O9 0.416324 0.635496 0.277436
O O10 0.299162 0.945705 0.963543
O O11 0.691393 0.645989 0.676006
O O12 0.347867 0.943247 0.645044
O O13 0.500000 0.500000 0.000000
O O14 0.435118 0.102994 0.130725
O O15 0.292228 0.457509 0.810605
O O16 0.500000 0.000000 0.000000
O O17 0.548212 0.927293 0.682081
O O18 0.500000 0.500000 0.500000
#
# Coordination Sequence:
#
# PCOD9061101 Si02
#       8
#     2   2   2   2   2   2   2   2
#     4  12  26  45  70 101 141 178 230 289 343 414
#     4  12  26  41  63 103 137 177 233 288 342 409
#     4  11  24  44  72 101 136 186 230 284 347 410
#     4  11  23  44  76 103 138 180 231 284 344 418
#     4  11  24  42  70  96 133 187 229 283 349 409
#     4  11  24  46  73 101 137 184 226 281 354 405
#     4  11  23  44  72  96 136 186 232 279 347 413
#     4  11  24  47  70  98 139 186 231 280 350 410
#
# _framework density 21.742431
#
# number of rings (size 3 to 8) (size 9 to 14) (size 15 to 20)
#    0.000    0.750    5.000    2.250    3.500    3.000 
#    0.000    1.250    0.000    0.000    0.000    0.000 
#    0.000    0.000    0.000    0.000    0.000    0.000 
#
# Total GULP energy -89527.102933 kJ/mol
# GULP energy per Si atom -5595.443933 kJ/mol
# Density = 2.169294 g / cm^3
# Si number density = 21.742431 Si / 1000 Ang^3
#
#
#
# Elastic Constant Matrix: (Units=GPa)
#
#
# Indices 1 2 3 4 5 6 
#
# 1 92.0846 1.4363 26.9564 6.8988 -6.9716 -0.2255
# 2 1.4363 48.1105 28.9885 11.0275 -1.9075 -0.9760
# 3 26.9564 28.9885 164.4632 14.1709 -18.8512 0.9894
# 4 6.8988 11.0275 14.1709 31.9348 -1.4296 -4.1495
# 5 -6.9716 -1.9075 -18.8512 -1.4296 43.6904 4.6874
# 6 -0.2255 -0.9760 0.9894 -4.1495 4.6874 30.1527
#
#
#
# Elastic Compliance Matrix: (Units=1/GPa)
#
#
# Indices 1 2 3 4 5 6 
#
# 1 0.011613 0.001275 -0.001819 -0.002129 0.001084 -0.000274
# 2 0.001275 0.024778 -0.004049 -0.007055 -0.000702 0.000083
# 3 -0.001819 -0.004049 0.007562 -0.001573 0.002857 -0.001053
# 4 -0.002129 -0.007055 -0.001573 0.035501 -0.000680 0.004799
# 5 0.001084 -0.000702 0.002857 -0.000680 0.024674 -0.004038
# 6 -0.000274 0.000083 -0.001053 0.004799 -0.004038 0.034488
#
#
# Mechanical properties :
#
#
# Convention : Reuss Voigt Hill
#
# Bulk Modulus (GPa) = 28.76396 46.60229 37.68313
# Shear Modulus (GPa) = 31.36917 37.64070 34.50494
#
# Velocity S-wave (km/s) = 3.80249 4.16529 3.98802
# Velocity P-wave (km/s) = 5.70410 6.67931 6.21088
#
# Compressibility (1/GPa) = 0.03476572
#
# Stress axis : x y z
#
# Youngs Moduli (GPa) = 86.11056 40.35781 132.24651
#
# Poissons Ratio (x) = -0.05144 0.24053
# Poissons Ratio (y) = -0.10975 0.53552
# Poissons Ratio (z) = 0.15662 0.16342
#
# Static dielectric constant tensor:
#      x y z
#    x 1.814430 -0.025450 -0.023150 
#    y -0.025450 1.753650 0.004800 
#    z -0.023150 0.004800 1.825200 
# 
# From -- ./inp_files/533607.got.cif
#   From: 2010.05.17/outbox.cif.g08.bks.cpg/sg2_267_cif.got.tgz:533607.got - 2010.06.03 11:33:40.
