data_PCOD9061429
_publ_section_title
;
Structure prediction by ZEFSAII (Michael W. Deem and Ramdas Pophale) SiO2 
 PCOD9061429
Probable space group: P -1
;
_chemical_formula_sum "Si O2"
_cell_formula_units_Z 15
_cell_length_a 8.495654
_cell_length_b 16.002546
_cell_length_c 19.353784
_cell_angle_alpha 159.344219
_cell_angle_beta 131.934626
_cell_angle_gamma 48.750885
_cell_volume 684.640579
_symmetry_space_group_name_H-M "P -1"
_symmetry_group_IT_number 2
_symmetry_cell_setting 'triclinic'
loop_
_space_group_symop_operation_xyz
x,y,z
-x,-y,-z
loop_
_atom_site_type_symbol
_atom_site_label
_atom_site_fract_x
_atom_site_fract_y
_atom_site_fract_z
Si Si1 0.295835 0.720635 0.262212
Si Si2 0.750157 0.262995 0.509417
Si Si3 0.467921 0.197745 0.888145
Si Si4 0.962582 0.286733 0.443290
Si Si5 0.830925 0.232170 0.120734
Si Si6 0.572489 0.254428 0.201074
Si Si7 0.000000 0.000000 0.500000
Si Si8 0.376286 0.964643 0.332271
O O1 0.317558 0.802638 0.252757
O O2 0.090978 0.853935 0.343512
O O3 0.495901 0.826105 0.439242
O O4 0.319453 0.435838 0.051624
O O5 0.893277 0.246135 0.470039
O O6 0.608666 0.521064 0.668745
O O7 0.880178 0.214968 0.581353
O O8 0.602034 0.049540 0.297399
O O9 0.471418 0.175247 0.788478
O O10 0.700904 0.226496 0.007335
O O11 0.767150 0.284411 0.332613
O O12 0.046673 0.540328 0.661645
O O13 0.160507 0.088325 0.329895
O O14 0.657558 0.248339 0.143328
O O15 0.000000 0.000000 0.000000
O O16 0.500000 0.000000 0.000000
#
# Coordination Sequence:
#
# PCOD9061429 Si02
#       8
#     2   2   2   2   2   2   1   2
#     4  11  24  46  70 106 150 192 254 303 367 436
#     4  12  26  46  70 109 149 196 251 307 371 449
#     4  12  24  45  72 106 147 196 241 307 378 436
#     4  12  24  46  72 106 146 193 248 308 373 448
#     4  12  24  43  71 108 140 191 245 304 380 448
#     4  12  26  49  74 108 150 195 247 317 375 442
#     4  12  24  48  72 104 152 200 244 304 366 446
#     4  11  23  45  70 107 145 193 248 309 362 443
#
# _framework density 21.909306999999998
#
# number of rings (size 3 to 8) (size 9 to 14) (size 15 to 20)
#    0.000    0.267    4.000    6.000    0.000    0.533 
#    4.800    0.000    0.000    0.000    0.000    0.000 
#    0.000    0.000    0.000    0.000    0.000    0.000 
#
# Total GULP energy -83758.578144 kJ/mol
# GULP energy per Si atom -5583.905210 kJ/mol
# Density = 2.185944 g / cm^3
# Si number density = 21.909307 Si / 1000 Ang^3
#
#
#
# Elastic Constant Matrix: (Units=GPa)
#
#
# Indices 1 2 3 4 5 6 
#
# 1 72.3645 -8.0616 51.3035 16.6539 -11.8971 10.6949
# 2 -8.0616 88.4990 39.0849 11.8388 6.0537 -2.9527
# 3 51.3035 39.0849 146.8270 27.6829 8.6199 4.5046
# 4 16.6539 11.8388 27.6829 36.6268 -8.6303 -14.1071
# 5 -11.8971 6.0537 8.6199 -8.6303 29.4971 0.6939
# 6 10.6949 -2.9527 4.5046 -14.1071 0.6939 32.6583
#
#
#
# Elastic Compliance Matrix: (Units=1/GPa)
#
#
# Indices 1 2 3 4 5 6 
#
# 1 0.026790 0.006905 -0.009777 -0.008865 0.009907 -0.010840
# 2 0.006905 0.014878 -0.005418 -0.004703 -0.000009 -0.002200
# 3 -0.009777 -0.005418 0.013527 -0.006824 -0.008736 -0.001916
# 4 -0.008865 -0.004703 -0.006824 0.050911 0.013688 0.025120
# 5 0.009907 -0.000009 -0.008736 0.013688 0.044388 0.002930
# 6 -0.010840 -0.002200 -0.001916 0.025120 0.002930 0.045024
#
#
# Mechanical properties :
#
#
# Convention : Reuss Voigt Hill
#
# Bulk Modulus (GPa) = 25.89667 52.48269 39.18968
# Shear Modulus (GPa) = 22.22511 34.78068 28.50290
#
# Velocity S-wave (km/s) = 3.18844 3.98865 3.61078
# Velocity P-wave (km/s) = 5.03989 6.72450 5.94220
#
# Compressibility (1/GPa) = 0.03861500
#
# Stress axis : x y z
#
# Youngs Moduli (GPa) = 37.32702 67.21409 73.92419
#
# Poissons Ratio (x) = -0.46409 0.72272
# Poissons Ratio (y) = -0.25773 0.40055
# Poissons Ratio (z) = 0.36493 0.36419
#
# Static dielectric constant tensor:
#      x y z
#    x 1.809860 -0.018280 0.018460 
#    y -0.018280 1.797140 -0.027780 
#    z 0.018460 -0.027780 1.779520 
# 
# From -- ./inp_files/131781.got.cif
#   From: 2010.05.17/outbox.cif.g08.bks.cpg/sg2_66_cif.got.tgz:131781.got - 2010.06.03 11:33:40.
