data_PCOD9061387
_publ_section_title
;
Structure prediction by ZEFSAII (Michael W. Deem and Ramdas Pophale) SiO2 
 PCOD9061387
Probable space group: P -1
;
_chemical_formula_sum "Si O2"
_cell_formula_units_Z 16
_cell_length_a 11.741809
_cell_length_b 15.109189
_cell_length_c 14.937905
_cell_angle_alpha 149.947872
_cell_angle_beta 141.830100
_cell_angle_gamma 56.449245
_cell_volume 746.952491
_symmetry_space_group_name_H-M "P -1"
_symmetry_group_IT_number 2
_symmetry_cell_setting 'triclinic'
loop_
_space_group_symop_operation_xyz
x,y,z
-x,-y,-z
loop_
_atom_site_type_symbol
_atom_site_label
_atom_site_fract_x
_atom_site_fract_y
_atom_site_fract_z
Si Si1 0.468719 0.424012 0.515977
Si Si2 0.735762 0.082033 0.697071
Si Si3 0.518920 0.447351 0.168637
Si Si4 0.396795 0.007622 0.657972
Si Si5 0.192648 0.029312 0.079987
Si Si6 0.173620 0.489340 0.875264
Si Si7 0.870559 0.747215 0.538505
Si Si8 0.859714 0.339822 0.701501
O O1 0.500000 0.500000 0.500000
O O2 0.484202 0.557231 0.729335
O O3 0.270053 0.226435 0.241580
O O4 0.661562 0.377483 0.605911
O O5 0.500000 0.000000 0.500000
O O6 0.737720 0.070014 0.581136
O O7 0.819077 0.933990 0.658256
O O8 0.827535 0.306665 0.976962
O O9 0.733705 0.603726 0.404195
O O10 0.468330 0.235357 0.913602
O O11 0.359091 0.517243 0.082113
O O12 0.601442 0.967348 0.745325
O O13 0.236750 0.884855 0.526680
O O14 0.000000 0.000000 0.000000
O O15 0.102939 0.841861 0.795634
O O16 0.180058 0.370549 0.688000
O O17 0.977400 0.374460 0.712237
O O18 0.000000 0.500000 0.000000
#
# Coordination Sequence:
#
# PCOD9061387 Si02
#       8
#     2   2   2   2   2   2   2   2
#     4  11  26  46  71  99 143 190 234 290 355 423
#     4  12  22  40  71 102 139 180 231 291 354 412
#     4  12  23  47  70 104 147 178 234 307 350 410
#     4  11  25  43  69 101 142 187 229 292 361 414
#     4  11  24  48  70  99 145 189 234 290 357 422
#     4  12  24  43  72 107 142 180 239 295 351 420
#     4  12  26  43  72 110 138 181 242 292 354 420
#     4  11  23  45  69  97 139 188 234 283 353 419
#
# _framework density 21.420373000000001
#
# number of rings (size 3 to 8) (size 9 to 14) (size 15 to 20)
#    0.000    0.500    6.250    2.625    1.750    3.000 
#    0.000    2.500    0.000    0.000    0.000    0.000 
#    0.000    0.000    0.000    0.000    0.000    0.000 
#
# Total GULP energy -89337.328836 kJ/mol
# GULP energy per Si atom -5583.583052 kJ/mol
# Density = 2.137162 g / cm^3
# Si number density = 21.420373 Si / 1000 Ang^3
#
#
#
# Elastic Constant Matrix: (Units=GPa)
#
#
# Indices 1 2 3 4 5 6 
#
# 1 108.8318 26.2840 28.1291 7.8235 6.0029 22.6603
# 2 26.2840 70.3599 39.3876 20.7329 -5.8138 10.6613
# 3 28.1291 39.3876 109.7800 11.7750 4.0509 6.0246
# 4 7.8235 20.7329 11.7750 37.0950 5.2855 -4.3779
# 5 6.0029 -5.8138 4.0509 5.2855 46.6008 1.0939
# 6 22.6603 10.6613 6.0246 -4.3779 1.0939 24.4853
#
#
#
# Elastic Compliance Matrix: (Units=1/GPa)
#
#
# Indices 1 2 3 4 5 6 
#
# 1 0.012493 -0.001381 -0.001808 -0.002420 -0.001094 -0.010899
# 2 -0.001381 0.024336 -0.006598 -0.013220 0.005529 -0.010306
# 3 -0.001808 -0.006598 0.011818 0.000786 -0.001750 0.001857
# 4 -0.002420 -0.013220 0.000786 0.037195 -0.005970 0.014719
# 5 -0.001094 0.005529 -0.001750 -0.005970 0.023191 -0.003068
# 6 -0.010899 -0.010306 0.001857 0.014719 -0.003068 0.057727
#
#
# Mechanical properties :
#
#
# Convention : Reuss Voigt Hill
#
# Bulk Modulus (GPa) = 34.39522 52.95255 43.67388
# Shear Modulus (GPa) = 25.50702 34.64763 30.07733
#
# Velocity S-wave (km/s) = 3.45452 4.02619 3.75126
# Velocity P-wave (km/s) = 5.65718 6.81087 6.26065
#
# Compressibility (1/GPa) = 0.02907381
#
# Stress axis : x y z
#
# Youngs Moduli (GPa) = 80.04558 41.09124 84.61692
#
# Poissons Ratio (x) = 0.05674 0.15295
# Poissons Ratio (y) = 0.11053 0.55831
# Poissons Ratio (z) = 0.14469 0.27112
#
# Static dielectric constant tensor:
#      x y z
#    x 2.153810 0.058450 -0.178880 
#    y 0.058450 1.863770 -0.002800 
#    z -0.178880 -0.002800 1.884640 
# 
# From -- ./inp_files/522704.got.cif
#   From: 2010.05.17/outbox.cif.g08.bks.cpg/sg2_262_cif.got.tgz:522704.got - 2010.06.03 11:33:40.
