data_PCOD9061852
_publ_section_title
;
Structure prediction by ZEFSAII (Michael W. Deem and Ramdas Pophale) SiO2 
 PCOD9061852
Probable space group: P -1
;
_chemical_formula_sum "Si O2"
_cell_formula_units_Z 14
_cell_length_a 11.607109
_cell_length_b 18.064721
_cell_length_c 8.232551
_cell_angle_alpha 54.398960
_cell_angle_beta 43.105836
_cell_angle_gamma 32.422447
_cell_volume 629.694326
_symmetry_space_group_name_H-M "P -1"
_symmetry_group_IT_number 2
_symmetry_cell_setting 'triclinic'
loop_
_space_group_symop_operation_xyz
x,y,z
-x,-y,-z
loop_
_atom_site_type_symbol
_atom_site_label
_atom_site_fract_x
_atom_site_fract_y
_atom_site_fract_z
Si Si1 0.080848 0.161592 0.915924
Si Si2 0.957096 0.413950 0.119607
Si Si3 0.481084 0.350456 0.263844
Si Si4 0.547722 0.343327 0.822889
Si Si5 0.926465 0.340368 0.555195
Si Si6 0.238452 0.922729 0.232444
Si Si7 0.631977 0.798443 0.266221
O O1 0.300793 0.129964 0.825052
O O2 0.087781 0.217513 0.673323
O O3 0.761945 0.280809 0.113291
O O4 0.162556 0.025073 0.039963
O O5 0.657671 0.528393 0.250058
O O6 0.076470 0.319407 0.275520
O O7 0.000000 0.500000 0.000000
O O8 0.086417 0.339149 0.913927
O O9 0.255939 0.507176 0.370511
O O10 0.457141 0.255026 0.471763
O O11 0.454386 0.359609 0.083030
O O12 0.755342 0.334648 0.652771
O O13 0.661817 0.209089 0.787604
O O14 0.448733 0.875871 0.200312
O O15 0.000000 0.000000 0.500000
#
# Coordination Sequence:
#
# PCOD9061852 Si02
#       7
#     2   2   2   2   2   2   2
#     4  11  26  45  69 100 137 186 230 278 341 408
#     4  12  23  40  71 104 137 170 226 289 346 403
#     4  11  23  46  72 105 141 175 223 295 348 411
#     4  11  25  44  73 100 139 182 230 282 350 406
#     4  11  24  44  71 107 138 176 227 289 352 409
#     4  12  26  48  68  98 141 189 235 276 336 413
#     4  12  25  45  75 100 140 182 229 289 345 401
#
# _framework density 22.233008999999999
#
# number of rings (size 3 to 8) (size 9 to 14) (size 15 to 20)
#    0.000    0.571    4.286    4.286    4.000    3.429 
#    0.000    1.429    0.000    0.000    0.000    0.000 
#    0.000    0.000    0.000    0.000    0.000    0.000 
#
# Total GULP energy -77985.399189 kJ/mol
# GULP energy per Si atom -5570.385656 kJ/mol
# Density = 2.218241 g / cm^3
# Si number density = 22.233009 Si / 1000 Ang^3
#
#
#
# Elastic Constant Matrix: (Units=GPa)
#
#
# Indices 1 2 3 4 5 6 
#
# 1 62.0429 43.1786 2.6585 27.5279 10.4621 22.8602
# 2 43.1786 43.2619 30.7187 -19.2798 -14.1206 -35.0422
# 3 2.6585 30.7187 105.0665 -19.0071 14.7271 11.9869
# 4 27.5279 -19.2798 -19.0071 23.6853 -11.9875 -4.2104
# 5 10.4621 -14.1206 14.7271 -11.9875 9.1124 -25.9286
# 6 22.8602 -35.0422 11.9869 -4.2104 -25.9286 -5.1197
#
#
#
# Elastic Compliance Matrix: (Units=1/GPa)
#
#
# Indices 1 2 3 4 5 6 
#
# 1 0.016644 -0.001726 -0.006608 -0.016384 0.013416 0.016192
# 2 -0.001726 0.010929 0.000584 0.002137 -0.013959 -0.012210
# 3 -0.006608 0.000584 0.013381 0.016966 -0.002382 -0.004065
# 4 -0.016384 0.002137 0.016966 0.064024 -0.013474 -0.032473
# 5 0.013416 -0.013959 -0.002382 -0.013474 0.033535 -0.008891
# 6 0.016192 -0.012210 -0.004065 -0.032473 -0.008891 0.022763
#
#
# Mechanical properties :
#
#
# Convention : Reuss Voigt Hill
#
# Bulk Modulus (GPa) = 39.28732 40.38698 39.83715
# Shear Modulus (GPa) = 26.98904 14.45663 20.72283
#
# Velocity S-wave (km/s) = 3.48791 2.55273 3.05630
# Velocity P-wave (km/s) = 5.82493 5.18588 5.51467
#
# Compressibility (1/GPa) = 0.02545351
#
# Stress axis : x y z
#
# Youngs Moduli (GPa) = 60.08314 91.49855 74.73299
#
# Poissons Ratio (x) = 0.15797 0.49384
# Poissons Ratio (y) = 0.10373 -0.04368
# Poissons Ratio (z) = 0.39703 -0.05347
#
# Static dielectric constant tensor:
#      x y z
#    x 1.063310 0.203020 -0.031890 
#    y 0.203020 1.779790 -0.028240 
#    z -0.031890 -0.028240 2.235730 
# 
# From -- ./inp_files/278927.got.cif
#   From: 2010.05.17/outbox.cif.g08.bks.cpg/sg2_140_cif.got.tgz:278927.got - 2010.06.03 11:33:40.
