data_PCOD9061181
_publ_section_title
;
Structure prediction by ZEFSAII (Michael W. Deem and Ramdas Pophale) SiO2 
 PCOD9061181
Probable space group: P -1
;
_chemical_formula_sum "Si O2"
_cell_formula_units_Z 14
_cell_length_a 9.066939
_cell_length_b 9.384406
_cell_length_c 11.968265
_cell_angle_alpha 137.698310
_cell_angle_beta 112.855704
_cell_angle_gamma 62.961190
_cell_volume 608.155597
_symmetry_space_group_name_H-M "P -1"
_symmetry_group_IT_number 2
_symmetry_cell_setting 'triclinic'
loop_
_space_group_symop_operation_xyz
x,y,z
-x,-y,-z
loop_
_atom_site_type_symbol
_atom_site_label
_atom_site_fract_x
_atom_site_fract_y
_atom_site_fract_z
Si Si1 0.523967 0.783602 0.631547
Si Si2 0.526136 0.523443 0.891510
Si Si3 0.961635 0.946175 0.083957
Si Si4 0.187267 0.896968 0.460159
Si Si5 0.290931 0.944886 0.300810
Si Si6 0.159241 0.435220 0.088866
Si Si7 0.343798 0.689867 0.718242
O O1 0.337896 0.861626 0.570497
O O2 0.483152 0.784980 0.752117
O O3 0.623679 0.540576 0.473948
O O4 0.626802 0.939205 0.700116
O O5 0.577842 0.264409 0.727944
O O6 0.676037 0.633501 0.978298
O O7 0.386184 0.639731 0.831678
O O8 0.500000 0.500000 0.000000
O O9 0.138821 0.875701 0.158076
O O10 0.839901 0.145859 0.234441
O O11 0.870869 0.752465 0.949252
O O12 0.000000 0.000000 0.000000
O O13 0.217195 0.055096 0.459256
O O14 0.182690 0.649736 0.281525
O O15 0.000000 0.000000 0.500000
O O16 0.000000 0.500000 0.000000
#
# Coordination Sequence:
#
# PCOD9061181 Si02
#       7
#     2   2   2   2   2   2   2
#     4  11  25  46  70 103 145 185 241 296 354 434
#     4  11  24  44  69 102 133 182 234 291 355 418
#     4  12  27  45  68 105 144 188 236 292 361 425
#     4  11  23  44  74 103 138 185 240 295 357 422
#     4  11  24  45  68 102 137 184 248 281 346 431
#     4  11  24  46  69 101 139 178 241 288 349 424
#     4  11  26  45  69 104 143 188 233 295 369 410
#
# _framework density 23.020423999999998
#
# number of rings (size 3 to 8) (size 9 to 14) (size 15 to 20)
#    0.000    0.857    5.714    2.143    4.000    2.286 
#    0.000    0.000    0.000    0.000    0.000    0.000 
#    0.000    0.000    0.000    0.000    0.000    0.000 
#
# Total GULP energy -78139.647895 kJ/mol
# GULP energy per Si atom -5581.403421 kJ/mol
# Density = 2.296803 g / cm^3
# Si number density = 23.020424 Si / 1000 Ang^3
#
#
#
# Elastic Constant Matrix: (Units=GPa)
#
#
# Indices 1 2 3 4 5 6 
#
# 1 145.7330 41.1503 33.0928 12.9776 -6.1337 37.3663
# 2 41.1503 81.3172 16.8155 -1.7257 -1.4834 29.3987
# 3 33.0928 16.8155 41.0898 -2.2875 -7.8535 7.2783
# 4 12.9776 -1.7257 -2.2875 32.0249 5.1953 -1.5607
# 5 -6.1337 -1.4834 -7.8535 5.1953 39.6977 -4.8411
# 6 37.3663 29.3987 7.2783 -1.5607 -4.8411 54.4236
#
#
#
# Elastic Compliance Matrix: (Units=1/GPa)
#
#
# Indices 1 2 3 4 5 6 
#
# 1 0.011053 -0.002184 -0.007281 -0.005423 0.000216 -0.005571
# 2 -0.002184 0.016832 -0.004086 0.001407 -0.001572 -0.007146
# 3 -0.007281 -0.004086 0.032463 0.004408 0.004987 0.003435
# 4 -0.005423 0.001407 0.004408 0.034622 -0.004078 0.003004
# 5 0.000216 -0.001572 0.004987 -0.004078 0.026968 0.002316
# 6 -0.005571 -0.007146 0.003435 0.003004 0.002316 0.025892
#
#
# Mechanical properties :
#
#
# Convention : Reuss Voigt Hill
#
# Bulk Modulus (GPa) = 30.07929 50.02859 40.05394
# Shear Modulus (GPa) = 26.87957 37.03466 31.95711
#
# Velocity S-wave (km/s) = 3.42078 4.01530 3.72991
# Velocity P-wave (km/s) = 5.35696 6.57847 5.99889
#
# Compressibility (1/GPa) = 0.03324547
#
# Stress axis : x y z
#
# Youngs Moduli (GPa) = 90.47651 59.40903 30.80409
#
# Poissons Ratio (x) = 0.12978 0.22430
# Poissons Ratio (y) = 0.19764 0.12585
# Poissons Ratio (z) = 0.65879 0.24272
#
# Static dielectric constant tensor:
#      x y z
#    x 1.739500 0.186390 -0.315290 
#    y 0.186390 1.773850 0.091650 
#    z -0.315290 0.091650 2.129110 
# 
# From -- ./inp_files/383609.got.cif
#   From: 2010.05.17/outbox.cif.g08.bks.cpg/sg2_192_cif.got.tgz:383609.got - 2010.06.03 11:33:40.
