data_PCOD9061723
_publ_section_title
;
Structure prediction by ZEFSAII (Michael W. Deem and Ramdas Pophale) SiO2 
 PCOD9061723
Probable space group: P -1
;
_chemical_formula_sum "Si O2"
_cell_formula_units_Z 15
_cell_length_a 16.924912
_cell_length_b 9.012458
_cell_length_c 12.774883
_cell_angle_alpha 108.787361
_cell_angle_beta 29.336686
_cell_angle_gamma 127.786659
_cell_volume 631.249168
_symmetry_space_group_name_H-M "P -1"
_symmetry_group_IT_number 2
_symmetry_cell_setting 'triclinic'
loop_
_space_group_symop_operation_xyz
x,y,z
-x,-y,-z
loop_
_atom_site_type_symbol
_atom_site_label
_atom_site_fract_x
_atom_site_fract_y
_atom_site_fract_z
Si Si1 0.075011 0.320967 0.136019
Si Si2 0.440613 0.416620 0.250184
Si Si3 0.821292 0.251192 0.609505
Si Si4 0.610693 0.870293 0.160226
Si Si5 0.500000 0.000000 0.500000
Si Si6 0.089842 0.123835 0.771522
Si Si7 0.795812 0.464544 0.177089
Si Si8 0.341960 0.101159 0.127082
O O1 0.887012 0.255359 0.417215
O O2 0.302114 0.442654 0.971768
O O3 0.156062 0.496316 0.992921
O O4 0.961922 0.082184 0.166336
O O5 0.437271 0.602269 0.294982
O O6 0.258028 0.222226 0.500071
O O7 0.390248 0.301836 0.170775
O O8 0.000000 0.500000 0.500000
O O9 0.830180 0.109047 0.644378
O O10 0.576281 0.164394 0.876385
O O11 0.493793 0.933997 0.368335
O O12 0.715564 0.947959 0.939548
O O13 0.836516 0.002521 0.001075
O O14 0.429054 0.774281 0.572213
O O15 0.195330 0.346279 0.759893
O O16 0.000000 0.500000 0.000000
#
# Coordination Sequence:
#
# PCOD9061723 Si02
#       8
#     2   2   2   2   1   2   2   2
#     4  11  26  45  73  99 141 182 231 291 346 420
#     4  11  23  46  67 102 138 183 231 282 352 417
#     4  11  24  42  66 100 134 176 232 282 348 412
#     4  11  26  43  70 100 141 183 231 289 341 419
#     4  12  26  46  66 106 140 174 240 284 354 408
#     4  11  24  48  68 102 140 185 235 280 352 416
#     4  12  27  46  71 103 137 182 234 289 351 416
#     4  11  25  43  69 102 138 183 231 286 345 407
#
# _framework density 23.762407
#
# number of rings (size 3 to 8) (size 9 to 14) (size 15 to 20)
#    0.000    0.800    5.333    0.800    3.733    3.200 
#    0.000    0.000    0.000    0.000    0.000    0.000 
#    0.000    0.000    0.000    0.000    0.000    0.000 
#
# Total GULP energy -83609.502779 kJ/mol
# GULP energy per Si atom -5573.966852 kJ/mol
# Density = 2.370832 g / cm^3
# Si number density = 23.762407 Si / 1000 Ang^3
#
#
#
# Elastic Constant Matrix: (Units=GPa)
#
#
# Indices 1 2 3 4 5 6 
#
# 1 40.4157 21.2057 17.5526 3.3455 24.6076 6.5870
# 2 21.2057 164.5176 42.5631 3.0055 24.3090 13.8135
# 3 17.5526 42.5631 93.0960 -9.2399 35.7928 4.6515
# 4 3.3455 3.0055 -9.2399 41.4180 3.3082 13.8166
# 5 24.6076 24.3090 35.7928 3.3082 45.6489 1.1868
# 6 6.5870 13.8135 4.6515 13.8166 1.1868 18.7969
#
#
#
# Elastic Compliance Matrix: (Units=1/GPa)
#
#
# Indices 1 2 3 4 5 6 
#
# 1 0.040715 -0.001332 0.003386 0.004871 -0.023825 -0.016203
# 2 -0.001332 0.007449 -0.002296 0.000817 -0.001379 -0.004953
# 3 0.003386 -0.002296 0.018321 0.008250 -0.015329 -0.009130
# 4 0.004871 0.000817 0.008250 0.036636 -0.011391 -0.030559
# 5 -0.023825 -0.001379 -0.015329 -0.011391 0.047847 0.018507
# 6 -0.016203 -0.004953 -0.009130 -0.030559 0.018507 0.086071
#
#
# Mechanical properties :
#
#
# Convention : Reuss Voigt Hill
#
# Bulk Modulus (GPa) = 15.15137 51.18577 33.16857
# Shear Modulus (GPa) = 19.26609 35.61993 27.44301
#
# Velocity S-wave (km/s) = 2.85051 3.87590 3.40206
# Velocity P-wave (km/s) = 4.15017 6.45116 5.42409
#
# Compressibility (1/GPa) = 0.06600065
#
# Stress axis : x y z
#
# Youngs Moduli (GPa) = 24.56097 134.25244 54.58148
#
# Poissons Ratio (x) = 0.17884 -0.18479
# Poissons Ratio (y) = 0.03272 0.12530
# Poissons Ratio (z) = -0.08315 0.30819
#
# Static dielectric constant tensor:
#      x y z
#    x 1.921530 0.020280 0.002230 
#    y 0.020280 1.898270 0.035250 
#    z 0.002230 0.035250 1.963020 
# 
# From -- ./inp_files/47049.got.cif
#   From: 2010.05.17/outbox.cif.g08.bks.cpg/sg2_24_cif.got.tgz:47049.got - 2010.06.03 11:33:40.
