data_PCOD9061211
_publ_section_title
;
Structure prediction by ZEFSAII (Michael W. Deem and Ramdas Pophale) SiO2 
 PCOD9061211
Probable space group: P -1
;
_chemical_formula_sum "Si O2"
_cell_formula_units_Z 15
_cell_length_a 10.170389
_cell_length_b 8.234480
_cell_length_c 8.985061
_cell_angle_alpha 63.040779
_cell_angle_beta 67.844506
_cell_angle_gamma 58.405102
_cell_volume 561.549502
_symmetry_space_group_name_H-M "P -1"
_symmetry_group_IT_number 2
_symmetry_cell_setting 'triclinic'
loop_
_space_group_symop_operation_xyz
x,y,z
-x,-y,-z
loop_
_atom_site_type_symbol
_atom_site_label
_atom_site_fract_x
_atom_site_fract_y
_atom_site_fract_z
Si Si1 0.801042 0.495393 0.686713
Si Si2 0.039730 0.291733 0.910337
Si Si3 0.500000 0.500000 0.000000
Si Si4 0.790901 0.451136 0.163521
Si Si5 0.277469 0.123261 0.649386
Si Si6 0.385967 0.947216 0.375434
Si Si7 0.850239 0.200906 0.535472
Si Si8 0.549107 0.802980 0.956774
O O1 0.639033 0.505730 0.819467
O O2 0.784333 0.673940 0.508094
O O3 0.878206 0.295510 0.633288
O O4 0.923804 0.464258 0.778914
O O5 0.149156 0.373931 0.917634
O O6 0.152709 0.124992 0.820921
O O7 0.919712 0.272470 0.086533
O O8 0.424084 0.753821 0.939818
O O9 0.792917 0.365722 0.359620
O O10 0.628267 0.573659 0.092184
O O11 0.427583 0.130916 0.665207
O O12 0.332491 0.957400 0.564586
O O13 0.303399 0.839639 0.360483
O O14 0.337964 0.159080 0.224686
O O15 0.000000 0.000000 0.500000
O O16 0.500000 0.000000 0.000000
#
# Coordination Sequence:
#
# PCOD9061211 Si02
#       8
#     2   2   1   2   2   2   2   2
#     4  12  25  47  76 104 153 201 254 319 389 465
#     4  11  23  45  76 101 143 206 259 306 392 460
#     4  12  26  48  74 114 160 200 260 318 400 454
#     4  11  26  46  78 109 154 199 261 317 392 464
#     4  11  23  44  75 106 143 204 246 313 385 458
#     4  11  26  46  72 111 157 190 265 313 387 474
#     4  12  29  48  75 116 155 201 260 328 389 469
#     4  12  26  48  78 113 155 205 254 323 390 474
#
# _framework density 26.711803
#
# number of rings (size 3 to 8) (size 9 to 14) (size 15 to 20)
#    0.000    0.533    4.000    2.800    7.467    0.533 
#    2.400    2.667    0.000    0.000    0.000    0.000 
#    0.000    0.000    0.000    0.000    0.000    0.000 
#
# Total GULP energy -83649.495280 kJ/mol
# GULP energy per Si atom -5576.633019 kJ/mol
# Density = 2.665101 g / cm^3
# Si number density = 26.711803 Si / 1000 Ang^3
#
#
#
# Elastic Constant Matrix: (Units=GPa)
#
#
# Indices 1 2 3 4 5 6 
#
# 1 71.8426 9.1357 13.0716 -1.1413 1.7900 -13.1257
# 2 9.1357 107.1799 28.6184 26.0090 -6.8265 -3.7499
# 3 13.0716 28.6184 99.6873 17.3557 -3.3157 -3.9185
# 4 -1.1413 26.0090 17.3557 44.7351 -6.6496 -1.2259
# 5 1.7900 -6.8265 -3.3157 -6.6496 42.4555 -7.1194
# 6 -13.1257 -3.7499 -3.9185 -1.2259 -7.1194 46.1948
#
#
#
# Elastic Compliance Matrix: (Units=1/GPa)
#
#
# Indices 1 2 3 4 5 6 
#
# 1 0.015175 -0.001110 -0.001832 0.001859 0.000021 0.004119
# 2 -0.001110 0.011446 -0.002097 -0.005724 0.000898 0.000422
# 3 -0.001832 -0.002097 0.011452 -0.003240 0.000164 0.000220
# 4 0.001859 -0.005724 -0.003240 0.027493 0.003225 0.001015
# 5 0.000021 0.000898 0.000164 0.003225 0.024888 0.004014
# 6 0.004119 0.000422 0.000220 0.001015 0.004014 0.023516
#
#
# Mechanical properties :
#
#
# Convention : Reuss Voigt Hill
#
# Bulk Modulus (GPa) = 35.72225 42.26235 38.99230
# Shear Modulus (GPa) = 37.48640 41.86938 39.67789
#
# Velocity S-wave (km/s) = 3.75021 3.96340 3.85828
# Velocity P-wave (km/s) = 5.67048 6.06635 5.87176
#
# Compressibility (1/GPa) = 0.02799376
#
# Stress axis : x y z
#
# Youngs Moduli (GPa) = 65.89612 87.36873 87.32179
#
# Poissons Ratio (x) = 0.09698 0.16000
# Poissons Ratio (y) = 0.07315 0.18314
# Poissons Ratio (z) = 0.12074 0.18324
#
# Static dielectric constant tensor:
#      x y z
#    x 1.502310 -0.152200 -0.126770 
#    y -0.152200 2.249180 0.025020 
#    z -0.126770 0.025020 2.052760 
# 
# From -- ./inp_files/237046.got.cif
#   From: 2010.05.17/outbox.cif.g08.bks.cpg/sg2_119_cif.got.tgz:237046.got - 2010.06.03 11:33:40.
