data_PCOD9061823
_publ_section_title
;
Structure prediction by ZEFSAII (Michael W. Deem and Ramdas Pophale) SiO2 
 PCOD9061823
Probable space group: P -1
;
_chemical_formula_sum "Si O2"
_cell_formula_units_Z 15
_cell_length_a 8.009366
_cell_length_b 8.810308
_cell_length_c 23.243345
_cell_angle_alpha 38.210606
_cell_angle_beta 39.672561
_cell_angle_gamma 50.906517
_cell_volume 646.292363
_symmetry_space_group_name_H-M "P -1"
_symmetry_group_IT_number 2
_symmetry_cell_setting 'triclinic'
loop_
_space_group_symop_operation_xyz
x,y,z
-x,-y,-z
loop_
_atom_site_type_symbol
_atom_site_label
_atom_site_fract_x
_atom_site_fract_y
_atom_site_fract_z
Si Si1 0.491181 0.154351 0.898403
Si Si2 0.324268 0.145629 0.582176
Si Si3 0.202558 0.632480 0.797982
Si Si4 0.000000 0.000000 0.500000
Si Si5 0.618710 0.760715 0.894619
Si Si6 0.349885 0.500949 0.668737
Si Si7 0.180350 0.897153 0.352002
Si Si8 0.983089 0.578223 0.322440
O O1 0.298022 0.398514 0.879654
O O2 0.771531 0.262357 0.779773
O O3 0.444271 0.965046 0.915534
O O4 0.500000 0.000000 0.000000
O O5 0.582835 0.238955 0.456131
O O6 0.232902 0.338014 0.597957
O O7 0.091784 0.133615 0.600931
O O8 0.360393 0.880078 0.681902
O O9 0.242478 0.540850 0.748810
O O10 0.901565 0.717966 0.863217
O O11 0.868373 0.059170 0.581584
O O12 0.059112 0.292264 0.392017
O O13 0.685462 0.875609 0.781194
O O14 0.500000 0.500000 0.000000
O O15 0.623855 0.339782 0.642723
O O16 0.144916 0.377452 0.719261
#
# Coordination Sequence:
#
# PCOD9061823 Si02
#       8
#     2   2   2   1   2   2   2   2
#     4  12  29  50  75 107 149 195 252 316 369 442
#     4  11  23  46  71 106 151 196 244 297 378 451
#     4  11  25  48  77 103 145 200 242 306 386 432
#     4  12  28  40  72 110 154 196 240 312 374 430
#     4  11  26  52  76 107 143 195 257 309 369 446
#     4  12  24  42  72 109 146 198 243 301 371 452
#     4  11  24  47  71 107 154 194 247 311 371 446
#     4  12  26  45  67 110 155 187 256 302 370 444
#
# _framework density 23.209312000000001
#
# number of rings (size 3 to 8) (size 9 to 14) (size 15 to 20)
#    0.000    0.533    5.333    2.800    7.467    2.133 
#    0.000    0.000    0.000    0.000    0.000    0.000 
#    0.000    0.000    0.000    0.000    0.000    0.000 
#
# Total GULP energy -83790.927141 kJ/mol
# GULP energy per Si atom -5586.061809 kJ/mol
# Density = 2.315649 g / cm^3
# Si number density = 23.209312 Si / 1000 Ang^3
#
#
#
# Elastic Constant Matrix: (Units=GPa)
#
#
# Indices 1 2 3 4 5 6 
#
# 1 19.2302 13.9441 8.4683 -12.5414 -7.9633 1.6202
# 2 13.9441 110.8290 -0.2054 -28.7410 4.4907 0.6376
# 3 8.4683 -0.2054 99.3637 -29.8331 10.5659 -2.5618
# 4 -12.5414 -28.7410 -29.8331 40.5343 4.1285 7.4023
# 5 -7.9633 4.4907 10.5659 4.1285 26.5878 -3.9201
# 6 1.6202 0.6376 -2.5618 7.4023 -3.9201 44.5700
#
#
#
# Elastic Compliance Matrix: (Units=1/GPa)
#
#
# Indices 1 2 3 4 5 6 
#
# 1 0.078843 -0.007519 -0.005505 0.013070 0.024588 -0.003083
# 2 -0.007519 0.013649 0.005374 0.012686 -0.009033 -0.002514
# 3 -0.005505 0.005374 0.016556 0.015997 -0.012009 -0.002638
# 4 0.013070 0.012686 0.015997 0.052708 -0.014206 -0.009740
# 5 0.024588 -0.009033 -0.012009 -0.014206 0.054317 0.005682
# 6 -0.003083 -0.002514 -0.002638 -0.009740 0.005682 0.024550
#
#
# Mechanical properties :
#
#
# Convention : Reuss Voigt Hill
#
# Bulk Modulus (GPa) = 10.66699 30.42634 20.54667
# Shear Modulus (GPa) = 17.41097 36.15283 26.78190
#
# Velocity S-wave (km/s) = 2.74190 3.95104 3.40064
# Velocity P-wave (km/s) = 3.82492 5.82685 4.92860
#
# Compressibility (1/GPa) = 0.09374715
#
# Stress axis : x y z
#
# Youngs Moduli (GPa) = 12.68339 73.26465 60.40012
#
# Poissons Ratio (x) = 0.55090 0.33251
# Poissons Ratio (y) = 0.09537 -0.32456
# Poissons Ratio (z) = 0.06982 -0.39369
#
# Static dielectric constant tensor:
#      x y z
#    x 1.927290 -0.073730 0.026270 
#    y -0.073730 1.868850 -0.022450 
#    z 0.026270 -0.022450 1.838160 
# 
# From -- ./inp_files/616571.got.cif
#   From: 2010.05.17/outbox.cif.g08.bks.cpg/sg2_309_cif.got.tgz:616571.got - 2010.06.03 11:33:40.
