data_PCOD9061027
_publ_section_title
;
Structure prediction by ZEFSAII (Michael W. Deem and Ramdas Pophale) SiO2 
 PCOD9061027
Probable space group: P -1
;
_chemical_formula_sum "Si O2"
_cell_formula_units_Z 16
_cell_length_a 11.269587
_cell_length_b 9.656943
_cell_length_c 19.652241
_cell_angle_alpha 71.666537
_cell_angle_beta 136.555002
_cell_angle_gamma 140.589450
_cell_volume 770.796150
_symmetry_space_group_name_H-M "P -1"
_symmetry_group_IT_number 2
_symmetry_cell_setting 'triclinic'
loop_
_space_group_symop_operation_xyz
x,y,z
-x,-y,-z
loop_
_atom_site_type_symbol
_atom_site_label
_atom_site_fract_x
_atom_site_fract_y
_atom_site_fract_z
Si Si1 0.277923 0.263433 0.119594
Si Si2 0.258053 0.637738 0.765548
Si Si3 0.538427 0.650988 0.662701
Si Si4 0.678947 0.121598 0.127128
Si Si5 0.696505 0.391288 0.890741
Si Si6 0.386310 0.612367 0.302169
Si Si7 0.644415 0.036906 0.622220
Si Si8 0.812708 0.187853 0.416598
O O1 0.568823 0.374852 0.195893
O O2 0.289444 0.246640 0.208633
O O3 0.272603 0.434973 0.082889
O O4 0.000000 0.000000 0.000000
O O5 0.434668 0.839059 0.871056
O O6 0.196495 0.721902 0.670715
O O7 0.949546 0.347354 0.712879
O O8 0.548378 0.512783 0.642617
O O9 0.168387 0.421233 0.552698
O O10 0.696801 0.902297 0.655346
O O11 0.046618 0.402284 0.225110
O O12 0.592820 0.904677 0.155722
O O13 0.500000 0.000000 0.000000
O O14 0.641309 0.388591 0.790021
O O15 0.000000 0.500000 0.000000
O O16 0.650249 0.914197 0.386014
O O17 0.500000 0.000000 0.500000
O O18 0.402552 0.882789 0.607100
#
# Coordination Sequence:
#
# PCOD9061027 Si02
#       8
#     2   2   2   2   2   2   2   2
#     4  11  26  44  71 105 140 186 232 285 349 415
#     4  12  25  44  71 106 136 185 234 286 355 417
#     4  11  25  45  70 104 143 179 236 291 348 416
#     4  12  25  43  70 102 137 186 238 283 349 416
#     4  11  23  44  71  95 143 187 227 285 345 411
#     4  11  25  43  69 103 137 182 236 291 341 413
#     4  12  24  43  72 104 140 182 228 286 355 418
#     4  12  23  48  71  99 140 184 235 287 353 417
#
# _framework density 20.757757000000002
#
# number of rings (size 3 to 8) (size 9 to 14) (size 15 to 20)
#    0.000    0.500    6.250    2.250    3.500    1.000 
#    0.000    2.500    0.000    0.000    0.000    0.000 
#    0.000    0.000    0.000    0.000    0.000    0.000 
#
# Total GULP energy -89355.185297 kJ/mol
# GULP energy per Si atom -5584.699081 kJ/mol
# Density = 2.071051 g / cm^3
# Si number density = 20.757757 Si / 1000 Ang^3
#
#
#
# Elastic Constant Matrix: (Units=GPa)
#
#
# Indices 1 2 3 4 5 6 
#
# 1 72.5657 51.1364 8.7537 1.3572 -9.5952 -26.7768
# 2 51.1364 169.6199 38.6102 14.6309 -8.3062 -28.2413
# 3 8.7537 38.6102 68.8210 11.0218 -7.7362 -11.5718
# 4 1.3572 14.6309 11.0218 34.2581 -4.0904 -3.3852
# 5 -9.5952 -8.3062 -7.7362 -4.0904 23.3274 7.7225
# 6 -26.7768 -28.2413 -11.5718 -3.3852 7.7225 48.6794
#
#
#
# Elastic Compliance Matrix: (Units=1/GPa)
#
#
# Indices 1 2 3 4 5 6 
#
# 1 0.020978 -0.005333 0.001918 0.002246 0.005025 0.008260
# 2 -0.005333 0.008710 -0.003757 -0.002314 -0.001158 0.001249
# 3 0.001918 -0.003757 0.017777 -0.003494 0.003998 0.002224
# 4 0.002246 -0.002314 -0.003494 0.031788 0.004321 0.000587
# 5 0.005025 -0.001158 0.003998 0.004321 0.048021 -0.004275
# 6 0.008260 0.001249 0.002224 0.000587 -0.004275 0.027058
#
#
# Mechanical properties :
#
#
# Convention : Reuss Voigt Hill
#
# Bulk Modulus (GPa) = 30.19395 56.44524 43.31959
# Shear Modulus (GPa) = 27.82147 35.42007 31.62077
#
# Velocity S-wave (km/s) = 3.66497 4.13528 3.90721
# Velocity P-wave (km/s) = 5.69972 7.07476 6.42413
#
# Compressibility (1/GPa) = 0.03311922
#
# Stress axis : x y z
#
# Youngs Moduli (GPa) = 47.66897 114.81668 56.25134
#
# Poissons Ratio (x) = 0.61235 -0.10788
# Poissons Ratio (y) = 0.25423 0.21136
# Poissons Ratio (z) = -0.09142 0.43142
#
# Static dielectric constant tensor:
#      x y z
#    x 1.755700 -0.060670 -0.013550 
#    y -0.060670 1.751590 -0.020010 
#    z -0.013550 -0.020010 1.701760 
# 
# From -- ./inp_files/258348.got.cif
#   From: 2010.05.17/outbox.cif.g08.bks.cpg/sg2_130_cif.got.tgz:258348.got - 2010.06.03 11:33:40.
