data_PCOD9061612
_publ_section_title
;
Structure prediction by ZEFSAII (Michael W. Deem and Ramdas Pophale) SiO2 
 PCOD9061612
Probable space group: P -1
;
_chemical_formula_sum "Si O2"
_cell_formula_units_Z 14
_cell_length_a 14.977124
_cell_length_b 22.577039
_cell_length_c 11.865729
_cell_angle_alpha 149.528030
_cell_angle_beta 29.205961
_cell_angle_gamma 162.286867
_cell_volume 583.048402
_symmetry_space_group_name_H-M "P -1"
_symmetry_group_IT_number 2
_symmetry_cell_setting 'triclinic'
loop_
_space_group_symop_operation_xyz
x,y,z
-x,-y,-z
loop_
_atom_site_type_symbol
_atom_site_label
_atom_site_fract_x
_atom_site_fract_y
_atom_site_fract_z
Si Si1 0.255284 0.520118 0.524546
Si Si2 0.772943 0.546831 0.295660
Si Si3 0.341630 0.161396 0.751652
Si Si4 0.229980 0.777719 0.978962
Si Si5 0.757159 0.165266 0.321493
Si Si6 0.750606 0.591598 0.010814
Si Si7 0.642663 0.854038 0.020567
O O1 0.178743 0.438803 0.601473
O O2 0.334927 0.697553 0.730424
O O3 0.536406 0.587052 0.277989
O O4 0.962930 0.343593 0.477069
O O5 0.500000 0.500000 0.500000
O O6 0.628746 0.353566 0.085408
O O7 0.085422 0.732522 0.185962
O O8 0.515576 0.132315 0.481626
O O9 0.533544 0.373661 0.848707
O O10 0.353698 0.170004 0.889486
O O11 0.983820 0.985264 0.820033
O O12 0.939293 0.641783 0.992141
O O13 0.500000 0.000000 0.000000
O O14 0.994527 0.245897 0.096208
O O15 0.624349 0.982125 0.227124
#
# Coordination Sequence:
#
# PCOD9061612 Si02
#       7
#     2   2   2   2   2   2   2
#     4  12  26  49  79 105 152 197 248 306 369 444
#     4  12  26  53  77 108 155 198 246 308 370 446
#     4  11  23  45  74 108 144 190 252 307 366 439
#     4  12  29  50  75 111 151 201 249 304 376 443
#     4  12  26  44  77 109 149 193 248 308 374 434
#     4  12  25  49  69 110 153 192 247 310 373 436
#     4  11  25  45  74 109 144 193 250 301 372 444
#
# _framework density 24.011728999999999
#
# number of rings (size 3 to 8) (size 9 to 14) (size 15 to 20)
#    0.000    0.286    5.714    1.714    4.000    2.857 
#    0.000    0.000    0.000    0.000    0.000    0.000 
#    0.000    0.000    0.000    0.000    0.000    0.000 
#
# Total GULP energy -78585.311267 kJ/mol
# GULP energy per Si atom -5613.236519 kJ/mol
# Density = 2.395708 g / cm^3
# Si number density = 24.011729 Si / 1000 Ang^3
#
#
#
# Elastic Constant Matrix: (Units=GPa)
#
#
# Indices 1 2 3 4 5 6 
#
# 1 81.3924 19.0238 47.9492 -12.7917 -3.3293 -8.6918
# 2 19.0238 131.8097 77.2446 -13.7854 -5.5208 -8.6140
# 3 47.9492 77.2446 138.4485 -4.5669 -24.5240 -3.6475
# 4 -12.7917 -13.7854 -4.5669 30.5515 2.5507 -10.1378
# 5 -3.3293 -5.5208 -24.5240 2.5507 49.7402 -3.0405
# 6 -8.6918 -8.6140 -3.6475 -10.1378 -3.0405 35.8463
#
#
#
# Elastic Compliance Matrix: (Units=1/GPa)
#
#
# Indices 1 2 3 4 5 6 
#
# 1 0.018890 0.003854 -0.008598 0.011087 -0.002655 0.007542
# 2 0.003854 0.013306 -0.008825 0.008301 -0.002715 0.005351
# 3 -0.008598 -0.008825 0.015920 -0.007079 0.006410 -0.004044
# 4 0.011087 0.008301 -0.007079 0.045854 -0.003160 0.016663
# 5 -0.002655 -0.002715 0.006410 -0.003160 0.022973 0.000411
# 6 0.007542 0.005351 -0.004044 0.016663 0.000411 0.035347
#
#
# Mechanical properties :
#
#
# Convention : Reuss Voigt Hill
#
# Bulk Modulus (GPa) = 47.67016 71.12062 59.39539
# Shear Modulus (GPa) = 26.82116 37.05646 31.93881
#
# Velocity S-wave (km/s) = 3.34578 3.93270 3.65106
# Velocity P-wave (km/s) = 5.90099 7.09260 6.52406
#
# Compressibility (1/GPa) = 0.02097748
#
# Stress axis : x y z
#
# Youngs Moduli (GPa) = 52.93848 75.15323 62.81588
#
# Poissons Ratio (x) = -0.28961 0.54009
# Poissons Ratio (y) = -0.20400 0.55432
# Poissons Ratio (z) = 0.45517 0.66320
#
# Static dielectric constant tensor:
#      x y z
#    x 1.891840 0.003780 0.012910 
#    y 0.003780 1.915720 -0.029780 
#    z 0.012910 -0.029780 1.908120 
# 
# From -- ./inp_files/403519.got.cif
#   From: 2010.05.17/outbox.cif.g08.bks.cpg/sg2_202_cif.got.tgz:403519.got - 2010.06.03 11:33:40.
