data_PCOD9061921
_publ_section_title
;
Structure prediction by ZEFSAII (Michael W. Deem and Ramdas Pophale) SiO2 
 PCOD9061921
Probable space group: P -1
;
_chemical_formula_sum "Si O2"
_cell_formula_units_Z 16
_cell_length_a 9.818416
_cell_length_b 10.679820
_cell_length_c 11.750383
_cell_angle_alpha 70.647664
_cell_angle_beta 36.320501
_cell_angle_gamma 56.458763
_cell_volume 591.889643
_symmetry_space_group_name_H-M "P -1"
_symmetry_group_IT_number 2
_symmetry_cell_setting 'triclinic'
loop_
_space_group_symop_operation_xyz
x,y,z
-x,-y,-z
loop_
_atom_site_type_symbol
_atom_site_label
_atom_site_fract_x
_atom_site_fract_y
_atom_site_fract_z
Si Si1 0.378388 0.878986 0.781243
Si Si2 0.755297 0.777975 0.905111
Si Si3 0.656319 0.200518 0.627345
Si Si4 0.158990 0.452789 0.785927
Si Si5 0.972414 0.113687 0.163401
Si Si6 0.090372 0.132861 0.535972
Si Si7 0.439940 0.654100 0.061344
Si Si8 0.760179 0.371631 0.066915
O O1 0.255307 0.920045 0.723099
O O2 0.682748 0.828891 0.602734
O O3 0.339143 0.736380 0.889222
O O4 0.197611 0.021056 0.942773
O O5 0.026979 0.612340 0.762380
O O6 0.857881 0.894692 0.835812
O O7 0.546247 0.809702 0.141367
O O8 0.593732 0.749993 0.921717
O O9 0.468572 0.347989 0.632356
O O10 0.910280 0.188371 0.525369
O O11 0.763396 0.051096 0.519558
O O12 0.000000 0.500000 0.000000
O O13 0.035861 0.354920 0.841715
O O14 0.823579 0.295475 0.172215
O O15 0.865710 0.215994 0.757598
O O16 0.550443 0.552792 0.138051
O O17 0.500000 0.500000 0.000000
#
# Coordination Sequence:
#
# PCOD9061921 Si02
#       8
#     2   2   2   2   2   2   2   2
#     4   9  16  27  45  78 100 109 138 193 264 281
#     4   9  15  27  50  68  90 115 157 195 228 274
#     4   9  15  24  41  73  93 115 142 191 253 263
#     4   9  12  22  42  66  91 111 143 186 229 274
#     4   9  15  26  49  78  91 114 141 195 255 276
#     4  10  18  26  43  67 102 122 141 195 234 287
#     4  10  22  33  44  63  94 139 165 179 214 273
#     4   9  16  27  47  67  95 118 151 193 227 283
#
# _framework density 27.032064999999999
#
# number of rings (size 3 to 8) (size 9 to 14) (size 15 to 20)
#    0.750    2.000    3.750    0.750    0.000    0.500 
#    0.000    0.000    0.000    8.250    0.000    0.000 
#    0.000    0.000    0.000    0.000    0.000    0.000 
#
# Total GULP energy -89104.223177 kJ/mol
# GULP energy per Si atom -5569.013949 kJ/mol
# Density = 2.697054 g / cm^3
# Si number density = 27.032065 Si / 1000 Ang^3
#
#
#
# Elastic Constant Matrix: (Units=GPa)
#
#
# Indices 1 2 3 4 5 6 
#
# 1 106.1498 59.1034 69.1770 -9.9650 -15.2224 45.2755
# 2 59.1034 124.6731 58.6452 -2.3545 -16.1878 46.5187
# 3 69.1770 58.6452 142.4788 -2.0569 -45.3992 18.7859
# 4 -9.9650 -2.3545 -2.0569 52.6955 4.8177 -20.2952
# 5 -15.2224 -16.1878 -45.3992 4.8177 49.5181 -3.9567
# 6 45.2755 46.5187 18.7859 -20.2952 -3.9567 68.1847
#
#
#
# Elastic Compliance Matrix: (Units=1/GPa)
#
#
# Indices 1 2 3 4 5 6 
#
# 1 0.019733 -0.002303 -0.008388 -0.000038 -0.003126 -0.009413
# 2 -0.002303 0.013540 -0.003405 -0.002925 0.000272 -0.007625
# 3 -0.008388 -0.003405 0.015380 -0.000537 0.010790 0.004122
# 4 -0.000038 -0.002925 -0.000537 0.022428 -0.002949 0.008674
# 5 -0.003126 0.000272 0.010790 -0.002949 0.029482 -0.000250
# 6 -0.009413 -0.007625 0.004122 0.008674 -0.000250 0.027550
#
#
# Mechanical properties :
#
#
# Convention : Reuss Voigt Hill
#
# Bulk Modulus (GPa) = 48.87768 83.01700 65.94734
# Shear Modulus (GPa) = 30.65146 46.50474 38.57810
#
# Velocity S-wave (km/s) = 3.37099 4.15222 3.78183
# Velocity P-wave (km/s) = 5.76819 7.33247 6.59686
#
# Compressibility (1/GPa) = 0.02045924
#
# Stress axis : x y z
#
# Youngs Moduli (GPa) = 50.67778 73.85789 65.02082
#
# Poissons Ratio (x) = 0.17011 0.54539
# Poissons Ratio (y) = 0.11672 0.22140
# Poissons Ratio (z) = 0.42508 0.25149
#
# Static dielectric constant tensor:
#      x y z
#    x 2.674880 -0.020170 0.103570 
#    y -0.020170 2.149720 -0.072300 
#    z 0.103570 -0.072300 2.097190 
# 
# From -- ./inp_files/420904.got.cif
#   From: 2010.05.17/outbox.cif.g08.bks.cpg/sg2_211_cif.got.tgz:420904.got - 2010.06.03 11:33:40.
