data_PCOD9061454
_publ_section_title
;
Structure prediction by ZEFSAII (Michael W. Deem and Ramdas Pophale) SiO2 
 PCOD9061454
Probable space group: P -1
;
_chemical_formula_sum "Si O2"
_cell_formula_units_Z 16
_cell_length_a 14.834724
_cell_length_b 18.971340
_cell_length_c 9.048610
_cell_angle_alpha 28.909700
_cell_angle_beta 38.878955
_cell_angle_gamma 39.594307
_cell_volume 738.658714
_symmetry_space_group_name_H-M "P -1"
_symmetry_group_IT_number 2
_symmetry_cell_setting 'triclinic'
loop_
_space_group_symop_operation_xyz
x,y,z
-x,-y,-z
loop_
_atom_site_type_symbol
_atom_site_label
_atom_site_fract_x
_atom_site_fract_y
_atom_site_fract_z
Si Si1 0.212076 0.963089 0.022074
Si Si2 0.828317 0.297664 0.242171
Si Si3 0.975186 0.550648 0.107651
Si Si4 0.327079 0.184423 0.951935
Si Si5 0.065989 0.746864 0.134772
Si Si6 0.451793 0.068600 0.696917
Si Si7 0.501991 0.565641 0.711772
Si Si8 0.335335 0.749347 0.982471
O O1 0.169469 0.859594 0.393129
O O2 0.253652 0.854239 0.027400
O O3 0.356824 0.012513 0.798994
O O4 0.075542 0.114176 0.891590
O O5 0.661086 0.382959 0.244950
O O6 0.929218 0.265227 0.025711
O O7 0.885174 0.405744 0.080712
O O8 0.837585 0.705261 0.013715
O O9 0.942398 0.412628 0.493729
O O10 0.000000 0.500000 0.000000
O O11 0.350038 0.105405 0.907085
O O12 0.436393 0.290705 0.620562
O O13 0.393651 0.058165 0.222463
O O14 0.219068 0.775959 0.945577
O O15 0.509788 0.210828 0.318906
O O16 0.500000 0.500000 0.000000
O O17 0.615104 0.431263 0.720244
#
# Coordination Sequence:
#
# PCOD9061454 Si02
#       8
#     2   2   2   2   2   2   2   2
#     4  12  28  45  66 110 142 180 235 286 353 413
#     4  12  26  46  74 101 139 190 236 285 346 420
#     4  12  28  46  72 106 142 185 232 293 350 411
#     4  11  23  45  71 100 137 177 239 279 343 418
#     4  12  26  47  71  99 143 187 234 282 348 421
#     4  11  25  43  72 101 137 184 225 288 343 414
#     4  12  22  46  74 101 134 180 240 288 342 411
#     4  12  26  44  73 100 142 184 227 293 350 404
#
# _framework density 21.660882999999998
#
# number of rings (size 3 to 8) (size 9 to 14) (size 15 to 20)
#    0.000    0.250    5.000    3.000    7.000    1.500 
#    0.000    0.000    0.000    0.000    0.000    0.000 
#    0.000    0.000    0.000    0.000    0.000    0.000 
#
# Total GULP energy -89597.637745 kJ/mol
# GULP energy per Si atom -5599.852359 kJ/mol
# Density = 2.161158 g / cm^3
# Si number density = 21.660883 Si / 1000 Ang^3
#
#
#
# Elastic Constant Matrix: (Units=GPa)
#
#
# Indices 1 2 3 4 5 6 
#
# 1 98.3294 13.1768 8.1364 -7.3783 -21.8360 10.6083
# 2 13.1768 87.2601 -27.6356 -24.1020 17.4054 1.4675
# 3 8.1364 -27.6356 63.1180 -8.4270 -9.9217 10.3453
# 4 -7.3783 -24.1020 -8.4270 29.9165 2.5819 0.6210
# 5 -21.8360 17.4054 -9.9217 2.5819 27.7986 -4.9793
# 6 10.6083 1.4675 10.3453 0.6210 -4.9793 37.9496
#
#
#
# Elastic Compliance Matrix: (Units=1/GPa)
#
#
# Indices 1 2 3 4 5 6 
#
# 1 0.014607 -0.007634 -0.003320 -0.004794 0.015373 -0.000787
# 2 -0.007634 0.030407 0.015639 0.029180 -0.023391 -0.006852
# 3 -0.003320 0.015639 0.026069 0.019838 -0.006361 -0.007943
# 4 -0.004794 0.029180 0.019838 0.063473 -0.022496 -0.009187
# 5 0.015373 -0.023391 -0.006361 -0.022496 0.063781 0.007078
# 6 -0.000787 -0.006852 -0.007943 -0.009187 0.007078 0.030080
#
#
# Mechanical properties :
#
#
# Convention : Reuss Voigt Hill
#
# Bulk Modulus (GPa) = 12.42966 26.22920 19.32943
# Shear Modulus (GPa) = 20.33640 36.13494 28.23567
#
# Velocity S-wave (km/s) = 3.06740 4.08881 3.61436
# Velocity P-wave (km/s) = 4.27738 5.86740 5.13432
#
# Compressibility (1/GPa) = 0.08045273
#
# Stress axis : x y z
#
# Youngs Moduli (GPa) = 68.46121 32.88768 38.35912
#
# Poissons Ratio (x) = 0.25108 0.12735
# Poissons Ratio (y) = 0.52266 -0.59991
# Poissons Ratio (z) = 0.22729 -0.51434
#
# Static dielectric constant tensor:
#      x y z
#    x 1.764470 -0.008080 0.010610 
#    y -0.008080 1.791520 0.020780 
#    z 0.010610 0.020780 1.771890 
# 
# From -- ./inp_files/207094.got.cif
#   From: 2010.05.17/outbox.cif.g08.bks.cpg/sg2_104_cif.got.tgz:207094.got - 2010.06.03 11:33:40.
