data_PCOD9061502
_publ_section_title
;
Structure prediction by ZEFSAII (Michael W. Deem and Ramdas Pophale) SiO2 
 PCOD9061502
Probable space group: P -1
;
_chemical_formula_sum "Si O2"
_cell_formula_units_Z 16
_cell_length_a 8.984470
_cell_length_b 15.039102
_cell_length_c 9.295568
_cell_angle_alpha 110.284174
_cell_angle_beta 115.280098
_cell_angle_gamma 34.711356
_cell_volume 646.701536
_symmetry_space_group_name_H-M "P -1"
_symmetry_group_IT_number 2
_symmetry_cell_setting 'triclinic'
loop_
_space_group_symop_operation_xyz
x,y,z
-x,-y,-z
loop_
_atom_site_type_symbol
_atom_site_label
_atom_site_fract_x
_atom_site_fract_y
_atom_site_fract_z
Si Si1 0.033190 0.890399 0.049607
Si Si2 0.379783 0.399820 0.747859
Si Si3 0.150291 0.126033 0.290240
Si Si4 0.418928 0.174103 0.516421
Si Si5 0.280657 0.729364 0.589158
Si Si6 0.957061 0.613229 0.946077
Si Si7 0.703949 0.409411 0.726245
Si Si8 0.638610 0.096018 0.264990
O O1 0.351881 0.733483 0.117238
O O2 0.879673 0.964114 0.180208
O O3 0.902142 0.863615 0.892528
O O4 0.000000 0.000000 0.000000
O O5 0.362123 0.310276 0.598430
O O6 0.465354 0.454083 0.723387
O O7 0.123010 0.525464 0.816560
O O8 0.158653 0.227914 0.413567
O O9 0.902650 0.188603 0.300905
O O10 0.412477 0.947108 0.350167
O O11 0.581812 0.071690 0.379629
O O12 0.566124 0.555698 0.658997
O O13 0.162629 0.720534 0.407905
O O14 0.306719 0.824133 0.608135
O O15 0.641808 0.773492 0.868431
O O16 0.000000 0.500000 0.000000
O O17 0.095097 0.636532 0.102855
#
# Coordination Sequence:
#
# PCOD9061502 Si02
#       8
#     2   2   2   2   2   2   2   2
#     4  12  24  46  75 102 136 186 232 284 350 417
#     4  12  26  46  74  99 141 188 233 280 352 420
#     4  11  26  45  72  99 144 183 232 289 355 407
#     4  11  27  45  69 106 138 184 233 295 342 412
#     4  11  23  45  71  99 140 185 233 282 346 419
#     4  12  27  45  69 105 144 179 231 290 348 405
#     4  11  26  43  68 105 138 189 229 284 346 421
#     4  12  26  46  73 106 140 181 236 287 346 412
#
# _framework density 24.740936000000001
#
# number of rings (size 3 to 8) (size 9 to 14) (size 15 to 20)
#    0.000    0.500    5.000    1.875    7.000    3.000 
#    0.000    0.000    0.000    0.000    0.000    0.000 
#    0.000    0.000    0.000    0.000    0.000    0.000 
#
# Total GULP energy -89609.696571 kJ/mol
# GULP energy per Si atom -5600.606036 kJ/mol
# Density = 2.468462 g / cm^3
# Si number density = 24.740936 Si / 1000 Ang^3
#
#
#
# Elastic Constant Matrix: (Units=GPa)
#
#
# Indices 1 2 3 4 5 6 
#
# 1 61.3667 4.2241 13.8590 6.5528 3.3337 14.4013
# 2 4.2241 52.4056 15.8678 -12.4288 5.3912 -7.4715
# 3 13.8590 15.8678 133.3487 17.5507 17.0209 11.2873
# 4 6.5528 -12.4288 17.5507 32.4620 7.0151 -5.2057
# 5 3.3337 5.3912 17.0209 7.0151 55.8585 0.8997
# 6 14.4013 -7.4715 11.2873 -5.2057 0.8997 24.3147
#
#
#
# Elastic Compliance Matrix: (Units=1/GPa)
#
#
# Indices 1 2 3 4 5 6 
#
# 1 0.022006 -0.007685 0.001616 -0.011386 0.000666 -0.018608
# 2 -0.007685 0.030281 -0.007003 0.021141 -0.003335 0.021757
# 3 0.001616 -0.007003 0.010492 -0.010039 -0.001194 -0.010085
# 4 -0.011386 0.021141 -0.010039 0.052490 -0.005366 0.029337
# 5 0.000666 -0.003335 -0.001194 -0.005366 0.019266 -0.002726
# 6 -0.018608 0.021757 -0.010085 0.029337 -0.002726 0.069897
#
#
# Mechanical properties :
#
#
# Convention : Reuss Voigt Hill
#
# Bulk Modulus (GPa) = 27.29627 35.00256 31.14942
# Shear Modulus (GPa) = 20.59419 36.73838 28.66629
#
# Velocity S-wave (km/s) = 2.88825 3.85765 3.40760
# Velocity P-wave (km/s) = 4.70951 5.83269 5.30093
#
# Compressibility (1/GPa) = 0.03663504
#
# Stress axis : x y z
#
# Youngs Moduli (GPa) = 45.44220 33.02439 95.31216
#
# Poissons Ratio (x) = 0.25379 -0.15403
# Poissons Ratio (y) = 0.34922 0.66746
# Poissons Ratio (z) = -0.07344 0.23127
#
# Static dielectric constant tensor:
#      x y z
#    x 1.981800 0.076770 -0.003710 
#    y 0.076770 2.012630 -0.016640 
#    z -0.003710 -0.016640 1.928420 
# 
# From -- ./inp_files/208453.got.cif
#   From: 2010.05.17/outbox.cif.g08.bks.cpg/sg2_105_cif.got.tgz:208453.got - 2010.06.03 11:33:40.
