data_PCOD9061327
_publ_section_title
;
Structure prediction by ZEFSAII (Michael W. Deem and Ramdas Pophale) SiO2 
 PCOD9061327
Probable space group: P -1
;
_chemical_formula_sum "Si O2"
_cell_formula_units_Z 15
_cell_length_a 10.272700
_cell_length_b 8.813580
_cell_length_c 9.418035
_cell_angle_alpha 75.950754
_cell_angle_beta 79.942539
_cell_angle_gamma 49.511590
_cell_volume 628.945671
_symmetry_space_group_name_H-M "P -1"
_symmetry_group_IT_number 2
_symmetry_cell_setting 'triclinic'
loop_
_space_group_symop_operation_xyz
x,y,z
-x,-y,-z
loop_
_atom_site_type_symbol
_atom_site_label
_atom_site_fract_x
_atom_site_fract_y
_atom_site_fract_z
Si Si1 0.053429 0.838961 0.644208
Si Si2 0.000000 0.500000 0.000000
Si Si3 0.549569 0.979808 0.330131
Si Si4 0.725174 0.955782 0.842597
Si Si5 0.643663 0.332113 0.904319
Si Si6 0.103137 0.622330 0.151090
Si Si7 0.098745 0.466947 0.634168
Si Si8 0.789550 0.070898 0.187485
O O1 0.116871 0.635731 0.604920
O O2 0.192258 0.818363 0.718346
O O3 0.883662 0.922544 0.744181
O O4 0.000000 0.000000 0.500000
O O5 0.816799 0.761621 0.974560
O O6 0.882557 0.427698 0.006595
O O7 0.717299 0.746283 0.338367
O O8 0.500000 0.000000 0.500000
O O9 0.393173 0.047215 0.245588
O O10 0.621770 0.093786 0.241419
O O11 0.611855 0.191633 0.863670
O O12 0.729137 0.425554 0.802395
O O13 0.500000 0.500000 0.000000
O O14 0.793968 0.158431 0.019240
O O15 0.023629 0.503141 0.219236
O O16 0.952124 0.834379 0.203722
O O17 0.000000 0.500000 0.500000
#
# Coordination Sequence:
#
# PCOD9061327 Si02
#       8
#     2   1   2   2   2   2   2   2
#     4  12  24  46  76 107 140 198 258 299 366 458
#     4  12  24  42  80  98 140 202 240 298 364 454
#     4  11  27  49  71 112 152 190 247 318 374 441
#     4  12  26  49  76 109 152 195 253 310 384 440
#     4  12  28  42  69 107 153 193 242 314 375 439
#     4  11  23  45  68 103 138 194 250 292 362 452
#     4  11  25  45  77 104 141 201 248 301 371 451
#     4  11  24  46  69 100 147 192 249 295 369 447
#
# _framework density 23.849437999999999
#
# number of rings (size 3 to 8) (size 9 to 14) (size 15 to 20)
#    0.000    0.533    4.000    4.400    3.733    1.600 
#    0.000    1.333    0.000    0.000    0.000    0.000 
#    0.000    0.000    0.000    0.000    0.000    0.000 
#
# Total GULP energy -83537.117545 kJ/mol
# GULP energy per Si atom -5569.141170 kJ/mol
# Density = 2.379516 g / cm^3
# Si number density = 23.849438 Si / 1000 Ang^3
#
#
#
# Elastic Constant Matrix: (Units=GPa)
#
#
# Indices 1 2 3 4 5 6 
#
# 1 157.4175 45.8064 34.0695 3.2045 15.7545 28.9076
# 2 45.8064 124.5833 16.3852 6.6076 -8.0740 14.3938
# 3 34.0695 16.3852 60.2810 -6.5374 -0.4431 1.3942
# 4 3.2045 6.6076 -6.5374 35.3208 -0.5705 2.0423
# 5 15.7545 -8.0740 -0.4431 -0.5705 42.5818 7.3387
# 6 28.9076 14.3938 1.3942 2.0423 7.3387 47.9118
#
#
#
# Elastic Compliance Matrix: (Units=1/GPa)
#
#
# Indices 1 2 3 4 5 6 
#
# 1 0.009143 -0.002441 -0.004544 -0.001027 -0.003197 -0.004117
# 2 -0.002441 0.009586 -0.001345 -0.001671 0.002987 -0.001754
# 3 -0.004544 -0.001345 0.019943 0.004250 0.001314 0.002183
# 4 -0.001027 -0.001671 0.004250 0.029533 0.000563 -0.000347
# 5 -0.003197 0.002987 0.001314 0.000563 0.025768 -0.002977
# 6 -0.004117 -0.001754 0.002183 -0.000347 -0.002977 0.024290
#
#
# Mechanical properties :
#
#
# Convention : Reuss Voigt Hill
#
# Bulk Modulus (GPa) = 45.42806 59.42266 52.42536
# Shear Modulus (GPa) = 35.14691 41.56426 38.35559
#
# Velocity S-wave (km/s) = 3.84304 4.17919 4.01464
# Velocity P-wave (km/s) = 6.22745 6.94675 6.59691
#
# Compressibility (1/GPa) = 0.02201283
#
# Stress axis : x y z
#
# Youngs Moduli (GPa) = 109.36992 104.31868 50.14404
#
# Poissons Ratio (x) = 0.25466 0.22784
# Poissons Ratio (y) = 0.26699 0.06742
# Poissons Ratio (z) = 0.49695 0.14027
#
# Static dielectric constant tensor:
#      x y z
#    x 2.766010 1.068910 0.110640 
#    y 1.068910 3.269880 0.160850 
#    z 0.110640 0.160850 1.848480 
# 
# From -- ./inp_files/381960.got.cif
#   From: 2010.05.17/outbox.cif.g08.bks.cpg/sg2_191_cif.got.tgz:381960.got - 2010.06.03 11:33:40.
