data_PCOD9061685
_publ_section_title
;
Structure prediction by ZEFSAII (Michael W. Deem and Ramdas Pophale) SiO2 
 PCOD9061685
Probable space group: P -1
;
_chemical_formula_sum "Si O2"
_cell_formula_units_Z 12
_cell_length_a 11.786070
_cell_length_b 8.771845
_cell_length_c 7.142445
_cell_angle_alpha 107.488158
_cell_angle_beta 103.754582
_cell_angle_gamma 127.765702
_cell_volume 461.484143
_symmetry_space_group_name_H-M "P -1"
_symmetry_group_IT_number 2
_symmetry_cell_setting 'triclinic'
loop_
_space_group_symop_operation_xyz
x,y,z
-x,-y,-z
loop_
_atom_site_type_symbol
_atom_site_label
_atom_site_fract_x
_atom_site_fract_y
_atom_site_fract_z
Si Si1 0.125384 0.793990 0.072389
Si Si2 0.473465 0.957309 0.197891
Si Si3 0.971521 0.165739 0.546586
Si Si4 0.820480 0.499852 0.585192
Si Si5 0.389287 0.242758 0.779924
Si Si6 0.702226 0.724555 0.645992
O O1 0.293390 0.849641 0.159375
O O2 0.209573 0.044570 0.124012
O O3 0.958314 0.235473 0.771988
O O4 0.975007 0.584431 0.798981
O O5 0.641850 0.224573 0.433851
O O6 0.490066 0.789389 0.200825
O O7 0.500000 0.000000 0.000000
O O8 0.119117 0.403980 0.569274
O O9 0.791335 0.007885 0.301803
O O10 0.000000 0.000000 0.500000
O O11 0.790766 0.649477 0.701654
O O12 0.303304 0.224034 0.551422
O O13 0.500000 0.500000 0.000000
O O14 0.500000 0.500000 0.500000
#
# Coordination Sequence:
#
# PCOD9061685 Si02
#       6
#     2   2   2   2   2   2
#     4  11  26  49  79 120 160 208 269 320 403 469
#     4  12  28  52  80 116 162 211 268 335 402 472
#     4  11  25  46  78 121 155 203 269 318 392 483
#     4  12  25  51  81 114 168 207 262 336 396 472
#     4  11  26  48  79 107 150 209 265 329 400 473
#     4  11  23  45  77 114 152 205 265 317 388 477
#
# _framework density 26.003057999999999
#
# number of rings (size 3 to 8) (size 9 to 14) (size 15 to 20)
#    0.000    0.667    5.000    2.500    2.333    5.333 
#    0.000    4.167    0.000    0.000    0.000    0.000 
#    0.000    0.000    0.000    0.000    0.000    0.000 
#
# Total GULP energy -67125.184133 kJ/mol
# GULP energy per Si atom -5593.765344 kJ/mol
# Density = 2.594387 g / cm^3
# Si number density = 26.003058 Si / 1000 Ang^3
#
#
#
# Elastic Constant Matrix: (Units=GPa)
#
#
# Indices 1 2 3 4 5 6 
#
# 1 201.0493 64.6708 31.5673 -6.1630 12.9159 -22.1827
# 2 64.6708 98.8743 36.4080 7.7564 -4.9489 -17.7765
# 3 31.5673 36.4080 111.2707 -12.8375 18.0101 -7.9507
# 4 -6.1630 7.7564 -12.8375 39.0135 13.5832 -16.0229
# 5 12.9159 -4.9489 18.0101 13.5832 40.4946 4.5519
# 6 -22.1827 -17.7765 -7.9507 -16.0229 4.5519 60.1427
#
#
#
# Elastic Compliance Matrix: (Units=1/GPa)
#
#
# Indices 1 2 3 4 5 6 
#
# 1 0.007613 -0.005894 0.001900 0.006825 -0.006692 0.003641
# 2 -0.005894 0.017922 -0.007570 -0.011810 0.011612 -0.001903
# 3 0.001900 -0.007570 0.014976 0.013408 -0.013253 0.005018
# 4 0.006825 -0.011810 0.013408 0.049943 -0.028161 0.016236
# 5 -0.006692 0.011612 -0.013253 -0.028161 0.044903 -0.011689
# 6 0.003641 -0.001903 0.005018 0.016236 -0.011689 0.023281
#
#
# Mechanical properties :
#
#
# Convention : Reuss Voigt Hill
#
# Bulk Modulus (GPa) = 57.53307 75.16515 66.34911
# Shear Modulus (GPa) = 26.65810 46.50004 36.57907
#
# Velocity S-wave (km/s) = 3.20533 4.23336 3.75470
# Velocity P-wave (km/s) = 5.98936 7.27077 6.66095
#
# Compressibility (1/GPa) = 0.01738131
#
# Stress axis : x y z
#
# Youngs Moduli (GPa) = 131.36244 55.79680 66.77507
#
# Poissons Ratio (x) = 0.32888 -0.12685
# Poissons Ratio (y) = 0.77429 0.50548
# Poissons Ratio (z) = -0.24955 0.42238
#
# Static dielectric constant tensor:
#      x y z
#    x 2.035420 -0.021540 -0.041920 
#    y -0.021540 1.727840 0.000570 
#    z -0.041920 0.000570 2.036550 
# 
# From -- ./inp_files/245620.got.cif
#   From: 2010.05.17/outbox.cif.g08.bks.cpg/sg2_123_cif.got.tgz:245620.got - 2010.06.03 11:33:40.
