data_PCOD9061031
_publ_section_title
;
Structure prediction by ZEFSAII (Michael W. Deem and Ramdas Pophale) SiO2 
 PCOD9061031
Probable space group: P -1
;
_chemical_formula_sum "Si O2"
_cell_formula_units_Z 16
_cell_length_a 12.989102
_cell_length_b 9.454156
_cell_length_c 12.870953
_cell_angle_alpha 131.863514
_cell_angle_beta 66.686745
_cell_angle_gamma 75.891110
_cell_volume 724.002227
_symmetry_space_group_name_H-M "P -1"
_symmetry_group_IT_number 2
_symmetry_cell_setting 'triclinic'
loop_
_space_group_symop_operation_xyz
x,y,z
-x,-y,-z
loop_
_atom_site_type_symbol
_atom_site_label
_atom_site_fract_x
_atom_site_fract_y
_atom_site_fract_z
Si Si1 0.955830 0.768275 0.674350
Si Si2 0.734956 0.864857 0.501130
Si Si3 0.120964 0.970635 0.370013
Si Si4 0.682738 0.955933 0.125292
Si Si5 0.431450 0.703499 0.858082
Si Si6 0.568430 0.118680 0.490157
Si Si7 0.032054 0.739451 0.847071
Si Si8 0.587643 0.659299 0.989766
O O1 0.069782 0.675806 0.679264
O O2 0.000000 0.500000 0.500000
O O3 0.963106 0.907953 0.648184
O O4 0.760891 0.015489 0.901461
O O5 0.811359 0.559077 0.308198
O O6 0.862505 0.838030 0.499017
O O7 0.710689 0.977265 0.450821
O O8 0.568886 0.090966 0.749862
O O9 0.302518 0.641921 0.145278
O O10 0.000000 0.000000 0.500000
O O11 0.692340 0.723187 0.973384
O O12 0.552877 0.216236 0.222349
O O13 0.624179 0.036608 0.308229
O O14 0.861522 0.838604 0.989615
O O15 0.454936 0.448286 0.710403
O O16 0.533241 0.657390 0.894881
O O17 0.500000 0.000000 0.500000
O O18 0.000000 0.000000 0.000000
#
# Coordination Sequence:
#
# PCOD9061031 Si02
#       8
#     2   2   2   2   2   2   2   2
#     4  11  23  44  71  97 140 183 229 286 351 409
#     4  12  24  45  72 104 139 185 232 287 352 415
#     4  12  25  42  70 105 142 177 232 289 350 414
#     4  11  27  45  70 104 142 182 238 284 350 417
#     4  11  24  45  72 102 140 182 235 289 347 410
#     4  12  26  44  70 105 144 184 232 290 351 414
#     4  11  27  47  70 101 143 187 233 285 354 415
#     4  12  23  45  75 106 136 180 237 293 348 413
#
# _framework density 22.09938
#
# number of rings (size 3 to 8) (size 9 to 14) (size 15 to 20)
#    0.000    0.500    5.000    2.625    5.250    2.500 
#    2.250    0.000    0.000    0.000    0.000    0.000 
#    0.000    0.000    0.000    0.000    0.000    0.000 
#
# Total GULP energy -89374.540979 kJ/mol
# GULP energy per Si atom -5585.908811 kJ/mol
# Density = 2.204908 g / cm^3
# Si number density = 22.099380 Si / 1000 Ang^3
#
#
#
# Elastic Constant Matrix: (Units=GPa)
#
#
# Indices 1 2 3 4 5 6 
#
# 1 50.6499 18.5641 28.7662 -2.5149 11.6199 19.4294
# 2 18.5641 174.9443 65.9769 -0.9450 6.7542 -7.6767
# 3 28.7662 65.9769 121.7563 21.7389 17.8229 3.8502
# 4 -2.5149 -0.9450 21.7389 51.9064 5.8349 5.7040
# 5 11.6199 6.7542 17.8229 5.8349 35.0880 1.7526
# 6 19.4294 -7.6767 3.8502 5.7040 1.7526 37.9241
#
#
#
# Elastic Compliance Matrix: (Units=1/GPa)
#
#
# Indices 1 2 3 4 5 6 
#
# 1 0.032576 -0.001406 -0.006549 0.007009 -0.007506 -0.017016
# 2 -0.001406 0.007535 -0.004206 0.001477 0.000785 0.002414
# 3 -0.006549 -0.004206 0.013468 -0.005937 -0.002983 0.002167
# 4 0.007009 0.001477 -0.005937 0.023133 -0.003136 -0.006024
# 5 -0.007506 0.000785 -0.002983 -0.003136 0.032708 0.003268
# 6 -0.017016 0.002414 0.002167 -0.006024 0.003268 0.036110
#
#
# Mechanical properties :
#
#
# Convention : Reuss Voigt Hill
#
# Bulk Modulus (GPa) = 34.18019 63.77389 48.97704
# Shear Modulus (GPa) = 27.83905 40.58658 34.21281
#
# Velocity S-wave (km/s) = 3.55311 4.29015 3.93890
# Velocity P-wave (km/s) = 5.68620 7.31170 6.54957
#
# Compressibility (1/GPa) = 0.02925671
#
# Stress axis : x y z
#
# Youngs Moduli (GPa) = 30.69758 132.71284 74.25157
#
# Poissons Ratio (x) = 0.18658 0.48628
# Poissons Ratio (y) = 0.04316 0.31230
# Poissons Ratio (z) = 0.20104 0.55818
#
# Static dielectric constant tensor:
#      x y z
#    x 1.831070 -0.069270 0.006340 
#    y -0.069270 1.808270 -0.020030 
#    z 0.006340 -0.020030 1.805990 
# 
# From -- ./inp_files/219045.got.cif
#   From: 2010.05.17/outbox.cif.g08.bks.cpg/sg2_110_cif.got.tgz:219045.got - 2010.06.03 11:33:40.
