data_PCOD9061298
_publ_section_title
;
Structure prediction by ZEFSAII (Michael W. Deem and Ramdas Pophale) SiO2 
 PCOD9061298
Probable space group: P -1
;
_chemical_formula_sum "Si O2"
_cell_formula_units_Z 16
_cell_length_a 9.993567
_cell_length_b 15.003600
_cell_length_c 13.243777
_cell_angle_alpha 134.107213
_cell_angle_beta 100.889823
_cell_angle_gamma 44.176962
_cell_volume 779.604341
_symmetry_space_group_name_H-M "P -1"
_symmetry_group_IT_number 2
_symmetry_cell_setting 'triclinic'
loop_
_space_group_symop_operation_xyz
x,y,z
-x,-y,-z
loop_
_atom_site_type_symbol
_atom_site_label
_atom_site_fract_x
_atom_site_fract_y
_atom_site_fract_z
Si Si1 0.238939 0.823636 0.822946
Si Si2 0.440198 0.599770 0.345450
Si Si3 0.016234 0.883260 0.639430
Si Si4 0.785746 0.564392 0.316530
Si Si5 0.702796 0.938318 0.934486
Si Si6 0.266342 0.129791 0.356092
Si Si7 0.758888 0.639779 0.133381
Si Si8 0.495227 0.397485 0.998482
O O1 0.418529 0.575653 0.681961
O O2 0.153079 0.856140 0.724560
O O3 0.343833 0.882653 0.900423
O O4 0.000000 0.000000 0.000000
O O5 0.156274 0.813319 0.502795
O O6 0.562304 0.638217 0.364994
O O7 0.484839 0.468506 0.159915
O O8 0.971089 0.770356 0.561455
O O9 0.741003 0.136778 0.809507
O O10 0.772637 0.695994 0.488616
O O11 0.780519 0.612971 0.236920
O O12 0.033856 0.301747 0.171817
O O13 0.706334 0.921497 0.799760
O O14 0.500000 0.000000 0.000000
O O15 0.517712 0.899836 0.268993
O O16 0.721878 0.529909 0.998775
O O17 0.000000 0.500000 0.000000
O O18 0.500000 0.500000 0.000000
#
# Coordination Sequence:
#
# PCOD9061298 Si02
#       8
#     2   2   2   2   2   2   2   2
#     4  12  21  45  69  94 139 172 221 281 335 397
#     4  12  25  43  72 101 131 181 223 280 342 394
#     4  11  25  42  71  98 131 181 219 273 346 396
#     4  12  25  44  66 102 138 169 231 281 328 411
#     4  12  26  42  72 100 132 183 223 275 344 397
#     4  11  25  46  63 100 142 170 223 284 333 407
#     4  11  25  45  70  95 133 185 218 272 352 396
#     4  11  23  45  66  96 134 168 231 281 317 402
#
# _framework density 20.523230000000002
#
# number of rings (size 3 to 8) (size 9 to 14) (size 15 to 20)
#    0.000    0.500    5.000    2.625    5.250    1.500 
#    0.000    0.000    0.000    0.000    0.000    0.000 
#    0.000    0.000    0.000    0.000    0.000    0.000 
#
# Total GULP energy -89378.651390 kJ/mol
# GULP energy per Si atom -5586.165712 kJ/mol
# Density = 2.047652 g / cm^3
# Si number density = 20.523230 Si / 1000 Ang^3
#
#
#
# Elastic Constant Matrix: (Units=GPa)
#
#
# Indices 1 2 3 4 5 6 
#
# 1 188.0833 -2.4560 45.0871 13.8411 -14.7198 -2.8279
# 2 -2.4560 134.9005 30.6817 -107.9056 14.0829 -1.5421
# 3 45.0871 30.6817 85.0695 -61.7507 6.9105 -6.1691
# 4 13.8411 -107.9056 -61.7507 240.1038 -43.8383 20.0545
# 5 -14.7198 14.0829 6.9105 -43.8383 54.1339 -6.7961
# 6 -2.8279 -1.5421 -6.1691 20.0545 -6.7961 27.9368
#
#
#
# Elastic Compliance Matrix: (Units=1/GPa)
#
#
# Indices 1 2 3 4 5 6 
#
# 1 0.006638 -0.000134 -0.004560 -0.001451 0.001377 0.001034
# 2 -0.000134 0.011953 -0.000387 0.005767 0.001160 -0.003297
# 3 -0.004560 -0.000387 0.017705 0.004709 0.000433 0.000152
# 4 -0.001451 0.005767 0.004709 0.009222 0.004428 -0.004331
# 5 0.001377 0.001160 0.000433 0.004428 0.022399 0.002569
# 6 0.001034 -0.003297 0.000152 -0.004331 0.002569 0.039485
#
#
# Mechanical properties :
#
#
# Convention : Reuss Voigt Hill
#
# Bulk Modulus (GPa) = 38.26387 61.63099 49.94743
# Shear Modulus (GPa) = 39.59620 86.75093 63.17356
#
# Velocity S-wave (km/s) = 4.39719 6.50856 5.55413
# Velocity P-wave (km/s) = 6.66821 9.30467 8.09450
#
# Compressibility (1/GPa) = 0.02613431
#
# Stress axis : x y z
#
# Youngs Moduli (GPa) = 150.64433 83.66350 56.48062
#
# Poissons Ratio (x) = 0.01125 0.25753
# Poissons Ratio (y) = 0.02025 0.02184
# Poissons Ratio (z) = 0.68689 0.03236
#
# Static dielectric constant tensor:
#      x y z
#    x 1.774800 0.075160 0.001430 
#    y 0.075160 1.810340 0.094930 
#    z 0.001430 0.094930 1.730440 
# 
# From -- ./inp_files/343653.got.cif
#   From: 2010.05.17/outbox.cif.g08.bks.cpg/sg2_172_cif.got.tgz:343653.got - 2010.06.03 11:33:40.
