data_PCOD9061968
_publ_section_title
;
Structure prediction by ZEFSAII (Michael W. Deem and Ramdas Pophale) SiO2 
 PCOD9061968
Probable space group: P -1
;
_chemical_formula_sum "Si O2"
_cell_formula_units_Z 16
_cell_length_a 9.292309
_cell_length_b 10.708741
_cell_length_c 9.591685
_cell_angle_alpha 55.496105
_cell_angle_beta 58.521969
_cell_angle_gamma 58.573698
_cell_volume 635.305890
_symmetry_space_group_name_H-M "P -1"
_symmetry_group_IT_number 2
_symmetry_cell_setting 'triclinic'
loop_
_space_group_symop_operation_xyz
x,y,z
-x,-y,-z
loop_
_atom_site_type_symbol
_atom_site_label
_atom_site_fract_x
_atom_site_fract_y
_atom_site_fract_z
Si Si1 0.882635 0.667197 0.176242
Si Si2 0.852972 0.194383 0.147589
Si Si3 0.420280 0.223773 0.961477
Si Si4 0.260067 0.073513 0.697905
Si Si5 0.485863 0.541119 0.815529
Si Si6 0.851909 0.437301 0.542274
Si Si7 0.189056 0.907016 0.269843
Si Si8 0.665582 0.972918 0.628196
O O1 0.723615 0.757688 0.097647
O O2 0.866194 0.781630 0.245254
O O3 0.854907 0.504557 0.342015
O O4 0.072314 0.662591 0.023224
O O5 0.662749 0.289980 0.250052
O O6 0.024796 0.062558 0.211502
O O7 0.789127 0.085939 0.136588
O O8 0.433962 0.398126 0.864112
O O9 0.619558 0.112551 0.888594
O O10 0.346034 0.167076 0.174147
O O11 0.249714 0.084027 0.528840
O O12 0.459013 0.063502 0.643824
O O13 0.673600 0.529554 0.659796
O O14 0.500000 0.500000 0.000000
O O15 0.855867 0.254200 0.642249
O O16 0.000000 0.500000 0.500000
O O17 0.233134 0.928594 0.396090
#
# Coordination Sequence:
#
# PCOD9061968 Si02
#       8
#     2   2   2   2   2   2   2   2
#     4  12  25  48  78 113 154 207 269 314 400 475
#     4  12  26  48  78 117 154 205 261 329 391 468
#     4  11  24  48  80 108 158 212 258 325 396 473
#     4  11  26  42  77 111 159 203 268 321 392 458
#     4  11  27  48  77 115 163 205 257 326 403 464
#     4  11  27  50  79 115 157 211 260 325 395 477
#     4  11  24  50  79 113 157 205 268 322 393 468
#     4  11  23  46  75 113 152 208 263 328 383 465
#
# _framework density 25.184718
#
# number of rings (size 3 to 8) (size 9 to 14) (size 15 to 20)
#    0.000    0.750    2.500    3.750    5.250    7.000 
#    2.250    0.000    0.000    0.000    0.000    0.000 
#    0.000    0.000    0.000    0.000    0.000    0.000 
#
# Total GULP energy -89554.407046 kJ/mol
# GULP energy per Si atom -5597.150440 kJ/mol
# Density = 2.512740 g / cm^3
# Si number density = 25.184718 Si / 1000 Ang^3
#
#
#
# Elastic Constant Matrix: (Units=GPa)
#
#
# Indices 1 2 3 4 5 6 
#
# 1 178.7047 64.7838 57.8378 6.5484 -16.6852 2.9166
# 2 64.7838 96.9688 13.7507 -7.8885 -11.2471 -9.8468
# 3 57.8378 13.7507 114.0855 -12.5766 -21.5444 -6.1241
# 4 6.5484 -7.8885 -12.5766 36.0741 4.4839 -1.1299
# 5 -16.6852 -11.2471 -21.5444 4.4839 50.5057 3.2387
# 6 2.9166 -9.8468 -6.1241 -1.1299 3.2387 44.6093
#
#
#
# Elastic Compliance Matrix: (Units=1/GPa)
#
#
# Indices 1 2 3 4 5 6 
#
# 1 0.009777 -0.006509 -0.004812 -0.005011 0.000358 -0.002890
# 2 -0.006509 0.015346 0.002572 0.005364 0.001620 0.004184
# 3 -0.004812 0.002572 0.012295 0.005352 0.003596 0.002445
# 4 -0.005011 0.005364 0.005352 0.031918 -0.001213 0.003143
# 5 0.000358 0.001620 0.003596 -0.001213 0.021971 -0.000798
# 6 -0.002890 0.004184 0.002445 0.003143 -0.000798 0.024003
#
#
# Mechanical properties :
#
#
# Convention : Reuss Voigt Hill
#
# Bulk Modulus (GPa) = 50.20144 73.61152 61.90648
# Shear Modulus (GPa) = 35.85547 43.13024 39.49285
#
# Velocity S-wave (km/s) = 3.77729 4.14279 3.96426
# Velocity P-wave (km/s) = 6.24503 7.22328 6.75190
#
# Compressibility (1/GPa) = 0.01991975
#
# Stress axis : x y z
#
# Youngs Moduli (GPa) = 102.27932 65.16497 81.33239
#
# Poissons Ratio (x) = 0.42417 0.39138
# Poissons Ratio (y) = 0.66575 -0.20919
# Poissons Ratio (z) = 0.49217 -0.16761
#
# Static dielectric constant tensor:
#      x y z
#    x 1.974800 -0.019540 0.050120 
#    y -0.019540 1.969920 -0.054460 
#    z 0.050120 -0.054460 2.119290 
# 
# From -- ./inp_files/184828.got.cif
#   From: 2010.05.17/outbox.cif.g08.bks.cpg/sg2_93_cif.got.tgz:184828.got - 2010.06.03 11:33:40.
