data_PCOD9061444
_publ_section_title
;
Structure prediction by ZEFSAII (Michael W. Deem and Ramdas Pophale) SiO2 
 PCOD9061444
Probable space group: P -1
;
_chemical_formula_sum "Si O2"
_cell_formula_units_Z 16
_cell_length_a 8.505369
_cell_length_b 12.105864
_cell_length_c 15.627320
_cell_angle_alpha 150.153891
_cell_angle_beta 69.034522
_cell_angle_gamma 99.209775
_cell_volume 707.584393
_symmetry_space_group_name_H-M "P -1"
_symmetry_group_IT_number 2
_symmetry_cell_setting 'triclinic'
loop_
_space_group_symop_operation_xyz
x,y,z
-x,-y,-z
loop_
_atom_site_type_symbol
_atom_site_label
_atom_site_fract_x
_atom_site_fract_y
_atom_site_fract_z
Si Si1 0.414460 0.628249 0.014099
Si Si2 0.833393 0.956415 0.227424
Si Si3 0.100899 0.142916 0.025782
Si Si4 0.533548 0.353383 0.631671
Si Si5 0.909949 0.435225 0.891704
Si Si6 0.845973 0.637506 0.354046
Si Si7 0.805286 0.927139 0.725788
Si Si8 0.337174 0.239611 0.191525
O O1 0.213720 0.696303 0.134277
O O2 0.381095 0.872887 0.132465
O O3 0.500000 0.500000 0.000000
O O4 0.488045 0.441437 0.797602
O O5 0.699805 0.117933 0.430003
O O6 0.032496 0.972423 0.213572
O O7 0.788700 0.025267 0.183631
O O8 0.806770 0.700043 0.058731
O O9 0.216463 0.238479 0.131786
O O10 0.947909 0.361158 0.160548
O O11 0.000000 0.000000 0.000000
O O12 0.355949 0.319025 0.604862
O O13 0.587541 0.546046 0.694428
O O14 0.046379 0.298236 0.701926
O O15 0.000000 0.500000 0.000000
O O16 0.863114 0.761542 0.521425
O O17 0.769846 0.778252 0.713156
O O18 0.500000 0.000000 0.000000
#
# Coordination Sequence:
#
# PCOD9061444 Si02
#       8
#     2   2   2   2   2   2   2   2
#     4  12  28  47  73 102 140 182 236 291 349 413
#     4  11  26  43  72 104 142 179 236 287 347 415
#     4  11  23  45  70  98 139 189 227 277 348 410
#     4  12  27  46  68 111 142 179 238 288 346 414
#     4  11  23  49  71  94 140 188 228 291 351 405
#     4  11  27  44  71 104 141 181 237 284 346 419
#     4  12  26  48  69 105 142 186 233 284 351 416
#     4  12  26  44  75 100 148 185 229 291 342 413
#
# _framework density 22.612144000000001
#
# number of rings (size 3 to 8) (size 9 to 14) (size 15 to 20)
#    0.000    0.500    5.000    2.250   10.500    3.500 
#    0.000    0.000    0.000    0.000    0.000    0.000 
#    0.000    0.000    0.000    0.000    0.000    0.000 
#
# Total GULP energy -89220.804494 kJ/mol
# GULP energy per Si atom -5576.300281 kJ/mol
# Density = 2.256068 g / cm^3
# Si number density = 22.612144 Si / 1000 Ang^3
#
#
#
# Elastic Constant Matrix: (Units=GPa)
#
#
# Indices 1 2 3 4 5 6 
#
# 1 60.9860 33.0340 12.8716 -16.7919 -1.2607 -3.4114
# 2 33.0340 116.5581 26.0346 -35.1512 6.8068 7.2427
# 3 12.8716 26.0346 102.3460 -37.7980 6.9807 1.7470
# 4 -16.7919 -35.1512 -37.7980 47.7022 -5.8177 3.2622
# 5 -1.2607 6.8068 6.9807 -5.8177 28.1673 -2.1132
# 6 -3.4114 7.2427 1.7470 3.2622 -2.1132 39.5555
#
#
#
# Elastic Compliance Matrix: (Units=1/GPa)
#
#
# Indices 1 2 3 4 5 6 
#
# 1 0.020319 -0.004994 -0.000258 0.003470 0.003089 0.002557
# 2 -0.004994 0.012612 0.000565 0.007977 -0.002029 -0.003531
# 3 -0.000258 0.000565 0.013976 0.011349 -0.001399 -0.001754
# 4 0.003470 0.007977 0.011349 0.037721 0.002859 -0.004621
# 5 0.003089 -0.002029 -0.001399 0.002859 0.037252 0.002454
# 6 0.002557 -0.003531 -0.001754 -0.004621 0.002454 0.026738
#
#
# Mechanical properties :
#
#
# Convention : Reuss Voigt Hill
#
# Bulk Modulus (GPa) = 26.64275 47.08560 36.86417
# Shear Modulus (GPa) = 29.32493 36.94832 33.13662
#
# Velocity S-wave (km/s) = 3.60511 4.04667 3.83225
# Velocity P-wave (km/s) = 5.39789 6.53470 5.99331
#
# Compressibility (1/GPa) = 0.03753367
#
# Stress axis : x y z
#
# Youngs Moduli (GPa) = 49.21518 79.28778 71.54939
#
# Poissons Ratio (x) = 0.39594 0.01845
# Poissons Ratio (y) = 0.24577 -0.04040
# Poissons Ratio (z) = 0.01269 -0.04476
#
# Static dielectric constant tensor:
#      x y z
#    x 1.886140 -0.002360 -0.034840 
#    y -0.002360 1.787450 0.041630 
#    z -0.034840 0.041630 1.874300 
# 
# From -- ./inp_files/501107.got.cif
#   From: 2010.05.17/outbox.cif.g08.bks.cpg/sg2_251_cif.got.tgz:501107.got - 2010.06.03 11:33:40.
