data_PCOD9061201
_publ_section_title
;
Structure prediction by ZEFSAII (Michael W. Deem and Ramdas Pophale) SiO2 
 PCOD9061201
Probable space group: P -1
;
_chemical_formula_sum "Si O2"
_cell_formula_units_Z 12
_cell_length_a 8.397767
_cell_length_b 17.421906
_cell_length_c 9.906669
_cell_angle_alpha 135.226362
_cell_angle_beta 136.232894
_cell_angle_gamma 32.541404
_cell_volume 519.006785
_symmetry_space_group_name_H-M "P -1"
_symmetry_group_IT_number 2
_symmetry_cell_setting 'triclinic'
loop_
_space_group_symop_operation_xyz
x,y,z
-x,-y,-z
loop_
_atom_site_type_symbol
_atom_site_label
_atom_site_fract_x
_atom_site_fract_y
_atom_site_fract_z
Si Si1 0.282391 0.722811 0.609378
Si Si2 0.658689 0.550767 0.352069
Si Si3 0.850515 0.282013 0.979559
Si Si4 0.886928 0.046350 0.833322
Si Si5 0.117646 0.366591 0.055347
Si Si6 0.153796 0.316976 0.716177
O O1 0.486539 0.629611 0.485967
O O2 0.542452 0.689621 0.825083
O O3 0.034387 0.899079 0.656917
O O4 0.091656 0.683615 0.506843
O O5 0.413000 0.665681 0.227800
O O6 0.000000 0.500000 0.500000
O O7 0.711013 0.407528 0.164777
O O8 0.989495 0.129770 0.940405
O O9 0.090375 0.283113 0.046623
O O10 0.510688 0.166211 0.738221
O O11 0.000000 0.000000 0.000000
O O12 0.897853 0.540019 0.169569
O O13 0.042686 0.341096 0.833367
#
# Coordination Sequence:
#
# PCOD9061201 Si02
#       6
#     2   2   2   2   2   2
#     4  12  25  45  71 110 141 184 239 283 357 427
#     4  11  23  44  74 111 133 184 243 293 347 416
#     4  11  25  48  72 101 150 180 236 298 352 415
#     4  12  28  49  69 104 151 194 226 291 366 418
#     4  11  23  45  76 106 134 188 239 300 345 409
#     4  11  24  46  72 102 147 182 240 291 348 420
#
# _framework density 23.121084
#
# number of rings (size 3 to 8) (size 9 to 14) (size 15 to 20)
#    0.000    0.667    5.000    3.000    2.333    2.667 
#    3.000    0.000    0.000    0.000    0.000    0.000 
#    0.000    0.000    0.000    0.000    0.000    0.000 
#
# Total GULP energy -67123.947127 kJ/mol
# GULP energy per Si atom -5593.662261 kJ/mol
# Density = 2.306846 g / cm^3
# Si number density = 23.121084 Si / 1000 Ang^3
#
#
#
# Elastic Constant Matrix: (Units=GPa)
#
#
# Indices 1 2 3 4 5 6 
#
# 1 92.0301 36.4561 32.1683 9.2848 19.8353 8.9896
# 2 36.4561 116.6565 33.0651 9.9061 14.0188 -7.0515
# 3 32.1683 33.0651 86.8184 -10.1655 18.0468 -4.8650
# 4 9.2848 9.9061 -10.1655 51.9198 -9.2320 9.9728
# 5 19.8353 14.0188 18.0468 -9.2320 46.9057 -4.3407
# 6 8.9896 -7.0515 -4.8650 9.9728 -4.3407 46.2686
#
#
#
# Elastic Compliance Matrix: (Units=1/GPa)
#
#
# Indices 1 2 3 4 5 6 
#
# 1 0.015182 -0.002960 -0.004042 -0.003124 -0.004930 -0.003615
# 2 -0.002960 0.010870 -0.002992 -0.002802 -0.001174 0.002411
# 3 -0.004042 -0.002992 0.015136 0.003653 -0.002417 0.000907
# 4 -0.003124 -0.002802 0.003653 0.022676 0.004858 -0.003868
# 5 -0.004930 -0.001174 -0.002417 0.004858 0.025817 0.001900
# 6 -0.003615 0.002411 0.000907 -0.003868 0.001900 0.023790
#
#
# Mechanical properties :
#
#
# Convention : Reuss Voigt Hill
#
# Bulk Modulus (GPa) = 47.16667 55.43157 51.29912
# Shear Modulus (GPa) = 35.58069 41.93983 38.76026
#
# Velocity S-wave (km/s) = 3.92712 4.26364 4.09883
# Velocity P-wave (km/s) = 6.40368 6.94728 6.68101
#
# Compressibility (1/GPa) = 0.02120141
#
# Stress axis : x y z
#
# Youngs Moduli (GPa) = 65.86751 91.99587 66.06573
#
# Poissons Ratio (x) = 0.27229 0.26701
# Poissons Ratio (y) = 0.19495 0.19768
# Poissons Ratio (z) = 0.26621 0.27527
#
# Static dielectric constant tensor:
#      x y z
#    x 1.895590 -0.017680 0.015290 
#    y -0.017680 1.874280 -0.033890 
#    z 0.015290 -0.033890 1.880170 
# 
# From -- ./inp_files/152452.got.cif
#   From: 2010.05.17/outbox.cif.g08.bks.cpg/sg2_77_cif.got.tgz:152452.got - 2010.06.03 11:33:40.
