data_PCOD9061532
_publ_section_title
;
Structure prediction by ZEFSAII (Michael W. Deem and Ramdas Pophale) SiO2 
 PCOD9061532
Probable space group: P -1
;
_chemical_formula_sum "Si O2"
_cell_formula_units_Z 16
_cell_length_a 11.294270
_cell_length_b 16.750743
_cell_length_c 9.075315
_cell_angle_alpha 47.149759
_cell_angle_beta 98.819168
_cell_angle_gamma 133.345265
_cell_volume 740.438394
_symmetry_space_group_name_H-M "P -1"
_symmetry_group_IT_number 2
_symmetry_cell_setting 'triclinic'
loop_
_space_group_symop_operation_xyz
x,y,z
-x,-y,-z
loop_
_atom_site_type_symbol
_atom_site_label
_atom_site_fract_x
_atom_site_fract_y
_atom_site_fract_z
Si Si1 0.869418 0.089686 0.469550
Si Si2 0.556927 0.816013 0.272236
Si Si3 0.678316 0.658425 0.445399
Si Si4 0.853071 0.451156 0.649131
Si Si5 0.686709 0.575420 0.870252
Si Si6 0.073472 0.837558 0.268191
Si Si7 0.473019 0.768078 0.652440
Si Si8 0.184759 0.696432 0.867845
O O1 0.858340 0.082265 0.654028
O O2 0.844662 0.196580 0.279906
O O3 0.093994 0.217638 0.308645
O O4 0.687541 0.893631 0.606332
O O5 0.644150 0.756849 0.367158
O O6 0.356091 0.671335 0.316671
O O7 0.500253 0.810820 0.432252
O O8 0.734288 0.016726 0.983194
O O9 0.500000 0.500000 0.500000
O O10 0.668109 0.573618 0.693150
O O11 0.896246 0.793133 0.247894
O O12 0.000000 0.500000 0.500000
O O13 0.968832 0.643281 0.486646
O O14 0.807133 0.340738 0.917585
O O15 0.500000 0.500000 0.000000
O O16 0.672543 0.440820 0.088316
O O17 0.379451 0.799541 0.684703
O O18 0.000000 0.500000 0.000000
#
# Coordination Sequence:
#
# PCOD9061532 Si02
#       8
#     2   2   2   2   2   2   2   2
#     4  11  26  44  71  97 134 179 226 276 335 397
#     4  12  27  44  68 103 138 174 225 281 335 402
#     4  11  23  45  72  96 134 181 219 276 344 395
#     4  12  27  45  71 101 137 179 224 278 336 399
#     4  11  24  45  68  98 133 174 228 277 327 400
#     4  11  25  46  68 101 135 177 225 275 339 402
#     4  12  26  44  70 100 136 179 226 277 336 395
#     4  12  22  47  73  95 135 182 225 276 336 397
#
# _framework density 21.608820000000001
#
# number of rings (size 3 to 8) (size 9 to 14) (size 15 to 20)
#    0.000    0.500    5.000    3.000    3.500    2.000 
#    0.000    0.000    0.000    0.000    0.000    0.000 
#    0.000    0.000    0.000    0.000    0.000    0.000 
#
# Total GULP energy -89571.600170 kJ/mol
# GULP energy per Si atom -5598.225011 kJ/mol
# Density = 2.155964 g / cm^3
# Si number density = 21.608820 Si / 1000 Ang^3
#
#
#
# Elastic Constant Matrix: (Units=GPa)
#
#
# Indices 1 2 3 4 5 6 
#
# 1 70.9659 -19.8450 17.0142 10.9635 -15.3751 2.2227
# 2 -19.8450 93.4156 34.1917 4.9102 -15.4727 17.0204
# 3 17.0142 34.1917 95.5327 4.5197 -19.9305 17.4390
# 4 10.9635 4.9102 4.5197 33.7671 3.8592 -0.9604
# 5 -15.3751 -15.4727 -19.9305 3.8592 30.2241 -3.0619
# 6 2.2227 17.0204 17.4390 -0.9604 -3.0619 27.3265
#
#
#
# Elastic Compliance Matrix: (Units=1/GPa)
#
#
# Indices 1 2 3 4 5 6 
#
# 1 0.022646 0.009861 -0.002999 -0.010282 0.015427 -0.004703
# 2 0.009861 0.018081 -0.003906 -0.006889 0.011715 -0.008501
# 3 -0.002999 -0.003906 0.014786 -0.001271 0.005764 -0.006159
# 4 -0.010282 -0.006889 -0.001271 0.035840 -0.013597 0.005675
# 5 0.015427 0.011715 0.005764 -0.013597 0.051769 -0.006908
# 6 -0.004703 -0.008501 -0.006159 0.005675 -0.006908 0.045627
#
#
# Mechanical properties :
#
#
# Convention : Reuss Voigt Hill
#
# Bulk Modulus (GPa) = 16.27978 35.84845 26.06411
# Shear Modulus (GPa) = 24.59273 33.50044 29.04658
#
# Velocity S-wave (km/s) = 3.37722 3.94167 3.67031
# Velocity P-wave (km/s) = 4.77050 6.11077 5.48175
#
# Compressibility (1/GPa) = 0.06142590
#
# Stress axis : x y z
#
# Youngs Moduli (GPa) = 44.15780 55.30778 67.62942
#
# Poissons Ratio (x) = -0.54540 0.20283
# Poissons Ratio (y) = -0.43545 0.26413
# Poissons Ratio (z) = 0.13244 0.21601
#
# Static dielectric constant tensor:
#      x y z
#    x 1.916420 -0.018020 0.041090 
#    y -0.018020 1.756490 -0.023940 
#    z 0.041090 -0.023940 1.796380 
# 
# From -- ./inp_files/279066.got.cif
#   From: 2010.05.17/outbox.cif.g08.bks.cpg/sg2_140_cif.got.tgz:279066.got - 2010.06.03 11:33:40.
