data_PCOD9061414
_publ_section_title
;
Structure prediction by ZEFSAII (Michael W. Deem and Ramdas Pophale) SiO2 
 PCOD9061414
Probable space group: P -1
;
_chemical_formula_sum "Si O2"
_cell_formula_units_Z 14
_cell_length_a 21.458907
_cell_length_b 16.401830
_cell_length_c 8.709961
_cell_angle_alpha 146.983883
_cell_angle_beta 134.819846
_cell_angle_gamma 23.950150
_cell_volume 651.388521
_symmetry_space_group_name_H-M "P -1"
_symmetry_group_IT_number 2
_symmetry_cell_setting 'triclinic'
loop_
_space_group_symop_operation_xyz
x,y,z
-x,-y,-z
loop_
_atom_site_type_symbol
_atom_site_label
_atom_site_fract_x
_atom_site_fract_y
_atom_site_fract_z
Si Si1 0.231523 0.135224 0.947213
Si Si2 0.329547 0.297390 0.245146
Si Si3 0.162130 0.672705 0.257273
Si Si4 0.602721 0.538210 0.177150
Si Si5 0.064155 0.477184 0.731409
Si Si6 0.716260 0.081130 0.614527
Si Si7 0.465895 0.389084 0.183761
O O1 0.248619 0.987289 0.611169
O O2 0.390011 0.915599 0.979671
O O3 0.224730 0.301421 0.107607
O O4 0.080631 0.315067 0.071743
O O5 0.240735 0.528142 0.332020
O O6 0.350449 0.361651 0.538699
O O7 0.500000 0.000000 0.000000
O O8 0.296081 0.567868 0.226621
O O9 0.000000 0.000000 0.500000
O O10 0.129116 0.552811 0.946101
O O11 0.469298 0.687823 0.308535
O O12 0.741114 0.216470 0.922925
O O13 0.533357 0.616074 0.008119
O O14 0.000000 0.500000 0.500000
O O15 0.191957 0.176967 0.542344
O O16 0.500000 0.500000 0.500000
#
# Coordination Sequence:
#
# PCOD9061414 Si02
#       7
#     2   2   2   2   2   2   2
#     4  12  24  46  76  97 144 194 236 293 361 430
#     4  12  24  47  72 106 141 188 242 294 355 431
#     4  12  28  46  72 105 149 186 238 301 361 421
#     4  11  25  41  75 106 141 183 244 296 354 438
#     4  12  28  47  70 105 149 190 238 298 362 427
#     4  11  23  45  70 103 140 191 239 293 360 425
#     4  12  25  45  73 106 142 186 242 296 362 421
#
# _framework density 21.492550000000001
#
# number of rings (size 3 to 8) (size 9 to 14) (size 15 to 20)
#    0.000    0.286    5.714    2.143    6.000    0.571 
#    0.000    1.429    0.000    0.000    0.000    0.000 
#    0.000    0.000    0.000    0.000    0.000    0.000 
#
# Total GULP energy -78312.105858 kJ/mol
# GULP energy per Si atom -5593.721847 kJ/mol
# Density = 2.144363 g / cm^3
# Si number density = 21.492550 Si / 1000 Ang^3
#
#
#
# Elastic Constant Matrix: (Units=GPa)
#
#
# Indices 1 2 3 4 5 6 
#
# 1 109.6371 29.6260 48.4317 -0.6802 -7.0072 -14.0385
# 2 29.6260 96.1542 59.0280 9.7160 8.4345 8.9820
# 3 48.4317 59.0280 169.6085 -11.7250 0.8950 -0.4895
# 4 -0.6802 9.7160 -11.7250 45.9118 5.0561 2.1529
# 5 -7.0072 8.4345 0.8950 5.0561 29.2455 1.8132
# 6 -14.0385 8.9820 -0.4895 2.1529 1.8132 45.6720
#
#
#
# Elastic Compliance Matrix: (Units=1/GPa)
#
#
# Indices 1 2 3 4 5 6 
#
# 1 0.011657 -0.002746 -0.002410 -0.000432 0.003487 0.003979
# 2 -0.002746 0.015260 -0.004784 -0.003882 -0.004021 -0.003554
# 3 -0.002410 -0.004784 0.008466 0.003133 -0.000007 0.000144
# 4 -0.000432 -0.003882 0.003133 0.023760 -0.003167 -0.000330
# 5 0.003487 -0.004021 -0.000007 -0.003167 0.036702 0.000555
# 6 0.003979 -0.003554 0.000144 -0.000330 0.000555 0.023812
#
#
# Mechanical properties :
#
#
# Convention : Reuss Voigt Hill
#
# Bulk Modulus (GPa) = 64.50335 72.17458 68.33897
# Shear Modulus (GPa) = 34.55278 40.05345 37.30311
#
# Velocity S-wave (km/s) = 4.01392 4.32162 4.17061
# Velocity P-wave (km/s) = 7.18047 7.65219 7.42008
#
# Compressibility (1/GPa) = 0.01550307
#
# Stress axis : x y z
#
# Youngs Moduli (GPa) = 85.78294 65.53063 118.11895
#
# Poissons Ratio (x) = 0.17997 0.28464
# Poissons Ratio (y) = 0.23559 0.56509
# Poissons Ratio (z) = 0.20671 0.31350
#
# Static dielectric constant tensor:
#      x y z
#    x 1.780780 0.040710 0.038630 
#    y 0.040710 1.879020 -0.022010 
#    z 0.038630 -0.022010 1.816350 
# 
# From -- ./inp_files/157406.got.cif
#   From: 2010.05.17/outbox.cif.g08.bks.cpg/sg2_79_cif.got.tgz:157406.got - 2010.06.03 11:33:40.
