data_PCOD9061853
_publ_section_title
;
Structure prediction by ZEFSAII (Michael W. Deem and Ramdas Pophale) SiO2 
 PCOD9061853
Probable space group: P -1
;
_chemical_formula_sum "Si O2"
_cell_formula_units_Z 16
_cell_length_a 9.147806
_cell_length_b 12.023817
_cell_length_c 15.176418
_cell_angle_alpha 135.181440
_cell_angle_beta 135.903260
_cell_angle_gamma 38.535909
_cell_volume 680.463175
_symmetry_space_group_name_H-M "P -1"
_symmetry_group_IT_number 2
_symmetry_cell_setting 'triclinic'
loop_
_space_group_symop_operation_xyz
x,y,z
-x,-y,-z
loop_
_atom_site_type_symbol
_atom_site_label
_atom_site_fract_x
_atom_site_fract_y
_atom_site_fract_z
Si Si1 0.391199 0.739534 0.459933
Si Si2 0.643044 0.722131 0.728807
Si Si3 0.759687 0.585824 0.382121
Si Si4 0.093704 0.737855 0.872589
Si Si5 0.101276 0.921132 0.139971
Si Si6 0.265129 0.067478 0.871114
Si Si7 0.029485 0.337334 0.770797
Si Si8 0.612731 0.886552 0.356175
O O1 0.568682 0.645806 0.570169
O O2 0.532496 0.626630 0.369231
O O3 0.132973 0.754235 0.365698
O O4 0.361866 0.938715 0.547129
O O5 0.808253 0.798230 0.805325
O O6 0.825812 0.558904 0.786005
O O7 0.386340 0.893419 0.756539
O O8 0.788438 0.451855 0.239273
O O9 0.731639 0.769488 0.430716
O O10 0.000000 0.500000 0.500000
O O11 0.199058 0.743852 0.016502
O O12 0.091687 0.892645 0.896764
O O13 0.328315 0.942995 0.271068
O O14 0.961500 0.909388 0.156749
O O15 0.161792 0.259698 0.878933
O O16 0.500000 0.000000 0.000000
O O17 0.245281 0.252865 0.743025
#
# Coordination Sequence:
#
# PCOD9061853 Si02
#       8
#     2   2   2   2   2   2   2   2
#     4  12  25  47  72 107 151 192 248 299 374 440
#     4  12  24  50  74 109 151 192 244 306 369 441
#     4  12  24  42  70 107 148 188 242 305 360 439
#     4  11  23  46  72 105 141 187 241 297 365 429
#     4  11  25  47  76 103 141 196 245 299 370 429
#     4  12  27  48  76 106 150 196 245 303 370 441
#     4  12  27  47  74 110 149 197 243 305 375 437
#     4  12  24  47  74 103 148 198 243 305 364 437
#
# _framework density 23.513394999999999
#
# number of rings (size 3 to 8) (size 9 to 14) (size 15 to 20)
#    0.000    0.250    6.250    1.875    3.500    2.000 
#    0.000    0.000    0.000    0.000    0.000    0.000 
#    0.000    0.000    0.000    0.000    0.000    0.000 
#
# Total GULP energy -89575.751120 kJ/mol
# GULP energy per Si atom -5598.484445 kJ/mol
# Density = 2.345988 g / cm^3
# Si number density = 23.513395 Si / 1000 Ang^3
#
#
#
# Elastic Constant Matrix: (Units=GPa)
#
#
# Indices 1 2 3 4 5 6 
#
# 1 139.6809 35.8115 26.6553 -4.5552 -23.1954 2.7905
# 2 35.8115 109.9251 21.6357 -12.0698 -19.7882 20.1713
# 3 26.6553 21.6357 70.6017 4.8947 -6.2453 5.4246
# 4 -4.5552 -12.0698 4.8947 41.9907 -5.3206 -14.3940
# 5 -23.1954 -19.7882 -6.2453 -5.3206 38.4812 -0.5435
# 6 2.7905 20.1713 5.4246 -14.3940 -0.5435 37.8227
#
#
#
# Elastic Compliance Matrix: (Units=1/GPa)
#
#
# Indices 1 2 3 4 5 6 
#
# 1 0.008838 -0.001619 -0.002688 0.001818 0.004329 0.001351
# 2 -0.001619 0.012251 -0.002477 0.002580 0.005208 -0.005002
# 3 -0.002688 -0.002477 0.016303 -0.003784 -0.000803 -0.002271
# 4 0.001818 0.002580 -0.003784 0.029507 0.006034 0.010349
# 5 0.004329 0.005208 -0.000803 0.006034 0.031975 -0.000226
# 6 0.001351 -0.005002 -0.002271 0.010349 -0.000226 0.033268
#
#
# Mechanical properties :
#
#
# Convention : Reuss Voigt Hill
#
# Bulk Modulus (GPa) = 41.97215 54.26809 48.12012
# Shear Modulus (GPa) = 32.54125 39.39928 35.97027
#
# Velocity S-wave (km/s) = 3.72418 4.09786 3.91548
# Velocity P-wave (km/s) = 6.03173 6.74683 6.39928
#
# Compressibility (1/GPa) = 0.02382532
#
# Stress axis : x y z
#
# Youngs Moduli (GPa) = 113.14237 81.62774 61.33692
#
# Poissons Ratio (x) = 0.13219 0.16485
# Poissons Ratio (y) = 0.18322 0.15191
# Poissons Ratio (z) = 0.30408 0.20216
#
# Static dielectric constant tensor:
#      x y z
#    x 1.844760 -0.002200 -0.034730 
#    y -0.002200 1.945140 -0.008050 
#    z -0.034730 -0.008050 1.915440 
# 
# From -- ./inp_files/500888.got.cif
#   From: 2010.05.17/outbox.cif.g08.bks.cpg/sg2_251_cif.got.tgz:500888.got - 2010.06.03 11:33:40.
