data_PCOD9061647
_publ_section_title
;
Structure prediction by ZEFSAII (Michael W. Deem and Ramdas Pophale) SiO2 
 PCOD9061647
Probable space group: P -1
;
_chemical_formula_sum "Si O2"
_cell_formula_units_Z 16
_cell_length_a 11.240758
_cell_length_b 18.447532
_cell_length_c 9.666683
_cell_angle_alpha 128.943812
_cell_angle_beta 41.751286
_cell_angle_gamma 147.402865
_cell_volume 719.100190
_symmetry_space_group_name_H-M "P -1"
_symmetry_group_IT_number 2
_symmetry_cell_setting 'triclinic'
loop_
_space_group_symop_operation_xyz
x,y,z
-x,-y,-z
loop_
_atom_site_type_symbol
_atom_site_label
_atom_site_fract_x
_atom_site_fract_y
_atom_site_fract_z
Si Si1 0.712484 0.634962 0.305299
Si Si2 0.731472 0.317978 0.427441
Si Si3 0.066015 0.746275 0.377085
Si Si4 0.655011 0.657632 0.809183
Si Si5 0.559888 0.958478 0.033237
Si Si6 0.034126 0.244787 0.068036
Si Si7 0.182686 0.595484 0.239156
Si Si8 0.287110 0.147988 0.406069
O O1 0.450363 0.480587 0.324278
O O2 0.698158 0.735980 0.489230
O O3 0.895176 0.654387 0.281266
O O4 0.834985 0.684303 0.106586
O O5 0.870794 0.273732 0.284810
O O6 0.720015 0.367808 0.641510
O O7 0.454805 0.195795 0.455841
O O8 0.911641 0.438758 0.303536
O O9 0.329775 0.884558 0.251189
O O10 0.130753 0.679482 0.330460
O O11 0.909094 0.764449 0.622996
O O12 0.760141 0.694003 0.917520
O O13 0.404529 0.629684 0.996323
O O14 0.829149 0.087049 0.024447
O O15 0.581707 0.862195 0.841072
O O16 0.500000 0.000000 0.000000
O O17 0.000000 0.000000 0.500000
#
# Coordination Sequence:
#
# PCOD9061647 Si02
#       8
#     2   2   2   2   2   2   2   2
#     4  12  25  45  72 109 146 190 242 304 364 437
#     4  11  23  45  75 109 149 195 245 299 364 445
#     4  12  27  49  70 110 152 191 246 307 369 431
#     4  12  27  47  73 111 153 190 242 306 374 433
#     4  12  25  49  72 102 145 199 245 298 362 437
#     4  12  23  48  75 105 147 195 244 303 360 438
#     4  11  26  46  75 111 150 195 242 303 374 433
#     4  12  24  42  75 109 142 191 253 299 356 443
#
# _framework density 22.250028
#
# number of rings (size 3 to 8) (size 9 to 14) (size 15 to 20)
#    0.000    0.250    6.250    2.250    3.500    1.000 
#    0.000    0.625    0.000    0.000    0.000    0.000 
#    0.000    0.000    0.000    0.000    0.000    0.000 
#
# Total GULP energy -89507.184345 kJ/mol
# GULP energy per Si atom -5594.199022 kJ/mol
# Density = 2.219939 g / cm^3
# Si number density = 22.250028 Si / 1000 Ang^3
#
#
#
# Elastic Constant Matrix: (Units=GPa)
#
#
# Indices 1 2 3 4 5 6 
#
# 1 119.3466 56.9979 63.3236 -0.9230 5.8556 25.9133
# 2 56.9979 134.7466 72.8012 6.8612 3.1421 33.5613
# 3 63.3236 72.8012 185.1025 -8.6226 -1.7501 8.7541
# 4 -0.9230 6.8612 -8.6226 38.0615 -3.3247 -3.7796
# 5 5.8556 3.1421 -1.7501 -3.3247 37.2924 4.4298
# 6 25.9133 33.5613 8.7541 -3.7796 4.4298 33.1118
#
#
#
# Elastic Compliance Matrix: (Units=1/GPa)
#
#
# Indices 1 2 3 4 5 6 
#
# 1 0.012570 -0.001595 -0.003387 -0.001004 -0.001224 -0.007276
# 2 -0.001595 0.013794 -0.004532 -0.004760 -0.000116 -0.012063
# 3 -0.003387 -0.004532 0.008252 0.003214 0.000958 0.005301
# 4 -0.001004 -0.004760 0.003214 0.028809 0.002359 0.007734
# 5 -0.001224 -0.000116 0.000958 0.002359 0.027581 -0.002599
# 6 -0.007276 -0.012063 0.005301 0.007734 -0.002599 0.047950
#
#
# Mechanical properties :
#
#
# Convention : Reuss Voigt Hill
#
# Bulk Modulus (GPa) = 64.15467 91.71569 77.93518
# Shear Modulus (GPa) = 30.64101 38.09800 34.36950
#
# Velocity S-wave (km/s) = 3.71499 4.14244 3.93452
# Velocity P-wave (km/s) = 6.87733 8.01185 7.46617
#
# Compressibility (1/GPa) = 0.01558733
#
# Stress axis : x y z
#
# Youngs Moduli (GPa) = 79.55461 72.49454 121.18924
#
# Poissons Ratio (x) = 0.11565 0.41047
# Poissons Ratio (y) = 0.12692 0.54921
# Poissons Ratio (z) = 0.26945 0.32853
#
# Static dielectric constant tensor:
#      x y z
#    x 1.825170 -0.002380 -0.011050 
#    y -0.002380 1.901130 0.007490 
#    z -0.011050 0.007490 1.853050 
# 
# From -- ./inp_files/283197.got.cif
#   From: 2010.05.17/outbox.cif.g08.bks.cpg/sg2_142_cif.got.tgz:283197.got - 2010.06.03 11:33:40.
