data_PCOD9061451
_publ_section_title
;
Structure prediction by ZEFSAII (Michael W. Deem and Ramdas Pophale) SiO2 
 PCOD9061451
Probable space group: P -1
;
_chemical_formula_sum "Si O2"
_cell_formula_units_Z 13
_cell_length_a 6.112545
_cell_length_b 12.599074
_cell_length_c 14.547968
_cell_angle_alpha 147.003938
_cell_angle_beta 62.734569
_cell_angle_gamma 101.013942
_cell_volume 497.289425
_symmetry_space_group_name_H-M "P -1"
_symmetry_group_IT_number 2
_symmetry_cell_setting 'triclinic'
loop_
_space_group_symop_operation_xyz
x,y,z
-x,-y,-z
loop_
_atom_site_type_symbol
_atom_site_label
_atom_site_fract_x
_atom_site_fract_y
_atom_site_fract_z
Si Si1 0.290143 0.492336 0.610227
Si Si2 0.349082 0.843404 0.557216
Si Si3 0.601518 0.490568 0.835304
Si Si4 0.500000 0.000000 0.500000
Si Si5 0.072951 0.660121 0.165289
Si Si6 0.198727 0.153438 0.277172
Si Si7 0.754814 0.794353 0.911300
O O1 0.500000 0.500000 0.500000
O O2 0.459492 0.340059 0.547094
O O3 0.131318 0.373574 0.501344
O O4 0.052281 0.720293 0.845002
O O5 0.422230 0.726075 0.355272
O O6 0.432181 0.032100 0.652039
O O7 0.042704 0.912686 0.695858
O O8 0.855004 0.418962 0.801628
O O9 0.636431 0.622905 0.839358
O O10 0.347883 0.640161 0.050543
O O11 0.824958 0.880087 0.371225
O O12 0.000000 0.500000 0.000000
O O13 0.203858 0.184700 0.189754
O O14 0.505258 0.010144 0.143489
#
# Coordination Sequence:
#
# PCOD9061451 Si02
#       7
#     2   2   2   1   2   2   2
#     4  12  24  44  70 100 138 179 225 283 336 410
#     4  12  25  46  69 103 138 184 228 280 345 403
#     4  11  24  46  72  95 140 182 225 282 347 402
#     4  12  26  44  70 100 138 176 234 284 328 408
#     4  11  25  47  67 100 133 179 231 280 337 405
#     4  11  25  45  68 103 139 178 230 276 351 402
#     4  11  23  45  70  99 138 181 221 286 339 409
#
# _framework density 26.141719999999999
#
# number of rings (size 3 to 8) (size 9 to 14) (size 15 to 20)
#    0.000    0.615    4.615    3.231    0.000    2.462 
#    2.769    0.000    0.000    0.000    0.000    0.000 
#    0.000    0.000    0.000    0.000    0.000    0.000 
#
# Total GULP energy -72567.985948 kJ/mol
# GULP energy per Si atom -5582.152765 kJ/mol
# Density = 2.608222 g / cm^3
# Si number density = 26.141720 Si / 1000 Ang^3
#
#
#
# Elastic Constant Matrix: (Units=GPa)
#
#
# Indices 1 2 3 4 5 6 
#
# 1 69.9542 33.8898 48.8693 1.5809 -28.0448 -13.1534
# 2 33.8898 140.1726 45.7282 -13.9672 -40.7968 -9.3209
# 3 48.8693 45.7282 120.5146 1.3523 -47.9160 0.9004
# 4 1.5809 -13.9672 1.3523 40.0875 -7.5027 -14.8055
# 5 -28.0448 -40.7968 -47.9160 -7.5027 69.0984 3.3903
# 6 -13.1534 -9.3209 0.9004 -14.8055 3.3903 37.4370
#
#
#
# Elastic Compliance Matrix: (Units=1/GPa)
#
#
# Indices 1 2 3 4 5 6 
#
# 1 0.023201 -0.001310 -0.007767 0.002728 0.003122 0.008809
# 2 -0.001310 0.010263 -0.001492 0.006120 0.004957 0.004103
# 3 -0.007767 -0.001492 0.014486 -0.001216 0.006100 -0.004482
# 4 0.002728 0.006120 -0.001216 0.033944 0.006812 0.015319
# 5 0.003122 0.004957 0.006100 0.006812 0.023500 0.002750
# 6 0.008809 0.004103 -0.004482 0.015319 0.002750 0.036745
#
#
# Mechanical properties :
#
#
# Convention : Reuss Voigt Hill
#
# Bulk Modulus (GPa) = 37.29400 65.29067 51.29234
# Shear Modulus (GPa) = 29.03400 42.80153 35.91776
#
# Velocity S-wave (km/s) = 3.33624 4.05073 3.71072
# Velocity P-wave (km/s) = 5.39794 6.84893 6.16626
#
# Compressibility (1/GPa) = 0.02681396
#
# Stress axis : x y z
#
# Youngs Moduli (GPa) = 43.10106 97.44182 69.03437
#
# Poissons Ratio (x) = 0.12760 0.53616
# Poissons Ratio (y) = 0.05644 0.10297
# Poissons Ratio (z) = 0.33475 0.14535
#
# Static dielectric constant tensor:
#      x y z
#    x 1.971770 -0.265610 -0.123110 
#    y -0.265610 1.497070 -0.270550 
#    z -0.123110 -0.270550 1.960100 
# 
# From -- ./inp_files/26673.got.cif
#   From: 2010.05.17/outbox.cif.g08.bks.cpg/sg2_14_cif.got.tgz:26673.got - 2010.06.03 11:33:40.
