data_PCOD9061390
_publ_section_title
;
Structure prediction by ZEFSAII (Michael W. Deem and Ramdas Pophale) SiO2 
 PCOD9061390
Probable space group: P -1
;
_chemical_formula_sum "Si O2"
_cell_formula_units_Z 16
_cell_length_a 9.474343
_cell_length_b 8.844473
_cell_length_c 12.262326
_cell_angle_alpha 101.943473
_cell_angle_beta 129.754738
_cell_angle_gamma 77.745076
_cell_volume 768.476817
_symmetry_space_group_name_H-M "P -1"
_symmetry_group_IT_number 2
_symmetry_cell_setting 'triclinic'
loop_
_space_group_symop_operation_xyz
x,y,z
-x,-y,-z
loop_
_atom_site_type_symbol
_atom_site_label
_atom_site_fract_x
_atom_site_fract_y
_atom_site_fract_z
Si Si1 0.486481 0.404353 0.682053
Si Si2 0.123141 0.481343 0.381839
Si Si3 0.656480 0.070970 0.656139
Si Si4 0.802616 0.738065 0.333871
Si Si5 0.284336 0.040575 0.878909
Si Si6 0.832593 0.559230 0.848778
Si Si7 0.958855 0.863187 0.643006
Si Si8 0.816521 0.917996 0.915629
O O1 0.324994 0.480384 0.534927
O O2 0.601567 0.254384 0.661236
O O3 0.372662 0.339495 0.716108
O O4 0.638871 0.519862 0.797499
O O5 0.137374 0.515105 0.266530
O O6 0.066757 0.306811 0.346691
O O7 0.971431 0.604428 0.379866
O O8 0.500000 0.000000 0.500000
O O9 0.842363 0.998475 0.676209
O O10 0.666099 0.011731 0.777131
O O11 0.754400 0.826313 0.210945
O O12 0.870853 0.853280 0.477525
O O13 0.215192 0.085195 0.972338
O O14 0.169151 0.901699 0.759027
O O15 0.500000 0.000000 0.000000
O O16 0.833129 0.741848 0.858898
O O17 0.000000 0.500000 0.000000
O O18 0.000000 0.000000 0.000000
#
# Coordination Sequence:
#
# PCOD9061390 Si02
#       8
#     2   2   2   2   2   2   2   2
#     4  11  24  43  68 100 133 180 227 282 338 402
#     4  11  23  45  69  99 136 173 230 282 343 399
#     4  12  21  41  74 100 132 174 236 281 336 394
#     4  11  25  46  69 100 138 180 223 282 344 408
#     4  12  27  45  67 102 138 181 229 275 343 414
#     4  12  25  42  65 102 135 180 225 280 338 402
#     4  11  23  45  70 101 133 181 226 288 335 398
#     4  12  24  46  68  97 137 180 225 280 336 400
#
# _framework density 20.820405000000001
#
# number of rings (size 3 to 8) (size 9 to 14) (size 15 to 20)
#    0.000    0.500    5.000    4.500    1.750    3.000 
#    0.000    1.875    0.000    0.000    0.000    0.000 
#    0.000    0.000    0.000    0.000    0.000    0.000 
#
# Total GULP energy -89450.997255 kJ/mol
# GULP energy per Si atom -5590.687328 kJ/mol
# Density = 2.077302 g / cm^3
# Si number density = 20.820405 Si / 1000 Ang^3
#
#
#
# Elastic Constant Matrix: (Units=GPa)
#
#
# Indices 1 2 3 4 5 6 
#
# 1 124.5995 46.3050 71.8282 -1.8391 -0.9851 1.6034
# 2 46.3050 85.1430 46.1613 -8.5256 16.0427 -10.6503
# 3 71.8282 46.1613 155.2454 -24.1072 5.2022 22.2899
# 4 -1.8391 -8.5256 -24.1072 36.0248 6.9233 4.7100
# 5 -0.9851 16.0427 5.2022 6.9233 55.5408 4.0646
# 6 1.6034 -10.6503 22.2899 4.7100 4.0646 34.7185
#
#
#
# Elastic Compliance Matrix: (Units=1/GPa)
#
#
# Indices 1 2 3 4 5 6 
#
# 1 0.013039 -0.004677 -0.005824 -0.005114 0.002612 0.002090
# 2 -0.004677 0.019200 -0.004532 0.001186 -0.006052 0.009563
# 3 -0.005824 -0.004532 0.013499 0.009177 -0.000399 -0.010986
# 4 -0.005114 0.001186 0.009177 0.036154 -0.005097 -0.009600
# 5 0.002612 -0.006052 -0.000399 -0.005097 0.020725 -0.003456
# 6 0.002090 0.009563 -0.010986 -0.009600 -0.003456 0.040400
#
#
# Mechanical properties :
#
#
# Convention : Reuss Voigt Hill
#
# Bulk Modulus (GPa) = 63.79797 77.06409 70.43103
# Shear Modulus (GPa) = 28.04140 38.63637 33.33888
#
# Velocity S-wave (km/s) = 3.67389 4.31245 4.00592
# Velocity P-wave (km/s) = 6.97891 7.86705 7.43625
#
# Compressibility (1/GPa) = 0.01567448
#
# Stress axis : x y z
#
# Youngs Moduli (GPa) = 76.69013 52.08235 74.07763
#
# Poissons Ratio (x) = 0.24357 0.43145
# Poissons Ratio (y) = 0.35865 0.33568
# Poissons Ratio (z) = 0.44667 0.23601
#
# Static dielectric constant tensor:
#      x y z
#    x 1.820690 -0.049340 0.001500 
#    y -0.049340 1.809790 -0.032810 
#    z 0.001500 -0.032810 1.769090 
# 
# From -- ./inp_files/382459.got.cif
#   From: 2010.05.17/outbox.cif.g08.bks.cpg/sg2_192_cif.got.tgz:382459.got - 2010.06.03 11:33:40.
