data_PCOD9061265
_publ_section_title
;
Structure prediction by ZEFSAII (Michael W. Deem and Ramdas Pophale) SiO2 
 PCOD9061265
Probable space group: P -1
;
_chemical_formula_sum "Si O2"
_cell_formula_units_Z 10
_cell_length_a 16.832882
_cell_length_b 8.717142
_cell_length_c 10.251693
_cell_angle_alpha 43.395111
_cell_angle_beta 33.496288
_cell_angle_gamma 25.901070
_cell_volume 360.910342
_symmetry_space_group_name_H-M "P -1"
_symmetry_group_IT_number 2
_symmetry_cell_setting 'triclinic'
loop_
_space_group_symop_operation_xyz
x,y,z
-x,-y,-z
loop_
_atom_site_type_symbol
_atom_site_label
_atom_site_fract_x
_atom_site_fract_y
_atom_site_fract_z
Si Si1 0.005315 0.756968 0.811137
Si Si2 0.669590 0.291113 0.518196
Si Si3 0.372242 0.454841 0.041854
Si Si4 0.998633 0.748755 0.214906
Si Si5 0.698376 0.734579 0.499827
O O1 0.216594 0.604741 0.695020
O O2 0.097545 0.660252 0.596407
O O3 0.000000 0.500000 0.000000
O O4 0.791156 0.155570 0.910943
O O5 0.500000 0.500000 0.500000
O O6 0.566502 0.345110 0.763111
O O7 0.874342 0.888919 0.439559
O O8 0.580367 0.759527 0.768994
O O9 0.258343 0.431013 0.101726
O O10 0.840974 0.782853 0.320250
O O11 0.000000 0.000000 0.000000
O O12 0.500000 0.000000 0.500000
#
# Coordination Sequence:
#
# PCOD9061265 Si02
#       5
#     2   2   2   2   2
#     4  11  27  47  75 111 155 198 251 320 389 448
#     4  11  23  44  77 108 154 200 253 312 379 461
#     4  11  26  49  79 110 155 206 256 305 387 467
#     4  11  23  48  77 109 155 202 252 315 383 458
#     4  12  27  50  77 114 155 201 258 321 378 447
#
# _framework density 27.707711
#
# number of rings (size 3 to 8) (size 9 to 14) (size 15 to 20)
#    0.000    0.800    2.000    4.800    2.800    1.600 
#    7.200    0.000    0.000    0.000    0.000    0.000 
#    0.000    0.000    0.000    0.000    0.000    0.000 
#
# Total GULP energy -55956.280172 kJ/mol
# GULP energy per Si atom -5595.628017 kJ/mol
# Density = 2.764465 g / cm^3
# Si number density = 27.707711 Si / 1000 Ang^3
#
#
#
# Elastic Constant Matrix: (Units=GPa)
#
#
# Indices 1 2 3 4 5 6 
#
# 1 176.0348 45.2336 94.5262 -24.3575 -3.4060 6.0365
# 2 45.2336 123.2105 71.0812 -7.9802 -9.3206 20.5596
# 3 94.5262 71.0812 211.7360 -25.3461 -6.6622 13.1800
# 4 -24.3575 -7.9802 -25.3461 61.0492 23.9042 5.2388
# 5 -3.4060 -9.3206 -6.6622 23.9042 75.4007 -6.5450
# 6 6.0365 20.5596 13.1800 5.2388 -6.5450 48.7161
#
#
#
# Elastic Compliance Matrix: (Units=1/GPa)
#
#
# Indices 1 2 3 4 5 6 
#
# 1 0.007780 -0.001113 -0.002876 0.002037 -0.000688 -0.000028
# 2 -0.001113 0.010846 -0.002931 -0.000259 0.000809 -0.003510
# 3 -0.002876 -0.002931 0.007217 0.001690 -0.000443 -0.000600
# 4 0.002037 -0.000259 0.001690 0.020810 -0.006713 -0.003740
# 5 -0.000688 0.000809 -0.000443 -0.006713 0.015654 0.002689
# 6 -0.000028 -0.003510 -0.000600 -0.003740 0.002689 0.022938
#
#
# Mechanical properties :
#
#
# Convention : Reuss Voigt Hill
#
# Bulk Modulus (GPa) = 83.31335 103.62924 93.47130
# Shear Modulus (GPa) = 48.50342 57.04257 52.77299
#
# Velocity S-wave (km/s) = 4.18848 4.54224 4.36894
# Velocity P-wave (km/s) = 7.31609 8.06172 7.69794
#
# Compressibility (1/GPa) = 0.01200288
#
# Stress axis : x y z
#
# Youngs Moduli (GPa) = 128.52808 92.20070 138.56806
#
# Poissons Ratio (x) = 0.10259 0.39853
# Poissons Ratio (y) = 0.14301 0.40619
# Poissons Ratio (z) = 0.36965 0.27027
#
# Static dielectric constant tensor:
#      x y z
#    x 2.199250 0.007720 -0.022460 
#    y 0.007720 2.321040 0.046260 
#    z -0.022460 0.046260 2.208860 
# 
# From -- ./inp_files/303033.got.cif
#   From: 2010.05.17/outbox.cif.g08.bks.cpg/sg2_152_cif.got.tgz:303033.got - 2010.06.03 11:33:40.
