data_PCOD9061237
_publ_section_title
;
Structure prediction by ZEFSAII (Michael W. Deem and Ramdas Pophale) SiO2 
 PCOD9061237
Probable space group: P -1
;
_chemical_formula_sum "Si O2"
_cell_formula_units_Z 12
_cell_length_a 11.532398
_cell_length_b 4.993448
_cell_length_c 9.158250
_cell_angle_alpha 81.379057
_cell_angle_beta 108.671389
_cell_angle_gamma 94.504468
_cell_volume 493.726632
_symmetry_space_group_name_H-M "P -1"
_symmetry_group_IT_number 2
_symmetry_cell_setting 'triclinic'
loop_
_space_group_symop_operation_xyz
x,y,z
-x,-y,-z
loop_
_atom_site_type_symbol
_atom_site_label
_atom_site_fract_x
_atom_site_fract_y
_atom_site_fract_z
Si Si1 0.049792 0.225257 0.112108
Si Si2 0.741288 0.135501 0.693270
Si Si3 0.535498 0.226257 0.113747
Si Si4 0.695056 0.945975 0.375971
Si Si5 0.528337 0.457972 0.683870
Si Si6 0.081943 0.391081 0.414352
O O1 0.011640 0.236563 0.266458
O O2 0.190249 0.125227 0.195715
O O3 0.000000 0.500000 0.000000
O O4 0.000000 0.000000 0.000000
O O5 0.652012 0.290453 0.752895
O O6 0.842061 0.362437 0.656557
O O7 0.672433 0.048189 0.523339
O O8 0.467434 0.271622 0.238814
O O9 0.673933 0.179352 0.229671
O O10 0.500000 0.500000 0.000000
O O11 0.500000 0.000000 0.000000
O O12 0.590444 0.726304 0.305425
O O13 0.823116 0.807023 0.455559
O O14 0.500000 0.500000 0.500000
O O15 0.000000 0.500000 0.500000
#
# Coordination Sequence:
#
# PCOD9061237 Si02
#       6
#     2   2   2   2   2   2
#     4  11  24  49  73 105 148 185 246 306 363 425
#     4  11  24  44  79 110 143 191 251 295 361 439
#     4  12  26  46  68 108 155 189 235 297 368 430
#     4  11  23  44  76 104 150 186 248 289 366 433
#     4  12  23  44  79 109 145 192 241 297 361 447
#     4  11  25  48  78 104 142 196 249 299 359 435
#
# _framework density 24.304950000000002
#
# number of rings (size 3 to 8) (size 9 to 14) (size 15 to 20)
#    0.000    0.667    6.667    0.500    0.000    2.667 
#    6.000    0.000    0.000    0.000    0.000    0.000 
#    0.000    0.000    0.000    0.000    0.000    0.000 
#
# Total GULP energy -67004.730550 kJ/mol
# GULP energy per Si atom -5583.727546 kJ/mol
# Density = 2.424963 g / cm^3
# Si number density = 24.304950 Si / 1000 Ang^3
#
#
#
# Elastic Constant Matrix: (Units=GPa)
#
#
# Indices 1 2 3 4 5 6 
#
# 1 71.8803 50.0278 53.5293 5.6507 -0.1952 -36.4462
# 2 50.0278 202.0472 94.5573 9.9520 10.4374 -43.6585
# 3 53.5293 94.5573 216.8826 0.1458 24.8127 -36.9020
# 4 5.6507 9.9520 0.1458 78.3557 -20.3200 5.4251
# 5 -0.1952 10.4374 24.8127 -20.3200 25.3269 -1.1326
# 6 -36.4462 -43.6585 -36.9020 5.4251 -1.1326 58.1618
#
#
#
# Elastic Compliance Matrix: (Units=1/GPa)
#
#
# Indices 1 2 3 4 5 6 
#
# 1 0.023771 -0.001905 -0.003550 -0.001225 0.003973 0.011405
# 2 -0.001905 0.007156 -0.001863 -0.001568 -0.002258 0.003098
# 3 -0.003550 -0.001863 0.007359 -0.001589 -0.007697 0.001044
# 4 -0.001225 -0.001568 -0.001589 0.017512 0.016053 -0.004274
# 5 0.003973 -0.002258 -0.007697 0.016053 0.060668 -0.004405
# 6 0.011405 0.003098 0.001044 -0.004274 -0.004405 0.027641
#
#
# Mechanical properties :
#
#
# Convention : Reuss Voigt Hill
#
# Bulk Modulus (GPa) = 42.28264 98.55989 70.42126
# Shear Modulus (GPa) = 30.00710 51.88192 40.94451
#
# Velocity S-wave (km/s) = 3.51751 4.62521 4.10886
# Velocity P-wave (km/s) = 5.82509 8.31642 7.17964
#
# Compressibility (1/GPa) = 0.02365037
#
# Stress axis : x y z
#
# Youngs Moduli (GPa) = 42.06719 139.73448 135.89516
#
# Poissons Ratio (x) = 0.26621 0.48237
# Poissons Ratio (y) = 0.08014 0.25322
# Poissons Ratio (z) = 0.14932 0.26038
#
# Static dielectric constant tensor:
#      x y z
#    x 2.020430 0.070130 -0.030050 
#    y 0.070130 2.109810 -0.069760 
#    z -0.030050 -0.069760 1.983470 
# 
# From -- ./inp_files/229162.got.cif
#   From: 2010.05.17/outbox.cif.g08.bks.cpg/sg2_115_cif.got.tgz:229162.got - 2010.06.03 11:33:40.
