data_PCOD9061383
_publ_section_title
;
Structure prediction by ZEFSAII (Michael W. Deem and Ramdas Pophale) SiO2 
 PCOD9061383
Probable space group: P -1
;
_chemical_formula_sum "Si O2"
_cell_formula_units_Z 16
_cell_length_a 17.971303
_cell_length_b 14.439874
_cell_length_c 9.144286
_cell_angle_alpha 41.571072
_cell_angle_beta 31.074469
_cell_angle_gamma 35.657408
_cell_volume 703.156718
_symmetry_space_group_name_H-M "P -1"
_symmetry_group_IT_number 2
_symmetry_cell_setting 'triclinic'
loop_
_space_group_symop_operation_xyz
x,y,z
-x,-y,-z
loop_
_atom_site_type_symbol
_atom_site_label
_atom_site_fract_x
_atom_site_fract_y
_atom_site_fract_z
Si Si1 0.940470 0.829620 0.058185
Si Si2 0.521332 0.709082 0.171337
Si Si3 0.017469 0.268589 0.216168
Si Si4 0.399435 0.156239 0.382280
Si Si5 0.521401 0.654981 0.769369
Si Si6 0.255789 0.366851 0.839026
Si Si7 0.278073 0.650829 0.832557
Si Si8 0.163587 0.828842 0.122990
O O1 0.776933 0.825109 0.385523
O O2 0.936542 0.841908 0.874060
O O3 0.112263 0.677990 0.999066
O O4 0.942799 0.981529 0.945924
O O5 0.665699 0.681049 0.076418
O O6 0.359248 0.738540 0.499367
O O7 0.585404 0.538490 0.180732
O O8 0.501611 0.840390 0.931128
O O9 0.889724 0.448180 0.157682
O O10 0.924110 0.229091 0.545974
O O11 0.175907 0.265959 0.026192
O O12 0.364042 0.314043 0.349570
O O13 0.500000 0.000000 0.500000
O O14 0.591864 0.656965 0.490388
O O15 0.500000 0.500000 0.000000
O O16 0.336041 0.800959 0.934867
O O17 0.221613 0.723809 0.002346
#
# Coordination Sequence:
#
# PCOD9061383 Si02
#       8
#     2   2   2   2   2   2   2   2
#     4  12  26  47  68 104 152 188 244 298 366 437
#     4  11  26  46  78 102 145 191 243 307 360 435
#     4  11  25  42  71 106 145 185 239 301 362 430
#     4  12  28  48  72 109 147 192 240 304 372 433
#     4  12  23  44  75 102 142 189 250 295 356 433
#     4  11  23  45  69 108 138 184 243 308 358 421
#     4  11  26  47  71 113 141 191 252 296 363 432
#     4  12  25  43  72 100 147 197 234 295 366 433
#
# _framework density 22.754529000000002
#
# number of rings (size 3 to 8) (size 9 to 14) (size 15 to 20)
#    0.000    0.500    6.250    1.500    5.250    1.500 
#    0.000    1.250    0.000    0.000    0.000    0.000 
#    0.000    0.000    0.000    0.000    0.000    0.000 
#
# Total GULP energy -89494.825306 kJ/mol
# GULP energy per Si atom -5593.426582 kJ/mol
# Density = 2.270274 g / cm^3
# Si number density = 22.754529 Si / 1000 Ang^3
#
#
#
# Elastic Constant Matrix: (Units=GPa)
#
#
# Indices 1 2 3 4 5 6 
#
# 1 75.9524 8.0096 65.2676 -17.6876 -1.8266 21.0679
# 2 8.0096 51.9228 24.8301 -1.7944 0.7668 9.3079
# 3 65.2676 24.8301 140.7249 3.5589 15.5699 -0.7619
# 4 -17.6876 -1.7944 3.5589 26.0012 -2.5167 3.0711
# 5 -1.8266 0.7668 15.5699 -2.5167 40.4876 9.4203
# 6 21.0679 9.3079 -0.7619 3.0711 9.4203 42.9777
#
#
#
# Elastic Compliance Matrix: (Units=1/GPa)
#
#
# Indices 1 2 3 4 5 6 
#
# 1 0.150871 0.043414 -0.090046 0.138370 0.075112 -0.111308
# 2 0.043414 0.034948 -0.030292 0.042919 0.024410 -0.037805
# 3 -0.090046 -0.030292 0.062099 -0.084636 -0.048567 0.068496
# 4 0.138370 0.042919 -0.084636 0.166802 0.073143 -0.106577
# 5 0.075112 0.024410 -0.048567 0.073143 0.065398 -0.062529
# 6 -0.111308 -0.037805 0.068496 -0.106577 -0.062529 0.108555
#
#
# Mechanical properties :
#
#
# Convention : Reuss Voigt Hill
#
# Bulk Modulus (GPa) = 10.63047 51.64605 31.13826
# Shear Modulus (GPa) = 6.46097 33.25948 19.86023
#
# Velocity S-wave (km/s) = 1.68689 3.82732 2.95753
# Velocity P-wave (km/s) = 2.91137 6.50211 5.03754
#
# Compressibility (1/GPa) = 0.09406924
#
# Stress axis : x y z
#
# Youngs Moduli (GPa) = 6.62818 28.61366 16.10344
#
# Poissons Ratio (x) = -1.24223 1.45005
# Poissons Ratio (y) = -0.28775 0.48781
# Poissons Ratio (z) = 0.59684 0.86678
#
# Static dielectric constant tensor:
#      x y z
#    x 1.876300 -0.007230 -0.004960 
#    y -0.007230 1.914220 -0.035990 
#    z -0.004960 -0.035990 1.817560 
# 
# From -- ./inp_files/335602.got.cif
#   From: 2010.05.17/outbox.cif.g08.bks.cpg/sg2_168_cif.got.tgz:335602.got - 2010.06.03 11:33:40.
