data_PCOD9061375
_publ_section_title
;
Structure prediction by ZEFSAII (Michael W. Deem and Ramdas Pophale) SiO2 
 PCOD9061375
Probable space group: P -1
;
_chemical_formula_sum "Si O2"
_cell_formula_units_Z 16
_cell_length_a 9.141864
_cell_length_b 16.957543
_cell_length_c 11.229816
_cell_angle_alpha 32.021534
_cell_angle_beta 62.669021
_cell_angle_gamma 54.983710
_cell_volume 754.491984
_symmetry_space_group_name_H-M "P -1"
_symmetry_group_IT_number 2
_symmetry_cell_setting 'triclinic'
loop_
_space_group_symop_operation_xyz
x,y,z
-x,-y,-z
loop_
_atom_site_type_symbol
_atom_site_label
_atom_site_fract_x
_atom_site_fract_y
_atom_site_fract_z
Si Si1 0.163333 0.837944 0.099933
Si Si2 0.249125 0.972145 0.669291
Si Si3 0.450336 0.209649 0.871586
Si Si4 0.892877 0.496315 0.923533
Si Si5 0.915263 0.479695 0.427427
Si Si6 0.432899 0.198802 0.393106
Si Si7 0.074897 0.844799 0.586349
Si Si8 0.416932 0.886273 0.319412
O O1 0.364130 0.801502 0.122192
O O2 0.110794 0.688105 0.338353
O O3 0.180281 0.869444 0.913579
O O4 0.000000 0.000000 0.000000
O O5 0.371707 0.863550 0.658218
O O6 0.367012 0.052872 0.589624
O O7 0.085368 0.124046 0.485440
O O8 0.279535 0.377936 0.710480
O O9 0.506931 0.157457 0.782688
O O10 0.388056 0.071094 0.123275
O O11 0.700408 0.641050 0.823446
O O12 0.972881 0.521971 0.733226
O O13 0.880774 0.322292 0.149787
O O14 0.000000 0.500000 0.000000
O O15 0.000000 0.500000 0.500000
O O16 0.444830 0.225694 0.493163
O O17 0.239139 0.854699 0.440802
O O18 0.000000 0.000000 0.500000
#
# Coordination Sequence:
#
# PCOD9061375 Si02
#       8
#     2   2   2   2   2   2   2   2
#     4  12  27  47  77 104 145 191 243 289 362 437
#     4  11  24  42  73 102 140 186 239 287 355 427
#     4  11  26  46  72 102 145 191 236 294 358 432
#     4  12  28  46  75 104 147 187 240 295 356 425
#     4  12  30  48  73 110 149 190 242 302 361 424
#     4  11  23  45  69 104 140 187 233 296 353 421
#     4  12  25  45  71 107 142 186 238 295 360 426
#     4  11  24  43  74 102 144 182 240 291 358 420
#
# _framework density 21.206323999999999
#
# number of rings (size 3 to 8) (size 9 to 14) (size 15 to 20)
#    0.000    0.500    3.750    3.375   10.500    1.500 
#    0.000    0.000    0.000    0.000    0.000    0.000 
#    0.000    0.000    0.000    0.000    0.000    0.000 
#
# Total GULP energy -89387.492595 kJ/mol
# GULP energy per Si atom -5586.718287 kJ/mol
# Density = 2.115806 g / cm^3
# Si number density = 21.206324 Si / 1000 Ang^3
#
#
#
# Elastic Constant Matrix: (Units=GPa)
#
#
# Indices 1 2 3 4 5 6 
#
# 1 85.1663 22.6341 43.5186 -2.7986 7.3590 -11.2561
# 2 22.6341 51.7765 50.7979 4.3634 -11.6296 -11.0166
# 3 43.5186 50.7979 170.6381 -6.5105 -10.3659 -20.0005
# 4 -2.7986 4.3634 -6.5105 46.9433 -2.8833 5.7543
# 5 7.3590 -11.6296 -10.3659 -2.8833 43.1255 2.8128
# 6 -11.2561 -11.0166 -20.0005 5.7543 2.8128 32.9087
#
#
#
# Elastic Compliance Matrix: (Units=1/GPa)
#
#
# Indices 1 2 3 4 5 6 
#
# 1 0.014937 -0.004744 -0.002376 0.000431 -0.004526 0.002389
# 2 -0.004744 0.031545 -0.007384 -0.004379 0.006947 0.004622
# 3 -0.002376 -0.007384 0.008975 0.001598 0.000558 0.001843
# 4 0.000431 -0.004379 0.001598 0.022549 0.000922 -0.004369
# 5 -0.004526 0.006947 0.000558 0.000922 0.026113 -0.001277
# 6 0.002389 0.004622 0.001843 -0.004369 -0.001277 0.034744
#
#
# Mechanical properties :
#
#
# Convention : Reuss Voigt Hill
#
# Bulk Modulus (GPa) = 37.80699 60.16468 48.98583
# Shear Modulus (GPa) = 28.29837 37.30418 32.80127
#
# Velocity S-wave (km/s) = 3.65695 4.19872 3.93716
# Velocity P-wave (km/s) = 5.97477 7.20683 6.61953
#
# Compressibility (1/GPa) = 0.02645014
#
# Stress axis : x y z
#
# Youngs Moduli (GPa) = 66.94577 31.70081 111.41464
#
# Poissons Ratio (x) = 0.15038 0.26472
# Poissons Ratio (y) = 0.31756 0.82272
# Poissons Ratio (z) = 0.15906 0.23409
#
# Static dielectric constant tensor:
#      x y z
#    x 1.951670 -0.024740 0.063550 
#    y -0.024740 1.773890 -0.008780 
#    z 0.063550 -0.008780 1.763980 
# 
# From -- ./inp_files/217543.got.cif
#   From: 2010.05.17/outbox.cif.g08.bks.cpg/sg2_109_cif.got.tgz:217543.got - 2010.06.03 11:33:40.
