data_PCOD9061541
_publ_section_title
;
Structure prediction by ZEFSAII (Michael W. Deem and Ramdas Pophale) SiO2 
 PCOD9061541
Probable space group: P -1
;
_chemical_formula_sum "Si O2"
_cell_formula_units_Z 16
_cell_length_a 22.321235
_cell_length_b 19.026480
_cell_length_c 12.952561
_cell_angle_alpha 153.597408
_cell_angle_beta 143.180353
_cell_angle_gamma 18.295490
_cell_volume 717.162452
_symmetry_space_group_name_H-M "P -1"
_symmetry_group_IT_number 2
_symmetry_cell_setting 'triclinic'
loop_
_space_group_symop_operation_xyz
x,y,z
-x,-y,-z
loop_
_atom_site_type_symbol
_atom_site_label
_atom_site_fract_x
_atom_site_fract_y
_atom_site_fract_z
Si Si1 0.062681 0.755235 0.820415
Si Si2 0.473878 0.551260 0.655892
Si Si3 0.144887 0.441619 0.083356
Si Si4 0.967140 0.746897 0.025309
Si Si5 0.536010 0.874671 0.561877
Si Si6 0.756045 0.427158 0.944276
Si Si7 0.568893 0.713983 0.624765
Si Si8 0.841999 0.761157 0.535985
O O1 0.238850 0.421328 0.561327
O O2 0.866115 0.913819 0.760804
O O3 0.161328 0.655152 0.935641
O O4 0.000000 0.000000 0.000000
O O5 0.500000 0.500000 0.500000
O O6 0.668887 0.374346 0.736407
O O7 0.430992 0.450708 0.529089
O O8 0.272773 0.933664 0.899787
O O9 0.228956 0.460240 0.300551
O O10 0.022029 0.681082 0.133512
O O11 0.000000 0.500000 0.000000
O O12 0.358703 0.080499 0.858928
O O13 0.055605 0.783229 0.144254
O O14 0.081561 0.443243 0.727382
O O15 0.547649 0.756640 0.527969
O O16 0.386171 0.983363 0.422085
O O17 0.421537 0.200872 0.842758
O O18 0.000000 0.500000 0.500000
#
# Coordination Sequence:
#
# PCOD9061541 Si02
#       8
#     2   2   2   2   2   2   2   2
#     4  12  28  43  69 106 137 175 228 281 344 410
#     4  12  28  44  69 102 139 180 227 288 344 393
#     4  11  24  43  70  96 135 180 226 274 334 404
#     4  11  24  45  71  97 136 181 229 279 336 416
#     4  11  25  46  73  97 140 179 226 282 336 417
#     4  11  25  47  70  99 136 183 227 276 344 407
#     4  11  26  44  66 103 135 173 228 280 336 396
#     4  11  23  45  73 100 132 183 230 273 344 411
#
# _framework density 22.310147000000001
#
# number of rings (size 3 to 8) (size 9 to 14) (size 15 to 20)
#    0.000    0.750    5.000    2.625   10.500    3.500 
#    0.000    0.000    0.000    0.000    0.000    0.000 
#    0.000    0.000    0.000    0.000    0.000    0.000 
#
# Total GULP energy -89426.788663 kJ/mol
# GULP energy per Si atom -5589.174291 kJ/mol
# Density = 2.225937 g / cm^3
# Si number density = 22.310147 Si / 1000 Ang^3
#
#
#
# Elastic Constant Matrix: (Units=GPa)
#
#
# Indices 1 2 3 4 5 6 
#
# 1 122.1548 34.7883 7.8984 -15.6045 15.8917 2.0234
# 2 34.7883 93.8142 7.2359 -24.6735 7.6079 -12.7635
# 3 7.8984 7.2359 17.2992 -10.8092 13.2080 -2.7017
# 4 -15.6045 -24.6735 -10.8092 34.2071 -9.8953 8.8691
# 5 15.8917 7.6079 13.2080 -9.8953 34.8985 -5.0765
# 6 2.0234 -12.7635 -2.7017 8.8691 -5.0765 48.7038
#
#
#
# Elastic Compliance Matrix: (Units=1/GPa)
#
#
# Indices 1 2 3 4 5 6 
#
# 1 0.009799 -0.003167 0.000511 0.001761 -0.003745 -0.001920
# 2 -0.003167 0.014337 0.000565 0.008713 0.000927 0.002430
# 3 0.000511 0.000565 0.093576 0.022064 -0.029778 -0.001804
# 4 0.001761 0.008713 0.022064 0.044772 0.000971 -0.004618
# 5 -0.003745 0.000927 -0.029778 0.000971 0.042134 0.002962
# 6 -0.001920 0.002430 -0.001804 -0.004618 0.002962 0.022298
#
#
# Mechanical properties :
#
#
# Convention : Reuss Voigt Hill
#
# Bulk Modulus (GPa) = 8.80822 37.01261 22.91041
# Shear Modulus (GPa) = 18.59124 35.78493 27.18809
#
# Velocity S-wave (km/s) = 2.88984 4.00931 3.49469
# Velocity P-wave (km/s) = 3.88478 6.16918 5.15511
#
# Compressibility (1/GPa) = 0.11353037
#
# Stress axis : x y z
#
# Youngs Moduli (GPa) = 102.04728 69.74757 10.68648
#
# Poissons Ratio (x) = 0.22092 -0.00546
# Poissons Ratio (y) = 0.32323 -0.00604
# Poissons Ratio (z) = -0.05212 -0.03943
#
# Static dielectric constant tensor:
#      x y z
#    x 1.813100 0.003070 0.060570 
#    y 0.003070 1.818070 -0.026220 
#    z 0.060570 -0.026220 1.803820 
# 
# From -- ./inp_files/282775.got.cif
#   From: 2010.05.17/outbox.cif.g08.bks.cpg/sg2_142_cif.got.tgz:282775.got - 2010.06.03 11:33:40.
