data_PCOD9061133
_publ_section_title
;
Structure prediction by ZEFSAII (Michael W. Deem and Ramdas Pophale) SiO2 
 PCOD9061133
Probable space group: P -1
;
_chemical_formula_sum "Si O2"
_cell_formula_units_Z 16
_cell_length_a 5.416510
_cell_length_b 18.738158
_cell_length_c 22.470394
_cell_angle_alpha 159.422181
_cell_angle_beta 71.295972
_cell_angle_gamma 109.071753
_cell_volume 756.848888
_symmetry_space_group_name_H-M "P -1"
_symmetry_group_IT_number 2
_symmetry_cell_setting 'triclinic'
loop_
_space_group_symop_operation_xyz
x,y,z
-x,-y,-z
loop_
_atom_site_type_symbol
_atom_site_label
_atom_site_fract_x
_atom_site_fract_y
_atom_site_fract_z
Si Si1 0.036045 0.562170 0.773878
Si Si2 0.280586 0.424152 0.410656
Si Si3 0.046238 0.331292 0.702881
Si Si4 0.371712 0.006805 0.352262
Si Si5 0.594929 0.400191 0.590882
Si Si6 0.806899 0.012092 0.966442
Si Si7 0.773789 0.448089 0.026523
Si Si8 0.552353 0.178145 0.682806
O O1 0.331656 0.496655 0.708429
O O2 0.908804 0.468365 0.771462
O O3 0.852868 0.459092 0.655691
O O4 0.084647 0.794190 0.929458
O O5 0.500000 0.500000 0.500000
O O6 0.373486 0.509445 0.406263
O O7 0.000000 0.500000 0.500000
O O8 0.210796 0.184336 0.226889
O O9 0.859959 0.227885 0.687674
O O10 0.177777 0.150202 0.515605
O O11 0.207797 0.491922 0.858136
O O12 0.527540 0.159212 0.414153
O O13 0.541119 0.922143 0.326470
O O14 0.266029 0.796890 0.166194
O O15 0.500000 0.000000 0.000000
O O16 0.000000 0.000000 0.000000
O O17 0.561571 0.604124 0.144975
O O18 0.000000 0.500000 0.000000
O O19 0.500000 0.000000 0.500000
#
# Coordination Sequence:
#
# PCOD9061133 Si02
#       8
#     2   2   2   2   2   2   2   2
#     4  11  23  44  73 103 135 184 240 293 342 418
#     4  12  25  43  70 106 146 182 228 292 361 423
#     4  11  25  43  67  98 137 178 239 289 349 422
#     4  11  24  44  69  98 135 190 228 294 359 413
#     4  11  24  46  69 103 142 184 232 287 358 424
#     4  12  22  44  74  99 135 189 238 281 346 434
#     4  12  25  43  66  99 138 181 240 291 350 425
#     4  12  22  42  67  94 135 181 231 287 350 415
#
# _framework density 21.140283
#
# number of rings (size 3 to 8) (size 9 to 14) (size 15 to 20)
#    0.000    0.500    5.000    3.750    1.750    2.000 
#    2.250    0.000    0.000    0.000    0.000    0.000 
#    0.000    0.000    0.000    0.000    0.000    0.000 
#
# Total GULP energy -89081.047754 kJ/mol
# GULP energy per Si atom -5567.565485 kJ/mol
# Density = 2.109217 g / cm^3
# Si number density = 21.140283 Si / 1000 Ang^3
#
#
#
# Elastic Constant Matrix: (Units=GPa)
#
#
# Indices 1 2 3 4 5 6 
#
# 1 72.3994 -0.1467 42.6265 -1.8080 9.1514 -6.9022
# 2 -0.1467 83.8444 28.9427 37.0460 8.8411 -20.4903
# 3 42.6265 28.9427 181.5722 30.3154 14.3052 -0.2084
# 4 -1.8080 37.0460 30.3154 49.9495 4.8880 -0.2240
# 5 9.1514 8.8411 14.3052 4.8880 34.6561 -6.7784
# 6 -6.9022 -20.4903 -0.2084 -0.2240 -6.7784 41.7512
#
#
#
# Elastic Compliance Matrix: (Units=1/GPa)
#
#
# Indices 1 2 3 4 5 6 
#
# 1 0.017158 0.001535 -0.004461 0.002480 -0.002820 0.003123
# 2 0.001535 0.021804 -0.001183 -0.015228 -0.001246 0.010665
# 3 -0.004461 -0.001183 0.007466 -0.003687 -0.001380 -0.001525
# 4 0.002480 -0.015228 -0.003687 0.033747 -0.001402 -0.007128
# 5 -0.002820 -0.001246 -0.001380 -0.001402 0.031471 0.004017
# 6 0.003123 0.010665 -0.001525 -0.007128 0.004017 0.030308
#
#
# Mechanical properties :
#
#
# Convention : Reuss Voigt Hill
#
# Bulk Modulus (GPa) = 26.17189 53.40676 39.78933
# Shear Modulus (GPa) = 30.69203 43.03092 36.86147
#
# Velocity S-wave (km/s) = 3.81442 4.51654 4.18025
# Velocity P-wave (km/s) = 5.63974 7.24684 6.49320
#
# Compressibility (1/GPa) = 0.03820893
#
# Stress axis : x y z
#
# Youngs Moduli (GPa) = 58.28187 45.86332 133.94255
#
# Poissons Ratio (x) = -0.07038 0.59752
# Poissons Ratio (y) = -0.08944 0.15845
# Poissons Ratio (z) = 0.26000 0.05425
#
# Static dielectric constant tensor:
#      x y z
#    x 2.118460 0.181020 -0.036630 
#    y 0.181020 1.902120 -0.100660 
#    z -0.036630 -0.100660 1.898580 
# 
# From -- ./inp_files/140659.got.cif
#   From: 2010.05.17/outbox.cif.g08.bks.cpg/sg2_71_cif.got.tgz:140659.got - 2010.06.03 11:33:40.
