data_PCOD9061840
_publ_section_title
;
Structure prediction by ZEFSAII (Michael W. Deem and Ramdas Pophale) SiO2 
 PCOD9061840
Probable space group: P -1
;
_chemical_formula_sum "Si O2"
_cell_formula_units_Z 16
_cell_length_a 9.433336
_cell_length_b 16.185589
_cell_length_c 9.396869
_cell_angle_alpha 117.612935
_cell_angle_beta 110.778657
_cell_angle_gamma 35.249160
_cell_volume 732.936283
_symmetry_space_group_name_H-M "P -1"
_symmetry_group_IT_number 2
_symmetry_cell_setting 'triclinic'
loop_
_space_group_symop_operation_xyz
x,y,z
-x,-y,-z
loop_
_atom_site_type_symbol
_atom_site_label
_atom_site_fract_x
_atom_site_fract_y
_atom_site_fract_z
Si Si1 0.137914 0.871444 0.105743
Si Si2 0.190677 0.971623 0.461670
Si Si3 0.882423 0.659487 0.090407
Si Si4 0.211785 0.163975 0.545799
Si Si5 0.208116 0.642725 0.014320
Si Si6 0.597241 0.183763 0.088364
Si Si7 0.040737 0.634162 0.660705
Si Si8 0.618693 0.689943 0.583440
O O1 0.194112 0.934836 0.270675
O O2 0.144564 0.779588 0.136078
O O3 0.343156 0.768174 0.972708
O O4 0.862884 0.007128 0.055112
O O5 0.446703 0.824384 0.513775
O O6 0.116870 0.115311 0.547343
O O7 0.000000 0.000000 0.500000
O O8 0.831279 0.726096 0.280977
O O9 0.620264 0.777392 0.012031
O O10 0.000000 0.500000 0.000000
O O11 0.072453 0.636295 0.062822
O O12 0.079340 0.250751 0.419712
O O13 0.500000 0.000000 0.500000
O O14 0.111053 0.666071 0.840670
O O15 0.500000 0.500000 0.000000
O O16 0.522611 0.255452 0.274633
O O17 0.272561 0.460048 0.553067
O O18 0.844609 0.651588 0.657746
#
# Coordination Sequence:
#
# PCOD9061840 Si02
#       8
#     2   2   2   2   2   2   2   2
#     4  11  26  43  71 105 145 183 234 292 366 421
#     4  12  24  45  71 103 148 186 233 299 361 424
#     4  12  27  48  75 104 147 190 240 296 365 434
#     4  12  27  45  74 112 144 186 246 300 358 434
#     4  12  27  47  72 105 143 188 241 297 360 432
#     4  11  24  44  72 100 140 187 236 290 358 423
#     4  11  26  44  74 104 143 190 244 297 359 431
#     4  11  23  46  72 102 143 192 240 295 364 426
#
# _framework density 21.830000999999999
#
# number of rings (size 3 to 8) (size 9 to 14) (size 15 to 20)
#    0.000    0.500    3.750    3.750    7.000    0.500 
#    0.000    1.875    0.000    0.000    0.000    0.000 
#    0.000    0.000    0.000    0.000    0.000    0.000 
#
# Total GULP energy -89506.481622 kJ/mol
# GULP energy per Si atom -5594.155101 kJ/mol
# Density = 2.178031 g / cm^3
# Si number density = 21.830001 Si / 1000 Ang^3
#
#
#
# Elastic Constant Matrix: (Units=GPa)
#
#
# Indices 1 2 3 4 5 6 
#
# 1 100.9785 16.4607 14.2842 14.6522 -19.4151 -1.0444
# 2 16.4607 71.9161 31.3522 2.9851 -2.6741 -1.7342
# 3 14.2842 31.3522 115.6214 -1.9918 -6.8898 -4.8219
# 4 14.6522 2.9851 -1.9918 31.7867 0.6239 8.9448
# 5 -19.4151 -2.6741 -6.8898 0.6239 41.3252 -1.0637
# 6 -1.0444 -1.7342 -4.8219 8.9448 -1.0637 44.2408
#
#
#
# Elastic Compliance Matrix: (Units=1/GPa)
#
#
# Indices 1 2 3 4 5 6 
#
# 1 0.012315 -0.002025 -0.000676 -0.006062 0.005672 0.001500
# 2 -0.002025 0.016217 -0.004185 -0.000926 -0.000578 0.000305
# 3 -0.000676 -0.004185 0.009980 0.001109 0.001077 0.000709
# 4 -0.006062 -0.000926 0.001109 0.036601 -0.003470 -0.007542
# 5 0.005672 -0.000578 0.001077 -0.003470 0.027098 0.001582
# 6 0.001500 0.000305 0.000709 -0.007542 0.001582 0.024291
#
#
# Mechanical properties :
#
#
# Convention : Reuss Voigt Hill
#
# Bulk Modulus (GPa) = 40.42139 45.85671 43.13905
# Shear Modulus (GPa) = 33.66514 38.56513 36.11513
#
# Velocity S-wave (km/s) = 3.93128 4.20767 4.07182
# Velocity P-wave (km/s) = 6.25806 6.68265 6.47384
#
# Compressibility (1/GPa) = 0.02473938
#
# Stress axis : x y z
#
# Youngs Moduli (GPa) = 81.20506 61.66197 100.19900
#
# Poissons Ratio (x) = 0.12488 0.06775
# Poissons Ratio (y) = 0.16446 0.41934
# Poissons Ratio (z) = 0.05490 0.25806
#
# Static dielectric constant tensor:
#      x y z
#    x 1.935190 0.145240 0.040320 
#    y 0.145240 1.955030 0.050100 
#    z 0.040320 0.050100 1.839840 
# 
# From -- ./inp_files/208362.got.cif
#   From: 2010.05.17/outbox.cif.g08.bks.cpg/sg2_105_cif.got.tgz:208362.got - 2010.06.03 11:33:40.
