data_PCOD9061514
_publ_section_title
;
Structure prediction by ZEFSAII (Michael W. Deem and Ramdas Pophale) SiO2 
 PCOD9061514
Probable space group: P -1
;
_chemical_formula_sum "Si O2"
_cell_formula_units_Z 15
_cell_length_a 14.504162
_cell_length_b 9.264109
_cell_length_c 15.648830
_cell_angle_alpha 151.600460
_cell_angle_beta 137.558661
_cell_angle_gamma 41.087103
_cell_volume 638.077921
_symmetry_space_group_name_H-M "P -1"
_symmetry_group_IT_number 2
_symmetry_cell_setting 'triclinic'
loop_
_space_group_symop_operation_xyz
x,y,z
-x,-y,-z
loop_
_atom_site_type_symbol
_atom_site_label
_atom_site_fract_x
_atom_site_fract_y
_atom_site_fract_z
Si Si1 0.231433 0.181377 0.505986
Si Si2 0.500000 0.500000 0.500000
Si Si3 0.507727 0.529732 0.156495
Si Si4 0.655580 0.006315 0.845505
Si Si5 0.971151 0.710976 0.879627
Si Si6 0.039195 0.647973 0.479404
Si Si7 0.391109 0.429825 0.205770
Si Si8 0.120156 0.283841 0.905001
O O1 0.367363 0.306005 0.667474
O O2 0.128027 0.273090 0.565878
O O3 0.132317 0.355420 0.450016
O O4 0.288681 0.800239 0.340020
O O5 0.486624 0.364609 0.321855
O O6 0.594140 0.716202 0.641028
O O7 0.369280 0.793301 0.155770
O O8 0.473095 0.420172 0.167999
O O9 0.563998 0.248169 0.979752
O O10 0.823374 0.872279 0.913969
O O11 0.941901 0.466572 0.664079
O O12 0.096886 0.502725 0.918132
O O13 0.000000 0.000000 0.000000
O O14 0.087001 0.956599 0.692643
O O15 0.280583 0.230417 0.019809
O O16 0.000000 0.500000 0.000000
#
# Coordination Sequence:
#
# PCOD9061514 Si02
#       8
#     2   1   2   2   2   2   2   2
#     4  11  23  45  72 104 145 184 244 290 357 429
#     4  12  28  46  68 106 144 186 240 302 358 420
#     4  11  25  45  74 102 141 194 240 287 366 435
#     4  11  26  46  71 108 143 185 238 301 351 440
#     4  12  26  47  76 108 146 187 241 297 361 433
#     4  11  26  43  76 108 141 196 237 300 360 430
#     4  12  26  48  73 104 145 194 238 300 363 432
#     4  12  26  48  73 105 149 186 241 303 361 424
#
# _framework density 23.508099999999999
#
# number of rings (size 3 to 8) (size 9 to 14) (size 15 to 20)
#    0.000    0.533    2.667    4.800    7.467    2.667 
#    0.000    0.000    0.000    0.000    0.000    0.000 
#    0.000    0.000    0.000    0.000    0.000    0.000 
#
# Total GULP energy -83810.519966 kJ/mol
# GULP energy per Si atom -5587.367998 kJ/mol
# Density = 2.345459 g / cm^3
# Si number density = 23.508100 Si / 1000 Ang^3
#
#
#
# Elastic Constant Matrix: (Units=GPa)
#
#
# Indices 1 2 3 4 5 6 
#
# 1 81.5266 14.2402 13.7162 -2.3380 15.1926 16.6056
# 2 14.2402 44.0548 -10.1052 -0.5828 -6.2219 3.4055
# 3 13.7162 -10.1052 81.8447 -1.5981 13.1145 4.4481
# 4 -2.3380 -0.5828 -1.5981 36.2423 1.5850 -6.4747
# 5 15.1926 -6.2219 13.1145 1.5850 28.2395 -6.1157
# 6 16.6056 3.4055 4.4481 -6.4747 -6.1157 38.9937
#
#
#
# Elastic Compliance Matrix: (Units=1/GPa)
#
#
# Indices 1 2 3 4 5 6 
#
# 1 0.017859 -0.007174 -0.001411 -0.000050 -0.012431 -0.008776
# 2 -0.007174 0.026810 0.003018 0.000031 0.008742 0.001746
# 3 -0.001411 0.003018 0.013820 0.000444 -0.005457 -0.002021
# 4 -0.000050 0.000031 0.000444 0.028460 -0.000780 0.004571
# 5 -0.012431 0.008742 -0.005457 -0.000780 0.049368 0.012766
# 6 -0.008776 0.001746 -0.002021 0.004571 0.012766 0.032222
#
#
# Mechanical properties :
#
#
# Convention : Reuss Voigt Hill
#
# Bulk Modulus (GPa) = 21.11739 27.01426 24.06582
# Shear Modulus (GPa) = 25.58079 33.33342 29.45710
#
# Velocity S-wave (km/s) = 3.30232 3.76966 3.54370
# Velocity P-wave (km/s) = 4.85211 5.51938 5.19646
#
# Compressibility (1/GPa) = 0.04735435
#
# Stress axis : x y z
#
# Youngs Moduli (GPa) = 55.99390 37.29916 72.35773
#
# Poissons Ratio (x) = 0.26760 0.10208
# Poissons Ratio (y) = 0.40172 -0.21834
# Poissons Ratio (z) = 0.07900 -0.11255
#
# Static dielectric constant tensor:
#      x y z
#    x 1.866050 0.022140 -0.011200 
#    y 0.022140 1.922600 -0.004180 
#    z -0.011200 -0.004180 1.856940 
# 
# From -- ./inp_files/160198.got.cif
#   From: 2010.05.17/outbox.cif.g08.bks.cpg/sg2_81_cif.got.tgz:160198.got - 2010.06.03 11:33:40.
