data_PCOD9061815
_publ_section_title
;
Structure prediction by ZEFSAII (Michael W. Deem and Ramdas Pophale) SiO2 
 PCOD9061815
Probable space group: P -1
;
_chemical_formula_sum "Si O2"
_cell_formula_units_Z 12
_cell_length_a 9.426043
_cell_length_b 12.476177
_cell_length_c 10.008307
_cell_angle_alpha 121.463924
_cell_angle_beta 55.758933
_cell_angle_gamma 144.148629
_cell_volume 564.562672
_symmetry_space_group_name_H-M "P -1"
_symmetry_group_IT_number 2
_symmetry_cell_setting 'triclinic'
loop_
_space_group_symop_operation_xyz
x,y,z
-x,-y,-z
loop_
_atom_site_type_symbol
_atom_site_label
_atom_site_fract_x
_atom_site_fract_y
_atom_site_fract_z
Si Si1 0.383725 0.842480 0.350075
Si Si2 0.411755 0.287528 0.338230
Si Si3 0.139579 0.448075 0.930625
Si Si4 0.815627 0.593379 0.539348
Si Si5 0.650782 0.459152 0.840730
Si Si6 0.314764 0.945458 0.179490
O O1 0.480694 0.749888 0.236480
O O2 0.406381 0.921881 0.247127
O O3 0.082938 0.672607 0.424342
O O4 0.500000 0.000000 0.500000
O O5 0.590151 0.401003 0.186538
O O6 0.589374 0.416805 0.454208
O O7 0.183977 0.261867 0.416861
O O8 0.329594 0.102103 0.281441
O O9 0.970157 0.247109 0.829767
O O10 0.150565 0.449352 0.084877
O O11 0.000000 0.500000 0.000000
O O12 0.754655 0.546666 0.696900
O O13 0.500000 0.500000 0.000000
O O14 0.500000 0.000000 0.000000
#
# Coordination Sequence:
#
# PCOD9061815 Si02
#       6
#     2   2   2   2   2   2
#     4  12  27  45  69 104 143 188 240 288 354 426
#     4  11  23  46  71 104 139 186 237 289 356 421
#     4  12  22  45  70 102 141 184 236 289 355 420
#     4  11  25  46  71 100 147 187 231 297 355 421
#     4  12  25  45  73 103 141 184 234 295 356 415
#     4  12  25  41  73 103 136 186 237 289 350 422
#
# _framework density 21.255389999999998
#
# number of rings (size 3 to 8) (size 9 to 14) (size 15 to 20)
#    0.000    0.333    6.667    1.500    2.333    2.000 
#    0.000    1.667    0.000    0.000    0.000    0.000 
#    0.000    0.000    0.000    0.000    0.000    0.000 
#
# Total GULP energy -67100.627327 kJ/mol
# GULP energy per Si atom -5591.718944 kJ/mol
# Density = 2.120701 g / cm^3
# Si number density = 21.255390 Si / 1000 Ang^3
#
#
#
# Elastic Constant Matrix: (Units=GPa)
#
#
# Indices 1 2 3 4 5 6 
#
# 1 113.5925 43.3401 58.1708 18.7825 12.4068 -29.6550
# 2 43.3401 85.4618 43.4209 16.1974 -2.3031 -33.0243
# 3 58.1708 43.4209 132.3551 6.5209 24.1471 -28.2351
# 4 18.7825 16.1974 6.5209 40.8553 -12.0933 -6.0190
# 5 12.4068 -2.3031 24.1471 -12.0933 58.7513 3.2354
# 6 -29.6550 -33.0243 -28.2351 -6.0190 3.2354 38.2537
#
#
#
# Elastic Compliance Matrix: (Units=1/GPa)
#
#
# Indices 1 2 3 4 5 6 
#
# 1 0.014133 -0.002259 -0.003391 -0.005086 -0.003055 0.005961
# 2 -0.002259 0.020030 -0.002800 -0.004339 0.000819 0.012722
# 3 -0.003391 -0.002800 0.011581 0.000107 -0.004346 0.003887
# 4 -0.005086 -0.004339 0.000107 0.030154 0.007259 -0.003479
# 5 -0.003055 0.000819 -0.004346 0.007259 0.021283 -0.005526
# 6 0.005961 0.012722 0.003887 -0.003479 -0.005526 0.044533
#
#
# Mechanical properties :
#
#
# Convention : Reuss Voigt Hill
#
# Bulk Modulus (GPa) = 34.66982 69.03033 51.85008
# Shear Modulus (GPa) = 29.72167 40.00390 34.86279
#
# Velocity S-wave (km/s) = 3.74346 4.34298 4.05431
# Velocity P-wave (km/s) = 5.91871 7.59577 6.80907
#
# Compressibility (1/GPa) = 0.02884353
#
# Stress axis : x y z
#
# Youngs Moduli (GPa) = 70.75850 49.92574 86.34933
#
# Poissons Ratio (x) = 0.11279 0.29278
# Poissons Ratio (y) = 0.15986 0.24177
# Poissons Ratio (z) = 0.23992 0.13979
#
# Static dielectric constant tensor:
#      x y z
#    x 1.790220 -0.006250 -0.022250 
#    y -0.006250 1.766370 0.003190 
#    z -0.022250 0.003190 1.784850 
# 
# From -- ./inp_files/136450.got.cif
#   From: 2010.05.17/outbox.cif.g08.bks.cpg/sg2_69_cif.got.tgz:136450.got - 2010.06.03 11:33:40.
