data_PCOD9061805
_publ_section_title
;
Structure prediction by ZEFSAII (Michael W. Deem and Ramdas Pophale) SiO2 
 PCOD9061805
Probable space group: P -1
;
_chemical_formula_sum "Si O2"
_cell_formula_units_Z 16
_cell_length_a 13.496680
_cell_length_b 21.664660
_cell_length_c 5.525581
_cell_angle_alpha 130.207583
_cell_angle_beta 43.622693
_cell_angle_gamma 144.258576
_cell_volume 644.332698
_symmetry_space_group_name_H-M "P -1"
_symmetry_group_IT_number 2
_symmetry_cell_setting 'triclinic'
loop_
_space_group_symop_operation_xyz
x,y,z
-x,-y,-z
loop_
_atom_site_type_symbol
_atom_site_label
_atom_site_fract_x
_atom_site_fract_y
_atom_site_fract_z
Si Si1 0.149031 0.784489 0.662981
Si Si2 0.564594 0.231502 0.732308
Si Si3 0.615390 0.050707 0.674159
Si Si4 0.791764 0.452659 0.169428
Si Si5 0.562052 0.692177 0.246231
Si Si6 0.810544 0.887792 0.658175
Si Si7 0.821065 0.642662 0.538271
Si Si8 0.045639 0.858395 0.421412
O O1 0.282606 0.783198 0.603885
O O2 0.270452 0.827283 0.305310
O O3 0.942343 0.682811 0.677558
O O4 0.128931 0.865191 0.028321
O O5 0.477675 0.244260 0.688641
O O6 0.691978 0.347236 0.922377
O O7 0.384241 0.139643 0.985676
O O8 0.796006 0.062306 0.461335
O O9 0.500000 0.000000 0.500000
O O10 0.500000 0.000000 0.000000
O O11 0.642390 0.404923 0.529997
O O12 0.792051 0.539556 0.258538
O O13 0.000000 0.500000 0.000000
O O14 0.722976 0.784880 0.381277
O O15 0.643109 0.637197 0.865030
O O16 0.894685 0.872754 0.703502
O O17 0.000000 0.000000 0.500000
O O18 0.945335 0.738760 0.372340
#
# Coordination Sequence:
#
# PCOD9061805 Si02
#       8
#     2   2   2   2   2   2   2   2
#     4  11  24  42  73 103 147 195 249 316 375 452
#     4  11  26  46  70 110 146 191 248 317 382 456
#     4  11  24  43  69 107 146 193 261 318 378 449
#     4  11  25  45  72 107 146 191 257 314 388 454
#     4  11  25  46  72 106 148 192 254 309 387 463
#     4  11  26  47  71 103 150 192 245 313 381 463
#     4  11  23  46  71 101 146 195 246 312 380 459
#     4  11  24  44  73 103 143 199 257 308 379 463
#
# _framework density 24.831893000000001
#
# number of rings (size 3 to 8) (size 9 to 14) (size 15 to 20)
#    0.000    1.000    5.000    0.375    3.500    4.500 
#    0.000    0.000    0.000    0.000    0.000    0.000 
#    0.000    0.000    0.000    0.000    0.000    0.000 
#
# Total GULP energy -89202.535638 kJ/mol
# GULP energy per Si atom -5575.158477 kJ/mol
# Density = 2.477537 g / cm^3
# Si number density = 24.831893 Si / 1000 Ang^3
#
#
#
# Elastic Constant Matrix: (Units=GPa)
#
#
# Indices 1 2 3 4 5 6 
#
# 1 144.9975 19.1242 36.7295 -15.8545 -22.5075 19.7339
# 2 19.1242 121.0846 23.2270 -12.0154 -0.3374 5.1101
# 3 36.7295 23.2270 68.5902 -12.9876 -15.6583 7.5750
# 4 -15.8545 -12.0154 -12.9876 41.8384 1.2818 -3.2771
# 5 -22.5075 -0.3374 -15.6583 1.2818 44.5703 0.8454
# 6 19.7339 5.1101 7.5750 -3.2771 0.8454 42.3406
#
#
#
# Elastic Compliance Matrix: (Units=1/GPa)
#
#
# Indices 1 2 3 4 5 6 
#
# 1 0.008964 -0.000473 -0.003106 0.001919 0.003443 -0.003486
# 2 -0.000473 0.009023 -0.002747 0.001577 -0.001176 -0.000232
# 3 -0.003106 -0.002747 0.019199 0.003723 0.005076 -0.001469
# 4 0.001919 0.001577 0.003723 0.026210 0.001530 0.000247
# 5 0.003443 -0.001176 0.005076 0.001530 0.025958 -0.002771
# 6 -0.003486 -0.000232 -0.001469 0.000247 -0.002771 0.025608
#
#
# Mechanical properties :
#
#
# Convention : Reuss Voigt Hill
#
# Bulk Modulus (GPa) = 40.75750 54.75930 47.75840
# Shear Modulus (GPa) = 36.82102 42.78929 39.80516
#
# Velocity S-wave (km/s) = 3.85491 4.15560 4.00807
# Velocity P-wave (km/s) = 6.02186 6.71753 6.37918
#
# Compressibility (1/GPa) = 0.02453536
#
# Stress axis : x y z
#
# Youngs Moduli (GPa) = 111.55156 110.82433 52.08663
#
# Poissons Ratio (x) = 0.05242 0.16178
# Poissons Ratio (y) = 0.05276 0.14306
# Poissons Ratio (z) = 0.34648 0.30439
#
# Static dielectric constant tensor:
#      x y z
#    x 2.193180 0.021350 -0.023970 
#    y 0.021350 2.055380 -0.052470 
#    z -0.023970 -0.052470 2.094330 
# 
# From -- ./inp_files/83387.got.cif
#   From: 2010.05.17/outbox.cif.g08.bks.cpg/sg2_42_cif.got.tgz:83387.got - 2010.06.03 11:33:40.
