data_PCOD9061563
_publ_section_title
;
Structure prediction by ZEFSAII (Michael W. Deem and Ramdas Pophale) SiO2 
 PCOD9061563
Probable space group: P -1
;
_chemical_formula_sum "Si O2"
_cell_formula_units_Z 15
_cell_length_a 8.779702
_cell_length_b 20.576498
_cell_length_c 17.526166
_cell_angle_alpha 160.809739
_cell_angle_beta 140.130437
_cell_angle_gamma 41.418401
_cell_volume 662.435787
_symmetry_space_group_name_H-M "P -1"
_symmetry_group_IT_number 2
_symmetry_cell_setting 'triclinic'
loop_
_space_group_symop_operation_xyz
x,y,z
-x,-y,-z
loop_
_atom_site_type_symbol
_atom_site_label
_atom_site_fract_x
_atom_site_fract_y
_atom_site_fract_z
Si Si1 0.607605 0.438406 0.055924
Si Si2 0.096027 0.971595 0.325660
Si Si3 0.732676 0.485786 0.413335
Si Si4 0.754389 0.861068 0.575780
Si Si5 0.000000 0.000000 0.500000
Si Si6 0.444892 0.913126 0.800667
Si Si7 0.410730 0.248246 0.914092
Si Si8 0.843234 0.121235 0.138522
O O1 0.707173 0.644405 0.346400
O O2 0.500000 0.500000 0.000000
O O3 0.429116 0.368152 0.973908
O O4 0.811401 0.251166 0.914811
O O5 0.101100 0.979859 0.427899
O O6 0.825890 0.053097 0.290722
O O7 0.246494 0.110800 0.485048
O O8 0.577890 0.692342 0.600408
O O9 0.790014 0.354536 0.364507
O O10 0.000000 0.500000 0.500000
O O11 0.570224 0.368154 0.164729
O O12 0.006460 0.912198 0.763374
O O13 0.558686 0.029733 0.719790
O O14 0.848210 0.799765 0.209886
O O15 0.500000 0.000000 0.000000
O O16 0.591619 0.041108 0.944208
O O17 0.000000 0.000000 0.000000
#
# Coordination Sequence:
#
# PCOD9061563 Si02
#       8
#     2   2   2   2   1   2   2   2
#     4  11  25  46  76 104 138 195 254 305 380 450
#     4  11  27  47  70 107 148 197 249 315 382 442
#     4  12  25  43  76 111 145 198 255 298 370 460
#     4  11  23  45  73 103 147 190 246 309 375 447
#     4  12  26  48  74  96 152 194 252 312 376 436
#     4  12  27  47  69 111 161 192 240 319 380 445
#     4  11  25  46  73 110 145 193 252 315 373 452
#     4  12  23  42  74 106 144 200 245 295 370 450
#
# _framework density 22.643704
#
# number of rings (size 3 to 8) (size 9 to 14) (size 15 to 20)
#    0.000    0.533    4.000    3.200    3.733    5.867 
#    0.000    5.333    0.000    0.000    0.000    0.000 
#    0.000    0.000    0.000    0.000    0.000    0.000 
#
# Total GULP energy -83528.669925 kJ/mol
# GULP energy per Si atom -5568.577995 kJ/mol
# Density = 2.259217 g / cm^3
# Si number density = 22.643704 Si / 1000 Ang^3
#
#
#
# Elastic Constant Matrix: (Units=GPa)
#
#
# Indices 1 2 3 4 5 6 
#
# 1 93.5056 25.2983 44.5618 8.2445 6.5806 12.9579
# 2 25.2983 99.6954 48.8481 20.0823 -1.2878 -4.6154
# 3 44.5618 48.8481 134.4590 10.6125 2.5166 -6.4990
# 4 8.2445 20.0823 10.6125 49.6819 6.4184 -3.7364
# 5 6.5806 -1.2878 2.5166 6.4184 35.1281 -1.4306
# 6 12.9579 -4.6154 -6.4990 -3.7364 -1.4306 36.4836
#
#
#
# Elastic Compliance Matrix: (Units=1/GPa)
#
#
# Indices 1 2 3 4 5 6 
#
# 1 0.014334 -0.001649 -0.004334 -0.000932 -0.002520 -0.006266
# 2 -0.001649 0.013351 -0.003932 -0.004444 0.001941 0.001195
# 3 -0.004334 -0.003932 0.010420 0.000305 -0.000015 0.002928
# 4 -0.000932 -0.004444 0.000305 0.022690 -0.004075 0.001987
# 5 -0.002520 0.001941 -0.000015 -0.004075 0.029833 0.001890
# 6 -0.006266 0.001195 0.002928 0.001987 0.001890 0.030585
#
#
# Mechanical properties :
#
#
# Convention : Reuss Voigt Hill
#
# Bulk Modulus (GPa) = 54.71606 62.78626 58.75116
# Shear Modulus (GPa) = 33.98296 38.18885 36.08591
#
# Velocity S-wave (km/s) = 3.87818 4.11117 3.99637
# Velocity P-wave (km/s) = 6.65358 7.09392 6.87727
#
# Compressibility (1/GPa) = 0.01827617
#
# Stress axis : x y z
#
# Youngs Moduli (GPa) = 69.76580 74.90106 95.97373
#
# Poissons Ratio (x) = 0.12350 0.41590
# Poissons Ratio (y) = 0.11503 0.37734
# Poissons Ratio (z) = 0.30233 0.29449
#
# Static dielectric constant tensor:
#      x y z
#    x 1.890950 0.051550 0.038470 
#    y 0.051550 1.830550 -0.017570 
#    z 0.038470 -0.017570 1.864330 
# 
# From -- ./inp_files/562992.got.cif
#   From: 2010.05.17/outbox.cif.g08.bks.cpg/sg2_282_cif.got.tgz:562992.got - 2010.06.03 11:33:40.
