data_PCOD9061464
_publ_section_title
;
Structure prediction by ZEFSAII (Michael W. Deem and Ramdas Pophale) SiO2 
 PCOD9061464
Probable space group: P -1
;
_chemical_formula_sum "Si O2"
_cell_formula_units_Z 12
_cell_length_a 16.803597
_cell_length_b 5.618367
_cell_length_c 23.548118
_cell_angle_alpha 124.609145
_cell_angle_beta 19.277950
_cell_angle_gamma 116.709383
_cell_volume 572.548491
_symmetry_space_group_name_H-M "P -1"
_symmetry_group_IT_number 2
_symmetry_cell_setting 'triclinic'
loop_
_space_group_symop_operation_xyz
x,y,z
-x,-y,-z
loop_
_atom_site_type_symbol
_atom_site_label
_atom_site_fract_x
_atom_site_fract_y
_atom_site_fract_z
Si Si1 0.167251 0.554175 0.555848
Si Si2 0.981638 0.572583 0.955732
Si Si3 0.543695 0.169600 0.336552
Si Si4 0.290831 0.103991 0.606000
Si Si5 0.565288 0.815053 0.991579
Si Si6 0.851614 0.762310 0.590491
O O1 0.324326 0.277462 0.452402
O O2 0.208380 0.421735 0.447073
O O3 0.269421 0.819102 0.546056
O O4 0.865419 0.703039 0.784931
O O5 0.223370 0.691588 0.800232
O O6 0.037744 0.297879 0.835768
O O7 0.000000 0.500000 0.000000
O O8 0.706174 0.818531 0.167778
O O9 0.397811 0.267984 0.507288
O O10 0.500000 0.000000 0.500000
O O11 0.399439 0.036589 0.180926
O O12 0.500000 0.500000 0.000000
O O13 0.500000 0.000000 0.000000
O O14 0.000000 0.500000 0.500000
O O15 0.000000 0.000000 0.500000
#
# Coordination Sequence:
#
# PCOD9061464 Si02
#       6
#     2   2   2   2   2   2
#     4  12  28  44  78 109 144 199 252 298 390 445
#     4  11  23  45  71 101 149 199 244 302 365 435
#     4  11  25  43  72 104 147 193 252 296 372 438
#     4  12  25  46  70 105 154 192 244 306 364 452
#     4  12  26  51  79 111 149 198 252 318 384 448
#     4  12  26  52  80 107 153 194 252 324 382 447
#
# _framework density 20.958922999999999
#
# number of rings (size 3 to 8) (size 9 to 14) (size 15 to 20)
#    0.000    0.333    6.667    0.500    4.667    4.000 
#    0.000    0.000    0.000    0.000    0.000    0.000 
#    0.000    0.000    0.000    0.000    0.000    0.000 
#
# Total GULP energy -66935.953097 kJ/mol
# GULP energy per Si atom -5577.996091 kJ/mol
# Density = 2.091122 g / cm^3
# Si number density = 20.958923 Si / 1000 Ang^3
#
#
#
# Elastic Constant Matrix: (Units=GPa)
#
#
# Indices 1 2 3 4 5 6 
#
# 1 195.4987 64.1172 88.2534 16.2998 13.6384 -3.9562
# 2 64.1172 86.7121 39.7246 15.8146 7.3104 2.7898
# 3 88.2534 39.7246 183.5480 36.9158 14.5599 -6.5102
# 4 16.2998 15.8146 36.9158 44.0948 1.8375 2.4321
# 5 13.6384 7.3104 14.5599 1.8375 60.9128 12.6498
# 6 -3.9562 2.7898 -6.5102 2.4321 12.6498 45.2087
#
#
#
# Elastic Compliance Matrix: (Units=1/GPa)
#
#
# Indices 1 2 3 4 5 6 
#
# 1 0.007964 -0.004713 -0.002978 0.001231 -0.000685 0.000684
# 2 -0.004713 0.015951 -0.000496 -0.003482 -0.000392 -0.001171
# 3 -0.002978 -0.000496 0.008309 -0.005710 -0.001435 0.001675
# 4 0.001231 -0.003482 -0.005710 0.028335 0.001139 -0.002343
# 5 -0.000685 -0.000392 -0.001435 0.001139 0.018037 -0.005351
# 6 0.000684 -0.001171 0.001675 -0.002343 -0.005351 0.024116
#
#
# Mechanical properties :
#
#
# Convention : Reuss Voigt Hill
#
# Bulk Modulus (GPa) = 63.09450 94.43881 78.76666
# Shear Modulus (GPa) = 40.20228 48.28749 44.24489
#
# Velocity S-wave (km/s) = 4.38442 4.80511 4.59958
# Velocity P-wave (km/s) = 7.46994 8.71449 8.11611
#
# Compressibility (1/GPa) = 0.01584924
#
# Stress axis : x y z
#
# Youngs Moduli (GPa) = 125.55750 62.69322 120.34787
#
# Poissons Ratio (x) = 0.29550 0.35842
# Poissons Ratio (y) = 0.59181 0.05968
# Poissons Ratio (z) = 0.37394 0.03109
#
# Static dielectric constant tensor:
#      x y z
#    x 1.691620 -0.044970 0.006360 
#    y -0.044970 1.904950 -0.028860 
#    z 0.006360 -0.028860 1.704670 
# 
# From -- ./inp_files/33132.got.cif
#   From: 2010.05.17/outbox.cif.g08.bks.cpg/sg2_17_cif.got.tgz:33132.got - 2010.06.03 11:33:40.
