data_PCOD9061859
_publ_section_title
;
Structure prediction by ZEFSAII (Michael W. Deem and Ramdas Pophale) SiO2 
 PCOD9061859
Probable space group: P -1
;
_chemical_formula_sum "Si O2"
_cell_formula_units_Z 16
_cell_length_a 8.421345
_cell_length_b 18.368415
_cell_length_c 11.457538
_cell_angle_alpha 31.853960
_cell_angle_beta 123.980629
_cell_angle_gamma 135.885808
_cell_volume 644.810080
_symmetry_space_group_name_H-M "P -1"
_symmetry_group_IT_number 2
_symmetry_cell_setting 'triclinic'
loop_
_space_group_symop_operation_xyz
x,y,z
-x,-y,-z
loop_
_atom_site_type_symbol
_atom_site_label
_atom_site_fract_x
_atom_site_fract_y
_atom_site_fract_z
Si Si1 0.138633 0.295508 0.976504
Si Si2 0.867940 0.230566 0.425785
Si Si3 0.446548 0.663394 0.524256
Si Si4 0.257983 0.873345 0.134081
Si Si5 0.385239 0.160206 0.406116
Si Si6 0.706778 0.673336 0.395742
Si Si7 0.168427 0.770971 0.850792
Si Si8 0.315978 0.085673 0.094267
O O1 0.320742 0.468178 0.754883
O O2 0.944534 0.170107 0.977351
O O3 0.268154 0.220134 0.190125
O O4 0.009955 0.326118 0.986875
O O5 0.639830 0.221619 0.381429
O O6 0.924818 0.287638 0.237923
O O7 0.085031 0.334006 0.458778
O O8 0.797196 0.039717 0.672764
O O9 0.257248 0.708109 0.374890
O O10 0.590838 0.759431 0.567442
O O11 0.608056 0.721513 0.398358
O O12 0.276966 0.959596 0.146158
O O13 0.500000 0.000000 0.000000
O O14 0.242485 0.961950 0.629621
O O15 0.500000 0.500000 0.500000
O O16 0.775775 0.808257 0.139154
O O17 0.411171 0.789788 0.941140
#
# Coordination Sequence:
#
# PCOD9061859 Si02
#       8
#     2   2   2   2   2   2   2   2
#     4  12  26  40  73 109 145 187 238 293 360 417
#     4  11  26  47  74 102 145 190 240 293 352 424
#     4  12  25  47  71 106 148 185 240 297 357 426
#     4  12  22  45  76 107 136 189 241 304 345 419
#     4  11  24  46  71 104 142 191 246 285 350 429
#     4  12  29  47  70 108 148 186 233 298 370 423
#     4  11  23  46  72 106 143 187 238 297 349 424
#     4  11  23  46  75 104 139 184 247 290 357 423
#
# _framework density 24.813509
#
# number of rings (size 3 to 8) (size 9 to 14) (size 15 to 20)
#    0.000    0.500    5.000    3.750    3.500    4.000 
#    0.000    1.875    0.000    0.000    0.000    0.000 
#    0.000    0.000    0.000    0.000    0.000    0.000 
#
# Total GULP energy -89781.813182 kJ/mol
# GULP energy per Si atom -5611.363324 kJ/mol
# Density = 2.475703 g / cm^3
# Si number density = 24.813509 Si / 1000 Ang^3
#
#
#
# Elastic Constant Matrix: (Units=GPa)
#
#
# Indices 1 2 3 4 5 6 
#
# 1 75.3733 24.7552 25.0753 15.4259 -11.3477 -2.8054
# 2 24.7552 114.1680 47.0866 36.8171 21.3010 11.7550
# 3 25.0753 47.0866 73.4648 31.1534 -4.6041 6.1898
# 4 15.4259 36.8171 31.1534 49.5267 6.7174 3.9009
# 5 -11.3477 21.3010 -4.6041 6.7174 36.8232 6.8146
# 6 -2.8054 11.7550 6.1898 3.9009 6.8146 39.6400
#
#
#
# Elastic Compliance Matrix: (Units=1/GPa)
#
#
# Indices 1 2 3 4 5 6 
#
# 1 0.016719 -0.003423 -0.002213 -0.002342 0.006992 0.001572
# 2 -0.003423 0.016318 -0.007853 -0.004594 -0.010337 -0.001626
# 3 -0.002213 -0.007853 0.024331 -0.009838 0.009109 -0.002225
# 4 -0.002342 -0.004594 -0.009838 0.031171 -0.005080 0.000539
# 5 0.006992 -0.010337 0.009109 -0.005080 0.038080 -0.003909
# 6 0.001572 -0.001626 -0.002225 0.000539 -0.003909 0.026787
#
#
# Mechanical properties :
#
#
# Convention : Reuss Voigt Hill
#
# Bulk Modulus (GPa) = 32.90750 50.76003 41.83376
# Shear Modulus (GPa) = 26.24492 36.27060 31.25776
#
# Velocity S-wave (km/s) = 3.25574 3.82740 3.55309
# Velocity P-wave (km/s) = 5.23678 6.32717 5.80762
#
# Compressibility (1/GPa) = 0.03038821
#
# Stress axis : x y z
#
# Youngs Moduli (GPa) = 59.81381 61.28333 41.10015
#
# Poissons Ratio (x) = 0.20979 0.09096
# Poissons Ratio (y) = 0.20476 0.32275
# Poissons Ratio (z) = 0.13238 0.48125
#
# Static dielectric constant tensor:
#      x y z
#    x 1.986410 0.002680 -0.003000 
#    y 0.002680 1.925360 0.006930 
#    z -0.003000 0.006930 1.972310 
# 
# From -- ./inp_files/398344.got.cif
#   From: 2010.05.17/outbox.cif.g08.bks.cpg/sg2_200_cif.got.tgz:398344.got - 2010.06.03 11:33:40.
