data_PCOD9061291
_publ_section_title
;
Structure prediction by ZEFSAII (Michael W. Deem and Ramdas Pophale) SiO2 
 PCOD9061291
Probable space group: P -1
;
_chemical_formula_sum "Si O2"
_cell_formula_units_Z 16
_cell_length_a 15.473616
_cell_length_b 13.503988
_cell_length_c 10.293550
_cell_angle_alpha 104.039290
_cell_angle_beta 133.980919
_cell_angle_gamma 39.880806
_cell_volume 771.338334
_symmetry_space_group_name_H-M "P -1"
_symmetry_group_IT_number 2
_symmetry_cell_setting 'triclinic'
loop_
_space_group_symop_operation_xyz
x,y,z
-x,-y,-z
loop_
_atom_site_type_symbol
_atom_site_label
_atom_site_fract_x
_atom_site_fract_y
_atom_site_fract_z
Si Si1 0.903602 0.295998 0.699736
Si Si2 0.849477 0.990008 0.379416
Si Si3 0.046726 0.130235 0.086321
Si Si4 0.702359 0.850094 0.555282
Si Si5 0.635032 0.282327 0.778530
Si Si6 0.021517 0.447906 0.857583
Si Si7 0.476790 0.944529 0.834503
Si Si8 0.677245 0.275588 0.110199
O O1 0.622197 0.499085 0.465820
O O2 0.015224 0.152320 0.651312
O O3 0.979458 0.358069 0.781307
O O4 0.992958 0.190793 0.897861
O O5 0.052173 0.886305 0.650053
O O6 0.713017 0.001837 0.313815
O O7 0.669721 0.205159 0.203093
O O8 0.127143 0.177874 0.248393
O O9 0.255093 0.894688 0.237761
O O10 0.817338 0.242804 0.940777
O O11 0.834906 0.647380 0.645195
O O12 0.500000 0.000000 0.500000
O O13 0.595809 0.939487 0.330817
O O14 0.625994 0.260672 0.914610
O O15 0.276073 0.285474 0.015753
O O16 0.000000 0.500000 0.000000
O O17 0.500000 0.000000 0.000000
O O18 0.500000 0.500000 0.000000
#
# Coordination Sequence:
#
# PCOD9061291 Si02
#       8
#     2   2   2   2   2   2   2   2
#     4  12  22  44  68  96 135 178 227 285 344 411
#     4  11  25  43  68  96 139 180 223 286 348 409
#     4  11  24  42  64 101 138 170 232 284 343 406
#     4  12  25  46  74 102 141 186 229 292 351 411
#     4  11  24  40  68  97 131 180 228 281 342 409
#     4  12  25  46  73 104 137 184 236 283 354 414
#     4  12  27  47  70 104 142 181 236 290 340 417
#     4  11  23  45  65  95 134 179 224 276 346 415
#
# _framework density 20.743168000000001
#
# number of rings (size 3 to 8) (size 9 to 14) (size 15 to 20)
#    0.000    0.500    6.250    1.875    0.000    3.500 
#    0.000    0.000    0.000    0.000    0.000    0.000 
#    0.000    0.000    0.000    0.000    0.000    0.000 
#
# Total GULP energy -89529.996978 kJ/mol
# GULP energy per Si atom -5595.624811 kJ/mol
# Density = 2.069596 g / cm^3
# Si number density = 20.743168 Si / 1000 Ang^3
#
#
#
# Elastic Constant Matrix: (Units=GPa)
#
#
# Indices 1 2 3 4 5 6 
#
# 1 89.7389 9.9005 23.1442 -12.2972 -11.7873 2.5920
# 2 9.9005 72.3978 26.4189 -17.4486 -11.7926 0.1947
# 3 23.1442 26.4189 76.5467 -10.6227 -24.0011 -4.8826
# 4 -12.2972 -17.4486 -10.6227 41.2457 7.4690 -2.1847
# 5 -11.7873 -11.7926 -24.0011 7.4690 40.3095 -0.6210
# 6 2.5920 0.1947 -4.8826 -2.1847 -0.6210 36.0426
#
#
#
# Elastic Compliance Matrix: (Units=1/GPa)
#
#
# Indices 1 2 3 4 5 6 
#
# 1 0.012510 0.000329 -0.003166 0.002750 0.001342 -0.001141
# 2 0.000329 0.017146 -0.004879 0.005872 0.001113 -0.000402
# 3 -0.003166 -0.004879 0.018690 0.000378 0.008751 0.002960
# 4 0.002750 0.005872 0.000378 0.028169 -0.002450 0.001487
# 5 0.001342 0.001113 0.008751 -0.002450 0.031213 0.001472
# 6 -0.001141 -0.000402 0.002960 0.001487 0.001472 0.028346
#
#
# Mechanical properties :
#
#
# Convention : Reuss Voigt Hill
#
# Bulk Modulus (GPa) = 30.38268 39.73452 35.05860
# Shear Modulus (GPa) = 30.77379 35.46754 33.12067
#
# Velocity S-wave (km/s) = 3.85588 4.13951 4.00021
# Velocity P-wave (km/s) = 5.87390 6.48417 6.18656
#
# Compressibility (1/GPa) = 0.03291349
#
# Stress axis : x y z
#
# Youngs Moduli (GPa) = 79.93727 58.32434 53.50410
#
# Poissons Ratio (x) = -0.01920 0.16941
# Poissons Ratio (y) = -0.02631 0.26104
# Poissons Ratio (z) = 0.25311 0.28455
#
# Static dielectric constant tensor:
#      x y z
#    x 1.753380 0.007800 -0.029820 
#    y 0.007800 1.743140 -0.011590 
#    z -0.029820 -0.011590 1.770070 
# 
# From -- ./inp_files/315508.got.cif
#   From: 2010.05.17/outbox.cif.g08.bks.cpg/sg2_158_cif.got.tgz:315508.got - 2010.06.03 11:33:40.
