data_PCOD9061919
_publ_section_title
;
Structure prediction by ZEFSAII (Michael W. Deem and Ramdas Pophale) SiO2 
 PCOD9061919
Probable space group: P -1
;
_chemical_formula_sum "Si O2"
_cell_formula_units_Z 16
_cell_length_a 16.427767
_cell_length_b 7.850671
_cell_length_c 10.662069
_cell_angle_alpha 118.540739
_cell_angle_beta 54.106617
_cell_angle_gamma 145.224758
_cell_volume 635.336711
_symmetry_space_group_name_H-M "P -1"
_symmetry_group_IT_number 2
_symmetry_cell_setting 'triclinic'
loop_
_space_group_symop_operation_xyz
x,y,z
-x,-y,-z
loop_
_atom_site_type_symbol
_atom_site_label
_atom_site_fract_x
_atom_site_fract_y
_atom_site_fract_z
Si Si1 0.738686 0.288031 0.407710
Si Si2 0.743777 0.369811 0.916259
Si Si3 0.686973 0.650964 0.631964
Si Si4 0.940562 0.130266 0.773887
Si Si5 0.324020 0.169531 0.545820
Si Si6 0.501998 0.694944 0.922228
Si Si7 0.046676 0.971054 0.817125
Si Si8 0.283840 0.893510 0.913165
O O1 0.669800 0.401929 0.525628
O O2 0.696808 0.138634 0.257252
O O3 0.924801 0.582420 0.332764
O O4 0.687001 0.069427 0.488082
O O5 0.913841 0.611955 0.792123
O O6 0.621226 0.024780 0.863713
O O7 0.665950 0.460299 0.986577
O O8 0.750452 0.343649 0.050779
O O9 0.500000 0.500000 0.500000
O O10 0.532882 0.539523 0.772651
O O11 0.745206 0.861786 0.535199
O O12 0.808666 0.850030 0.704908
O O13 0.022292 0.089737 0.770882
O O14 0.855720 0.163050 0.950725
O O15 0.214924 0.125469 0.724992
O O16 0.568086 0.800576 0.040500
O O17 0.000000 0.000000 0.000000
#
# Coordination Sequence:
#
# PCOD9061919 Si02
#       8
#     2   2   2   2   2   2   2   2
#     4  12  24  46  78 105 151 205 252 317 387 450
#     4   9  19  42  77 110 151 200 253 316 378 447
#     4  11  26  48  73 112 159 195 250 313 384 475
#     4  11  23  46  73 115 155 194 257 318 383 457
#     4  12  31  51  73 110 158 206 256 318 394 460
#     4   8  20  42  75 109 154 197 252 312 382 455
#     4  12  25  44  79 115 148 201 265 317 377 457
#     4   9  19  41  72 111 149 194 258 310 374 453
#
# _framework density 25.183498
#
# number of rings (size 3 to 8) (size 9 to 14) (size 15 to 20)
#    0.750    0.750    1.250    3.000    1.750    2.000 
#    2.250    1.250    0.000    0.000    0.000    0.000 
#    0.000    0.000    0.000    0.000    0.000    0.000 
#
# Total GULP energy -89597.757450 kJ/mol
# GULP energy per Si atom -5599.859841 kJ/mol
# Density = 2.512618 g / cm^3
# Si number density = 25.183498 Si / 1000 Ang^3
#
#
#
# Elastic Constant Matrix: (Units=GPa)
#
#
# Indices 1 2 3 4 5 6 
#
# 1 124.0070 41.6777 52.4276 0.4261 -10.6932 -20.5600
# 2 41.6777 107.7290 52.8910 -13.8253 -8.3667 -16.2887
# 3 52.4276 52.8910 129.5408 12.9869 -26.1697 -13.0375
# 4 0.4261 -13.8253 12.9869 46.5767 -2.2080 -1.2478
# 5 -10.6932 -8.3667 -26.1697 -2.2080 45.1127 -8.1334
# 6 -20.5600 -16.2887 -13.0375 -1.2478 -8.1334 43.9721
#
#
#
# Elastic Compliance Matrix: (Units=1/GPa)
#
#
# Indices 1 2 3 4 5 6 
#
# 1 0.010675 -0.002027 -0.002935 0.000268 0.001111 0.003584
# 2 -0.002027 0.013675 -0.005067 0.005559 -0.000115 0.002752
# 3 -0.002935 -0.005067 0.012772 -0.004723 0.005809 0.001478
# 4 0.000268 0.005559 -0.004723 0.024464 -0.000188 0.001443
# 5 0.001111 -0.000115 0.005809 -0.000188 0.027067 0.007201
# 6 0.003584 0.002752 0.001478 0.001443 0.007201 0.027248
#
#
# Mechanical properties :
#
#
# Convention : Reuss Voigt Hill
#
# Bulk Modulus (GPa) = 58.59694 72.80773 65.70234
# Shear Modulus (GPa) = 35.29952 41.41769 38.35861
#
# Velocity S-wave (km/s) = 3.74798 4.05981 3.90701
# Velocity P-wave (km/s) = 6.48447 7.13791 6.81902
#
# Compressibility (1/GPa) = 0.01706574
#
# Stress axis : x y z
#
# Youngs Moduli (GPa) = 93.67764 73.12784 78.29791
#
# Poissons Ratio (x) = 0.14820 0.22977
# Poissons Ratio (y) = 0.18985 0.39671
# Poissons Ratio (z) = 0.27490 0.37051
#
# Static dielectric constant tensor:
#      x y z
#    x 1.975160 -0.025580 0.024020 
#    y -0.025580 2.060640 -0.020670 
#    z 0.024020 -0.020670 1.986080 
# 
# From -- ./inp_files/537102.got.cif
#   From: 2010.05.17/outbox.cif.g08.bks.cpg/sg2_269_cif.got.tgz:537102.got - 2010.06.03 11:33:40.
