data_PCOD9061767
_publ_section_title
;
Structure prediction by ZEFSAII (Michael W. Deem and Ramdas Pophale) SiO2 
 PCOD9061767
Probable space group: P -1
;
_chemical_formula_sum "Si O2"
_cell_formula_units_Z 14
_cell_length_a 7.841297
_cell_length_b 6.891134
_cell_length_c 20.702471
_cell_angle_alpha 113.543793
_cell_angle_beta 135.109777
_cell_angle_gamma 91.268964
_cell_volume 638.227760
_symmetry_space_group_name_H-M "P -1"
_symmetry_group_IT_number 2
_symmetry_cell_setting 'triclinic'
loop_
_space_group_symop_operation_xyz
x,y,z
-x,-y,-z
loop_
_atom_site_type_symbol
_atom_site_label
_atom_site_fract_x
_atom_site_fract_y
_atom_site_fract_z
Si Si1 0.522738 0.502349 0.583709
Si Si2 0.941079 0.970354 0.556415
Si Si3 0.311651 0.492413 0.746731
Si Si4 0.613849 0.197865 0.318975
Si Si5 0.136286 0.752618 0.836131
Si Si6 0.700068 0.300476 0.874092
Si Si7 0.467804 0.734959 0.032163
O O1 0.500000 0.500000 0.500000
O O2 0.357023 0.232725 0.531140
O O3 0.390820 0.660626 0.599878
O O4 0.830049 0.625034 0.710359
O O5 0.144444 0.874003 0.625409
O O6 0.000000 0.000000 0.500000
O O7 0.035156 0.237836 0.642227
O O8 0.343147 0.627990 0.706285
O O9 0.306048 0.657032 0.824856
O O10 0.553449 0.422656 0.809982
O O11 0.340255 0.942318 0.203367
O O12 0.279900 0.036984 0.901795
O O13 0.193622 0.703213 0.918027
O O14 0.541161 0.216655 0.888416
O O15 0.000000 0.500000 0.000000
O O16 0.500000 0.500000 0.000000
#
# Coordination Sequence:
#
# PCOD9061767 Si02
#       7
#     2   2   2   2   2   2   2
#     4  12  28  45  72 106 141 186 238 295 346 420
#     4  11  25  46  72  98 135 188 234 286 352 414
#     4  11  23  46  69  97 141 187 225 289 356 419
#     4  11  25  47  69  98 148 180 235 290 358 418
#     4  11  26  44  70 101 140 183 229 286 359 413
#     4  11  26  42  73 103 134 184 239 288 346 426
#     4  11  24  46  68 101 143 181 223 290 357 413
#
# _framework density 21.935744
#
# number of rings (size 3 to 8) (size 9 to 14) (size 15 to 20)
#    0.000    0.857    4.286    1.286    8.000    1.143 
#    0.000    0.000    0.000    0.000    0.000    0.000 
#    0.000    0.000    0.000    0.000    0.000    0.000 
#
# Total GULP energy -78349.089206 kJ/mol
# GULP energy per Si atom -5596.363515 kJ/mol
# Density = 2.188582 g / cm^3
# Si number density = 21.935744 Si / 1000 Ang^3
#
#
#
# Elastic Constant Matrix: (Units=GPa)
#
#
# Indices 1 2 3 4 5 6 
#
# 1 41.3330 26.8866 11.4077 3.9387 -19.1055 4.6050
# 2 26.8866 161.9896 68.0766 6.2103 -2.1315 4.2083
# 3 11.4077 68.0766 136.7492 11.6603 8.4764 10.3224
# 4 3.9387 6.2103 11.6603 57.5646 2.9600 -13.4618
# 5 -19.1055 -2.1315 8.4764 2.9600 46.7688 4.1666
# 6 4.6050 4.2083 10.3224 -13.4618 4.1666 27.9453
#
#
#
# Elastic Compliance Matrix: (Units=1/GPa)
#
#
# Indices 1 2 3 4 5 6 
#
# 1 0.036719 -0.005342 -0.000211 -0.005052 0.016004 -0.009988
# 2 -0.005342 0.008638 -0.003949 0.000659 -0.001252 0.001542
# 3 -0.000211 -0.003949 0.009897 -0.002409 -0.001555 -0.003955
# 4 -0.005052 0.000659 -0.002409 0.021259 -0.004053 0.012468
# 5 0.016004 -0.001252 -0.001555 -0.004053 0.029129 -0.008170
# 6 -0.009988 0.001542 -0.003955 0.012468 -0.008170 0.045883
#
#
# Mechanical properties :
#
#
# Convention : Reuss Voigt Hill
#
# Bulk Modulus (GPa) = 27.58742 61.42373 44.50558
# Shear Modulus (GPa) = 27.38050 42.03582 34.70816
#
# Velocity S-wave (km/s) = 3.53684 4.38232 3.98208
# Velocity P-wave (km/s) = 5.41135 7.32590 6.44017
#
# Compressibility (1/GPa) = 0.03624840
#
# Stress axis : x y z
#
# Youngs Moduli (GPa) = 27.23392 115.76917 101.04367
#
# Poissons Ratio (x) = 0.61845 0.02132
# Poissons Ratio (y) = 0.14549 0.39907
# Poissons Ratio (z) = 0.00575 0.45723
#
# Static dielectric constant tensor:
#      x y z
#    x 1.794540 0.001690 0.019350 
#    y 0.001690 1.782150 0.018130 
#    z 0.019350 0.018130 1.845900 
# 
# From -- ./inp_files/46626.got.cif
#   From: 2010.05.17/outbox.cif.g08.bks.cpg/sg2_24_cif.got.tgz:46626.got - 2010.06.03 11:33:40.
