data_PCOD9061209
_publ_section_title
;
Structure prediction by ZEFSAII (Michael W. Deem and Ramdas Pophale) SiO2 
 PCOD9061209
Probable space group: P -1
;
_chemical_formula_sum "Si O2"
_cell_formula_units_Z 16
_cell_length_a 13.540741
_cell_length_b 12.784460
_cell_length_c 8.433805
_cell_angle_alpha 46.532211
_cell_angle_beta 62.860201
_cell_angle_gamma 41.503717
_cell_volume 696.851524
_symmetry_space_group_name_H-M "P -1"
_symmetry_group_IT_number 2
_symmetry_cell_setting 'triclinic'
loop_
_space_group_symop_operation_xyz
x,y,z
-x,-y,-z
loop_
_atom_site_type_symbol
_atom_site_label
_atom_site_fract_x
_atom_site_fract_y
_atom_site_fract_z
Si Si1 0.149131 0.663228 0.172454
Si Si2 0.841075 0.708669 0.929391
Si Si3 0.844941 0.631107 0.373992
Si Si4 0.338339 0.650768 0.541906
Si Si5 0.088573 0.947020 0.174015
Si Si6 0.795542 0.035695 0.437614
Si Si7 0.325129 0.394043 0.013292
Si Si8 0.610144 0.025871 0.321883
O O1 0.183621 0.514778 0.435048
O O2 0.156668 0.806696 0.115534
O O3 0.245124 0.526711 0.092546
O O4 0.980122 0.837114 0.046444
O O5 0.840101 0.873093 0.699886
O O6 0.825596 0.696698 0.139603
O O7 0.729928 0.713741 0.893183
O O8 0.000000 0.500000 0.000000
O O9 0.000000 0.500000 0.500000
O O10 0.726568 0.830591 0.343405
O O11 0.500000 0.500000 0.500000
O O12 0.219943 0.828022 0.327619
O O13 0.320327 0.755248 0.609238
O O14 0.290677 0.532286 0.751268
O O15 0.945638 0.985160 0.316596
O O16 0.705034 0.034981 0.367038
O O17 0.501703 0.226207 0.093657
O O18 0.500000 0.000000 0.500000
#
# Coordination Sequence:
#
# PCOD9061209 Si02
#       8
#     2   2   2   2   2   2   2   2
#     4  11  23  44  75 104 144 193 246 301 366 428
#     4  12  26  44  76 108 148 191 248 300 371 434
#     4  12  26  44  73 109 145 197 246 303 362 443
#     4  12  30  47  72 111 150 195 246 304 376 436
#     4  11  26  48  76 107 147 195 251 305 362 449
#     4  12  26  49  75 109 146 202 240 306 368 443
#     4  12  26  48  74 108 150 196 237 315 367 439
#     4  12  26  48  73 108 149 186 250 303 372 431
#
# _framework density 22.960415000000001
#
# number of rings (size 3 to 8) (size 9 to 14) (size 15 to 20)
#    0.000    0.250    3.750    4.875    7.000    4.000 
#    0.000    0.000    0.000    0.000    0.000    0.000 
#    0.000    0.000    0.000    0.000    0.000    0.000 
#
# Total GULP energy -89434.318824 kJ/mol
# GULP energy per Si atom -5589.644926 kJ/mol
# Density = 2.290816 g / cm^3
# Si number density = 22.960415 Si / 1000 Ang^3
#
#
#
# Elastic Constant Matrix: (Units=GPa)
#
#
# Indices 1 2 3 4 5 6 
#
# 1 77.9563 63.0058 21.2502 6.5973 13.5769 -1.1994
# 2 63.0058 183.3048 37.2529 -5.8649 8.7126 7.2263
# 3 21.2502 37.2529 125.3575 -3.7099 11.8147 3.2757
# 4 6.5973 -5.8649 -3.7099 45.4175 -4.7144 2.5628
# 5 13.5769 8.7126 11.8147 -4.7144 44.0949 -4.3023
# 6 -1.1994 7.2263 3.2757 2.5628 -4.3023 28.0887
#
#
#
# Elastic Compliance Matrix: (Units=1/GPa)
#
#
# Indices 1 2 3 4 5 6 
#
# 1 0.019643 -0.006530 -0.001138 -0.004409 -0.004696 0.002334
# 2 -0.006530 0.008074 -0.001241 0.002097 0.000749 -0.002288
# 3 -0.001138 -0.001241 0.008754 0.000595 -0.001791 -0.001079
# 4 -0.004409 0.002097 0.000595 0.023433 0.003048 -0.002468
# 5 -0.004696 0.000749 -0.001791 0.003048 0.025112 0.003384
# 6 0.002334 -0.002288 -0.001079 -0.002468 0.003384 0.037159
#
#
# Mechanical properties :
#
#
# Convention : Reuss Voigt Hill
#
# Bulk Modulus (GPa) = 53.61500 69.95958 61.78729
# Shear Modulus (GPa) = 34.19719 41.19422 37.69570
#
# Velocity S-wave (km/s) = 3.86346 4.24033 4.05627
# Velocity P-wave (km/s) = 6.58054 7.38306 6.99332
#
# Compressibility (1/GPa) = 0.01865150
#
# Stress axis : x y z
#
# Youngs Moduli (GPa) = 50.90952 123.85631 114.23929
#
# Poissons Ratio (x) = 0.80881 0.13001
# Poissons Ratio (y) = 0.33245 0.14178
# Poissons Ratio (z) = 0.05794 0.15372
#
# Static dielectric constant tensor:
#      x y z
#    x 1.630380 0.029060 0.064200 
#    y 0.029060 1.737820 -0.000220 
#    z 0.064200 -0.000220 1.861110 
# 
# From -- ./inp_files/306495.got.cif
#   From: 2010.05.17/outbox.cif.g08.bks.cpg/sg2_154_cif.got.tgz:306495.got - 2010.06.03 11:33:40.
