data_PCOD9061322
_publ_section_title
;
Structure prediction by ZEFSAII (Michael W. Deem and Ramdas Pophale) SiO2 
 PCOD9061322
Probable space group: P -1
;
_chemical_formula_sum "Si O2"
_cell_formula_units_Z 16
_cell_length_a 5.433182
_cell_length_b 9.264967
_cell_length_c 16.428159
_cell_angle_alpha 88.459927
_cell_angle_beta 62.562458
_cell_angle_gamma 67.934559
_cell_volume 669.350344
_symmetry_space_group_name_H-M "P -1"
_symmetry_group_IT_number 2
_symmetry_cell_setting 'triclinic'
loop_
_space_group_symop_operation_xyz
x,y,z
-x,-y,-z
loop_
_atom_site_type_symbol
_atom_site_label
_atom_site_fract_x
_atom_site_fract_y
_atom_site_fract_z
Si Si1 0.103079 0.135141 0.219967
Si Si2 0.332845 0.916894 0.418021
Si Si3 0.514501 0.782720 0.634156
Si Si4 0.784770 0.588087 0.752828
Si Si5 0.715656 0.318437 0.858830
Si Si6 0.707721 0.599547 0.456710
Si Si7 0.569669 0.829870 0.222549
Si Si8 0.784746 0.048832 0.953869
O O1 0.113294 0.303443 0.205809
O O2 0.045832 0.049695 0.150866
O O3 0.842615 0.168844 0.327230
O O4 0.423517 0.006353 0.206078
O O5 0.524929 0.779788 0.451562
O O6 0.357975 0.830342 0.329875
O O7 0.444822 0.055429 0.382940
O O8 0.000000 0.000000 0.500000
O O9 0.562594 0.705906 0.717824
O O10 0.752899 0.647106 0.542206
O O11 0.658614 0.491425 0.832481
O O12 0.052658 0.477139 0.652005
O O13 0.496718 0.272136 0.834728
O O14 0.086917 0.231783 0.797824
O O15 0.679393 0.236792 0.949939
O O16 0.500000 0.500000 0.500000
O O17 0.500000 0.000000 0.000000
O O18 0.000000 0.000000 0.000000
#
# Coordination Sequence:
#
# PCOD9061322 Si02
#       8
#     2   2   2   2   2   2   2   2
#     4  11  25  46  74 105 143 182 243 296 370 438
#     4  12  24  39  65  93 138 193 263 304 353 404
#     4  12  26  45  68  99 147 201 250 301 356 426
#     4  12  26  43  69 104 150 195 238 302 360 437
#     4  11  26  45  77 107 142 186 239 293 374 429
#     4  12  25  43  62 101 146 195 258 301 361 402
#     4  11  23  45  68 101 138 192 244 295 343 435
#     4  11  25  49  82 110 140 181 240 303 367 452
#
# _framework density 23.903777000000002
#
# number of rings (size 3 to 8) (size 9 to 14) (size 15 to 20)
#    0.000    0.500    3.750    5.250    7.000    0.000 
#    0.000    1.250    0.000    0.000    0.000    0.000 
#    0.000    0.000    0.000    0.000    0.000    0.000 
#
# Total GULP energy -89279.549754 kJ/mol
# GULP energy per Si atom -5579.971860 kJ/mol
# Density = 2.384937 g / cm^3
# Si number density = 23.903777 Si / 1000 Ang^3
#
#
#
# Elastic Constant Matrix: (Units=GPa)
#
#
# Indices 1 2 3 4 5 6 
#
# 1 59.2392 31.4956 15.6653 -15.0219 2.0120 8.5045
# 2 31.4956 137.9687 19.8691 -36.9649 -6.6432 23.5143
# 3 15.6653 19.8691 57.5930 -19.5336 7.6486 -0.5236
# 4 -15.0219 -36.9649 -19.5336 53.3829 0.0265 -10.2154
# 5 2.0120 -6.6432 7.6486 0.0265 50.6478 -3.0054
# 6 8.5045 23.5143 -0.5236 -10.2154 -3.0054 35.4098
#
#
#
# Elastic Compliance Matrix: (Units=1/GPa)
#
#
# Indices 1 2 3 4 5 6 
#
# 1 0.020421 -0.003324 -0.003773 0.001614 -0.000818 -0.002357
# 2 -0.003324 0.010341 -0.001228 0.004904 0.001401 -0.004553
# 3 -0.003773 -0.001228 0.021514 0.006671 -0.003044 0.003706
# 4 0.001614 0.004904 0.006671 0.025764 -0.000212 0.003869
# 5 -0.000818 0.001401 -0.003044 -0.000212 0.020473 0.000898
# 6 -0.002357 -0.004553 0.003706 0.003869 0.000898 0.033078
#
#
# Mechanical properties :
#
#
# Convention : Reuss Voigt Hill
#
# Bulk Modulus (GPa) = 28.06939 43.20679 35.63809
# Shear Modulus (GPa) = 31.22750 40.40617 35.81683
#
# Velocity S-wave (km/s) = 3.61831 4.11587 3.87508
# Velocity P-wave (km/s) = 5.40596 6.37979 5.91296
#
# Compressibility (1/GPa) = 0.03562600
#
# Stress axis : x y z
#
# Youngs Moduli (GPa) = 48.96924 96.70314 46.48239
#
# Poissons Ratio (x) = 0.32141 0.17540
# Poissons Ratio (y) = 0.16276 0.05707
# Poissons Ratio (z) = 0.18478 0.11872
#
# Static dielectric constant tensor:
#      x y z
#    x 1.997160 -0.020780 0.019810 
#    y -0.020780 1.958960 -0.036950 
#    z 0.019810 -0.036950 2.069090 
# 
# From -- ./inp_files/48578.got.cif
#   From: 2010.05.17/outbox.cif.g08.bks.cpg/sg2_25_cif.got.tgz:48578.got - 2010.06.03 11:33:40.
