data_PCOD9061920
_publ_section_title
;
Structure prediction by ZEFSAII (Michael W. Deem and Ramdas Pophale) SiO2 
 PCOD9061920
Probable space group: P -1
;
_chemical_formula_sum "Si O2"
_cell_formula_units_Z 16
_cell_length_a 25.642115
_cell_length_b 11.162786
_cell_length_c 8.189798
_cell_angle_alpha 143.957190
_cell_angle_beta 134.300843
_cell_angle_gamma 32.479243
_cell_volume 739.697030
_symmetry_space_group_name_H-M "P -1"
_symmetry_group_IT_number 2
_symmetry_cell_setting 'triclinic'
loop_
_space_group_symop_operation_xyz
x,y,z
-x,-y,-z
loop_
_atom_site_type_symbol
_atom_site_label
_atom_site_fract_x
_atom_site_fract_y
_atom_site_fract_z
Si Si1 0.254678 0.234950 0.743200
Si Si2 0.920580 0.313023 0.718688
Si Si3 0.656758 0.276467 0.202466
Si Si4 0.414123 0.267231 0.706717
Si Si5 0.076242 0.344582 0.643272
Si Si6 0.542431 0.258051 0.201901
Si Si7 0.753484 0.753130 0.632426
Si Si8 0.814568 0.250504 0.689387
O O1 0.178962 0.239015 0.683168
O O2 0.256984 0.156962 0.476788
O O3 0.360688 0.023812 0.823577
O O4 0.212840 0.542278 0.998863
O O5 0.861795 0.485984 0.620252
O O6 0.845988 0.333665 0.698431
O O7 0.953548 0.451248 0.046786
O O8 0.000000 0.000000 0.500000
O O9 0.617460 0.483361 0.196479
O O10 0.575222 0.315023 0.172170
O O11 0.719358 0.303265 0.487256
O O12 0.726279 0.978436 0.948751
O O13 0.323609 0.285340 0.552331
O O14 0.500000 0.000000 0.500000
O O15 0.460269 0.251343 0.961144
O O16 0.000000 0.500000 0.500000
O O17 0.099858 0.068786 0.439920
O O18 0.500000 0.500000 0.500000
#
# Coordination Sequence:
#
# PCOD9061920 Si02
#       8
#     2   2   2   2   2   2   2   2
#     4  11  27  45  68 101 139 175 228 279 337 405
#     4  11  26  46  70 105 138 174 228 277 337 407
#     4  12  23  47  68  96 138 178 226 279 335 397
#     4  12  26  43  71  98 133 181 229 275 335 396
#     4  11  26  47  73 101 136 180 223 276 343 405
#     4  12  26  45  68 102 138 180 229 279 338 399
#     4  12  26  45  68 103 135 179 226 279 337 401
#     4  11  23  46  73  93 139 183 215 283 339 396
#
# _framework density 21.630479000000001
#
# number of rings (size 3 to 8) (size 9 to 14) (size 15 to 20)
#    0.000    0.500    5.000    2.625    7.000    4.000 
#    0.000    0.000    0.000    0.000    0.000    0.000 
#    0.000    0.000    0.000    0.000    0.000    0.000 
#
# Total GULP energy -89560.004940 kJ/mol
# GULP energy per Si atom -5597.500309 kJ/mol
# Density = 2.158125 g / cm^3
# Si number density = 21.630479 Si / 1000 Ang^3
#
#
#
# Elastic Constant Matrix: (Units=GPa)
#
#
# Indices 1 2 3 4 5 6 
#
# 1 32.3114 -12.6343 -6.2558 7.4464 -7.9570 6.9184
# 2 -12.6343 111.5977 13.1778 1.2110 3.5482 8.7157
# 3 -6.2558 13.1778 93.8543 5.2699 -7.6693 -6.5594
# 4 7.4464 1.2110 5.2699 40.8665 0.2978 -3.7425
# 5 -7.9570 3.5482 -7.6693 0.2978 29.9777 5.6088
# 6 6.9184 8.7157 -6.5594 -3.7425 5.6088 30.0805
#
#
#
# Elastic Compliance Matrix: (Units=1/GPa)
#
#
# Indices 1 2 3 4 5 6 
#
# 1 0.042352 0.005255 0.002769 -0.009661 0.014136 -0.014497
# 2 0.005255 0.010064 -0.001243 -0.001535 0.000787 -0.004733
# 3 0.002769 -0.001243 0.011505 -0.001856 0.003595 0.001331
# 4 -0.009661 -0.001535 -0.001856 0.027137 -0.004333 0.006446
# 5 0.014136 0.000787 0.003595 -0.004333 0.039980 -0.010689
# 6 -0.014497 -0.004733 0.001331 0.006446 -0.010689 0.041035
#
#
# Mechanical properties :
#
#
# Convention : Reuss Voigt Hill
#
# Bulk Modulus (GPa) = 12.90594 25.14875 19.02735
# Shear Modulus (GPa) = 27.12424 36.41666 31.77045
#
# Velocity S-wave (km/s) = 3.54500 4.10760 3.83663
# Velocity P-wave (km/s) = 4.76818 5.84365 5.33310
#
# Compressibility (1/GPa) = 0.07748371
#
# Stress axis : x y z
#
# Youngs Moduli (GPa) = 23.61182 99.36564 86.91936
#
# Poissons Ratio (x) = -0.52220 -0.24071
# Poissons Ratio (y) = -0.12409 0.10805
# Poissons Ratio (z) = -0.06539 0.12352
#
# Static dielectric constant tensor:
#      x y z
#    x 1.557760 -0.079620 0.141790 
#    y -0.079620 1.736870 0.061700 
#    z 0.141790 0.061700 1.691030 
# 
# From -- ./inp_files/37298.got.cif
#   From: 2010.05.17/outbox.cif.g08.bks.cpg/sg2_19_cif.got.tgz:37298.got - 2010.06.03 11:33:40.
