data_PCOD9061524
_publ_section_title
;
Structure prediction by ZEFSAII (Michael W. Deem and Ramdas Pophale) SiO2 
 PCOD9061524
Probable space group: P -1
;
_chemical_formula_sum "Si O2"
_cell_formula_units_Z 14
_cell_length_a 6.087028
_cell_length_b 12.343852
_cell_length_c 11.070070
_cell_angle_alpha 120.058791
_cell_angle_beta 67.911226
_cell_angle_gamma 125.123196
_cell_volume 584.275222
_symmetry_space_group_name_H-M "P -1"
_symmetry_group_IT_number 2
_symmetry_cell_setting 'triclinic'
loop_
_space_group_symop_operation_xyz
x,y,z
-x,-y,-z
loop_
_atom_site_type_symbol
_atom_site_label
_atom_site_fract_x
_atom_site_fract_y
_atom_site_fract_z
Si Si1 0.014619 0.651036 0.563186
Si Si2 0.424194 0.114780 0.530678
Si Si3 0.947544 0.112606 0.697621
Si Si4 0.569732 0.142230 0.989555
Si Si5 0.049039 0.440813 0.088202
Si Si6 0.195640 0.404217 0.664705
Si Si7 0.692083 0.664707 0.851354
O O1 0.307212 0.755097 0.504409
O O2 0.000000 0.500000 0.500000
O O3 0.786045 0.622773 0.494326
O O4 0.941793 0.706302 0.731035
O O5 0.235949 0.125531 0.681829
O O6 0.500000 0.000000 0.500000
O O7 0.229230 0.039174 0.414415
O O8 0.741486 0.131802 0.836794
O O9 0.073820 0.250547 0.663336
O O10 0.348218 0.195803 0.041373
O O11 0.790628 0.289059 0.085725
O O12 0.500000 0.000000 0.000000
O O13 0.275962 0.400488 0.063981
O O14 0.039550 0.551930 0.245147
O O15 0.000000 0.500000 0.000000
O O16 0.448922 0.527717 0.753834
#
# Coordination Sequence:
#
# PCOD9061524 Si02
#       7
#     2   2   2   2   2   2   2
#     4  12  24  46  76 111 150 191 250 309 387 432
#     4  11  26  44  72 104 141 194 248 302 363 454
#     4  11  25  47  69 103 149 193 250 303 374 442
#     4  11  28  46  71 107 155 200 242 312 379 444
#     4  11  24  49  71 112 143 196 263 298 371 457
#     4  11  23  45  72 111 144 200 241 312 375 442
#     4  11  27  44  78 114 153 195 253 314 374 453
#
# _framework density 23.961313000000001
#
# number of rings (size 3 to 8) (size 9 to 14) (size 15 to 20)
#    0.000    0.857    4.286    1.286    4.000    4.000 
#    0.000    0.000    0.000    0.000    0.000    0.000 
#    0.000    0.000    0.000    0.000    0.000    0.000 
#
# Total GULP energy -77964.805910 kJ/mol
# GULP energy per Si atom -5568.914708 kJ/mol
# Density = 2.390678 g / cm^3
# Si number density = 23.961313 Si / 1000 Ang^3
#
#
#
# Elastic Constant Matrix: (Units=GPa)
#
#
# Indices 1 2 3 4 5 6 
#
# 1 104.7502 64.3039 49.6465 -8.4183 -15.0750 -20.9789
# 2 64.3039 172.4715 33.2570 9.4103 0.6075 -12.6276
# 3 49.6465 33.2570 105.0885 -5.3061 -29.8929 -14.9986
# 4 -8.4183 9.4103 -5.3061 37.1557 -8.0861 -2.3536
# 5 -15.0750 0.6075 -29.8929 -8.0861 40.5433 6.0596
# 6 -20.9789 -12.6276 -14.9986 -2.3536 6.0596 54.6882
#
#
#
# Elastic Compliance Matrix: (Units=1/GPa)
#
#
# Indices 1 2 3 4 5 6 
#
# 1 0.016631 -0.005414 -0.004284 0.005562 0.003649 0.003790
# 2 -0.005414 0.008346 -0.001520 -0.004470 -0.004105 -0.000304
# 3 -0.004284 -0.001520 0.015336 0.003932 0.010337 0.001235
# 4 0.005562 -0.004470 0.003932 0.032443 0.011155 0.002340
# 5 0.003649 -0.004105 0.010337 0.011155 0.035962 -0.000218
# 6 0.003790 -0.000304 0.001235 0.002340 -0.000218 0.020133
#
#
# Mechanical properties :
#
#
# Convention : Reuss Voigt Hill
#
# Bulk Modulus (GPa) = 55.93767 75.19165 65.56466
# Shear Modulus (GPa) = 31.79710 42.15096 36.97403
#
# Velocity S-wave (km/s) = 3.64678 4.19874 3.93246
# Velocity P-wave (km/s) = 6.41309 7.41313 6.93117
#
# Compressibility (1/GPa) = 0.01787704
#
# Stress axis : x y z
#
# Youngs Moduli (GPa) = 60.12713 119.82227 65.20533
#
# Poissons Ratio (x) = 0.64866 0.27935
# Poissons Ratio (y) = 0.32550 0.09914
# Poissons Ratio (z) = 0.25759 0.18218
#
# Static dielectric constant tensor:
#      x y z
#    x 2.331730 -0.102510 -0.222600 
#    y -0.102510 1.805070 -0.097720 
#    z -0.222600 -0.097720 1.985380 
# 
# From -- ./inp_files/365173.got.cif
#   From: 2010.05.17/outbox.cif.g08.bks.cpg/sg2_183_cif.got.tgz:365173.got - 2010.06.03 11:33:40.
