data_PCOD9061407
_publ_section_title
;
Structure prediction by ZEFSAII (Michael W. Deem and Ramdas Pophale) SiO2 
 PCOD9061407
Probable space group: P -1
;
_chemical_formula_sum "Si O2"
_cell_formula_units_Z 14
_cell_length_a 10.237851
_cell_length_b 14.134940
_cell_length_c 18.788628
_cell_angle_alpha 19.711959
_cell_angle_beta 143.702998
_cell_angle_gamma 136.410016
_cell_volume 534.744445
_symmetry_space_group_name_H-M "P -1"
_symmetry_group_IT_number 2
_symmetry_cell_setting 'triclinic'
loop_
_space_group_symop_operation_xyz
x,y,z
-x,-y,-z
loop_
_atom_site_type_symbol
_atom_site_label
_atom_site_fract_x
_atom_site_fract_y
_atom_site_fract_z
Si Si1 0.000000 0.000000 0.000000
Si Si2 0.373047 0.437840 0.740204
Si Si3 0.516960 0.081748 0.740207
Si Si4 0.777726 0.728268 0.757018
Si Si5 0.307154 0.757697 0.757017
Si Si6 0.500000 0.000000 0.000000
Si Si7 0.015576 0.891142 0.327315
Si Si8 0.078662 0.454224 0.327319
O O1 0.743513 0.142477 0.763110
O O2 0.985920 0.226106 0.901282
O O3 0.566189 0.572529 0.768378
O O4 0.146515 0.653148 0.501820
O O5 0.432338 0.331303 0.763109
O O6 0.381086 0.131091 0.999997
O O7 0.336578 0.343205 0.501826
O O8 0.384376 0.890716 0.768378
O O9 0.728485 0.978486 0.500000
O O10 0.826285 0.883166 0.741672
O O11 0.000000 0.500000 0.000000
O O12 0.076609 0.633495 0.741668
O O13 0.500000 0.500000 0.000000
O O14 0.768856 0.028672 0.098716
O O15 0.977498 0.727498 0.500000
#
# Coordination Sequence:
#
# PCOD9061407 Si02
#       8
#     1   2   2   2   2   1   2   2
#     4  12  24  44  68 102 148 186 238 288 366 444
#     4  12  24  47  75 101 144 193 239 305 363 425
#     4  12  24  47  75 101 144 193 239 305 363 425
#     4  11  23  47  75 109 144 187 247 301 354 430
#     4  11  23  47  75 109 144 187 247 301 354 430
#     4  12  24  44  68 102 148 186 238 288 366 444
#     4  11  23  45  70 102 144 184 237 299 359 424
#     4  11  23  45  70 102 144 184 237 299 359 424
#
# _framework density 26.180730000000001
#
# number of rings (size 3 to 8) (size 9 to 14) (size 15 to 20)
#    0.000    0.571    5.714    3.429    0.000    1.143 
#    5.143    1.429    0.000    0.000    0.000    0.000 
#    0.000    0.000    0.000    0.000    0.000    0.000 
#
# Total GULP energy -77994.913014 kJ/mol
# GULP energy per Si atom -5571.065215 kJ/mol
# Density = 2.612114 g / cm^3
# Si number density = 26.180730 Si / 1000 Ang^3
#
#
#
# Elastic Constant Matrix: (Units=GPa)
#
#
# Indices 1 2 3 4 5 6 
#
# 1 62.2390 12.9196 65.8051 -2.3516 24.4337 -0.1640
# 2 12.9196 180.3382 -7.4673 1.5238 8.9296 -2.6068
# 3 65.8051 -7.4673 160.9751 -2.4103 23.9925 0.3971
# 4 -2.3516 1.5238 -2.4103 68.4239 0.8240 29.1716
# 5 24.4337 8.9296 23.9925 0.8240 68.6403 -0.5857
# 6 -0.1640 -2.6068 0.3971 29.1716 -0.5857 53.4450
#
#
#
# Elastic Compliance Matrix: (Units=1/GPa)
#
#
# Indices 1 2 3 4 5 6 
#
# 1 0.032321 -0.002500 -0.012282 0.001069 -0.006905 -0.000590
# 2 -0.002500 0.005805 0.001333 -0.000360 -0.000323 0.000458
# 3 -0.012282 0.001333 0.011255 -0.000047 0.000265 -0.000028
# 4 0.001069 -0.000360 -0.000047 0.019125 -0.000636 -0.010460
# 5 -0.006905 -0.000323 0.000265 -0.000636 0.016988 0.000494
# 6 -0.000590 0.000458 -0.000028 -0.010460 0.000494 0.024446
#
#
# Mechanical properties :
#
#
# Convention : Reuss Voigt Hill
#
# Bulk Modulus (GPa) = 44.47804 60.67414 52.57609
# Shear Modulus (GPa) = 34.64237 60.25484 47.44861
#
# Velocity S-wave (km/s) = 3.64153 4.80260 4.26179
# Velocity P-wave (km/s) = 5.89124 7.34702 6.65903
#
# Compressibility (1/GPa) = 0.02248300
#
# Stress axis : x y z
#
# Youngs Moduli (GPa) = 30.93946 172.26328 88.85268
#
# Poissons Ratio (x) = 0.43062 1.09128
# Poissons Ratio (y) = 0.07734 -0.11842
# Poissons Ratio (z) = 0.38000 -0.22959
#
# Static dielectric constant tensor:
#      x y z
#    x 1.612920 0.008700 0.018570 
#    y 0.008700 2.056280 0.009190 
#    z 0.018570 0.009190 1.892910 
# 
# From -- ./inp_files/541202.got.cif
#   From: 2010.05.17/outbox.cif.g08.bks.cpg/sg2_271_cif.got.tgz:541202.got - 2010.06.03 11:33:40.
