data_PCOD9061156
_publ_section_title
;
Structure prediction by ZEFSAII (Michael W. Deem and Ramdas Pophale) SiO2 
 PCOD9061156
Probable space group: P -1
;
_chemical_formula_sum "Si O2"
_cell_formula_units_Z 13
_cell_length_a 7.864534
_cell_length_b 8.986995
_cell_length_c 10.338944
_cell_angle_alpha 85.511504
_cell_angle_beta 44.342179
_cell_angle_gamma 82.507855
_cell_volume 506.266880
_symmetry_space_group_name_H-M "P -1"
_symmetry_group_IT_number 2
_symmetry_cell_setting 'triclinic'
loop_
_space_group_symop_operation_xyz
x,y,z
-x,-y,-z
loop_
_atom_site_type_symbol
_atom_site_label
_atom_site_fract_x
_atom_site_fract_y
_atom_site_fract_z
Si Si1 0.204788 0.919443 0.984186
Si Si2 0.494866 0.653815 0.702763
Si Si3 0.382112 0.222646 0.883675
Si Si4 0.952388 0.687942 0.307611
Si Si5 0.773357 0.620079 0.810970
Si Si6 0.000000 0.500000 0.000000
Si Si7 0.903878 0.174160 0.512853
O O1 0.402584 0.816705 0.799941
O O2 0.329124 0.056939 0.966560
O O3 0.057377 0.818758 0.163420
O O4 0.000000 0.000000 0.000000
O O5 0.667073 0.668986 0.484391
O O6 0.658010 0.581704 0.739636
O O7 0.262590 0.565453 0.817721
O O8 0.151871 0.326378 0.943857
O O9 0.611541 0.198595 0.664811
O O10 0.431886 0.309775 0.983892
O O11 0.082419 0.528986 0.194068
O O12 0.028727 0.727783 0.407902
O O13 0.959258 0.745790 0.680750
O O14 0.000000 0.000000 0.500000
#
# Coordination Sequence:
#
# PCOD9061156 Si02
#       7
#     2   2   2   2   2   1   2
#     4  12  26  46  66 101 143 189 232 284 359 421
#     4  11  24  47  72 102 144 184 233 294 347 424
#     4  12  25  44  71 104 142 183 236 290 350 425
#     4  11  24  44  72 103 142 184 236 292 351 411
#     4  11  24  44  75 108 136 184 238 292 352 412
#     4  12  24  44  68 102 146 188 226 282 356 424
#     4  11  23  44  73 109 139 179 240 298 348 414
#
# _framework density 25.678155
#
# number of rings (size 3 to 8) (size 9 to 14) (size 15 to 20)
#    0.000    0.615    1.538    8.308    0.000    4.308 
#    2.769    2.308    0.000    0.000    0.000    0.000 
#    0.000    0.000    0.000    0.000    0.000    0.000 
#
# Total GULP energy -72635.317811 kJ/mol
# GULP energy per Si atom -5587.332139 kJ/mol
# Density = 2.561971 g / cm^3
# Si number density = 25.678155 Si / 1000 Ang^3
#
#
#
# Elastic Constant Matrix: (Units=GPa)
#
#
# Indices 1 2 3 4 5 6 
#
# 1 55.4423 22.3782 24.4544 -7.8866 -27.1500 -5.6213
# 2 22.3782 214.3934 93.1568 -15.5975 -22.8162 -1.1019
# 3 24.4544 93.1568 190.6453 -7.5801 -47.5523 -5.0778
# 4 -7.8866 -15.5975 -7.5801 49.0610 10.5317 0.0187
# 5 -27.1500 -22.8162 -47.5523 10.5317 40.0467 2.5063
# 6 -5.6213 -1.1019 -5.0778 0.0187 2.5063 45.8812
#
#
#
# Elastic Compliance Matrix: (Units=1/GPa)
#
#
# Indices 1 2 3 4 5 6 
#
# 1 0.028149 -0.001823 0.002576 -0.000163 0.020988 0.002544
# 2 -0.001823 0.006153 -0.003198 0.001582 -0.001924 -0.000325
# 3 0.002576 -0.003198 0.009246 -0.001596 0.011282 0.000646
# 4 -0.000163 0.001582 -0.001596 0.022100 -0.006930 0.000211
# 5 0.020988 -0.001924 0.011282 -0.006930 0.053268 0.000867
# 6 0.002544 -0.000325 0.000646 0.000211 0.000867 0.022123
#
#
# Mechanical properties :
#
#
# Convention : Reuss Voigt Hill
#
# Bulk Modulus (GPa) = 25.86835 82.27332 54.07084
# Shear Modulus (GPa) = 31.48320 48.36388 39.92354
#
# Velocity S-wave (km/s) = 3.50533 4.34460 3.94733
# Velocity P-wave (km/s) = 5.14578 7.56817 6.47133
#
# Compressibility (1/GPa) = 0.03865727
#
# Stress axis : x y z
#
# Youngs Moduli (GPa) = 35.52581 162.52180 108.16041
#
# Poissons Ratio (x) = 0.29623 -0.27864
# Poissons Ratio (y) = 0.06475 0.34594
# Poissons Ratio (z) = -0.09152 0.51980
#
# Static dielectric constant tensor:
#      x y z
#    x 2.263850 0.040430 0.124180 
#    y 0.040430 2.010920 0.004610 
#    z 0.124180 0.004610 2.124070 
# 
# From -- ./inp_files/237503.got.cif
#   From: 2010.05.17/outbox.cif.g08.bks.cpg/sg2_119_cif.got.tgz:237503.got - 2010.06.03 11:33:40.
