data_PCOD9061084
_publ_section_title
;
Structure prediction by ZEFSAII (Michael W. Deem and Ramdas Pophale) SiO2 
 PCOD9061084
Probable space group: P -1
;
_chemical_formula_sum "Si O2"
_cell_formula_units_Z 16
_cell_length_a 11.550191
_cell_length_b 20.224665
_cell_length_c 11.836372
_cell_angle_alpha 151.866794
_cell_angle_beta 38.907650
_cell_angle_gamma 151.527882
_cell_volume 621.480694
_symmetry_space_group_name_H-M "P -1"
_symmetry_group_IT_number 2
_symmetry_cell_setting 'triclinic'
loop_
_space_group_symop_operation_xyz
x,y,z
-x,-y,-z
loop_
_atom_site_type_symbol
_atom_site_label
_atom_site_fract_x
_atom_site_fract_y
_atom_site_fract_z
Si Si1 0.133414 0.308389 0.662524
Si Si2 0.402530 0.984547 0.744386
Si Si3 0.091385 0.288013 0.414222
Si Si4 0.460663 0.718868 0.727662
Si Si5 0.538182 0.731637 0.013549
Si Si6 0.040853 0.621856 0.756612
Si Si7 0.495548 0.713107 0.274646
Si Si8 0.911705 0.805461 0.237785
O O1 0.002603 0.228356 0.520971
O O2 0.321303 0.270738 0.464504
O O3 0.289929 0.527323 0.870258
O O4 0.020281 0.248658 0.782361
O O5 0.518390 0.891660 0.542198
O O6 0.448336 0.116477 0.009091
O O7 0.489307 0.120768 0.776725
O O8 0.124851 0.811649 0.661089
O O9 0.267489 0.510329 0.611674
O O10 0.257550 0.239254 0.176147
O O11 0.301185 0.709536 0.738154
O O12 0.597681 0.735667 0.105558
O O13 0.788660 0.467277 0.782819
O O14 0.000000 0.500000 0.500000
O O15 0.036205 0.788460 0.011911
O O16 0.636634 0.697334 0.240399
O O17 0.000000 0.000000 0.500000
#
# Coordination Sequence:
#
# PCOD9061084 Si02
#       8
#     2   2   2   2   2   2   2   2
#     4  11  23  47  75 106 149 197 241 305 378 441
#     4  12  24  45  74 114 149 193 249 300 377 447
#     4  11  23  44  75 113 146 195 243 303 380 440
#     4  11  23  45  74 109 149 188 250 307 369 444
#     4  11  23  44  72 106 149 191 242 308 370 443
#     4  12  27  50  75 106 147 206 256 307 372 446
#     4  12  27  46  72 107 147 197 247 307 371 445
#     4  12  29  50  73 110 151 199 253 311 378 444
#
# _framework density 25.744966000000002
#
# number of rings (size 3 to 8) (size 9 to 14) (size 15 to 20)
#    0.000    0.500    5.000    3.375    5.250    1.000 
#    2.250    4.375    0.000    0.000    0.000    0.000 
#    0.000    0.000    0.000    0.000    0.000    0.000 
#
# Total GULP energy -89531.935081 kJ/mol
# GULP energy per Si atom -5595.745943 kJ/mol
# Density = 2.568637 g / cm^3
# Si number density = 25.744966 Si / 1000 Ang^3
#
#
#
# Elastic Constant Matrix: (Units=GPa)
#
#
# Indices 1 2 3 4 5 6 
#
# 1 74.8176 15.1029 34.2040 -4.5271 20.0390 15.8909
# 2 15.1029 44.2661 22.0178 6.9117 14.0821 2.1232
# 3 34.2040 22.0178 169.7753 13.0440 19.2287 3.9186
# 4 -4.5271 6.9117 13.0440 29.9511 1.0176 4.6105
# 5 20.0390 14.0821 19.2287 1.0176 53.6475 2.7470
# 6 15.8909 2.1232 3.9186 4.6105 2.7470 36.4406
#
#
#
# Elastic Compliance Matrix: (Units=1/GPa)
#
#
# Indices 1 2 3 4 5 6 
#
# 1 0.018977 -0.004108 -0.003085 0.006577 -0.004610 -0.008189
# 2 -0.004108 0.027330 -0.001707 -0.006253 -0.004988 0.001550
# 3 -0.003085 -0.001707 0.007065 -0.003298 -0.000929 0.001172
# 4 0.006577 -0.006253 -0.003298 0.038339 -0.000002 -0.007000
# 5 -0.004610 -0.004988 -0.000929 -0.000002 0.021967 0.000745
# 6 -0.008189 0.001550 0.001172 -0.007000 0.000745 0.031626
#
#
# Mechanical properties :
#
#
# Convention : Reuss Voigt Hill
#
# Bulk Modulus (GPa) = 28.11155 47.94538 38.02846
# Shear Modulus (GPa) = 28.57781 38.51013 33.54397
#
# Velocity S-wave (km/s) = 3.33533 3.87179 3.61353
# Velocity P-wave (km/s) = 5.07696 6.21702 5.67569
#
# Compressibility (1/GPa) = 0.03557257
#
# Stress axis : x y z
#
# Youngs Moduli (GPa) = 52.69433 36.58933 141.55153
#
# Poissons Ratio (x) = 0.15031 0.43664
# Poissons Ratio (y) = 0.21647 0.24165
# Poissons Ratio (z) = 0.16255 0.06246
#
# Static dielectric constant tensor:
#      x y z
#    x 2.046830 -0.042830 -0.041990 
#    y -0.042830 2.087920 -0.024480 
#    z -0.041990 -0.024480 2.119220 
# 
# From -- ./inp_files/307031.got.cif
#   From: 2010.05.17/outbox.cif.g08.bks.cpg/sg2_154_cif.got.tgz:307031.got - 2010.06.03 11:33:40.
