data_PCOD9061400
_publ_section_title
;
Structure prediction by ZEFSAII (Michael W. Deem and Ramdas Pophale) SiO2 
 PCOD9061400
Probable space group: P -1
;
_chemical_formula_sum "Si O2"
_cell_formula_units_Z 16
_cell_length_a 8.647300
_cell_length_b 5.664518
_cell_length_c 21.674686
_cell_angle_alpha 61.323124
_cell_angle_beta 120.174279
_cell_angle_gamma 127.775815
_cell_volume 702.113483
_symmetry_space_group_name_H-M "P -1"
_symmetry_group_IT_number 2
_symmetry_cell_setting 'triclinic'
loop_
_space_group_symop_operation_xyz
x,y,z
-x,-y,-z
loop_
_atom_site_type_symbol
_atom_site_label
_atom_site_fract_x
_atom_site_fract_y
_atom_site_fract_z
Si Si1 0.847714 0.166518 0.189780
Si Si2 0.303124 0.402414 0.432412
Si Si3 0.042428 0.614799 0.063640
Si Si4 0.507967 0.942649 0.668936
Si Si5 0.940732 0.398141 0.429817
Si Si6 0.390400 0.548629 0.817454
Si Si7 0.141911 0.041685 0.335248
Si Si8 0.670444 0.720949 0.959084
O O1 0.988527 0.355172 0.136313
O O2 0.728857 0.341050 0.171320
O O3 0.998364 0.183950 0.272577
O O4 0.722138 0.805485 0.186833
O O5 0.500000 0.500000 0.500000
O O6 0.251550 0.121630 0.413042
O O7 0.104893 0.308106 0.446666
O O8 0.363989 0.688929 0.361860
O O9 0.867147 0.710087 0.025346
O O10 0.262891 0.918175 0.074353
O O11 0.000000 0.500000 0.000000
O O12 0.300445 0.827928 0.601330
O O13 0.446685 0.792970 0.742570
O O14 0.672145 0.848870 0.688306
O O15 0.000000 0.500000 0.500000
O O16 0.988634 0.680611 0.357391
O O17 0.589269 0.596580 0.889957
O O18 0.500000 0.500000 0.000000
#
# Coordination Sequence:
#
# PCOD9061400 Si02
#       8
#     2   2   2   2   2   2   2   2
#     4  12  28  48  75 110 150 194 248 303 366 436
#     4  11  25  43  70 105 140 187 243 304 363 439
#     4  11  27  45  77 107 148 194 244 304 366 432
#     4  11  26  44  69 104 141 192 242 297 369 430
#     4  11  23  45  70 100 141 184 239 298 363 434
#     4  12  28  47  78 107 150 198 245 303 368 436
#     4  11  26  44  69 101 146 184 244 300 362 436
#     4  11  25  49  73 109 147 193 246 301 365 436
#
# _framework density 22.788340000000002
#
# number of rings (size 3 to 8) (size 9 to 14) (size 15 to 20)
#    0.000    0.750    2.500    3.000   10.500    7.000 
#    0.000    0.000    0.000    0.000    0.000    0.000 
#    0.000    0.000    0.000    0.000    0.000    0.000 
#
# Total GULP energy -89278.295615 kJ/mol
# GULP energy per Si atom -5579.893476 kJ/mol
# Density = 2.273647 g / cm^3
# Si number density = 22.788340 Si / 1000 Ang^3
#
#
#
# Elastic Constant Matrix: (Units=GPa)
#
#
# Indices 1 2 3 4 5 6 
#
# 1 70.9162 28.9123 0.5394 -14.3431 -15.4865 10.7844
# 2 28.9123 126.6945 29.0190 -1.5165 -16.7754 23.1311
# 3 0.5394 29.0190 108.4758 -8.6813 -15.2628 14.5403
# 4 -14.3431 -1.5165 -8.6813 40.7696 10.1807 -3.3688
# 5 -15.4865 -16.7754 -15.2628 10.1807 50.6462 -0.4799
# 6 10.7844 23.1311 14.5403 -3.3688 -0.4799 32.4232
#
#
#
# Elastic Compliance Matrix: (Units=1/GPa)
#
#
# Indices 1 2 3 4 5 6 
#
# 1 0.018010 -0.003310 0.002332 0.005377 0.003994 -0.004057
# 2 -0.003310 0.010381 -0.001860 -0.002206 0.002256 -0.005667
# 3 0.002332 -0.001860 0.010817 0.001991 0.002918 -0.004050
# 4 0.005377 -0.002206 0.001991 0.027925 -0.004083 0.001733
# 5 0.003994 0.002256 0.002918 -0.004083 0.023372 -0.004325
# 6 -0.004057 -0.005667 -0.004050 0.001733 -0.004325 0.038166
#
#
# Mechanical properties :
#
#
# Convention : Reuss Voigt Hill
#
# Bulk Modulus (GPa) = 29.82275 47.00309 38.41292
# Shear Modulus (GPa) = 34.35819 41.27552 37.81686
#
# Velocity S-wave (km/s) = 3.88714 4.26050 4.07809
# Velocity P-wave (km/s) = 5.76729 6.69875 6.25040
#
# Compressibility (1/GPa) = 0.03353145
#
# Stress axis : x y z
#
# Youngs Moduli (GPa) = 55.52609 96.32667 92.44295
#
# Poissons Ratio (x) = 0.31886 -0.21558
# Poissons Ratio (y) = 0.18380 0.17197
# Poissons Ratio (z) = -0.12949 0.17920
#
# Static dielectric constant tensor:
#      x y z
#    x 2.115450 0.051400 -0.017910 
#    y 0.051400 1.956760 -0.083740 
#    z -0.017910 -0.083740 1.869290 
# 
# From -- ./inp_files/9710.got.cif
#   From: 2010.05.17/outbox.cif.g08.bks.cpg/sg2_5_cif.got.tgz:9710.got - 2010.06.03 11:33:40.
