data_PCOD9061437
_publ_section_title
;
Structure prediction by ZEFSAII (Michael W. Deem and Ramdas Pophale) SiO2 
 PCOD9061437
Probable space group: P -1
;
_chemical_formula_sum "Si O2"
_cell_formula_units_Z 16
_cell_length_a 13.779097
_cell_length_b 8.979151
_cell_length_c 8.753251
_cell_angle_alpha 126.908455
_cell_angle_beta 87.628746
_cell_angle_gamma 63.171525
_cell_volume 694.740624
_symmetry_space_group_name_H-M "P -1"
_symmetry_group_IT_number 2
_symmetry_cell_setting 'triclinic'
loop_
_space_group_symop_operation_xyz
x,y,z
-x,-y,-z
loop_
_atom_site_type_symbol
_atom_site_label
_atom_site_fract_x
_atom_site_fract_y
_atom_site_fract_z
Si Si1 0.483134 0.417303 0.609425
Si Si2 0.880845 0.016294 0.049864
Si Si3 0.199474 0.249276 0.512616
Si Si4 0.271235 0.513413 0.501315
Si Si5 0.952785 0.519946 0.843389
Si Si6 0.310008 0.762517 0.075512
Si Si7 0.712034 0.554076 0.884893
Si Si8 0.619245 0.924961 0.355924
O O1 0.500000 0.500000 0.500000
O O2 0.374700 0.402915 0.555794
O O3 0.601564 0.164230 0.480853
O O4 0.432349 0.588861 0.862693
O O5 0.808001 0.210554 0.304929
O O6 0.796685 0.125872 0.973877
O O7 0.906618 0.773624 0.941487
O O8 0.000000 0.000000 0.000000
O O9 0.194356 0.419191 0.493436
O O10 0.259481 0.254788 0.668760
O O11 0.066562 0.330705 0.614419
O O12 0.291196 0.985932 0.287276
O O13 0.323050 0.443100 0.285421
O O14 0.846428 0.489888 0.831205
O O15 0.000000 0.500000 0.000000
O O16 0.295497 0.618358 0.113570
O O17 0.628289 0.805286 0.123641
O O18 0.500000 0.000000 0.500000
#
# Coordination Sequence:
#
# PCOD9061437 Si02
#       8
#     2   2   2   2   2   2   2   2
#     4  11  27  47  72 100 139 183 234 289 350 410
#     4  11  23  45  70  94 141 186 225 281 343 403
#     4  12  26  46  71 104 140 187 232 282 352 408
#     4  11  26  45  69 105 140 179 234 285 347 416
#     4  12  26  44  73 103 144 185 233 284 344 417
#     4  11  27  46  68 105 142 179 235 285 346 419
#     4  12  27  44  70 108 142 182 235 282 351 411
#     4  12  24  49  72  96 141 185 227 294 346 407
#
# _framework density 23.030180000000001
#
# number of rings (size 3 to 8) (size 9 to 14) (size 15 to 20)
#    0.000    0.500    5.000    2.250   10.500    3.500 
#    0.000    0.000    0.000    0.000    0.000    0.000 
#    0.000    0.000    0.000    0.000    0.000    0.000 
#
# Total GULP energy -89570.021005 kJ/mol
# GULP energy per Si atom -5598.126313 kJ/mol
# Density = 2.297776 g / cm^3
# Si number density = 23.030180 Si / 1000 Ang^3
#
#
#
# Elastic Constant Matrix: (Units=GPa)
#
#
# Indices 1 2 3 4 5 6 
#
# 1 59.9684 5.6622 2.1928 -5.7252 -13.7374 12.3943
# 2 5.6622 120.0047 33.6593 1.2220 -7.4701 13.8883
# 3 2.1928 33.6593 155.6590 -10.4737 -3.5965 5.7169
# 4 -5.7252 1.2220 -10.4737 31.9317 3.0512 -0.4337
# 5 -13.7374 -7.4701 -3.5965 3.0512 34.3000 -6.8223
# 6 12.3943 13.8883 5.7169 -0.4337 -6.8223 37.3043
#
#
#
# Elastic Compliance Matrix: (Units=1/GPa)
#
#
# Indices 1 2 3 4 5 6 
#
# 1 0.019536 -0.000006 0.000266 0.002893 0.006539 -0.005300
# 2 -0.000006 0.009316 -0.001954 -0.001167 0.001342 -0.002935
# 3 0.000266 -0.001954 0.007022 0.002409 0.000126 -0.000386
# 4 0.002893 -0.001167 0.002409 0.032844 -0.001937 -0.000869
# 5 0.006539 0.001342 0.000126 -0.001937 0.032909 0.003304
# 6 -0.005300 -0.002935 -0.000386 -0.000869 0.003304 0.030314
#
#
# Mechanical properties :
#
#
# Convention : Reuss Voigt Hill
#
# Bulk Modulus (GPa) = 30.78047 46.51785 38.64916
# Shear Modulus (GPa) = 34.20992 40.31506 37.26249
#
# Velocity S-wave (km/s) = 3.85832 4.18847 4.02678
# Velocity P-wave (km/s) = 5.76569 6.60557 6.19987
#
# Compressibility (1/GPa) = 0.03248813
#
# Stress axis : x y z
#
# Youngs Moduli (GPa) = 51.18781 107.33647 142.40397
#
# Poissons Ratio (x) = 0.00059 -0.03794
# Poissons Ratio (y) = 0.00028 0.27828
# Poissons Ratio (z) = -0.01364 0.20975
#
# Static dielectric constant tensor:
#      x y z
#    x 1.927790 0.022980 0.011410 
#    y 0.022980 1.843910 -0.008630 
#    z 0.011410 -0.008630 1.876940 
# 
# From -- ./inp_files/208536.got.cif
#   From: 2010.05.17/outbox.cif.g08.bks.cpg/sg2_105_cif.got.tgz:208536.got - 2010.06.03 11:33:40.
