data_PCOD9061839
_publ_section_title
;
Structure prediction by ZEFSAII (Michael W. Deem and Ramdas Pophale) SiO2 
 PCOD9061839
Probable space group: P -1
;
_chemical_formula_sum "Si O2"
_cell_formula_units_Z 14
_cell_length_a 8.795904
_cell_length_b 14.745929
_cell_length_c 15.343646
_cell_angle_alpha 150.543114
_cell_angle_beta 71.251623
_cell_angle_gamma 129.557665
_cell_volume 595.077460
_symmetry_space_group_name_H-M "P -1"
_symmetry_group_IT_number 2
_symmetry_cell_setting 'triclinic'
loop_
_space_group_symop_operation_xyz
x,y,z
-x,-y,-z
loop_
_atom_site_type_symbol
_atom_site_label
_atom_site_fract_x
_atom_site_fract_y
_atom_site_fract_z
Si Si1 0.663562 0.762533 0.810015
Si Si2 0.255513 0.846776 0.572453
Si Si3 0.225352 0.457410 0.501800
Si Si4 0.476474 0.663905 0.196474
Si Si5 0.538053 0.720185 0.427694
Si Si6 0.552012 0.980763 0.138278
Si Si7 0.061599 0.675848 0.048849
O O1 0.465798 0.628150 0.658426
O O2 0.856363 0.796469 0.751193
O O3 0.557087 0.533371 0.711385
O O4 0.679596 0.970046 0.031115
O O5 0.333228 0.702789 0.439908
O O6 0.975906 0.647705 0.481179
O O7 0.353265 0.027524 0.619182
O O8 0.397667 0.055758 0.805744
O O9 0.308960 0.699229 0.626965
O O10 0.579368 0.708993 0.310609
O O11 0.500000 0.500000 0.000000
O O12 0.190150 0.481258 0.083985
O O13 0.774759 0.013574 0.680440
O O14 0.252643 0.750294 0.005638
O O15 0.000000 0.500000 0.000000
#
# Coordination Sequence:
#
# PCOD9061839 Si02
#       7
#     2   2   2   2   2   2   2
#     4  11  25  45  71 105 136 189 240 288 360 422
#     4  11  24  46  68 103 144 184 234 297 353 423
#     4  11  25  46  70 102 144 183 239 293 353 425
#     4  12  27  45  71 112 142 188 244 287 360 433
#     4  11  25  47  71 103 146 189 236 293 364 414
#     4  11  23  46  72 102 141 186 237 289 364 419
#     4  11  24  46  72 102 147 186 235 297 353 429
#
# _framework density 23.526350999999998
#
# number of rings (size 3 to 8) (size 9 to 14) (size 15 to 20)
#    0.000    0.857    5.714    2.143    4.000    1.143 
#    2.571    0.000    0.000    0.000    0.000    0.000 
#    0.000    0.000    0.000    0.000    0.000    0.000 
#
# Total GULP energy -78196.493417 kJ/mol
# GULP energy per Si atom -5585.463816 kJ/mol
# Density = 2.347280 g / cm^3
# Si number density = 23.526351 Si / 1000 Ang^3
#
#
#
# Elastic Constant Matrix: (Units=GPa)
#
#
# Indices 1 2 3 4 5 6 
#
# 1 -63.2258 -34.9590 41.5473 33.6078 -33.1728 -27.8615
# 2 -34.9590 -88.5079 52.9763 -72.8679 8.5990 20.2417
# 3 41.5473 52.9763 47.8514 -15.4337 -15.6915 8.7691
# 4 33.6078 -72.8679 -15.4337 5.9099 20.8420 29.9354
# 5 -33.1728 8.5990 -15.6915 20.8420 27.0319 -15.1180
# 6 -27.8615 20.2417 8.7691 29.9354 -15.1180 34.7523
#
#
#
# Elastic Compliance Matrix: (Units=1/GPa)
#
#
# Indices 1 2 3 4 5 6 
#
# 1 0.000653 -0.004535 0.007092 0.007943 -0.003727 -0.007088
# 2 -0.004535 -0.000816 0.003247 -0.006780 0.003763 0.003498
# 3 0.007092 0.003247 0.017434 0.006527 0.012259 -0.000894
# 4 0.007943 -0.006780 0.006527 0.011049 0.008853 0.003004
# 5 -0.003727 0.003763 0.012259 0.008853 0.029893 -0.002895
# 6 -0.007088 0.003498 -0.000894 0.003004 -0.002895 0.017434
#
#
# Mechanical properties :
#
#
# Convention : Reuss Voigt Hill
#
# Bulk Modulus (GPa) = 34.62652 1.69410 18.16031
# Shear Modulus (GPa) = 67.87503 2.64235 35.25869
#
# Velocity S-wave (km/s) = 5.37711 1.06093 3.87549
# Velocity P-wave (km/s) = 7.30076 1.49078 5.26895
#
# Compressibility (1/GPa) = 0.02887960
#
# Stress axis : x y z
#
# Youngs Moduli (GPa) = 1531.99597 -1225.54471 57.35888
#
# Poissons Ratio (x) = -5.55782 -0.40681
# Poissons Ratio (y) = 6.94757 -0.18624
# Poissons Ratio (z) = -10.86542 3.97936
#
# Static dielectric constant tensor:
#      x y z
#    x 1.900000 0.077650 -0.004830 
#    y 0.077650 1.920010 -0.025700 
#    z -0.004830 -0.025700 1.922200 
# 
# From -- ./inp_files/208124.got.cif
#   From: 2010.05.17/outbox.cif.g08.bks.cpg/sg2_105_cif.got.tgz:208124.got - 2010.06.03 11:33:40.
