data_PCOD9061875
_publ_section_title
;
Structure prediction by ZEFSAII (Michael W. Deem and Ramdas Pophale) SiO2 
 PCOD9061875
Probable space group: P -1
;
_chemical_formula_sum "Si O2"
_cell_formula_units_Z 14
_cell_length_a 14.985038
_cell_length_b 14.799825
_cell_length_c 23.726685
_cell_angle_alpha 20.774575
_cell_angle_beta 17.983496
_cell_angle_gamma 28.476378
_cell_volume 573.685527
_symmetry_space_group_name_H-M "P -1"
_symmetry_group_IT_number 2
_symmetry_cell_setting 'triclinic'
loop_
_space_group_symop_operation_xyz
x,y,z
-x,-y,-z
loop_
_atom_site_type_symbol
_atom_site_label
_atom_site_fract_x
_atom_site_fract_y
_atom_site_fract_z
Si Si1 0.973096 0.841625 0.980442
Si Si2 0.148427 0.408069 0.684925
Si Si3 0.780679 0.388829 0.281812
Si Si4 0.340613 0.737722 0.025165
Si Si5 0.406165 0.819446 0.601397
Si Si6 0.257017 0.359223 0.398028
Si Si7 0.952440 0.919272 0.511336
O O1 0.971531 0.655212 0.144034
O O2 0.900793 0.661149 0.075538
O O3 0.716507 0.022074 0.041081
O O4 0.276200 0.021859 0.693269
O O5 0.467655 0.322139 0.538570
O O6 0.932200 0.283371 0.840776
O O7 0.161420 0.709890 0.490458
O O8 0.709399 0.355803 0.278318
O O9 0.969937 0.165560 0.318243
O O10 0.337819 0.502216 0.207602
O O11 0.627134 0.775894 0.792907
O O12 0.486006 0.645411 0.707626
O O13 0.206157 0.054333 0.593394
O O14 0.000000 0.500000 0.500000
O O15 0.000000 0.000000 0.500000
#
# Coordination Sequence:
#
# PCOD9061875 Si02
#       7
#     2   2   2   2   2   2   2
#     4  12  22  41  68  97 137 176 215 272 332 395
#     4  12  22  41  65  99 140 177 219 266 334 403
#     4  12  24  43  67 101 139 174 221 273 331 401
#     4  12  23  41  71  96 134 182 222 273 336 391
#     4  11  25  45  71  93 130 178 223 280 331 384
#     4  11  23  46  72  95 127 174 233 278 326 390
#     4  12  24  39  62 101 139 173 216 270 331 401
#
# _framework density 24.403614000000001
#
# number of rings (size 3 to 8) (size 9 to 14) (size 15 to 20)
#    0.000    0.286    5.714    4.714    0.000    0.000 
#    0.000    3.571    3.143    0.000    0.000    0.000 
#    0.000    0.000    0.000    0.000    0.000    0.000 
#
# Total GULP energy -78399.238023 kJ/mol
# GULP energy per Si atom -5599.945573 kJ/mol
# Density = 2.434807 g / cm^3
# Si number density = 24.403614 Si / 1000 Ang^3
#
#
#
# Elastic Constant Matrix: (Units=GPa)
#
#
# Indices 1 2 3 4 5 6 
#
# 1 145.3111 16.5299 37.7493 -27.0126 -19.2950 6.9197
# 2 16.5299 108.9890 7.8447 -12.9026 -0.6702 -1.1826
# 3 37.7493 7.8447 96.9220 -4.7226 -3.3199 -4.2569
# 4 -27.0126 -12.9026 -4.7226 37.8334 -0.5925 3.0089
# 5 -19.2950 -0.6702 -3.3199 -0.5925 35.7280 -16.3231
# 6 6.9197 -1.1826 -4.2569 3.0089 -16.3231 41.8232
#
#
#
# Elastic Compliance Matrix: (Units=1/GPa)
#
#
# Indices 1 2 3 4 5 6 
#
# 1 0.009633 -0.000441 -0.003264 0.006438 0.004747 -0.000549
# 2 -0.000441 0.009620 -0.000462 0.002901 -0.000014 0.000084
# 3 -0.003264 -0.000462 0.011655 -0.001178 0.000138 0.001852
# 4 0.006438 0.002901 -0.001178 0.032097 0.002915 -0.002275
# 5 0.004747 -0.000014 0.000138 0.002915 0.036711 0.013346
# 6 -0.000549 0.000084 0.001852 -0.002275 0.013346 0.029564
#
#
# Mechanical properties :
#
#
# Convention : Reuss Voigt Hill
#
# Bulk Modulus (GPa) = 44.29984 52.82998 48.56491
# Shear Modulus (GPa) = 34.44957 42.35014 38.39985
#
# Velocity S-wave (km/s) = 3.76128 4.17034 3.97108
# Velocity P-wave (km/s) = 6.08731 6.69958 6.40077
#
# Compressibility (1/GPa) = 0.02257345
#
# Stress axis : x y z
#
# Youngs Moduli (GPa) = 103.80826 103.95380 85.80049
#
# Poissons Ratio (x) = 0.04581 0.28006
# Poissons Ratio (y) = 0.04574 0.03968
# Poissons Ratio (z) = 0.33884 0.04807
#
# Static dielectric constant tensor:
#      x y z
#    x 1.927340 0.036660 0.003540 
#    y 0.036660 1.952060 0.030940 
#    z 0.003540 0.030940 2.000310 
# 
# From -- ./inp_files/348375.got.cif
#   From: 2010.05.17/outbox.cif.g08.bks.cpg/sg2_175_cif.got.tgz:348375.got - 2010.06.03 11:33:40.
