data_PCOD9061892
_publ_section_title
;
Structure prediction by ZEFSAII (Michael W. Deem and Ramdas Pophale) SiO2 
 PCOD9061892
Probable space group: P -1
;
_chemical_formula_sum "Si O2"
_cell_formula_units_Z 16
_cell_length_a 7.856607
_cell_length_b 8.788188
_cell_length_c 18.591159
_cell_angle_alpha 42.658123
_cell_angle_beta 118.772817
_cell_angle_gamma 127.754679
_cell_volume 686.556139
_symmetry_space_group_name_H-M "P -1"
_symmetry_group_IT_number 2
_symmetry_cell_setting 'triclinic'
loop_
_space_group_symop_operation_xyz
x,y,z
-x,-y,-z
loop_
_atom_site_type_symbol
_atom_site_label
_atom_site_fract_x
_atom_site_fract_y
_atom_site_fract_z
Si Si1 0.625467 0.164043 0.785990
Si Si2 0.838855 0.799736 0.981710
Si Si3 0.100282 0.252194 0.143474
Si Si4 0.748498 0.749047 0.250045
Si Si5 0.600847 0.463382 0.175551
Si Si6 0.078714 0.319817 0.269995
Si Si7 0.471447 0.241644 0.432146
Si Si8 0.632028 0.957387 0.366071
O O1 0.427652 0.143873 0.804584
O O2 0.836115 0.415453 0.763434
O O3 0.683758 0.930724 0.881248
O O4 0.534786 0.181552 0.683034
O O5 0.951640 0.753300 0.949880
O O6 0.709250 0.557239 0.087925
O O7 0.000000 0.000000 0.000000
O O8 0.354681 0.412188 0.139324
O O9 0.027911 0.346778 0.167264
O O10 0.989146 0.955594 0.240464
O O11 0.720066 0.664520 0.191143
O O12 0.678501 0.500886 0.369565
O O13 0.599535 0.205178 0.289086
O O14 0.285212 0.261372 0.339366
O O15 0.877198 0.086519 0.343062
O O16 0.500000 0.000000 0.500000
O O17 0.402729 0.206375 0.513601
#
# Coordination Sequence:
#
# PCOD9061892 Si02
#       8
#     2   2   2   2   2   2   2   2
#     4  11  25  45  69 102 138 179 230 288 336 404
#     4  12  26  45  73 103 135 185 233 283 350 408
#     4  12  23  46  69  97 139 183 223 282 345 405
#     4  11  24  46  70 101 141 174 230 285 338 413
#     4  12  24  47  69  98 143 178 232 285 338 414
#     4  11  25  45  70 103 143 178 229 286 338 411
#     4  11  23  46  73 103 138 185 223 282 348 407
#     4  12  24  45  72 101 140 184 227 280 346 403
#
# _framework density 23.304721000000001
#
# number of rings (size 3 to 8) (size 9 to 14) (size 15 to 20)
#    0.000    0.500    7.500    1.500    0.000    2.500 
#    2.250    4.375    0.000    0.000    0.000    0.000 
#    0.000    0.000    0.000    0.000    0.000    0.000 
#
# Total GULP energy -89437.645939 kJ/mol
# GULP energy per Si atom -5589.852871 kJ/mol
# Density = 2.325168 g / cm^3
# Si number density = 23.304721 Si / 1000 Ang^3
#
#
#
# Elastic Constant Matrix: (Units=GPa)
#
#
# Indices 1 2 3 4 5 6 
#
# 1 40.6682 14.9691 35.3209 3.1594 -19.6024 -9.4133
# 2 14.9691 149.2410 41.1163 13.4990 -19.8500 0.7026
# 3 35.3209 41.1163 130.6793 -0.7864 -31.8777 -10.0895
# 4 3.1594 13.4990 -0.7864 37.7332 -8.0931 -14.9125
# 5 -19.6024 -19.8500 -31.8777 -8.0931 52.5407 -7.6422
# 6 -9.4133 0.7026 -10.0895 -14.9125 -7.6422 30.3954
#
#
#
# Elastic Compliance Matrix: (Units=1/GPa)
#
#
# Indices 1 2 3 4 5 6 
#
# 1 0.040822 -0.001333 -0.005428 0.007482 0.015259 0.018379
# 2 -0.001333 0.007883 -0.002455 -0.004178 -0.000161 -0.003500
# 3 -0.005428 -0.002455 0.011909 0.005464 0.006065 0.006534
# 4 0.007482 -0.004178 0.005464 0.042079 0.015183 0.028689
# 5 0.015259 -0.000161 0.006065 0.015183 0.033991 0.022738
# 6 0.018379 -0.003500 0.006534 0.028689 0.022738 0.060634
#
#
# Mechanical properties :
#
#
# Convention : Reuss Voigt Hill
#
# Bulk Modulus (GPa) = 23.70630 55.93346 39.81988
# Shear Modulus (GPa) = 21.75721 39.41268 30.58495
#
# Velocity S-wave (km/s) = 3.05880 4.11687 3.62663
# Velocity P-wave (km/s) = 4.76124 6.83016 5.88730
#
# Compressibility (1/GPa) = 0.04218288
#
# Stress axis : x y z
#
# Youngs Moduli (GPa) = 24.49670 126.84722 83.97281
#
# Poissons Ratio (x) = 0.16906 0.45580
# Poissons Ratio (y) = 0.03265 0.20613
# Poissons Ratio (z) = 0.13297 0.31138
#
# Static dielectric constant tensor:
#      x y z
#    x 1.936630 -0.031410 -0.006530 
#    y -0.031410 1.882350 0.021140 
#    z -0.006530 0.021140 1.847320 
# 
# From -- ./inp_files/556401.got.cif
#   From: 2010.05.17/outbox.cif.g08.bks.cpg/sg2_279_cif.got.tgz:556401.got - 2010.06.03 11:33:40.
