data_PCOD9061479
_publ_section_title
;
Structure prediction by ZEFSAII (Michael W. Deem and Ramdas Pophale) SiO2 
 PCOD9061479
Probable space group: P -1
;
_chemical_formula_sum "Si O2"
_cell_formula_units_Z 14
_cell_length_a 14.425223
_cell_length_b 10.093354
_cell_length_c 17.887814
_cell_angle_alpha 144.718483
_cell_angle_beta 158.027282
_cell_angle_gamma 46.367672
_cell_volume 535.129461
_symmetry_space_group_name_H-M "P -1"
_symmetry_group_IT_number 2
_symmetry_cell_setting 'triclinic'
loop_
_space_group_symop_operation_xyz
x,y,z
-x,-y,-z
loop_
_atom_site_type_symbol
_atom_site_label
_atom_site_fract_x
_atom_site_fract_y
_atom_site_fract_z
Si Si1 0.909362 0.901793 0.508110
Si Si2 0.252340 0.748847 0.115370
Si Si3 0.858100 0.704828 0.921125
Si Si4 0.535663 0.692776 0.911854
Si Si5 0.561581 0.176156 0.442680
Si Si6 0.851644 0.164520 0.204092
Si Si7 0.037837 0.498778 0.353996
O O1 0.923242 0.756446 0.528178
O O2 0.885939 0.699299 0.335006
O O3 0.696407 0.035416 0.421484
O O4 0.189520 0.103044 0.801040
O O5 0.132579 0.782492 0.120169
O O6 0.015590 0.630059 0.824858
O O7 0.407480 0.557215 0.148695
O O8 0.428024 0.994070 0.323801
O O9 0.768672 0.420786 0.739404
O O10 0.656006 0.748818 0.729896
O O11 0.838824 0.887380 0.054872
O O12 0.389809 0.782247 0.911671
O O13 0.331458 0.638776 0.664340
O O14 0.924406 0.299556 0.241988
#
# Coordination Sequence:
#
# PCOD9061479 Si02
#       7
#     2   2   2   2   2   2   2
#     4  11  24  46  70 108 143 187 240 298 357 423
#     4  12  25  49  76 105 143 190 241 291 361 426
#     4  11  26  46  69 105 147 187 237 292 359 424
#     4  11  25  47  73 108 143 185 245 294 357 425
#     4  11  24  44  71 100 145 186 237 290 349 428
#     4  11  23  45  71 104 142 184 239 298 355 422
#     4  11  24  43  76 104 142 186 238 301 355 416
#
# _framework density 26.161894
#
# number of rings (size 3 to 8) (size 9 to 14) (size 15 to 20)
#    0.000    0.857    2.857    5.571    2.000    6.857 
#    2.571    1.429    0.000    0.000    0.000    0.000 
#    0.000    0.000    0.000    0.000    0.000    0.000 
#
# Total GULP energy -78552.739078 kJ/mol
# GULP energy per Si atom -5610.909934 kJ/mol
# Density = 2.610235 g / cm^3
# Si number density = 26.161894 Si / 1000 Ang^3
#
#
#
# Elastic Constant Matrix: (Units=GPa)
#
#
# Indices 1 2 3 4 5 6 
#
# 1 108.9361 45.5996 39.7182 -2.9103 5.7361 -23.1898
# 2 45.5996 145.4485 31.1535 11.7621 16.6730 -17.1314
# 3 39.7182 31.1535 85.8786 15.5121 14.2886 -11.9707
# 4 -2.9103 11.7621 15.5121 45.4561 1.2280 3.2176
# 5 5.7361 16.6730 14.2886 1.2280 46.7866 -3.3340
# 6 -23.1898 -17.1314 -11.9707 3.2176 -3.3340 43.8159
#
#
#
# Elastic Compliance Matrix: (Units=1/GPa)
#
#
# Indices 1 2 3 4 5 6 
#
# 1 0.013235 -0.002912 -0.005220 0.003043 0.001236 0.004311
# 2 -0.002912 0.008580 -0.000766 -0.002196 -0.002296 0.001591
# 3 -0.005220 -0.000766 0.016196 -0.005667 -0.003779 0.001492
# 4 0.003043 -0.002196 -0.005667 0.024839 0.001308 -0.002520
# 5 0.001236 -0.002296 -0.003779 0.001308 0.023188 0.000393
# 6 0.004311 0.001591 0.001492 -0.002520 0.000393 0.026349
#
#
# Mechanical properties :
#
#
# Convention : Reuss Voigt Hill
#
# Bulk Modulus (GPa) = 49.45950 63.68952 56.57451
# Shear Modulus (GPa) = 36.51745 42.13117 39.32431
#
# Velocity S-wave (km/s) = 3.74013 4.01734 3.88121
# Velocity P-wave (km/s) = 6.13169 6.77613 6.46195
#
# Compressibility (1/GPa) = 0.02021856
#
# Stress axis : x y z
#
# Youngs Moduli (GPa) = 75.55478 116.54687 61.74278
#
# Poissons Ratio (x) = 0.33933 0.32227
# Poissons Ratio (y) = 0.21998 0.04727
# Poissons Ratio (z) = 0.39436 0.08923
#
# Static dielectric constant tensor:
#      x y z
#    x 2.031710 0.020190 -0.050680 
#    y 0.020190 2.042430 0.015420 
#    z -0.050680 0.015420 2.080950 
# 
# From -- ./inp_files/392425.got.cif
#   From: 2010.05.17/outbox.cif.g08.bks.cpg/sg2_197_cif.got.tgz:392425.got - 2010.06.03 11:33:40.
