data_PCOD9061290
_publ_section_title
;
Structure prediction by ZEFSAII (Michael W. Deem and Ramdas Pophale) SiO2 
 PCOD9061290
Probable space group: P -1
;
_chemical_formula_sum "Si O2"
_cell_formula_units_Z 12
_cell_length_a 16.089376
_cell_length_b 10.201376
_cell_length_c 20.008324
_cell_angle_alpha 139.289723
_cell_angle_beta 161.254109
_cell_angle_gamma 51.136693
_cell_volume 621.147843
_symmetry_space_group_name_H-M "P -1"
_symmetry_group_IT_number 2
_symmetry_cell_setting 'triclinic'
loop_
_space_group_symop_operation_xyz
x,y,z
-x,-y,-z
loop_
_atom_site_type_symbol
_atom_site_label
_atom_site_fract_x
_atom_site_fract_y
_atom_site_fract_z
Si Si1 0.670642 0.084749 0.231025
Si Si2 0.496680 0.333517 0.375043
Si Si3 0.835266 0.507187 0.080427
Si Si4 0.681271 0.710582 0.172497
Si Si5 0.464556 0.507794 0.672505
Si Si6 0.918942 0.108166 0.044187
O O1 0.645924 0.308360 0.319369
O O2 0.007703 0.152597 0.504632
O O3 0.562151 0.890273 0.129877
O O4 0.500000 0.000000 0.000000
O O5 0.500000 0.500000 0.500000
O O6 0.385359 0.402159 0.249437
O O7 0.822918 0.371278 0.625099
O O8 0.295631 0.086390 0.148532
O O9 0.739967 0.622830 0.111925
O O10 0.665611 0.495373 0.879111
O O11 0.778280 0.263573 0.968871
O O12 0.500000 0.500000 0.000000
O O13 0.198980 0.273244 0.362234
O O14 0.000000 0.000000 0.000000
#
# Coordination Sequence:
#
# PCOD9061290 Si02
#       6
#     2   2   2   2   2   2
#     4  11  23  45  67  94 135 171 217 273 322 391
#     4  11  23  46  68  91 133 178 215 272 329 379
#     4  11  24  44  66  98 133 171 223 266 332 388
#     4  11  25  44  67  96 132 175 220 271 325 387
#     4  11  24  43  66 101 133 170 222 267 326 394
#     4  11  23  45  65  92 135 171 216 274 323 382
#
# _framework density 19.319072999999999
#
# number of rings (size 3 to 8) (size 9 to 14) (size 15 to 20)
#    0.000    1.000    8.333    0.000    2.333    3.333 
#    3.000    0.000    0.000    0.000    0.000    0.000 
#    0.000    0.000    0.000    0.000    0.000    0.000 
#
# Total GULP energy -67024.884675 kJ/mol
# GULP energy per Si atom -5585.407056 kJ/mol
# Density = 1.927510 g / cm^3
# Si number density = 19.319073 Si / 1000 Ang^3
#
#
#
# Elastic Constant Matrix: (Units=GPa)
#
#
# Indices 1 2 3 4 5 6 
#
# 1 113.8294 36.8126 76.7512 5.6110 -9.5532 24.6265
# 2 36.8126 93.7499 72.9678 12.3237 -3.0063 31.3207
# 3 76.7512 72.9678 130.3059 11.2887 -19.8311 37.1360
# 4 5.6110 12.3237 11.2887 43.7995 16.9574 -4.8358
# 5 -9.5532 -3.0063 -19.8311 16.9574 43.1785 10.4207
# 6 24.6265 31.3207 37.1360 -4.8358 10.4207 52.1546
#
#
#
# Elastic Compliance Matrix: (Units=1/GPa)
#
#
# Indices 1 2 3 4 5 6 
#
# 1 0.014833 0.002058 -0.009719 0.000234 -0.000859 -0.001126
# 2 0.002058 0.020838 -0.010739 -0.004078 0.000080 -0.006233
# 3 -0.009719 -0.010739 0.025844 -0.009650 0.015502 -0.011355
# 4 0.000234 -0.004078 -0.009650 0.037488 -0.023585 0.017398
# 5 -0.000859 0.000080 0.015502 -0.023585 0.044614 -0.021781
# 6 -0.001126 -0.006233 -0.011355 0.017398 -0.021781 0.037499
#
#
# Mechanical properties :
#
#
# Convention : Reuss Voigt Hill
#
# Bulk Modulus (GPa) = 40.46242 78.99426 59.72834
# Shear Modulus (GPa) = 22.10873 37.91676 30.01274
#
# Velocity S-wave (km/s) = 3.38657 4.43500 3.94576
# Velocity P-wave (km/s) = 6.02342 8.19778 7.19323
#
# Compressibility (1/GPa) = 0.02471429
#
# Stress axis : x y z
#
# Youngs Moduli (GPa) = 67.41815 47.98885 38.69357
#
# Poissons Ratio (x) = -0.09878 0.37608
# Poissons Ratio (y) = -0.13877 0.41554
# Poissons Ratio (z) = 0.65526 0.51537
#
# Static dielectric constant tensor:
#      x y z
#    x 1.687550 -0.018580 -0.001750 
#    y -0.018580 1.708920 0.013880 
#    z -0.001750 0.013880 1.656380 
# 
# From -- ./inp_files/305267.got.cif
#   From: 2010.05.17/outbox.cif.g08.bks.cpg/sg2_153_cif.got.tgz:305267.got - 2010.06.03 11:33:40.
