data_PCOD9061688
_publ_section_title
;
Structure prediction by ZEFSAII (Michael W. Deem and Ramdas Pophale) SiO2 
 PCOD9061688
Probable space group: P -1
;
_chemical_formula_sum "Si O2"
_cell_formula_units_Z 12
_cell_length_a 8.580900
_cell_length_b 15.490360
_cell_length_c 12.534915
_cell_angle_alpha 151.475361
_cell_angle_beta 103.944157
_cell_angle_gamma 57.007656
_cell_volume 537.426424
_symmetry_space_group_name_H-M "P -1"
_symmetry_group_IT_number 2
_symmetry_cell_setting 'triclinic'
loop_
_space_group_symop_operation_xyz
x,y,z
-x,-y,-z
loop_
_atom_site_type_symbol
_atom_site_label
_atom_site_fract_x
_atom_site_fract_y
_atom_site_fract_z
Si Si1 0.332156 0.295546 0.756598
Si Si2 0.629887 0.633038 0.382121
Si Si3 0.122513 0.562117 0.225778
Si Si4 0.615797 0.241476 0.300623
Si Si5 0.921707 0.062574 0.854959
Si Si6 0.452825 0.896661 0.063846
O O1 0.448653 0.304115 0.685870
O O2 0.093057 0.396888 0.786853
O O3 0.500000 0.000000 0.500000
O O4 0.267061 0.460297 0.029568
O O5 0.471188 0.704208 0.533192
O O6 0.658702 0.822711 0.617316
O O7 0.841682 0.321987 0.081413
O O8 0.030362 0.831308 0.539351
O O9 0.293469 0.336920 0.097792
O O10 0.500000 0.500000 0.500000
O O11 0.886342 0.055067 0.152604
O O12 0.554368 0.125591 0.087893
O O13 0.703975 0.133596 0.944264
#
# Coordination Sequence:
#
# PCOD9061688 Si02
#       6
#     2   2   2   2   2   2
#     4  11  24  47  76 105 142 186 242 298 356 424
#     4  12  27  44  75 109 139 193 244 284 366 425
#     4  11  23  45  78 100 145 188 233 305 354 413
#     4  12  26  46  73 107 151 187 237 295 352 428
#     4  12  25  46  72 109 145 187 239 295 354 425
#     4  12  25  49  71 107 145 192 237 295 355 424
#
# _framework density 22.328637000000001
#
# number of rings (size 3 to 8) (size 9 to 14) (size 15 to 20)
#    0.000    0.333    6.667    1.000    2.333    1.333 
#    0.000    5.833    0.000    0.000    0.000    0.000 
#    0.000    0.000    0.000    0.000    0.000    0.000 
#
# Total GULP energy -67065.100463 kJ/mol
# GULP energy per Si atom -5588.758372 kJ/mol
# Density = 2.227782 g / cm^3
# Si number density = 22.328637 Si / 1000 Ang^3
#
#
#
# Elastic Constant Matrix: (Units=GPa)
#
#
# Indices 1 2 3 4 5 6 
#
# 1 57.0495 57.7893 29.5729 6.8599 -0.8769 7.5446
# 2 57.7893 83.5995 43.1496 5.7912 -14.5221 0.4296
# 3 29.5729 43.1496 170.6727 -5.7788 13.5880 11.6786
# 4 6.8599 5.7912 -5.7788 57.5668 12.7889 -13.0903
# 5 -0.8769 -14.5221 13.5880 12.7889 36.0280 -4.4224
# 6 7.5446 0.4296 11.6786 -13.0903 -4.4224 45.1734
#
#
#
# Elastic Compliance Matrix: (Units=1/GPa)
#
#
# Indices 1 2 3 4 5 6 
#
# 1 0.080521 -0.063031 0.005311 -0.000521 -0.027358 -0.017051
# 2 -0.063031 0.066134 -0.009445 -0.003904 0.031829 0.014325
# 3 0.005311 -0.009445 0.008244 0.002214 -0.007949 -0.003065
# 4 -0.000521 -0.003904 0.002214 0.021216 -0.009365 0.004783
# 5 -0.027358 0.031829 -0.007949 -0.009365 0.047253 0.008234
# 6 -0.017051 0.014325 -0.003065 0.004783 0.008234 0.027833
#
#
# Mechanical properties :
#
#
# Convention : Reuss Voigt Hill
#
# Bulk Modulus (GPa) = 48.61750 63.59392 56.10571
# Shear Modulus (GPa) = 12.74243 39.80764 26.27503
#
# Velocity S-wave (km/s) = 2.39148 4.22691 3.43409
# Velocity P-wave (km/s) = 5.42646 7.23637 6.39576
#
# Compressibility (1/GPa) = 0.02056873
#
# Stress axis : x y z
#
# Youngs Moduli (GPa) = 12.41905 15.12081 121.29394
#
# Poissons Ratio (x) = 0.95309 -0.64415
# Poissons Ratio (y) = 0.78279 1.14561
# Poissons Ratio (z) = -0.06595 0.14281
#
# Static dielectric constant tensor:
#      x y z
#    x 1.863770 0.055940 -0.006490 
#    y 0.055940 1.899610 -0.044130 
#    z -0.006490 -0.044130 1.847930 
# 
# From -- ./inp_files/26365.got.cif
#   From: 2010.05.17/outbox.cif.g08.bks.cpg/sg2_14_cif.got.tgz:26365.got - 2010.06.03 11:33:40.
