data_PCOD9061426
_publ_section_title
;
Structure prediction by ZEFSAII (Michael W. Deem and Ramdas Pophale) SiO2 
 PCOD9061426
Probable space group: P -1
;
_chemical_formula_sum "Si O2"
_cell_formula_units_Z 14
_cell_length_a 26.286930
_cell_length_b 5.591136
_cell_length_c 9.333853
_cell_angle_alpha 113.870742
_cell_angle_beta 152.825519
_cell_angle_gamma 64.238206
_cell_volume 563.705925
_symmetry_space_group_name_H-M "P -1"
_symmetry_group_IT_number 2
_symmetry_cell_setting 'triclinic'
loop_
_space_group_symop_operation_xyz
x,y,z
-x,-y,-z
loop_
_atom_site_type_symbol
_atom_site_label
_atom_site_fract_x
_atom_site_fract_y
_atom_site_fract_z
Si Si1 0.716375 0.259767 0.044157
Si Si2 0.923368 0.861882 0.377865
Si Si3 0.653944 0.357600 0.603372
Si Si4 0.571465 0.315852 0.964638
Si Si5 0.656102 0.887125 0.321203
Si Si6 0.131753 0.487866 0.300322
Si Si7 0.886101 0.324262 0.006154
O O1 0.804170 0.419386 0.380245
O O2 0.796139 0.998550 0.122065
O O3 0.659955 0.406473 0.798477
O O4 0.626372 0.213097 0.925677
O O5 0.917289 0.597948 0.210785
O O6 0.994806 0.860587 0.703494
O O7 0.000000 0.000000 0.500000
O O8 0.562782 0.587498 0.360339
O O9 0.621455 0.070118 0.417120
O O10 0.776076 0.317083 0.824844
O O11 0.385667 0.396806 0.841650
O O12 0.611281 0.090191 0.128085
O O13 0.792074 0.795628 0.619581
O O14 0.140879 0.666617 0.226110
O O15 0.000000 0.500000 0.000000
#
# Coordination Sequence:
#
# PCOD9061426 Si02
#       7
#     2   2   2   2   2   2   2
#     4  11  25  43  70 109 148 187 251 304 378 430
#     4  11  23  45  70 106 144 190 246 313 362 448
#     4  12  24  47  77 107 148 195 255 305 367 446
#     4  11  27  50  76 110 151 197 249 314 372 437
#     4  11  26  50  74 111 145 200 253 302 375 449
#     4  11  26  45  71 107 152 194 243 311 377 444
#     4  11  26  43  74 103 144 198 250 295 378 442
#
# _framework density 24.835645
#
# number of rings (size 3 to 8) (size 9 to 14) (size 15 to 20)
#    0.000    0.857    1.429    4.714    6.000    4.000 
#    0.000    4.286    0.000    0.000    0.000    0.000 
#    0.000    0.000    0.000    0.000    0.000    0.000 
#
# Total GULP energy -78313.308583 kJ/mol
# GULP energy per Si atom -5593.807756 kJ/mol
# Density = 2.477912 g / cm^3
# Si number density = 24.835645 Si / 1000 Ang^3
#
#
#
# Elastic Constant Matrix: (Units=GPa)
#
#
# Indices 1 2 3 4 5 6 
#
# 1 109.5871 21.8131 35.0067 2.1010 -14.1101 5.5142
# 2 21.8131 54.9115 25.9934 -16.3714 -6.8000 11.8149
# 3 35.0067 25.9934 110.6992 -31.8409 -20.0299 13.4826
# 4 2.1010 -16.3714 -31.8409 39.6220 -6.9064 4.5865
# 5 -14.1101 -6.8000 -20.0299 -6.9064 54.6469 -5.0298
# 6 5.5142 11.8149 13.4826 4.5865 -5.0298 37.2914
#
#
#
# Elastic Compliance Matrix: (Units=1/GPa)
#
#
# Indices 1 2 3 4 5 6 
#
# 1 0.011626 -0.004882 -0.004748 -0.006720 0.000023 0.002374
# 2 -0.004882 0.026042 0.000972 0.013410 0.003194 -0.009099
# 3 -0.004748 0.000972 0.017004 0.016255 0.006550 -0.006869
# 4 -0.006720 0.013410 0.016255 0.047626 0.010663 -0.013551
# 5 0.000023 0.003194 0.006550 0.010663 0.022296 -0.001687
# 6 0.002374 -0.009099 -0.006869 -0.013551 -0.001687 0.033270
#
#
# Mechanical properties :
#
#
# Convention : Reuss Voigt Hill
#
# Bulk Modulus (GPa) = 26.76954 48.98045 37.87500
# Shear Modulus (GPa) = 26.64807 39.13770 32.89288
#
# Velocity S-wave (km/s) = 3.27919 3.97403 3.64321
# Velocity P-wave (km/s) = 5.01393 6.38920 5.74288
#
# Compressibility (1/GPa) = 0.03735589
#
# Stress axis : x y z
#
# Youngs Moduli (GPa) = 86.01384 38.40002 58.81029
#
# Poissons Ratio (x) = 0.18748 0.27923
# Poissons Ratio (y) = 0.41994 -0.05718
# Poissons Ratio (z) = 0.40839 -0.03734
#
# Static dielectric constant tensor:
#      x y z
#    x 1.919280 0.043700 -0.014340 
#    y 0.043700 2.016050 0.035190 
#    z -0.014340 0.035190 2.075860 
# 
# From -- ./inp_files/356046.got.cif
#   From: 2010.05.17/outbox.cif.g08.bks.cpg/sg2_179_cif.got.tgz:356046.got - 2010.06.03 11:33:40.
