data_PCOD9061686
_publ_section_title
;
Structure prediction by ZEFSAII (Michael W. Deem and Ramdas Pophale) SiO2 
 PCOD9061686
Probable space group: P -1
;
_chemical_formula_sum "Si O2"
_cell_formula_units_Z 14
_cell_length_a 5.525940
_cell_length_b 13.076628
_cell_length_c 8.817944
_cell_angle_alpha 90.965029
_cell_angle_beta 93.688112
_cell_angle_gamma 123.412150
_cell_volume 529.735451
_symmetry_space_group_name_H-M "P -1"
_symmetry_group_IT_number 2
_symmetry_cell_setting 'triclinic'
loop_
_space_group_symop_operation_xyz
x,y,z
-x,-y,-z
loop_
_atom_site_type_symbol
_atom_site_label
_atom_site_fract_x
_atom_site_fract_y
_atom_site_fract_z
Si Si1 0.727213 0.872647 0.318318
Si Si2 0.770796 0.852839 0.984189
Si Si3 0.217005 0.644373 0.398339
Si Si4 0.815164 0.103068 0.450753
Si Si5 0.568378 0.533492 0.331048
Si Si6 0.251574 0.708375 0.734591
Si Si7 0.765012 0.622280 0.927224
O O1 0.625715 0.834798 0.141953
O O2 0.439732 0.790450 0.403802
O O3 0.954800 0.846136 0.400901
O O4 0.878888 0.017204 0.348869
O O5 0.558239 0.805098 0.829812
O O6 0.867608 0.755657 0.995537
O O7 0.000000 0.000000 0.000000
O O8 0.389332 0.598143 0.307203
O O9 0.193608 0.622776 0.580816
O O10 0.910206 0.607785 0.317205
O O11 0.842045 0.205044 0.342934
O O12 0.500000 0.000000 0.500000
O O13 0.500000 0.500000 0.500000
O O14 0.417400 0.405711 0.234571
O O15 0.047646 0.631458 0.869509
O O16 0.500000 0.500000 0.000000
#
# Coordination Sequence:
#
# PCOD9061686 Si02
#       7
#     2   2   2   2   2   2   2
#     4  11  26  44  77 113 161 210 277 338 419 494
#     4  12  29  52  79 118 168 217 274 343 427 503
#     4  12  26  47  80 117 154 213 275 350 407 492
#     4  11  23  45  77 115 155 213 277 346 408 494
#     4  12  26  48  78 114 155 208 282 337 413 486
#     4  12  27  47  82 116 165 210 281 342 422 496
#     4  12  30  51  79 115 168 221 273 339 424 508
#
# _framework density 26.428286
#
# number of rings (size 3 to 8) (size 9 to 14) (size 15 to 20)
#    0.000    0.286    2.857    4.714    8.000    4.000 
#    0.000    0.000    0.000    0.000    0.000    0.000 
#    0.000    0.000    0.000    0.000    0.000    0.000 
#
# Total GULP energy -78138.080804 kJ/mol
# GULP energy per Si atom -5581.291486 kJ/mol
# Density = 2.636813 g / cm^3
# Si number density = 26.428286 Si / 1000 Ang^3
#
#
#
# Elastic Constant Matrix: (Units=GPa)
#
#
# Indices 1 2 3 4 5 6 
#
# 1 125.2834 68.0239 19.2510 8.2400 2.1882 23.1508
# 2 68.0239 167.7338 27.1786 12.4620 -11.6851 6.8761
# 3 19.2510 27.1786 92.5290 10.1538 -9.2593 1.7150
# 4 8.2400 12.4620 10.1538 60.0720 11.8672 -5.2630
# 5 2.1882 -11.6851 -9.2593 11.8672 40.3797 -2.0085
# 6 23.1508 6.8761 1.7150 -5.2630 -2.0085 64.8202
#
#
#
# Elastic Compliance Matrix: (Units=1/GPa)
#
#
# Indices 1 2 3 4 5 6 
#
# 1 0.011259 -0.004357 -0.001184 -0.000317 -0.002229 -0.003622
# 2 -0.004357 0.008175 -0.001072 -0.001411 0.002805 0.000690
# 3 -0.001184 -0.001072 0.011928 -0.002243 0.003155 0.000137
# 4 -0.000317 -0.001411 -0.002243 0.018758 -0.006336 0.001649
# 5 -0.002229 0.002805 0.003155 -0.006336 0.028322 0.000778
# 6 -0.003622 0.000690 0.000137 0.001649 0.000778 0.016802
#
#
# Mechanical properties :
#
#
# Convention : Reuss Voigt Hill
#
# Bulk Modulus (GPa) = 55.14104 68.27257 61.70681
# Shear Modulus (GPa) = 43.66264 51.12724 47.39494
#
# Velocity S-wave (km/s) = 4.06903 4.40314 4.23938
# Velocity P-wave (km/s) = 6.55635 7.19301 6.88205
#
# Compressibility (1/GPa) = 0.01813531
#
# Stress axis : x y z
#
# Youngs Moduli (GPa) = 88.81857 122.33053 83.83764
#
# Poissons Ratio (x) = 0.53305 0.09924
# Poissons Ratio (y) = 0.38702 0.08986
# Poissons Ratio (z) = 0.10513 0.13112
#
# Static dielectric constant tensor:
#      x y z
#    x 2.838450 -0.236370 -0.322230 
#    y -0.236370 2.176850 0.069770 
#    z -0.322230 0.069770 2.228990 
# 
# From -- ./inp_files/135347.got.cif
#   From: 2010.05.17/outbox.cif.g08.bks.cpg/sg2_68_cif.got.tgz:135347.got - 2010.06.03 11:33:40.
