data_PCOD9061808
_publ_section_title
;
Structure prediction by ZEFSAII (Michael W. Deem and Ramdas Pophale) SiO2 
 PCOD9061808
Probable space group: P -1
;
_chemical_formula_sum "Si O2"
_cell_formula_units_Z 16
_cell_length_a 9.234363
_cell_length_b 18.577891
_cell_length_c 11.862237
_cell_angle_alpha 27.547592
_cell_angle_beta 53.459983
_cell_angle_gamma 49.292810
_cell_volume 712.603538
_symmetry_space_group_name_H-M "P -1"
_symmetry_group_IT_number 2
_symmetry_cell_setting 'triclinic'
loop_
_space_group_symop_operation_xyz
x,y,z
-x,-y,-z
loop_
_atom_site_type_symbol
_atom_site_label
_atom_site_fract_x
_atom_site_fract_y
_atom_site_fract_z
Si Si1 0.555465 0.771113 0.412888
Si Si2 0.788597 0.715848 0.608741
Si Si3 0.547304 0.254466 0.870572
Si Si4 0.684603 0.045145 0.316021
Si Si5 0.691004 0.430848 0.162840
Si Si6 0.715881 0.879574 0.970249
Si Si7 0.208514 0.597925 0.594137
Si Si8 0.105080 0.835307 0.750307
O O1 0.655552 0.777991 0.475493
O O2 0.506584 0.601562 0.671380
O O3 0.355041 0.920337 0.274776
O O4 0.684623 0.800009 0.212552
O O5 0.004242 0.603146 0.634377
O O6 0.816499 0.870436 0.446465
O O7 0.691104 0.610193 0.876664
O O8 0.379685 0.426624 0.732791
O O9 0.710512 0.274484 0.684808
O O10 0.635167 0.174233 0.058117
O O11 0.435536 0.149565 0.005734
O O12 0.766524 0.115279 0.285580
O O13 0.500000 0.000000 0.500000
O O14 0.810724 0.382385 0.289526
O O15 0.779104 0.310086 0.184849
O O16 0.931066 0.799047 0.942610
O O17 0.000000 0.000000 0.500000
#
# Coordination Sequence:
#
# PCOD9061808 Si02
#       8
#     2   2   2   2   2   2   2   2
#     4  11  24  43  72 101 142 188 237 291 358 419
#     4  12  26  43  73 107 144 182 245 293 357 421
#     4  11  24  49  73 102 148 186 238 294 363 422
#     4  12  26  46  74 110 143 186 239 297 352 423
#     4  12  24  48  69 104 143 193 229 294 358 426
#     4  11  23  46  71 102 142 189 235 294 353 424
#     4  11  26  46  73 106 142 192 232 299 363 421
#     4  12  25  44  75 106 144 185 243 288 353 429
#
# _framework density 22.452878999999999
#
# number of rings (size 3 to 8) (size 9 to 14) (size 15 to 20)
#    0.000    0.500    3.750    4.500    1.750    1.500 
#    0.000    1.250    0.000    0.000    0.000    0.000 
#    0.000    0.000    0.000    0.000    0.000    0.000 
#
# Total GULP energy -89536.859540 kJ/mol
# GULP energy per Si atom -5596.053721 kJ/mol
# Density = 2.240178 g / cm^3
# Si number density = 22.452879 Si / 1000 Ang^3
#
#
#
# Elastic Constant Matrix: (Units=GPa)
#
#
# Indices 1 2 3 4 5 6 
#
# 1 85.8933 13.9277 50.9075 14.7642 20.4479 -3.6924
# 2 13.9277 57.5126 41.3834 14.6240 12.3840 -5.4350
# 3 50.9075 41.3834 111.8176 19.5189 4.4466 -18.0830
# 4 14.7642 14.6240 19.5189 38.4018 4.0459 -5.8696
# 5 20.4479 12.3840 4.4466 4.0459 33.1749 6.7338
# 6 -3.6924 -5.4350 -18.0830 -5.8696 6.7338 14.6665
#
#
#
# Elastic Compliance Matrix: (Units=1/GPa)
#
#
# Indices 1 2 3 4 5 6 
#
# 1 0.020703 0.006405 -0.010842 -0.003721 -0.012978 -0.001313
# 2 0.006405 0.028638 -0.011817 -0.005876 -0.012554 0.001067
# 3 -0.010842 -0.011817 0.020628 0.000103 0.005061 0.016042
# 4 -0.003721 -0.005876 0.000103 0.031369 -0.001427 0.010222
# 5 -0.012978 -0.012554 0.005061 -0.001427 0.047178 -0.023912
# 6 -0.001313 0.001067 0.016042 0.010222 -0.023912 0.103096
#
#
# Mechanical properties :
#
#
# Convention : Reuss Voigt Hill
#
# Bulk Modulus (GPa) = 26.69619 51.96231 39.32925
# Shear Modulus (GPa) = 16.85731 27.18230 22.01980
#
# Velocity S-wave (km/s) = 2.74302 3.48320 3.13503
# Velocity P-wave (km/s) = 4.68486 6.27455 5.53705
#
# Compressibility (1/GPa) = 0.03745853
#
# Stress axis : x y z
#
# Youngs Moduli (GPa) = 48.30317 34.91904 48.47780
#
# Poissons Ratio (x) = -0.22365 0.52562
# Poissons Ratio (y) = -0.30937 0.57287
# Poissons Ratio (z) = 0.52373 0.41264
#
# Static dielectric constant tensor:
#      x y z
#    x 1.787880 -0.001290 -0.015560 
#    y -0.001290 1.901420 -0.046080 
#    z -0.015560 -0.046080 1.853260 
# 
# From -- ./inp_files/402628.got.cif
#   From: 2010.05.17/outbox.cif.g08.bks.cpg/sg2_202_cif.got.tgz:402628.got - 2010.06.03 11:33:40.
