data_PCOD9061008
_publ_section_title
;
Structure prediction by ZEFSAII (Michael W. Deem and Ramdas Pophale) SiO2 
 PCOD9061008
Probable space group: P -1
;
_chemical_formula_sum "Si O2"
_cell_formula_units_Z 15
_cell_length_a 15.402511
_cell_length_b 7.952362
_cell_length_c 12.727479
_cell_angle_alpha 61.931053
_cell_angle_beta 29.970860
_cell_angle_gamma 55.940721
_cell_volume 644.787606
_symmetry_space_group_name_H-M "P -1"
_symmetry_group_IT_number 2
_symmetry_cell_setting 'triclinic'
loop_
_space_group_symop_operation_xyz
x,y,z
-x,-y,-z
loop_
_atom_site_type_symbol
_atom_site_label
_atom_site_fract_x
_atom_site_fract_y
_atom_site_fract_z
Si Si1 0.679935 0.895962 0.627466
Si Si2 0.585287 0.793827 0.539056
Si Si3 0.146907 0.948202 0.268558
Si Si4 0.997724 0.627970 0.067805
Si Si5 0.695925 0.418567 0.084673
Si Si6 0.698808 0.500680 0.829224
Si Si7 0.979028 0.988514 0.837190
Si Si8 0.500000 0.000000 0.000000
O O1 0.555011 0.868593 0.670032
O O2 0.758512 0.669142 0.659881
O O3 0.833125 0.970769 0.394335
O O4 0.594042 0.028928 0.779313
O O5 0.803950 0.686811 0.316625
O O6 0.485797 0.626972 0.674908
O O7 0.500000 0.000000 0.500000
O O8 0.168288 0.722343 0.272744
O O9 0.083128 0.077768 0.190135
O O10 0.000000 0.000000 0.500000
O O11 0.335636 0.955139 0.116810
O O12 0.000000 0.500000 0.000000
O O13 0.180454 0.524170 0.975881
O O14 0.007334 0.834231 0.947673
O O15 0.672333 0.555679 0.964589
O O16 0.825569 0.196317 0.974290
O O17 0.500000 0.500000 0.000000
#
# Coordination Sequence:
#
# PCOD9061008 Si02
#       8
#     2   2   2   2   2   2   2   1
#     4  12  24  45  74 106 141 195 238 297 362 432
#     4  12  24  46  79 100 140 199 241 286 364 433
#     4  11  24  43  67 102 143 188 230 297 363 421
#     4  12  28  48  71 111 142 185 250 306 354 425
#     4  11  23  46  74 100 142 191 238 294 357 437
#     4  11  23  44  71 106 144 183 247 288 357 445
#     4  11  23  47  70  99 143 190 242 286 360 437
#     4  12  24  42  66 106 146 180 238 292 362 420
#
# _framework density 23.263473999999999
#
# number of rings (size 3 to 8) (size 9 to 14) (size 15 to 20)
#    0.000    0.533    6.667    2.000    0.000    4.800 
#    2.400    0.000    0.000    0.000    0.000    0.000 
#    0.000    0.000    0.000    0.000    0.000    0.000 
#
# Total GULP energy -83696.816587 kJ/mol
# GULP energy per Si atom -5579.787772 kJ/mol
# Density = 2.321053 g / cm^3
# Si number density = 23.263474 Si / 1000 Ang^3
#
#
#
# Elastic Constant Matrix: (Units=GPa)
#
#
# Indices 1 2 3 4 5 6 
#
# 1 179.8510 -1.6672 7.1977 3.7952 6.0455 17.1968
# 2 -1.6672 19.9975 1.0269 0.4880 8.9592 11.0632
# 3 7.1977 1.0269 111.1115 -1.7490 -2.6244 13.4795
# 4 3.7952 0.4880 -1.7490 21.3670 3.3908 4.4291
# 5 6.0455 8.9592 -2.6244 3.3908 43.3166 -4.4053
# 6 17.1968 11.0632 13.4795 4.4291 -4.4053 29.8509
#
#
#
# Elastic Compliance Matrix: (Units=1/GPa)
#
#
# Indices 1 2 3 4 5 6 
#
# 1 0.006242 0.004918 0.000220 0.000430 -0.002514 -0.005952
# 2 0.004918 0.081577 0.003303 0.009154 -0.022059 -0.039172
# 3 0.000220 0.003303 0.009717 0.002109 -0.000919 -0.006187
# 4 0.000430 0.009154 0.002109 0.050542 -0.007119 -0.013143
# 5 -0.002514 -0.022059 -0.000919 -0.007119 0.030081 0.015534
# 6 -0.005952 -0.039172 -0.006187 -0.013143 0.015534 0.058483
#
#
# Mechanical properties :
#
#
# Convention : Reuss Voigt Hill
#
# Bulk Modulus (GPa) = 8.73999 36.00831 22.37415
# Shear Modulus (GPa) = 19.38734 39.20042 29.29388
#
# Velocity S-wave (km/s) = 2.88997 4.10941 3.55240
# Velocity P-wave (km/s) = 3.86018 6.16671 5.14438
#
# Compressibility (1/GPa) = 0.11441661
#
# Stress axis : x y z
#
# Youngs Moduli (GPa) = 160.21716 12.25833 102.90921
#
# Poissons Ratio (x) = -0.06029 -0.02261
# Poissons Ratio (y) = -0.78793 -0.33988
# Poissons Ratio (z) = -0.03520 -0.04049
#
# Static dielectric constant tensor:
#      x y z
#    x 1.936300 -0.033840 -0.033280 
#    y -0.033840 1.757480 0.029970 
#    z -0.033280 0.029970 1.868450 
# 
# From -- ./inp_files/348219.got.cif
#   From: 2010.05.17/outbox.cif.g08.bks.cpg/sg2_175_cif.got.tgz:348219.got - 2010.06.03 11:33:40.
