data_PCOD9061752
_publ_section_title
;
Structure prediction by ZEFSAII (Michael W. Deem and Ramdas Pophale) SiO2 
 PCOD9061752
Probable space group: P -1
;
_chemical_formula_sum "Si O2"
_cell_formula_units_Z 14
_cell_length_a 10.052100
_cell_length_b 6.889918
_cell_length_c 18.187917
_cell_angle_alpha 131.920265
_cell_angle_beta 134.114525
_cell_angle_gamma 46.489851
_cell_volume 611.241180
_symmetry_space_group_name_H-M "P -1"
_symmetry_group_IT_number 2
_symmetry_cell_setting 'triclinic'
loop_
_space_group_symop_operation_xyz
x,y,z
-x,-y,-z
loop_
_atom_site_type_symbol
_atom_site_label
_atom_site_fract_x
_atom_site_fract_y
_atom_site_fract_z
Si Si1 0.873869 0.867858 0.965337
Si Si2 0.993179 0.208060 0.845867
Si Si3 0.462710 0.308237 0.874148
Si Si4 0.667965 0.625324 0.597857
Si Si5 0.075166 0.171812 0.706866
Si Si6 0.544867 0.279042 0.734948
Si Si7 0.816580 0.441648 0.448565
O O1 0.986130 0.525602 0.917235
O O2 0.646060 0.994187 0.879042
O O3 0.875976 0.945431 0.071572
O O4 0.000000 0.000000 0.000000
O O5 0.763513 0.254833 0.786820
O O6 0.071385 0.065046 0.761668
O O7 0.249529 0.284996 0.793251
O O8 0.491332 0.406563 0.828435
O O9 0.500000 0.500000 0.000000
O O10 0.500000 0.500000 0.500000
O O11 0.752757 0.602440 0.542063
O O12 0.857249 0.428416 0.671133
O O13 0.567908 0.953344 0.666944
O O14 0.116207 0.898483 0.602250
O O15 0.373799 0.442959 0.651011
O O16 0.000000 0.500000 0.500000
#
# Coordination Sequence:
#
# PCOD9061752 Si02
#       7
#     2   2   2   2   2   2   2
#     4  11  23  46  68  98 143 192 238 282 343 416
#     4  11  25  42  73  99 137 190 239 281 341 432
#     4  12  27  42  70 102 151 187 230 293 353 414
#     4  12  25  47  75 100 140 190 237 295 363 430
#     4  12  26  44  70 108 143 183 236 294 365 423
#     4  12  25  45  72 104 139 190 242 285 356 438
#     4  12  25  45  70 104 140 177 237 309 364 411
#
# _framework density 22.904219000000001
#
# number of rings (size 3 to 8) (size 9 to 14) (size 15 to 20)
#    0.000    0.286    1.429    7.714    6.000    0.571 
#    0.000    0.000    0.000    0.000    0.000    0.000 
#    0.000    0.000    0.000    0.000    0.000    0.000 
#
# Total GULP energy -78506.332031 kJ/mol
# GULP energy per Si atom -5607.595145 kJ/mol
# Density = 2.285209 g / cm^3
# Si number density = 22.904219 Si / 1000 Ang^3
#
#
#
# Elastic Constant Matrix: (Units=GPa)
#
#
# Indices 1 2 3 4 5 6 
#
# 1 100.9831 -11.5754 31.2197 -3.3070 7.1010 10.8761
# 2 -11.5754 76.7631 5.8029 -0.8316 4.1695 4.3433
# 3 31.2197 5.8029 79.5196 0.5991 1.1926 9.4667
# 4 -3.3070 -0.8316 0.5991 56.0883 5.8869 -1.9464
# 5 7.1010 4.1695 1.1926 5.8869 69.3388 0.4307
# 6 10.8761 4.3433 9.4667 -1.9464 0.4307 28.5751
#
#
#
# Elastic Compliance Matrix: (Units=1/GPa)
#
#
# Indices 1 2 3 4 5 6 
#
# 1 0.012058 0.002432 -0.004493 0.000819 -0.001352 -0.003394
# 2 0.002432 0.013718 -0.001655 0.000392 -0.001064 -0.002420
# 3 -0.004493 -0.001655 0.014815 -0.000591 0.000374 -0.002992
# 4 0.000819 0.000392 -0.000591 0.018099 -0.001641 0.001082
# 5 -0.001352 -0.001064 0.000374 -0.001641 0.014756 0.000218
# 6 -0.003394 -0.002420 -0.002992 0.001082 0.000218 0.037717
#
#
# Mechanical properties :
#
#
# Convention : Reuss Voigt Hill
#
# Bulk Modulus (GPa) = 30.15711 34.24000 32.19856
# Shear Modulus (GPa) = 38.56576 46.25502 42.41039
#
# Velocity S-wave (km/s) = 4.10785 4.49876 4.30774
# Velocity P-wave (km/s) = 5.97448 6.47818 6.23142
#
# Compressibility (1/GPa) = 0.03315967
#
# Stress axis : x y z
#
# Youngs Moduli (GPa) = 82.93165 72.89731 67.49697
#
# Poissons Ratio (x) = -0.17731 0.30329
# Poissons Ratio (y) = -0.20172 0.11170
# Poissons Ratio (z) = 0.37264 0.12064
#
# Static dielectric constant tensor:
#      x y z
#    x 1.669270 -0.012630 -0.044330 
#    y -0.012630 1.858950 0.033660 
#    z -0.044330 0.033660 1.902070 
# 
# From -- ./inp_files/107675.got.cif
#   From: 2010.05.17/outbox.cif.g08.bks.cpg/sg2_54_cif.got.tgz:107675.got - 2010.06.03 11:33:40.
