data_PCOD9061676
_publ_section_title
;
Structure prediction by ZEFSAII (Michael W. Deem and Ramdas Pophale) SiO2 
 PCOD9061676
Probable space group: P -1
;
_chemical_formula_sum "Si O2"
_cell_formula_units_Z 14
_cell_length_a 8.932089
_cell_length_b 8.395219
_cell_length_c 12.024862
_cell_angle_alpha 70.348180
_cell_angle_beta 78.423725
_cell_angle_gamma 50.008427
_cell_volume 650.444601
_symmetry_space_group_name_H-M "P -1"
_symmetry_group_IT_number 2
_symmetry_cell_setting 'triclinic'
loop_
_space_group_symop_operation_xyz
x,y,z
-x,-y,-z
loop_
_atom_site_type_symbol
_atom_site_label
_atom_site_fract_x
_atom_site_fract_y
_atom_site_fract_z
Si Si1 0.601930 0.933990 0.378300
Si Si2 0.028815 0.064061 0.099255
Si Si3 0.685502 0.484674 0.452898
Si Si4 0.860846 0.377730 0.224544
Si Si5 0.229296 0.326152 0.219473
Si Si6 0.284930 0.222349 0.990771
Si Si7 0.950157 0.271476 0.681066
O O1 0.630017 0.719013 0.393321
O O2 0.817873 0.866888 0.346863
O O3 0.500000 0.000000 0.500000
O O4 0.442419 0.134564 0.277991
O O5 0.153374 0.146025 0.038037
O O6 0.846615 0.261725 0.150148
O O7 0.104798 0.866694 0.217991
O O8 0.000000 0.000000 0.000000
O O9 0.500000 0.500000 0.500000
O O10 0.766596 0.369980 0.349721
O O11 0.837752 0.367353 0.558933
O O12 0.084817 0.263895 0.252475
O O13 0.774036 0.616258 0.139675
O O14 0.251962 0.350797 0.079472
O O15 0.125246 0.532742 0.267256
O O16 0.500000 0.000000 0.000000
#
# Coordination Sequence:
#
# PCOD9061676 Si02
#       7
#     2   2   2   2   2   2   2
#     4  12  25  46  74 105 142 195 243 282 362 427
#     4  11  26  45  72 104 142 183 240 297 361 419
#     4  12  28  45  72 108 148 186 242 294 356 429
#     4  11  24  47  73 100 148 190 234 299 359 421
#     4  11  23  45  77 102 139 192 236 293 361 429
#     4  11  25  46  76 104 139 193 241 291 361 432
#     4  12  26  48  72 109 148 185 237 302 356 427
#
# _framework density 21.523738999999999
#
# number of rings (size 3 to 8) (size 9 to 14) (size 15 to 20)
#    0.000    0.571    2.857    5.571   10.000    0.571 
#    0.000    1.429    0.000    0.000    0.000    0.000 
#    0.000    0.000    0.000    0.000    0.000    0.000 
#
# Total GULP energy -78233.303245 kJ/mol
# GULP energy per Si atom -5588.093089 kJ/mol
# Density = 2.147475 g / cm^3
# Si number density = 21.523739 Si / 1000 Ang^3
#
#
#
# Elastic Constant Matrix: (Units=GPa)
#
#
# Indices 1 2 3 4 5 6 
#
# 1 85.1926 45.3315 59.2577 2.9875 11.2844 -15.2597
# 2 45.3315 106.6956 64.8933 12.6928 13.0311 -6.3023
# 3 59.2577 64.8933 160.5260 27.7477 6.8911 -1.0543
# 4 2.9875 12.6928 27.7477 44.0203 1.2803 -0.9482
# 5 11.2844 13.0311 6.8911 1.2803 24.3358 -2.1538
# 6 -15.2597 -6.3023 -1.0543 -0.9482 -2.1538 41.3897
#
#
#
# Elastic Compliance Matrix: (Units=1/GPa)
#
#
# Indices 1 2 3 4 5 6 
#
# 1 0.019850 -0.004264 -0.006039 0.003967 -0.004857 0.006353
# 2 -0.004264 0.014170 -0.003735 -0.001307 -0.004464 0.000228
# 3 -0.006039 -0.003735 0.010815 -0.005437 0.001798 -0.002551
# 4 0.003967 -0.001307 -0.005437 0.026312 -0.000835 0.001684
# 5 -0.004857 -0.004464 0.001798 -0.000835 0.045261 -0.000089
# 6 0.006353 0.000228 -0.002551 0.001684 -0.000089 0.026507
#
#
# Mechanical properties :
#
#
# Convention : Reuss Voigt Hill
#
# Bulk Modulus (GPa) = 59.67311 76.81991 68.24651
# Shear Modulus (GPa) = 28.31601 34.14460 31.23031
#
# Velocity S-wave (km/s) = 3.63102 3.98725 3.81329
# Velocity P-wave (km/s) = 6.73525 7.54757 7.15295
#
# Compressibility (1/GPa) = 0.01675797
#
# Stress axis : x y z
#
# Youngs Moduli (GPa) = 50.37745 70.57171 92.46528
#
# Poissons Ratio (x) = 0.30091 0.55844
# Poissons Ratio (y) = 0.21480 0.34538
# Poissons Ratio (z) = 0.30425 0.26360
#
# Static dielectric constant tensor:
#      x y z
#    x 1.763540 -0.000640 0.005290 
#    y -0.000640 1.830080 0.036170 
#    z 0.005290 0.036170 1.801550 
# 
# From -- ./inp_files/378268.got.cif
#   From: 2010.05.17/outbox.cif.g08.bks.cpg/sg2_190_cif.got.tgz:378268.got - 2010.06.03 11:33:40.
