data_PCOD9061167
_publ_section_title
;
Structure prediction by ZEFSAII (Michael W. Deem and Ramdas Pophale) SiO2 
 PCOD9061167
Probable space group: P -1
;
_chemical_formula_sum "Si O2"
_cell_formula_units_Z 12
_cell_length_a 7.021125
_cell_length_b 8.979412
_cell_length_c 15.521843
_cell_angle_alpha 30.421809
_cell_angle_beta 66.412160
_cell_angle_gamma 76.796702
_cell_volume 439.533338
_symmetry_space_group_name_H-M "P -1"
_symmetry_group_IT_number 2
_symmetry_cell_setting 'triclinic'
loop_
_space_group_symop_operation_xyz
x,y,z
-x,-y,-z
loop_
_atom_site_type_symbol
_atom_site_label
_atom_site_fract_x
_atom_site_fract_y
_atom_site_fract_z
Si Si1 0.307943 0.598446 0.033938
Si Si2 0.049558 0.396743 0.338931
Si Si3 0.894649 0.084443 0.791548
Si Si4 0.894896 0.128939 0.286286
Si Si5 0.480312 0.714307 0.317877
Si Si6 0.671039 0.483016 0.238126
O O1 0.260534 0.471100 0.203223
O O2 0.093784 0.430601 0.104130
O O3 0.500000 0.500000 0.000000
O O4 0.351465 0.958456 0.862690
O O5 0.047760 0.658432 0.276448
O O6 0.852084 0.412353 0.305212
O O7 0.048169 0.093045 0.541355
O O8 0.742348 0.190373 0.696803
O O9 0.088774 0.026943 0.729439
O O10 0.761205 0.787455 0.014301
O O11 0.670866 0.212938 0.304615
O O12 0.500000 0.500000 0.500000
O O13 0.504247 0.554440 0.301335
#
# Coordination Sequence:
#
# PCOD9061167 Si02
#       6
#     2   2   2   2   2   2
#     4  11  23  44  73  99 141 185 231 284 349 407
#     4  11  25  46  75 103 143 183 231 287 348 415
#     4  12  24  47  69 107 140 184 230 290 347 415
#     4  11  25  45  74 103 140 183 237 282 344 418
#     4  12  27  45  72 102 143 185 234 288 352 410
#     4  11  24  45  71 101 141 185 230 283 347 411
#
# _framework density 27.301683000000001
#
# number of rings (size 3 to 8) (size 9 to 14) (size 15 to 20)
#    0.000    0.667    3.333    5.000    4.667    0.000 
#    3.000    0.833    0.000    0.000    0.000    0.000 
#    0.000    0.000    0.000    0.000    0.000    0.000 
#
# Total GULP energy -67326.463288 kJ/mol
# GULP energy per Si atom -5610.538607 kJ/mol
# Density = 2.723954 g / cm^3
# Si number density = 27.301683 Si / 1000 Ang^3
#
#
#
# Elastic Constant Matrix: (Units=GPa)
#
#
# Indices 1 2 3 4 5 6 
#
# 1 66.0632 36.4167 16.9750 6.9323 10.7875 -12.3025
# 2 36.4167 230.1184 71.2125 9.5129 -3.9611 -23.2140
# 3 16.9750 71.2125 149.1331 13.8813 26.1631 -20.0213
# 4 6.9323 9.5129 13.8813 50.3716 -1.7272 0.2963
# 5 10.7875 -3.9611 26.1631 -1.7272 44.6765 1.9903
# 6 -12.3025 -23.2140 -20.0213 0.2963 1.9903 46.6935
#
#
#
# Elastic Compliance Matrix: (Units=1/GPa)
#
#
# Indices 1 2 3 4 5 6 
#
# 1 0.018354 -0.002791 0.001003 -0.002490 -0.005547 0.004131
# 2 -0.002791 0.005792 -0.002853 0.000169 0.002829 0.000800
# 3 0.001003 -0.002853 0.009770 -0.002533 -0.006462 0.003326
# 4 -0.002490 0.000169 -0.002533 0.020975 0.002996 -0.001919
# 5 -0.005547 0.002829 -0.006462 0.002996 0.028054 -0.004041
# 6 0.004131 0.000800 0.003326 -0.001919 -0.004041 0.024513
#
#
# Mechanical properties :
#
#
# Convention : Reuss Voigt Hill
#
# Bulk Modulus (GPa) = 40.59395 77.16925 58.88160
# Shear Modulus (GPa) = 40.01579 49.72904 44.87242
#
# Velocity S-wave (km/s) = 3.83259 4.27249 4.05850
# Velocity P-wave (km/s) = 5.87247 7.25711 6.60119
#
# Compressibility (1/GPa) = 0.02463421
#
# Stress axis : x y z
#
# Youngs Moduli (GPa) = 54.48439 172.63709 102.35788
#
# Poissons Ratio (x) = 0.48179 -0.10265
# Poissons Ratio (y) = 0.15205 0.29203
# Poissons Ratio (z) = -0.05464 0.49253
#
# Static dielectric constant tensor:
#      x y z
#    x 2.167920 0.008310 -0.046720 
#    y 0.008310 2.167620 0.018750 
#    z -0.046720 0.018750 2.091770 
# 
# From -- ./inp_files/151142.got.cif
#   From: 2010.05.17/outbox.cif.g08.bks.cpg/sg2_76_cif.got.tgz:151142.got - 2010.06.03 11:33:40.
