data_PCOD9061831
_publ_section_title
;
Structure prediction by ZEFSAII (Michael W. Deem and Ramdas Pophale) SiO2 
 PCOD9061831
Probable space group: P -1
;
_chemical_formula_sum "Si O2"
_cell_formula_units_Z 14
_cell_length_a 10.055483
_cell_length_b 9.679598
_cell_length_c 14.036092
_cell_angle_alpha 48.388804
_cell_angle_beta 50.946469
_cell_angle_gamma 40.745151
_cell_volume 643.745915
_symmetry_space_group_name_H-M "P -1"
_symmetry_group_IT_number 2
_symmetry_cell_setting 'triclinic'
loop_
_space_group_symop_operation_xyz
x,y,z
-x,-y,-z
loop_
_atom_site_type_symbol
_atom_site_label
_atom_site_fract_x
_atom_site_fract_y
_atom_site_fract_z
Si Si1 0.826557 0.006732 0.009663
Si Si2 0.044259 0.417126 0.737655
Si Si3 0.758952 0.382609 0.344489
Si Si4 0.661150 0.131639 0.645983
Si Si5 0.697339 0.939046 0.375705
Si Si6 0.991058 0.962733 0.745150
Si Si7 0.565445 0.763663 0.809639
O O1 0.859027 0.775348 0.135846
O O2 0.586575 0.215494 0.047878
O O3 0.881716 0.000411 0.878222
O O4 0.000000 0.000000 0.000000
O O5 0.794473 0.534362 0.790540
O O6 0.079750 0.603416 0.669535
O O7 0.178211 0.289866 0.640147
O O8 0.727128 0.203203 0.489343
O O9 0.546403 0.631700 0.332646
O O10 0.841959 0.301268 0.238055
O O11 0.829483 0.052901 0.689681
O O12 0.610872 0.951358 0.726890
O O13 0.500000 0.000000 0.500000
O O14 0.587799 0.144431 0.254579
O O15 0.877107 0.931512 0.355906
#
# Coordination Sequence:
#
# PCOD9061831 Si02
#       7
#     2   2   2   2   2   2   2
#     4  11  24  49  65  97 146 177 232 286 331 401
#     4  11  24  45  72  97 134 189 220 276 349 400
#     4  11  24  44  71 101 140 175 227 282 348 405
#     4  11  24  44  70 103 138 176 224 288 347 397
#     4  11  25  44  66 103 140 174 228 282 339 410
#     4  12  25  43  72 101 136 178 233 283 334 406
#     4  11  23  46  71  94 139 187 222 281 348 398
#
# _framework density 21.747713000000001
#
# number of rings (size 3 to 8) (size 9 to 14) (size 15 to 20)
#    0.000    0.857    7.143    1.286    4.000    4.571 
#    0.000    0.000    0.000    0.000    0.000    0.000 
#    0.000    0.000    0.000    0.000    0.000    0.000 
#
# Total GULP energy -78221.631772 kJ/mol
# GULP energy per Si atom -5587.259412 kJ/mol
# Density = 2.169821 g / cm^3
# Si number density = 21.747713 Si / 1000 Ang^3
#
#
#
# Elastic Constant Matrix: (Units=GPa)
#
#
# Indices 1 2 3 4 5 6 
#
# 1 94.5461 18.6767 14.4552 6.9134 -11.0455 -1.3098
# 2 18.6767 96.2760 46.7302 45.1647 -2.3671 -11.4422
# 3 14.4552 46.7302 87.3343 38.3058 -13.9169 0.1157
# 4 6.9134 45.1647 38.3058 43.9744 -2.7088 -4.8782
# 5 -11.0455 -2.3671 -13.9169 -2.7088 33.4643 3.4583
# 6 -1.3098 -11.4422 0.1157 -4.8782 3.4583 41.7832
#
#
#
# Elastic Compliance Matrix: (Units=1/GPa)
#
#
# Indices 1 2 3 4 5 6 
#
# 1 0.011484 -0.002659 -0.000639 0.001648 0.003518 -0.000465
# 2 -0.002659 0.021700 -0.003447 -0.018597 -0.002687 0.003920
# 3 -0.000639 -0.003447 0.020963 -0.014532 0.007431 -0.003334
# 4 0.001648 -0.018597 -0.014532 0.054252 -0.002583 0.001547
# 5 0.003518 -0.002687 0.007431 -0.002583 0.034125 -0.003772
# 6 -0.000465 0.003920 -0.003334 0.001547 -0.003772 0.025494
#
#
# Mechanical properties :
#
#
# Convention : Reuss Voigt Hill
#
# Bulk Modulus (GPa) = 24.59753 48.65340 36.62547
# Shear Modulus (GPa) = 25.63288 37.06401 31.34844
#
# Velocity S-wave (km/s) = 3.43687 4.13276 3.80077
# Velocity P-wave (km/s) = 5.20426 6.72259 6.01156
#
# Compressibility (1/GPa) = 0.04065449
#
# Stress axis : x y z
#
# Youngs Moduli (GPa) = 87.07781 46.08329 47.70300
#
# Poissons Ratio (x) = 0.12255 0.03051
# Poissons Ratio (y) = 0.23156 0.16445
# Poissons Ratio (z) = 0.05568 0.15887
#
# Static dielectric constant tensor:
#      x y z
#    x 1.800530 -0.025990 -0.053400 
#    y -0.025990 1.838060 0.014510 
#    z -0.053400 0.014510 1.826200 
# 
# From -- ./inp_files/199921.got.cif
#   From: 2010.05.17/outbox.cif.g08.bks.cpg/sg2_100_cif.got.tgz:199921.got - 2010.06.03 11:33:40.
