data_PCOD9061845
_publ_section_title
;
Structure prediction by ZEFSAII (Michael W. Deem and Ramdas Pophale) SiO2 
 PCOD9061845
Probable space group: P -1
;
_chemical_formula_sum "Si O2"
_cell_formula_units_Z 14
_cell_length_a 10.774476
_cell_length_b 9.496491
_cell_length_c 13.191045
_cell_angle_alpha 73.158154
_cell_angle_beta 57.007225
_cell_angle_gamma 119.059047
_cell_volume 647.809102
_symmetry_space_group_name_H-M "P -1"
_symmetry_group_IT_number 2
_symmetry_cell_setting 'triclinic'
loop_
_space_group_symop_operation_xyz
x,y,z
-x,-y,-z
loop_
_atom_site_type_symbol
_atom_site_label
_atom_site_fract_x
_atom_site_fract_y
_atom_site_fract_z
Si Si1 0.299238 0.427039 0.536753
Si Si2 0.655768 0.490421 0.885632
Si Si3 0.473203 0.869883 0.678598
Si Si4 0.388808 0.833342 0.950477
Si Si5 0.889467 0.968650 0.447692
Si Si6 0.163562 0.593899 0.674276
Si Si7 0.262405 0.618341 0.332707
O O1 0.500000 0.500000 0.500000
O O2 0.152267 0.192286 0.582814
O O3 0.172685 0.429880 0.675585
O O4 0.359430 0.603230 0.390082
O O5 0.715054 0.487573 0.743671
O O6 0.500000 0.500000 0.000000
O O7 0.493550 0.225651 0.056440
O O8 0.931278 0.764960 0.736670
O O9 0.348123 0.793161 0.857418
O O10 0.631817 0.846388 0.609820
O O11 0.273445 0.705988 0.713229
O O12 0.666658 0.158521 0.516959
O O13 0.550461 0.103937 0.841507
O O14 0.124061 0.604441 0.167759
O O15 0.000000 0.000000 0.500000
O O16 0.000000 0.500000 0.500000
#
# Coordination Sequence:
#
# PCOD9061845 Si02
#       7
#     2   2   2   2   2   2   2
#     4  12  26  47  75 108 151 199 246 309 383 448
#     4  12  27  43  70 114 146 189 253 320 372 439
#     4  11  23  46  72 103 145 192 248 303 372 450
#     4  12  25  45  75 108 146 193 256 308 374 459
#     4  12  24  45  73 100 150 193 240 307 381 439
#     4  11  24  46  72 104 145 197 244 302 375 457
#     4  12  27  50  77 107 153 205 252 311 384 453
#
# _framework density 21.611305000000002
#
# number of rings (size 3 to 8) (size 9 to 14) (size 15 to 20)
#    0.000    0.286    5.714    3.429    4.000    0.000 
#    2.571    0.714    0.000    0.000    0.000    0.000 
#    0.000    0.000    0.000    0.000    0.000    0.000 
#
# Total GULP energy -77965.367624 kJ/mol
# GULP energy per Si atom -5568.954830 kJ/mol
# Density = 2.156212 g / cm^3
# Si number density = 21.611305 Si / 1000 Ang^3
#
#
#
# Elastic Constant Matrix: (Units=GPa)
#
#
# Indices 1 2 3 4 5 6 
#
# 1 106.1998 33.2368 14.5984 -3.6602 4.1652 0.8324
# 2 33.2368 184.1162 32.3792 -9.2303 4.7311 -12.9880
# 3 14.5984 32.3792 55.7878 -13.1906 0.2289 -0.4157
# 4 -3.6602 -9.2303 -13.1906 42.0089 -6.1795 5.9909
# 5 4.1652 4.7311 0.2289 -6.1795 29.8820 1.8557
# 6 0.8324 -12.9880 -0.4157 5.9909 1.8557 40.7612
#
#
#
# Elastic Compliance Matrix: (Units=1/GPa)
#
#
# Indices 1 2 3 4 5 6 
#
# 1 0.010193 -0.001546 -0.001791 -0.000088 -0.001140 -0.000654
# 2 -0.001546 0.006470 -0.003383 -0.000221 -0.000961 0.002135
# 3 -0.001791 -0.003383 0.021882 0.006546 0.002088 -0.001875
# 4 -0.000088 -0.000221 0.006546 0.027283 0.005905 -0.004281
# 5 -0.001140 -0.000961 0.002088 0.005905 0.035151 -0.002730
# 6 -0.000654 0.002135 -0.001875 -0.004281 -0.002730 0.025961
#
#
# Mechanical properties :
#
#
# Convention : Reuss Voigt Hill
#
# Bulk Modulus (GPa) = 39.83272 56.28139 48.05706
# Shear Modulus (GPa) = 33.61391 40.25638 36.93515
#
# Velocity S-wave (km/s) = 3.94812 4.32064 4.13857
# Velocity P-wave (km/s) = 6.26538 7.14070 6.71731
#
# Compressibility (1/GPa) = 0.02510499
#
# Stress axis : x y z
#
# Youngs Moduli (GPa) = 98.10503 154.56856 45.69906
#
# Poissons Ratio (x) = 0.23903 0.08184
# Poissons Ratio (y) = 0.15171 0.15459
# Poissons Ratio (z) = 0.17569 0.52287
#
# Static dielectric constant tensor:
#      x y z
#    x 2.117640 -0.052790 0.026870 
#    y -0.052790 1.835300 0.032360 
#    z 0.026870 0.032360 1.801030 
# 
# From -- ./inp_files/514266.got.cif
#   From: 2010.05.17/outbox.cif.g08.bks.cpg/sg2_258_cif.got.tgz:514266.got - 2010.06.03 11:33:40.
