data_PCOD9061528
_publ_section_title
;
Structure prediction by ZEFSAII (Michael W. Deem and Ramdas Pophale) SiO2 
 PCOD9061528
Probable space group: P -1
;
_chemical_formula_sum "Si O2"
_cell_formula_units_Z 14
_cell_length_a 11.647210
_cell_length_b 7.949504
_cell_length_c 14.316866
_cell_angle_alpha 86.710575
_cell_angle_beta 42.871314
_cell_angle_gamma 53.789620
_cell_volume 530.711874
_symmetry_space_group_name_H-M "P -1"
_symmetry_group_IT_number 2
_symmetry_cell_setting 'triclinic'
loop_
_space_group_symop_operation_xyz
x,y,z
-x,-y,-z
loop_
_atom_site_type_symbol
_atom_site_label
_atom_site_fract_x
_atom_site_fract_y
_atom_site_fract_z
Si Si1 0.448796 0.575090 0.420053
Si Si2 0.827319 0.718196 0.285871
Si Si3 0.047361 0.235836 0.273270
Si Si4 0.619840 0.234289 0.057355
Si Si5 0.017847 0.228700 0.627562
Si Si6 0.181492 0.608284 0.951298
Si Si7 0.594641 0.950676 0.756656
O O1 0.500000 0.500000 0.500000
O O2 0.245692 0.586631 0.506804
O O3 0.734227 0.389169 0.200084
O O4 0.240180 0.899510 0.518116
O O5 0.938936 0.441847 0.247014
O O6 0.005668 0.671865 0.259842
O O7 0.500000 0.000000 0.500000
O O8 0.886213 0.755848 0.150413
O O9 0.250071 0.157720 0.231393
O O10 0.218386 0.948276 0.128766
O O11 0.778500 0.257152 0.014390
O O12 0.567797 0.096611 0.144155
O O13 0.702570 0.438290 0.776054
O O14 0.174136 0.222038 0.458913
O O15 0.398726 0.277214 0.854397
#
# Coordination Sequence:
#
# PCOD9061528 Si02
#       7
#     2   2   2   2   2   2   2
#     4  11  26  50  72 106 150 200 255 300 359 455
#     4  12  26  48  71 106 152 200 247 298 363 452
#     4  12  24  44  74 108 154 191 244 309 375 438
#     4  12  23  43  78 113 147 187 245 313 374 439
#     4  11  24  44  72 108 149 192 246 304 378 426
#     4  11  26  48  78 110 147 196 246 310 379 426
#     4  11  23  45  72 117 151 187 244 314 375 441
#
# _framework density 26.379662
#
# number of rings (size 3 to 8) (size 9 to 14) (size 15 to 20)
#    0.000    0.571    2.857    5.143    2.000    4.000 
#    2.571    5.714    0.000    1.714    0.000    0.000 
#    0.000    0.000    0.000    0.000    0.000    0.000 
#
# Total GULP energy -78466.561136 kJ/mol
# GULP energy per Si atom -5604.754367 kJ/mol
# Density = 2.631962 g / cm^3
# Si number density = 26.379662 Si / 1000 Ang^3
#
#
#
# Elastic Constant Matrix: (Units=GPa)
#
#
# Indices 1 2 3 4 5 6 
#
# 1 59.6943 50.4398 19.3198 -11.6054 12.4586 2.7342
# 2 50.4398 158.0076 75.3414 -16.4148 -3.1525 1.4448
# 3 19.3198 75.3414 194.0101 -33.8467 1.0374 -10.7668
# 4 -11.6054 -16.4148 -33.8467 56.6803 0.5324 -1.2824
# 5 12.4586 -3.1525 1.0374 0.5324 33.6813 1.6813
# 6 2.7342 1.4448 -10.7668 -1.2824 1.6813 40.7020
#
#
#
# Elastic Compliance Matrix: (Units=1/GPa)
#
#
# Indices 1 2 3 4 5 6 
#
# 1 0.027102 -0.009220 0.001598 0.003925 -0.010974 -0.000494
# 2 -0.009220 0.010987 -0.003584 -0.000911 0.004610 -0.000938
# 3 0.001598 -0.003584 0.007139 0.003612 -0.001307 0.002076
# 4 0.003925 -0.000911 0.003612 0.020391 -0.002043 0.001451
# 5 -0.010974 0.004610 -0.001307 -0.002043 0.034316 -0.001254
# 6 -0.000494 -0.000938 0.002076 0.001451 -0.001254 0.025282
#
#
# Mechanical properties :
#
#
# Convention : Reuss Voigt Hill
#
# Bulk Modulus (GPa) = 43.83043 77.99045 60.91044
# Shear Modulus (GPa) = 32.20911 43.98680 38.09795
#
# Velocity S-wave (km/s) = 3.49805 4.08787 3.80441
# Velocity P-wave (km/s) = 5.74164 7.20484 6.51445
#
# Compressibility (1/GPa) = 0.02281520
#
# Stress axis : x y z
#
# Youngs Moduli (GPa) = 36.89814 91.01688 140.06734
#
# Poissons Ratio (x) = 0.83917 -0.22378
# Poissons Ratio (y) = 0.34020 0.50202
# Poissons Ratio (z) = -0.05895 0.32621
#
# Static dielectric constant tensor:
#      x y z
#    x 2.060400 0.050200 -0.007590 
#    y 0.050200 2.126550 -0.008470 
#    z -0.007590 -0.008470 2.104210 
# 
# From -- ./inp_files/575056.got.cif
#   From: 2010.05.17/outbox.cif.g08.bks.cpg/sg2_288_cif.got.tgz:575056.got - 2010.06.03 11:33:40.
