data_PCOD9061331
_publ_section_title
;
Structure prediction by ZEFSAII (Michael W. Deem and Ramdas Pophale) SiO2 
 PCOD9061331
Probable space group: P -1
;
_chemical_formula_sum "Si O2"
_cell_formula_units_Z 16
_cell_length_a 9.696587
_cell_length_b 5.743795
_cell_length_c 19.422493
_cell_angle_alpha 121.117844
_cell_angle_beta 140.806224
_cell_angle_gamma 67.386366
_cell_volume 584.977967
_symmetry_space_group_name_H-M "P -1"
_symmetry_group_IT_number 2
_symmetry_cell_setting 'triclinic'
loop_
_space_group_symop_operation_xyz
x,y,z
-x,-y,-z
loop_
_atom_site_type_symbol
_atom_site_label
_atom_site_fract_x
_atom_site_fract_y
_atom_site_fract_z
Si Si1 0.156307 0.227081 0.287492
Si Si2 0.427750 0.182064 0.064943
Si Si3 0.910316 0.911862 0.354639
Si Si4 0.821173 0.832047 0.863119
Si Si5 0.545097 0.321887 0.923212
Si Si6 0.329310 0.735324 0.229926
Si Si7 0.874154 0.415226 0.337247
Si Si8 0.404470 0.930189 0.526273
O O1 0.097822 0.308032 0.199328
O O2 0.033945 0.314558 0.321739
O O3 0.419633 0.268847 0.401888
O O4 0.142713 0.896592 0.224651
O O5 0.320198 0.455673 0.037218
O O6 0.639680 0.320785 0.203416
O O7 0.343701 0.949521 0.048494
O O8 0.500000 0.000000 0.000000
O O9 0.900319 0.740294 0.394919
O O10 0.153177 0.846836 0.411065
O O11 0.698348 0.779929 0.212701
O O12 0.899404 0.233109 0.386574
O O13 0.724951 0.581297 0.832839
O O14 0.664933 0.070234 0.806725
O O15 0.000000 0.000000 0.000000
O O16 0.500000 0.500000 0.000000
O O17 0.550350 0.802712 0.368128
O O18 0.500000 0.000000 0.500000
#
# Coordination Sequence:
#
# PCOD9061331 Si02
#       8
#     2   2   2   2   2   2   2   2
#     4   8  20  25  40  56  77  99 136 166 196 223
#     4   8  14  24  35  48  67  93 126 161 184 217
#     4  10  18  26  37  52  74 110 131 159 194 215
#     4   9  17  31  44  54  70  96 133 174 206 235
#     4   8  14  24  36  49  65  90 135 166 180 217
#     4   8  19  27  40  58  72  97 135 162 199 229
#     4  10  18  25  37  54  74 100 138 159 186 225
#     4   9  17  28  38  54  84 109 133 164 186 223
#
# _framework density 27.351459999999999
#
# number of rings (size 3 to 8) (size 9 to 14) (size 15 to 20)
#    1.500    1.500    1.250    0.375    3.500    2.500 
#    0.000    0.000    0.000    0.000    0.000    0.000 
#    0.000    0.000    0.000    0.000    0.000  280.000 
#
# Total GULP energy -89148.088113 kJ/mol
# GULP energy per Si atom -5571.755507 kJ/mol
# Density = 2.728921 g / cm^3
# Si number density = 27.351460 Si / 1000 Ang^3
#
#
#
# Elastic Constant Matrix: (Units=GPa)
#
#
# Indices 1 2 3 4 5 6 
#
# 1 92.8390 54.3150 46.6355 5.2117 12.2999 17.2647
# 2 54.3150 285.2644 51.4040 31.2775 -18.9916 55.2251
# 3 46.6355 51.4040 130.4622 2.7636 2.6943 33.2621
# 4 5.2117 31.2775 2.7636 45.5010 7.3058 -8.5656
# 5 12.2999 -18.9916 2.6943 7.3058 29.6436 -3.9115
# 6 17.2647 55.2251 33.2621 -8.5656 -3.9115 39.3356
#
#
#
# Elastic Compliance Matrix: (Units=1/GPa)
#
#
# Indices 1 2 3 4 5 6 
#
# 1 0.015719 -0.003199 -0.004490 0.002242 -0.008581 0.001024
# 2 -0.003199 0.007286 0.001050 -0.007759 0.006391 -0.010767
# 3 -0.004490 0.001050 0.011354 -0.002862 0.000938 -0.009635
# 4 0.002242 -0.007759 -0.002862 0.032473 -0.011232 0.018283
# 5 -0.008581 0.006391 0.000938 -0.011232 0.043529 -0.004117
# 6 0.001024 -0.010767 -0.009635 0.018283 -0.004117 0.051809
#
#
# Mechanical properties :
#
#
# Convention : Reuss Voigt Hill
#
# Bulk Modulus (GPa) = 47.43435 90.36383 68.89909
# Shear Modulus (GPa) = 27.40112 46.64344 37.02228
#
# Velocity S-wave (km/s) = 3.16858 4.13405 3.68309
# Velocity P-wave (km/s) = 5.54678 7.47642 6.58269
#
# Compressibility (1/GPa) = 0.02108177
#
# Stress axis : x y z
#
# Youngs Moduli (GPa) = 63.61742 137.24782 88.07634
#
# Poissons Ratio (x) = 0.43908 0.39544
# Poissons Ratio (y) = 0.20352 -0.09251
# Poissons Ratio (z) = 0.28562 -0.14415
#
# Static dielectric constant tensor:
#      x y z
#    x 2.230270 -0.059180 -0.090560 
#    y -0.059180 2.258220 -0.050130 
#    z -0.090560 -0.050130 2.160930 
# 
# From -- ./inp_files/583752.got.cif
#   From: 2010.05.17/outbox.cif.g08.bks.cpg/sg2_292_cif.got.tgz:583752.got - 2010.06.03 11:33:40.
