data_PCOD9061600
_publ_section_title
;
Structure prediction by ZEFSAII (Michael W. Deem and Ramdas Pophale) SiO2 
 PCOD9061600
Probable space group: P -1
;
_chemical_formula_sum "Si O2"
_cell_formula_units_Z 16
_cell_length_a 13.675126
_cell_length_b 15.341992
_cell_length_c 14.828231
_cell_angle_alpha 29.820948
_cell_angle_beta 146.928123
_cell_angle_gamma 128.328567
_cell_volume 776.025887
_symmetry_space_group_name_H-M "P -1"
_symmetry_group_IT_number 2
_symmetry_cell_setting 'triclinic'
loop_
_space_group_symop_operation_xyz
x,y,z
-x,-y,-z
loop_
_atom_site_type_symbol
_atom_site_label
_atom_site_fract_x
_atom_site_fract_y
_atom_site_fract_z
Si Si1 0.972443 0.212536 0.762255
Si Si2 0.947030 0.414009 0.738311
Si Si3 0.705246 0.760084 0.136560
Si Si4 0.515490 0.090000 0.835482
Si Si5 0.552324 0.530322 0.115141
Si Si6 0.064993 0.281047 0.269788
Si Si7 0.919034 0.122933 0.126386
Si Si8 0.869724 0.310255 0.282436
O O1 0.098228 0.227064 0.761256
O O2 0.039898 0.304397 0.816850
O O3 0.744886 0.343650 0.454148
O O4 0.000000 0.000000 0.000000
O O5 0.749055 0.581054 0.398834
O O6 0.050483 0.538506 0.752147
O O7 0.935130 0.257247 0.937952
O O8 0.605416 0.711711 0.015737
O O9 0.587841 0.942722 0.940492
O O10 0.293425 0.216015 0.526029
O O11 0.689009 0.163829 0.917335
O O12 0.500000 0.000000 0.000000
O O13 0.500000 0.500000 0.000000
O O14 0.361141 0.581385 0.982895
O O15 0.008073 0.177972 0.235316
O O16 0.950685 0.261406 0.287796
O O17 0.000000 0.500000 0.000000
O O18 0.041117 0.894801 0.413921
#
# Coordination Sequence:
#
# PCOD9061600 Si02
#       8
#     2   2   2   2   2   2   2   2
#     4  11  25  46  74 105 143 186 246 295 363 447
#     4  11  23  45  74 104 140 191 233 303 361 427
#     4  11  23  47  72 101 147 182 249 302 350 445
#     4  12  26  46  78 107 143 202 244 294 376 429
#     4  11  25  42  74 103 139 195 233 298 381 414
#     4  12  27  48  69 113 149 189 248 305 354 442
#     4  12  26  46  79 105 151 195 246 300 372 430
#     4  12  24  48  70 102 152 181 242 305 356 430
#
# _framework density 20.61787
#
# number of rings (size 3 to 8) (size 9 to 14) (size 15 to 20)
#    0.000    0.500    3.750    4.875    3.500    3.500 
#    2.250    1.250    0.000    0.000    0.000    0.000 
#    0.000    0.000    0.000    0.000    0.000    0.000 
#
# Total GULP energy -89339.349865 kJ/mol
# GULP energy per Si atom -5583.709367 kJ/mol
# Density = 2.057094 g / cm^3
# Si number density = 20.617870 Si / 1000 Ang^3
#
#
#
# Elastic Constant Matrix: (Units=GPa)
#
#
# Indices 1 2 3 4 5 6 
#
# 1 106.8125 42.1662 86.0379 -2.0102 6.8206 8.2444
# 2 42.1662 122.4852 52.6582 7.9971 -4.7595 -1.6129
# 3 86.0379 52.6582 144.3762 4.7650 7.5231 8.6349
# 4 -2.0102 7.9971 4.7650 37.4109 8.1180 -3.8361
# 5 6.8206 -4.7595 7.5231 8.1180 38.8074 0.0388
# 6 8.2444 -1.6129 8.6349 -3.8361 0.0388 29.6994
#
#
#
# Elastic Compliance Matrix: (Units=1/GPa)
#
#
# Indices 1 2 3 4 5 6 
#
# 1 0.018959 -0.002429 -0.010277 0.003139 -0.002292 -0.001998
# 2 -0.002429 0.010355 -0.002487 -0.002442 0.002688 0.001641
# 3 -0.010277 -0.002487 0.014160 -0.001804 -0.000865 -0.001631
# 4 0.003139 -0.002442 -0.001804 0.029438 -0.006663 0.003331
# 5 -0.002292 0.002688 -0.000865 -0.006663 0.028062 0.000137
# 6 -0.001998 0.001641 -0.001631 0.003331 0.000137 0.035219
#
#
# Mechanical properties :
#
#
# Convention : Reuss Voigt Hill
#
# Bulk Modulus (GPa) = 76.40380 81.71094 79.05737
# Shear Modulus (GPa) = 29.24984 34.03765 31.64375
#
# Velocity S-wave (km/s) = 3.77060 4.06751 3.92187
# Velocity P-wave (km/s) = 7.48960 7.85982 7.67694
#
# Compressibility (1/GPa) = 0.01308835
#
# Stress axis : x y z
#
# Youngs Moduli (GPa) = 52.74603 96.57052 70.62235
#
# Poissons Ratio (x) = 0.23456 0.72577
# Poissons Ratio (y) = 0.12811 0.17564
# Poissons Ratio (z) = 0.54206 0.24017
#
# Static dielectric constant tensor:
#      x y z
#    x 1.736110 0.008160 -0.000240 
#    y 0.008160 1.838370 0.049320 
#    z -0.000240 0.049320 1.751420 
# 
# From -- ./inp_files/534162.got.cif
#   From: 2010.05.17/outbox.cif.g08.bks.cpg/sg2_268_cif.got.tgz:534162.got - 2010.06.03 11:33:40.
