data_PCOD9061696
_publ_section_title
;
Structure prediction by ZEFSAII (Michael W. Deem and Ramdas Pophale) SiO2 
 PCOD9061696
Probable space group: P -1
;
_chemical_formula_sum "Si O2"
_cell_formula_units_Z 16
_cell_length_a 8.836018
_cell_length_b 16.554428
_cell_length_c 17.472789
_cell_angle_alpha 148.412027
_cell_angle_beta 43.917023
_cell_angle_gamma 147.022399
_cell_volume 728.556384
_symmetry_space_group_name_H-M "P -1"
_symmetry_group_IT_number 2
_symmetry_cell_setting 'triclinic'
loop_
_space_group_symop_operation_xyz
x,y,z
-x,-y,-z
loop_
_atom_site_type_symbol
_atom_site_label
_atom_site_fract_x
_atom_site_fract_y
_atom_site_fract_z
Si Si1 0.608139 0.705223 0.090537
Si Si2 0.357947 0.893658 0.272387
Si Si3 0.817545 0.723226 0.417895
Si Si4 0.148340 0.325449 0.177353
Si Si5 0.494317 0.998173 0.865798
Si Si6 0.701962 0.333942 0.514544
Si Si7 0.096167 0.090531 0.304286
Si Si8 0.593775 0.720075 0.804011
O O1 0.387044 0.738615 0.174260
O O2 0.500000 0.500000 0.000000
O O3 0.764237 0.724584 0.971194
O O4 0.816768 0.880983 0.214090
O O5 0.377211 0.888325 0.169678
O O6 0.071365 0.844362 0.364315
O O7 0.613527 0.118551 0.385258
O O8 0.553129 0.712669 0.481762
O O9 0.922316 0.812835 0.536127
O O10 0.689725 0.496960 0.278532
O O11 0.286595 0.554031 0.323527
O O12 0.251054 0.272445 0.170383
O O13 0.817558 0.194642 0.192903
O O14 0.679073 0.942331 0.784720
O O15 0.468672 0.128543 0.038415
O O16 0.000000 0.500000 0.500000
O O17 0.215106 0.227212 0.296441
#
# Coordination Sequence:
#
# PCOD9061696 Si02
#       8
#     2   2   2   2   2   2   2   2
#     4  12  30  48  71 104 146 196 245 304 369 427
#     4  12  26  49  73 105 151 195 242 295 371 432
#     4  11  27  44  72 113 150 191 236 299 369 435
#     4  11  23  46  73 105 139 188 254 293 356 441
#     4  12  23  43  76 106 141 191 245 307 356 428
#     4  11  23  45  78 111 141 192 247 294 354 442
#     4  12  26  45  70 105 151 181 247 304 358 435
#     4  11  24  44  74 104 141 191 242 298 360 427
#
# _framework density 21.961238000000002
#
# number of rings (size 3 to 8) (size 9 to 14) (size 15 to 20)
#    0.000    0.500    5.000    2.250    5.250    2.000 
#    2.250    0.000    0.000    0.000    0.000    0.000 
#    0.000    0.000    0.000    0.000    0.000    0.000 
#
# Total GULP energy -89561.965217 kJ/mol
# GULP energy per Si atom -5597.622826 kJ/mol
# Density = 2.191125 g / cm^3
# Si number density = 21.961238 Si / 1000 Ang^3
#
#
#
# Elastic Constant Matrix: (Units=GPa)
#
#
# Indices 1 2 3 4 5 6 
#
# 1 90.6166 38.4511 19.9965 -5.2532 7.3870 1.0629
# 2 38.4511 112.5382 9.6722 -2.7333 4.8240 4.6513
# 3 19.9965 9.6722 68.5649 4.2662 17.8622 2.7660
# 4 -5.2532 -2.7333 4.2662 42.5642 0.0864 -5.7332
# 5 7.3870 4.8240 17.8622 0.0864 43.4326 4.1874
# 6 1.0629 4.6513 2.7660 -5.7332 4.1874 26.4065
#
#
#
# Elastic Compliance Matrix: (Units=1/GPa)
#
#
# Indices 1 2 3 4 5 6 
#
# 1 0.013799 -0.004395 -0.003421 0.001910 -0.000560 0.001081
# 2 -0.004395 0.010469 -0.000063 -0.000085 -0.000231 -0.001642
# 3 -0.003421 -0.000063 0.017471 -0.002320 -0.006480 -0.001157
# 4 0.001910 -0.000085 -0.002320 0.024702 0.000056 0.005535
# 5 -0.000560 -0.000231 -0.006480 0.000056 0.026137 -0.003391
# 6 0.001081 -0.001642 -0.001157 0.005535 -0.003391 0.039976
#
#
# Mechanical properties :
#
#
# Convention : Reuss Voigt Hill
#
# Bulk Modulus (GPa) = 38.49200 45.32880 41.91040
# Shear Modulus (GPa) = 31.85283 36.05399 33.95341
#
# Velocity S-wave (km/s) = 3.81256 4.05620 3.93626
# Velocity P-wave (km/s) = 6.07833 6.52857 6.30747
#
# Compressibility (1/GPa) = 0.02597942
#
# Stress axis : x y z
#
# Youngs Moduli (GPa) = 72.46869 95.52315 57.23913
#
# Poissons Ratio (x) = 0.41982 0.19582
# Poissons Ratio (y) = 0.31850 0.00363
# Poissons Ratio (z) = 0.24792 0.00606
#
# Static dielectric constant tensor:
#      x y z
#    x 1.804320 -0.016840 -0.021370 
#    y -0.016840 1.786160 0.004260 
#    z -0.021370 0.004260 1.820970 
# 
# From -- ./inp_files/562092.got.cif
#   From: 2010.05.17/outbox.cif.g08.bks.cpg/sg2_282_cif.got.tgz:562092.got - 2010.06.03 11:33:40.
