data_PCOD9061668
_publ_section_title
;
Structure prediction by ZEFSAII (Michael W. Deem and Ramdas Pophale) SiO2 
 PCOD9061668
Probable space group: P -1
;
_chemical_formula_sum "Si O2"
_cell_formula_units_Z 16
_cell_length_a 6.656147
_cell_length_b 14.752667
_cell_length_c 7.511188
_cell_angle_alpha 102.898341
_cell_angle_beta 89.324074
_cell_angle_gamma 59.131387
_cell_volume 610.039955
_symmetry_space_group_name_H-M "P -1"
_symmetry_group_IT_number 2
_symmetry_cell_setting 'triclinic'
loop_
_space_group_symop_operation_xyz
x,y,z
-x,-y,-z
loop_
_atom_site_type_symbol
_atom_site_label
_atom_site_fract_x
_atom_site_fract_y
_atom_site_fract_z
Si Si1 0.156460 0.853883 0.676991
Si Si2 0.408638 0.916626 0.982460
Si Si3 0.303039 0.978728 0.416902
Si Si4 0.755958 0.688051 0.023965
Si Si5 0.563080 0.742616 0.438601
Si Si6 0.931402 0.409944 0.494084
Si Si7 0.384042 0.461721 0.132352
Si Si8 0.874112 0.292059 0.123716
O O1 0.381021 0.731590 0.559540
O O2 0.029395 0.818918 0.816016
O O3 0.230775 0.923825 0.835582
O O4 0.956061 0.913973 0.549446
O O5 0.326908 0.936117 0.196748
O O6 0.614561 0.787674 0.928363
O O7 0.500000 0.000000 0.000000
O O8 0.373555 0.874095 0.492509
O O9 0.500000 0.000000 0.500000
O O10 0.622651 0.706047 0.220019
O O11 0.812645 0.569487 0.914556
O O12 0.983750 0.700782 0.043015
O O13 0.819137 0.697663 0.497544
O O14 0.726644 0.456345 0.664834
O O15 0.859467 0.382172 0.298151
O O16 0.000000 0.500000 0.500000
O O17 0.605324 0.337432 0.099927
O O18 0.500000 0.500000 0.000000
#
# Coordination Sequence:
#
# PCOD9061668 Si02
#       8
#     2   2   2   2   2   2   2   2
#     4  12  24  46  78 114 148 200 259 307 381 469
#     4  11  23  45  76 109 153 199 251 311 382 453
#     4  11  24  45  70 108 151 195 246 313 384 448
#     4  11  25  48  68 109 152 195 241 319 374 449
#     4  11  26  44  70 103 150 187 244 307 375 445
#     4  12  25  46  73 104 145 200 249 315 377 441
#     4  12  27  45  73 106 149 195 255 303 383 443
#     4  12  25  46  74 106 149 195 255 309 374 452
#
# _framework density 26.227789999999999
#
# number of rings (size 3 to 8) (size 9 to 14) (size 15 to 20)
#    0.000    0.500    2.500    5.625    3.500    1.000 
#    4.500    0.000    0.000    0.000    0.000    0.000 
#    0.000    0.000    0.000    0.000    0.000    0.000 
#
# Total GULP energy -89223.333683 kJ/mol
# GULP energy per Si atom -5576.458355 kJ/mol
# Density = 2.616809 g / cm^3
# Si number density = 26.227790 Si / 1000 Ang^3
#
#
#
# Elastic Constant Matrix: (Units=GPa)
#
#
# Indices 1 2 3 4 5 6 
#
# 1 123.2996 39.8257 29.2117 6.8170 4.8792 -3.1439
# 2 39.8257 64.6663 -3.1687 -12.1364 3.0949 0.3177
# 3 29.2117 -3.1687 142.7098 9.4829 -9.6208 2.0971
# 4 6.8170 -12.1364 9.4829 32.3130 0.9077 3.5676
# 5 4.8792 3.0949 -9.6208 0.9077 49.3836 4.6135
# 6 -3.1439 0.3177 2.0971 3.5676 4.6135 56.3378
#
#
#
# Elastic Compliance Matrix: (Units=1/GPa)
#
#
# Indices 1 2 3 4 5 6 
#
# 1 0.011648 -0.008168 -0.002330 -0.004941 -0.001113 0.001187
# 2 -0.008168 0.022442 0.001508 0.009856 -0.000372 -0.001232
# 3 -0.002330 0.001508 0.007720 -0.001201 0.001707 -0.000490
# 4 -0.004941 0.009856 -0.001201 0.036345 -0.000796 -0.002523
# 5 -0.001113 -0.000372 0.001707 -0.000796 0.020897 -0.001784
# 6 0.001187 -0.001232 -0.000490 -0.002523 -0.001784 0.018147
#
#
# Mechanical properties :
#
#
# Convention : Reuss Voigt Hill
#
# Bulk Modulus (GPa) = 41.96188 51.37922 46.67055
# Shear Modulus (GPa) = 34.93574 45.26069 40.09822
#
# Velocity S-wave (km/s) = 3.65363 4.15863 3.91429
# Velocity P-wave (km/s) = 5.81657 6.53384 6.18561
#
# Compressibility (1/GPa) = 0.02383115
#
# Stress axis : x y z
#
# Youngs Moduli (GPa) = 85.85263 44.56020 129.53821
#
# Poissons Ratio (x) = 0.36395 0.30179
# Poissons Ratio (y) = 0.70121 -0.19538
# Poissons Ratio (z) = 0.20001 -0.06721
#
# Static dielectric constant tensor:
#      x y z
#    x 1.372300 -0.434500 0.907520 
#    y -0.434500 2.015920 0.397060 
#    z 0.907520 0.397060 0.904090 
# 
# From -- ./inp_files/135497.got.cif
#   From: 2010.05.17/outbox.cif.g08.bks.cpg/sg2_68_cif.got.tgz:135497.got - 2010.06.03 11:33:40.
