data_PCOD9061465
_publ_section_title
;
Structure prediction by ZEFSAII (Michael W. Deem and Ramdas Pophale) SiO2 
 PCOD9061465
Probable space group: P -1
;
_chemical_formula_sum "Si O2"
_cell_formula_units_Z 14
_cell_length_a 8.951486
_cell_length_b 9.080855
_cell_length_c 17.248591
_cell_angle_alpha 31.780232
_cell_angle_beta 118.499590
_cell_angle_gamma 127.053393
_cell_volume 587.265481
_symmetry_space_group_name_H-M "P -1"
_symmetry_group_IT_number 2
_symmetry_cell_setting 'triclinic'
loop_
_space_group_symop_operation_xyz
x,y,z
-x,-y,-z
loop_
_atom_site_type_symbol
_atom_site_label
_atom_site_fract_x
_atom_site_fract_y
_atom_site_fract_z
Si Si1 0.326950 0.613997 0.334308
Si Si2 0.898433 0.283063 0.910210
Si Si3 0.735658 0.659072 0.401258
Si Si4 0.721990 0.163522 0.499481
Si Si5 0.599729 0.751132 0.847244
Si Si6 0.095787 0.221208 0.201098
Si Si7 0.771605 0.561286 0.191302
O O1 0.215076 0.634675 0.222498
O O2 0.521820 0.607051 0.361682
O O3 0.232167 0.350484 0.493922
O O4 0.371749 0.925292 0.254707
O O5 0.886181 0.455201 0.907341
O O6 0.106533 0.412745 0.866933
O O7 0.816860 0.914503 0.064465
O O8 0.759202 0.384813 0.484383
O O9 0.880878 0.976019 0.258630
O O10 0.820067 0.387221 0.351169
O O11 0.500000 0.000000 0.500000
O O12 0.806103 0.921970 0.648524
O O13 0.792915 0.760959 0.858262
O O14 0.446675 0.637699 0.791844
O O15 0.500000 0.500000 0.000000
#
# Coordination Sequence:
#
# PCOD9061465 Si02
#       7
#     2   2   2   2   2   2   2
#     4  11  23  45  71 102 140 184 228 284 345 409
#     4  11  26  45  72 102 137 186 229 285 348 414
#     4  11  25  42  72 104 142 179 234 285 342 411
#     4  12  23  42  71 105 138 180 228 287 343 406
#     4  12  25  45  71  98 139 183 227 286 347 413
#     4  12  26  44  72 105 139 183 234 285 346 409
#     4  11  25  45  70 100 143 179 231 285 349 410
#
# _framework density 23.839300999999999
#
# number of rings (size 3 to 8) (size 9 to 14) (size 15 to 20)
#    0.000    0.571    4.286    3.000    2.000    6.286 
#    0.000    2.143    0.000    0.000    0.000    0.000 
#    0.000    0.000    0.000    0.000    0.000    0.000 
#
# Total GULP energy -78479.755388 kJ/mol
# GULP energy per Si atom -5605.696813 kJ/mol
# Density = 2.378504 g / cm^3
# Si number density = 23.839301 Si / 1000 Ang^3
#
#
#
# Elastic Constant Matrix: (Units=GPa)
#
#
# Indices 1 2 3 4 5 6 
#
# 1 110.3996 20.7212 32.5017 -15.4274 -2.9792 -5.9807
# 2 20.7212 42.2701 17.5199 -6.3810 -5.4534 -1.2030
# 3 32.5017 17.5199 94.8905 15.3777 -9.3002 -14.4400
# 4 -15.4274 -6.3810 15.3777 41.5766 -7.5373 11.4000
# 5 -2.9792 -5.4534 -9.3002 -7.5373 40.4745 -4.4765
# 6 -5.9807 -1.2030 -14.4400 11.4000 -4.4765 35.9454
#
#
#
# Elastic Compliance Matrix: (Units=1/GPa)
#
#
# Indices 1 2 3 4 5 6 
#
# 1 0.011796 -0.002841 -0.004821 0.006344 0.000333 -0.002040
# 2 -0.002841 0.028811 -0.005728 0.007079 0.003272 -0.003647
# 3 -0.004821 -0.005728 0.016645 -0.011105 0.001672 0.009423
# 4 0.006344 0.007079 -0.011105 0.036213 0.004048 -0.014150
# 5 0.000333 0.003272 0.001672 0.004048 0.026628 0.002869
# 6 -0.002040 -0.003647 0.009423 -0.014150 0.002869 0.035989
#
#
# Mechanical properties :
#
#
# Convention : Reuss Voigt Hill
#
# Bulk Modulus (GPa) = 32.81867 43.22731 38.02299
# Shear Modulus (GPa) = 25.90409 35.38713 30.64561
#
# Velocity S-wave (km/s) = 3.29996 3.85697 3.58929
# Velocity P-wave (km/s) = 5.32129 6.16499 5.75862
#
# Compressibility (1/GPa) = 0.03047046
#
# Stress axis : x y z
#
# Youngs Moduli (GPa) = 84.77628 34.70870 60.07844
#
# Poissons Ratio (x) = 0.09862 0.28966
# Poissons Ratio (y) = 0.24089 0.34412
# Poissons Ratio (z) = 0.40874 0.19881
#
# Static dielectric constant tensor:
#      x y z
#    x 1.856810 0.018210 -0.009520 
#    y 0.018210 1.910130 0.055890 
#    z -0.009520 0.055890 1.941650 
# 
# From -- ./inp_files/158118.got.cif
#   From: 2010.05.17/outbox.cif.g08.bks.cpg/sg2_80_cif.got.tgz:158118.got - 2010.06.03 11:33:40.
