data_PCOD9061330
_publ_section_title
;
Structure prediction by ZEFSAII (Michael W. Deem and Ramdas Pophale) SiO2 
 PCOD9061330
Probable space group: P -1
;
_chemical_formula_sum "Si O2"
_cell_formula_units_Z 16
_cell_length_a 9.393511
_cell_length_b 9.216612
_cell_length_c 11.248410
_cell_angle_alpha 49.195725
_cell_angle_beta 84.743041
_cell_angle_gamma 98.023306
_cell_volume 707.884973
_symmetry_space_group_name_H-M "P -1"
_symmetry_group_IT_number 2
_symmetry_cell_setting 'triclinic'
loop_
_space_group_symop_operation_xyz
x,y,z
-x,-y,-z
loop_
_atom_site_type_symbol
_atom_site_label
_atom_site_fract_x
_atom_site_fract_y
_atom_site_fract_z
Si Si1 0.639714 0.688724 0.401121
Si Si2 0.920676 0.871766 0.902881
Si Si3 0.774462 0.018467 0.048861
Si Si4 0.375228 0.654970 0.040815
Si Si5 0.340693 0.500171 0.864543
Si Si6 0.166156 0.298578 0.396936
Si Si7 0.435815 0.843640 0.487443
Si Si8 0.856752 0.066363 0.566796
O O1 0.500000 0.500000 0.500000
O O2 0.762725 0.656558 0.501563
O O3 0.566092 0.844439 0.387463
O O4 0.706635 0.792957 0.219328
O O5 0.086728 0.893820 0.921312
O O6 0.912819 0.947969 0.729987
O O7 0.821118 0.648336 0.042380
O O8 0.846255 0.006836 0.921325
O O9 0.661001 0.152923 0.001263
O O10 0.538741 0.628429 0.066038
O O11 0.259578 0.465820 0.212405
O O12 0.356819 0.635002 0.910358
O O13 0.379964 0.636548 0.673021
O O14 0.988992 0.263324 0.427893
O O15 0.177946 0.084212 0.461598
O O16 0.295354 0.887498 0.411858
O O17 0.500000 0.000000 0.500000
#
# Coordination Sequence:
#
# PCOD9061330 Si02
#       8
#     2   2   2   2   2   2   2   2
#     4  12  25  46  68  98 140 180 227 281 340 410
#     4  11  25  48  65  99 141 177 227 282 346 413
#     4  11  27  45  69  97 141 185 221 277 353 417
#     4  11  24  42  69 102 134 175 227 283 342 406
#     4  11  24  42  68 100 138 172 227 288 338 401
#     4  11  23  45  68 104 137 177 229 290 336 403
#     4  12  24  43  70 101 134 181 233 281 342 404
#     4  11  24  44  73  99 139 179 232 286 340 400
#
# _framework density 22.602544000000002
#
# number of rings (size 3 to 8) (size 9 to 14) (size 15 to 20)
#    0.000    0.750    5.000    1.500    5.250    2.000 
#    0.000    1.250    0.000    0.000    0.000    0.000 
#    0.000    0.000    0.000    0.000    0.000    0.000 
#
# Total GULP energy -89529.625542 kJ/mol
# GULP energy per Si atom -5595.601596 kJ/mol
# Density = 2.255110 g / cm^3
# Si number density = 22.602544 Si / 1000 Ang^3
#
#
#
# Elastic Constant Matrix: (Units=GPa)
#
#
# Indices 1 2 3 4 5 6 
#
# 1 43.2426 5.6100 5.9239 -8.6941 -9.3222 17.3912
# 2 5.6100 58.1886 -0.7256 -1.5703 8.2392 6.9739
# 3 5.9239 -0.7256 81.1475 -1.7039 -16.4909 12.1345
# 4 -8.6941 -1.5703 -1.7039 29.2985 4.2955 -10.5235
# 5 -9.3222 8.2392 -16.4909 4.2955 27.9904 -4.4704
# 6 17.3912 6.9739 12.1345 -10.5235 -4.4704 41.6093
#
#
#
# Elastic Compliance Matrix: (Units=1/GPa)
#
#
# Indices 1 2 3 4 5 6 
#
# 1 0.030394 -0.002881 0.001357 0.003725 0.009497 -0.010654
# 2 -0.002881 0.018799 -0.000748 0.000313 -0.007372 -0.002441
# 3 0.001357 -0.000748 0.014604 -0.001576 0.008856 -0.004148
# 4 0.003725 0.000313 -0.001576 0.038746 -0.004421 0.008175
# 5 0.009497 -0.007372 0.008856 -0.004421 0.046730 -0.001414
# 6 -0.010654 -0.002441 -0.004148 0.008175 -0.001414 0.032021
#
#
# Mechanical properties :
#
#
# Convention : Reuss Voigt Hill
#
# Bulk Modulus (GPa) = 16.87664 22.68836 19.78250
# Shear Modulus (GPa) = 24.32033 31.23098 27.77566
#
# Velocity S-wave (km/s) = 3.28380 3.72122 3.50933
# Velocity P-wave (km/s) = 4.67554 5.34070 5.01915
#
# Compressibility (1/GPa) = 0.05925352
#
# Stress axis : x y z
#
# Youngs Moduli (GPa) = 32.90088 53.19497 68.47253
#
# Poissons Ratio (x) = 0.15324 -0.09290
# Poissons Ratio (y) = 0.09478 0.05122
# Poissons Ratio (z) = -0.04464 0.03979
#
# Static dielectric constant tensor:
#      x y z
#    x 1.823170 -0.006190 -0.011160 
#    y -0.006190 1.876330 -0.011390 
#    z -0.011160 -0.011390 1.811970 
# 
# From -- ./inp_files/186758.got.cif
#   From: 2010.05.17/outbox.cif.g08.bks.cpg/sg2_94_cif.got.tgz:186758.got - 2010.06.03 11:33:40.
