data_PCOD9061419
_publ_section_title
;
Structure prediction by ZEFSAII (Michael W. Deem and Ramdas Pophale) SiO2 
 PCOD9061419
Probable space group: P -1
;
_chemical_formula_sum "Si O2"
_cell_formula_units_Z 16
_cell_length_a 13.930362
_cell_length_b 16.245613
_cell_length_c 22.852144
_cell_angle_alpha 158.777029
_cell_angle_beta 160.487682
_cell_angle_gamma 29.852769
_cell_volume 622.549185
_symmetry_space_group_name_H-M "P -1"
_symmetry_group_IT_number 2
_symmetry_cell_setting 'triclinic'
loop_
_space_group_symop_operation_xyz
x,y,z
-x,-y,-z
loop_
_atom_site_type_symbol
_atom_site_label
_atom_site_fract_x
_atom_site_fract_y
_atom_site_fract_z
Si Si1 0.557767 0.744881 0.344541
Si Si2 0.771646 0.671614 0.959403
Si Si3 0.256021 0.318592 0.464246
Si Si4 0.878100 0.090551 0.382268
Si Si5 0.097910 0.382709 0.131300
Si Si6 0.554713 0.075036 0.763333
Si Si7 0.468377 0.173459 0.299596
Si Si8 0.891238 0.510610 0.288231
O O1 0.735824 0.668513 0.452614
O O2 0.729015 0.706193 0.357762
O O3 0.500000 0.000000 0.500000
O O4 0.244893 0.604549 0.061684
O O5 0.472605 0.527542 0.704070
O O6 0.825825 0.723980 0.957540
O O7 0.000000 0.500000 0.000000
O O8 0.796780 0.902589 0.162600
O O9 0.981049 0.360348 0.295216
O O10 0.376870 0.082389 0.356233
O O11 0.213566 0.078229 0.581565
O O12 0.871433 0.346401 0.521340
O O13 0.666287 0.039285 0.281018
O O14 0.205873 0.239111 0.151930
O O15 0.299469 0.618328 0.409369
O O16 0.656053 0.939727 0.788321
O O17 0.705354 0.330127 0.021298
#
# Coordination Sequence:
#
# PCOD9061419 Si02
#       8
#     2   2   2   2   2   2   2   2
#     4  12  27  47  74 102 147 193 240 296 364 431
#     4  12  22  45  75 102 138 184 242 293 357 425
#     4  12  26  47  76 105 144 194 243 298 358 426
#     4  12  26  47  75 107 144 188 238 300 364 424
#     4  11  23  45  70 104 143 183 237 295 357 419
#     4  12  25  48  74 107 148 191 241 292 366 427
#     4  11  26  42  75 109 140 184 240 299 351 423
#     4  12  29  47  69 112 148 189 243 295 360 438
#
# _framework density 25.700780999999999
#
# number of rings (size 3 to 8) (size 9 to 14) (size 15 to 20)
#    0.000    0.250    3.750    4.500    5.250    4.000 
#    0.000    0.000    0.000    0.000    0.000    0.000 
#    0.000    0.000    0.000    0.000    0.000    0.000 
#
# Total GULP energy -89709.918082 kJ/mol
# GULP energy per Si atom -5606.869880 kJ/mol
# Density = 2.564229 g / cm^3
# Si number density = 25.700781 Si / 1000 Ang^3
#
#
#
# Elastic Constant Matrix: (Units=GPa)
#
#
# Indices 1 2 3 4 5 6 
#
# 1 130.7818 3.0290 27.4208 6.9198 -27.9779 -2.7761
# 2 3.0290 72.3571 17.5149 2.3464 -18.1693 12.2008
# 3 27.4208 17.5149 123.7877 4.2233 -22.8840 -3.4500
# 4 6.9198 2.3464 4.2233 28.0649 3.0702 -5.0366
# 5 -27.9779 -18.1693 -22.8840 3.0702 40.1848 -1.1501
# 6 -2.7761 12.2008 -3.4500 -5.0366 -1.1501 43.8401
#
#
#
# Elastic Compliance Matrix: (Units=1/GPa)
#
#
# Indices 1 2 3 4 5 6 
#
# 1 0.009482 0.001733 -0.000931 -0.003142 0.007091 -0.000130
# 2 0.001733 0.017092 -0.001282 -0.003459 0.008328 -0.004927
# 3 -0.000931 -0.001282 0.009318 -0.001349 0.004209 0.000987
# 4 -0.003142 -0.003459 -0.001349 0.038579 -0.007327 0.004897
# 5 0.007091 0.008328 0.004209 -0.007327 0.036504 -0.001421
# 6 -0.000130 -0.004927 0.000987 0.004897 -0.001421 0.024776
#
#
# Mechanical properties :
#
#
# Convention : Reuss Voigt Hill
#
# Bulk Modulus (GPa) = 28.62762 46.98399 37.80580
# Shear Modulus (GPa) = 33.70300 41.01543 37.35921
#
# Velocity S-wave (km/s) = 3.62520 3.99918 3.81678
# Velocity P-wave (km/s) = 5.35591 6.29646 5.84514
#
# Compressibility (1/GPa) = 0.03493130
#
# Stress axis : x y z
#
# Youngs Moduli (GPa) = 105.46421 58.50616 107.32260
#
# Poissons Ratio (x) = -0.10139 0.09993
# Poissons Ratio (y) = -0.18276 0.13759
# Poissons Ratio (z) = 0.09820 0.07501
#
# Static dielectric constant tensor:
#      x y z
#    x 1.989180 0.082490 -0.053900 
#    y 0.082490 2.217990 -0.116140 
#    z -0.053900 -0.116140 2.060110 
# 
# From -- ./inp_files/566579.got.cif
#   From: 2010.05.17/outbox.cif.g08.bks.cpg/sg2_284_cif.got.tgz:566579.got - 2010.06.03 11:33:40.
