data_PCOD9061342
_publ_section_title
;
Structure prediction by ZEFSAII (Michael W. Deem and Ramdas Pophale) SiO2 
 PCOD9061342
Probable space group: P -1
;
_chemical_formula_sum "Si O2"
_cell_formula_units_Z 16
_cell_length_a 9.274729
_cell_length_b 21.432994
_cell_length_c 8.691181
_cell_angle_alpha 114.323646
_cell_angle_beta 64.252240
_cell_angle_gamma 149.469711
_cell_volume 787.823719
_symmetry_space_group_name_H-M "P -1"
_symmetry_group_IT_number 2
_symmetry_cell_setting 'triclinic'
loop_
_space_group_symop_operation_xyz
x,y,z
-x,-y,-z
loop_
_atom_site_type_symbol
_atom_site_label
_atom_site_fract_x
_atom_site_fract_y
_atom_site_fract_z
Si Si1 0.158142 0.878203 0.046229
Si Si2 0.108758 0.728308 0.110728
Si Si3 0.806268 0.482554 0.971296
Si Si4 0.665080 0.618718 0.452179
Si Si5 0.818149 0.878894 0.367935
Si Si6 0.265052 0.265914 0.178225
Si Si7 0.313316 0.131258 0.927982
Si Si8 0.673910 0.393369 0.601786
O O1 0.064624 0.774276 0.061644
O O2 0.030455 0.893697 0.226352
O O3 0.014126 0.831930 0.898830
O O4 0.500000 0.000000 0.000000
O O5 0.442935 0.834991 0.101098
O O6 0.930076 0.681457 0.299456
O O7 0.984322 0.613571 0.986463
O O8 0.699715 0.411391 0.791253
O O9 0.521800 0.399588 0.114862
O O10 0.000000 0.500000 0.000000
O O11 0.500000 0.500000 0.500000
O O12 0.774798 0.715439 0.619093
O O13 0.458087 0.586544 0.398488
O O14 0.695571 0.864913 0.249007
O O15 0.555914 0.750778 0.455402
O O16 0.000000 0.000000 0.500000
O O17 0.374118 0.226493 0.075582
O O18 0.000000 0.000000 0.000000
O O19 0.000000 0.500000 0.500000
#
# Coordination Sequence:
#
# PCOD9061342 Si02
#       8
#     2   2   2   2   2   2   2   2
#     4  11  25  48  68 100 135 184 234 288 348 415
#     4  12  24  42  73 103 139 175 231 292 354 400
#     4  12  22  44  73 101 138 186 227 286 350 424
#     4  12  27  42  67 109 143 174 225 296 357 410
#     4  11  25  48  69  98 142 182 234 284 347 425
#     4  11  23  45  68  94 144 178 231 278 346 423
#     4  11  25  44  72  97 130 190 238 276 344 424
#     4  12  27  45  72 106 143 186 238 285 350 427
#
# _framework density 20.30911
#
# number of rings (size 3 to 8) (size 9 to 14) (size 15 to 20)
#    0.000    0.500    6.250    2.250    5.250    3.000 
#    0.000    1.875    0.000    0.000    0.000    0.000 
#    0.000    0.000    0.000    0.000    0.000    0.000 
#
# Total GULP energy -89460.051090 kJ/mol
# GULP energy per Si atom -5591.253193 kJ/mol
# Density = 2.026289 g / cm^3
# Si number density = 20.309110 Si / 1000 Ang^3
#
#
#
# Elastic Constant Matrix: (Units=GPa)
#
#
# Indices 1 2 3 4 5 6 
#
# 1 110.1319 21.9196 27.3335 11.9106 0.4777 9.9717
# 2 21.9196 113.9107 25.5968 -0.3131 -4.4343 10.2052
# 3 27.3335 25.5968 82.6834 20.0596 -0.2576 7.5332
# 4 11.9106 -0.3131 20.0596 41.9885 -0.4239 -8.6971
# 5 0.4777 -4.4343 -0.2576 -0.4239 19.9077 -7.7095
# 6 9.9717 10.2052 7.5332 -8.6971 -7.7095 43.8301
#
#
#
# Elastic Compliance Matrix: (Units=1/GPa)
#
#
# Indices 1 2 3 4 5 6 
#
# 1 0.010386 -0.001352 -0.002213 -0.002417 -0.001569 -0.002423
# 2 -0.001352 0.009851 -0.002939 0.001714 0.001914 -0.000804
# 3 -0.002213 -0.002939 0.015914 -0.007723 -0.001881 -0.003411
# 4 -0.002417 0.001714 -0.007723 0.029932 0.004131 0.008144
# 5 -0.001569 0.001914 -0.001881 0.004131 0.054908 0.010712
# 6 -0.002423 -0.000804 -0.003411 0.008144 0.010712 0.027640
#
#
# Mechanical properties :
#
#
# Convention : Reuss Voigt Hill
#
# Bulk Modulus (GPa) = 43.20918 50.71397 46.96158
# Shear Modulus (GPa) = 29.52411 36.60368 33.06390
#
# Velocity S-wave (km/s) = 3.81693 4.24999 4.03927
# Velocity P-wave (km/s) = 6.38335 7.00774 6.70282
#
# Compressibility (1/GPa) = 0.02314323
#
# Stress axis : x y z
#
# Youngs Moduli (GPa) = 96.28492 101.51595 62.83738
#
# Poissons Ratio (x) = 0.13724 0.13903
# Poissons Ratio (y) = 0.13017 0.18469
# Poissons Ratio (z) = 0.21304 0.29837
#
# Static dielectric constant tensor:
#      x y z
#    x 1.692230 0.048440 -0.012260 
#    y 0.048440 1.430790 0.074850 
#    z -0.012260 0.074850 1.715380 
# 
# From -- ./inp_files/223389.got.cif
#   From: 2010.05.17/outbox.cif.g08.bks.cpg/sg2_112_cif.got.tgz:223389.got - 2010.06.03 11:33:40.
