data_PCOD9061960
_publ_section_title
;
Structure prediction by ZEFSAII (Michael W. Deem and Ramdas Pophale) SiO2 
 PCOD9061960
Probable space group: P -1
;
_chemical_formula_sum "Si O2"
_cell_formula_units_Z 15
_cell_length_a 8.555528
_cell_length_b 12.390860
_cell_length_c 17.376232
_cell_angle_alpha 148.629872
_cell_angle_beta 43.239735
_cell_angle_gamma 122.850962
_cell_volume 640.352776
_symmetry_space_group_name_H-M "P -1"
_symmetry_group_IT_number 2
_symmetry_cell_setting 'triclinic'
loop_
_space_group_symop_operation_xyz
x,y,z
-x,-y,-z
loop_
_atom_site_type_symbol
_atom_site_label
_atom_site_fract_x
_atom_site_fract_y
_atom_site_fract_z
Si Si1 0.525744 0.786582 0.081529
Si Si2 0.651211 0.027329 0.037414
Si Si3 0.911812 0.358487 0.379458
Si Si4 0.765809 0.080766 0.585097
Si Si5 0.988472 0.454357 0.701348
Si Si6 0.610319 0.514392 0.318329
Si Si7 0.500000 0.000000 0.500000
Si Si8 0.277826 0.467786 0.887423
O O1 0.424192 0.873655 0.251739
O O2 0.540256 0.951866 0.108478
O O3 0.790514 0.657257 0.920738
O O4 0.364457 0.629952 0.012763
O O5 0.904340 0.866601 0.835054
O O6 0.500000 0.000000 0.000000
O O7 0.647257 0.275892 0.194572
O O8 0.648588 0.347231 0.487492
O O9 0.000000 0.500000 0.500000
O O10 0.906317 0.487274 0.380655
O O11 0.841493 0.276499 0.633044
O O12 0.699877 0.931101 0.452555
O O13 0.000000 0.000000 0.500000
O O14 0.188089 0.396333 0.658163
O O15 0.630591 0.488409 0.203628
O O16 0.600645 0.773741 0.281090
O O17 0.000000 0.500000 0.000000
#
# Coordination Sequence:
#
# PCOD9061960 Si02
#       8
#     2   2   2   2   2   2   1   2
#     4  11  24  48  75 103 151 193 242 304 379 440
#     4  11  23  46  75 107 140 196 241 300 370 442
#     4  11  24  43  71 104 142 191 242 298 366 438
#     4  12  27  48  74 113 146 196 255 310 377 447
#     4  11  25  47  69 101 150 189 239 314 368 436
#     4  12  25  46  73 108 144 189 247 303 371 439
#     4  12  28  48  78 108 150 196 250 308 378 436
#     4  12  26  48  75 111 143 194 249 304 373 449
#
# _framework density 23.424588
#
# number of rings (size 3 to 8) (size 9 to 14) (size 15 to 20)
#    0.000    0.533    4.000    4.000    3.733    3.200 
#    4.800    0.000    0.000    0.000    0.000    0.000 
#    0.000    0.000    0.000    0.000    0.000    0.000 
#
# Total GULP energy -83766.490111 kJ/mol
# GULP energy per Si atom -5584.432674 kJ/mol
# Density = 2.337127 g / cm^3
# Si number density = 23.424588 Si / 1000 Ang^3
#
#
#
# Elastic Constant Matrix: (Units=GPa)
#
#
# Indices 1 2 3 4 5 6 
#
# 1 160.9287 26.0710 26.7444 -17.9759 12.1479 6.5148
# 2 26.0710 76.4616 42.3925 -14.4022 0.5419 -0.0849
# 3 26.7444 42.3925 74.5421 -2.2002 0.3491 5.4899
# 4 -17.9759 -14.4022 -2.2002 45.1919 -2.2650 -2.4168
# 5 12.1479 0.5419 0.3491 -2.2650 46.7165 -0.5773
# 6 6.5148 -0.0849 5.4899 -2.4168 -0.5773 36.7892
#
#
#
# Elastic Compliance Matrix: (Units=1/GPa)
#
#
# Indices 1 2 3 4 5 6 
#
# 1 0.007099 -0.000936 -0.001876 0.002302 -0.001720 -0.000855
# 2 -0.000936 0.020911 -0.011557 0.005874 0.000401 0.002331
# 3 -0.001876 -0.011557 0.020777 -0.003567 0.000256 -0.003025
# 4 0.002302 0.005874 -0.003567 0.024867 0.000587 0.001781
# 5 -0.001720 0.000401 0.000256 0.000587 0.021883 0.000649
# 6 -0.000855 0.002331 -0.003025 0.001781 0.000649 0.027917
#
#
# Mechanical properties :
#
#
# Convention : Reuss Voigt Hill
#
# Bulk Modulus (GPa) = 49.87394 55.81646 52.84520
# Shear Modulus (GPa) = 31.47156 40.18781 35.82969
#
# Velocity S-wave (km/s) = 3.66939 4.14650 3.91522
# Velocity P-wave (km/s) = 6.26818 6.84138 6.56104
#
# Compressibility (1/GPa) = 0.02005055
#
# Stress axis : x y z
#
# Youngs Moduli (GPa) = 140.86750 47.82173 48.13018
#
# Poissons Ratio (x) = 0.04474 0.09029
# Poissons Ratio (y) = 0.13178 0.55623
# Poissons Ratio (z) = 0.26426 0.55266
#
# Static dielectric constant tensor:
#      x y z
#    x 1.196450 0.234410 -0.110730 
#    y 0.234410 1.669580 0.003120 
#    z -0.110730 0.003120 1.847360 
# 
# From -- ./inp_files/560100.got.cif
#   From: 2010.05.17/outbox.cif.g08.bks.cpg/sg2_281_cif.got.tgz:560100.got - 2010.06.03 11:33:40.
