data_PCOD9061069
_publ_section_title
;
Structure prediction by ZEFSAII (Michael W. Deem and Ramdas Pophale) SiO2 
 PCOD9061069
Probable space group: P -1
;
_chemical_formula_sum "Si O2"
_cell_formula_units_Z 16
_cell_length_a 17.912502
_cell_length_b 13.954784
_cell_length_c 22.883004
_cell_angle_alpha 160.232558
_cell_angle_beta 21.402815
_cell_angle_gamma 149.074891
_cell_volume 698.111350
_symmetry_space_group_name_H-M "P -1"
_symmetry_group_IT_number 2
_symmetry_cell_setting 'triclinic'
loop_
_space_group_symop_operation_xyz
x,y,z
-x,-y,-z
loop_
_atom_site_type_symbol
_atom_site_label
_atom_site_fract_x
_atom_site_fract_y
_atom_site_fract_z
Si Si1 0.025544 0.763133 0.291853
Si Si2 0.550445 0.921173 0.710553
Si Si3 0.178813 0.647354 0.984813
Si Si4 0.080784 0.654636 0.709395
Si Si5 0.930128 0.726114 0.604639
Si Si6 0.648206 0.453077 0.744130
Si Si7 0.760739 0.789050 0.111078
Si Si8 0.555921 0.424756 0.513712
O O1 0.159419 0.732172 0.116176
O O2 0.794864 0.822685 0.468126
O O3 0.116544 0.463044 0.083828
O O4 0.000000 0.000000 0.500000
O O5 0.503526 0.704962 0.671952
O O6 0.445256 0.838787 0.680454
O O7 0.482131 0.249945 0.966443
O O8 0.163812 0.947220 0.134472
O O9 0.389826 0.447226 0.699406
O O10 0.000000 0.500000 0.000000
O O11 0.085294 0.376262 0.508511
O O12 0.227343 0.587033 0.619414
O O13 0.168458 0.903659 0.751630
O O14 0.851908 0.744237 0.953026
O O15 0.789479 0.543738 0.640594
O O16 0.171879 0.678845 0.418401
O O17 0.479832 0.248136 0.733535
#
# Coordination Sequence:
#
# PCOD9061069 Si02
#       8
#     2   2   2   2   2   2   2   2
#     4  12  24  44  71 107 142 186 244 295 360 431
#     4  11  23  44  72 104 142 189 240 293 367 431
#     4  12  27  46  73 110 147 190 245 300 361 438
#     4  11  27  46  71 108 142 183 248 300 357 435
#     4  11  28  48  70 106 146 190 239 301 360 432
#     4  11  26  47  73 100 147 191 240 291 372 433
#     4  11  26  45  70 106 142 190 237 303 363 429
#     4  11  25  44  72 105 144 189 236 301 363 427
#
# _framework density 22.918980000000001
#
# number of rings (size 3 to 8) (size 9 to 14) (size 15 to 20)
#    0.000    0.750    5.000    0.750    7.000    3.500 
#    0.000    0.000    0.000    0.000    0.000    0.000 
#    0.000    0.000    0.000    0.000    0.000    0.000 
#
# Total GULP energy -89345.603392 kJ/mol
# GULP energy per Si atom -5584.100212 kJ/mol
# Density = 2.286682 g / cm^3
# Si number density = 22.918980 Si / 1000 Ang^3
#
#
#
# Elastic Constant Matrix: (Units=GPa)
#
#
# Indices 1 2 3 4 5 6 
#
# 1 74.0945 -11.6767 0.3161 2.6900 -20.1776 -23.4978
# 2 -11.6767 53.1210 -5.6174 -6.4552 -16.8238 -25.3689
# 3 0.3161 -5.6174 51.3133 -4.8985 -11.7474 -25.8690
# 4 2.6900 -6.4552 -4.8985 47.6746 6.1308 0.3932
# 5 -20.1776 -16.8238 -11.7474 6.1308 31.4791 -11.0911
# 6 -23.4978 -25.3689 -25.8690 0.3932 -11.0911 1.4466
#
#
#
# Elastic Compliance Matrix: (Units=1/GPa)
#
#
# Indices 1 2 3 4 5 6 
#
# 1 0.009739 -0.003490 -0.005624 -0.001413 -0.000839 -0.009630
# 2 -0.003490 0.010310 -0.006011 0.001567 -0.003780 -0.012785
# 3 -0.005624 -0.006011 0.012925 0.001639 -0.005667 -0.009519
# 4 -0.001413 0.001567 0.001639 0.021894 -0.003588 0.000377
# 5 -0.000839 -0.003780 -0.005667 -0.003588 0.020998 -0.019286
# 6 -0.009630 -0.012785 -0.009519 0.000377 -0.019286 -0.007536
#
#
# Mechanical properties :
#
#
# Convention : Reuss Voigt Hill
#
# Bulk Modulus (GPa) = 367.05281 16.06363 191.55822
# Shear Modulus (GPa) = 50.25737 29.15384 39.70561
#
# Velocity S-wave (km/s) = 4.68784 3.57044 4.16677
# Velocity P-wave (km/s) = 13.77684 4.90117 10.33979
#
# Compressibility (1/GPa) = 0.00272440
#
# Stress axis : x y z
#
# Youngs Moduli (GPa) = 102.67903 96.99409 77.36895
#
# Poissons Ratio (x) = 0.33853 0.43511
# Poissons Ratio (y) = 0.35837 0.46505
# Poissons Ratio (z) = 0.57745 0.58301
#
# Static dielectric constant tensor:
#      x y z
#    x 1.874680 -0.036120 0.023620 
#    y -0.036120 1.905660 -0.030170 
#    z 0.023620 -0.030170 1.837200 
# 
# From -- ./inp_files/613264.got.cif
#   From: 2010.05.17/outbox.cif.g08.bks.cpg/sg2_307_cif.got.tgz:613264.got - 2010.06.03 11:33:40.
