data_PCOD9061277
_publ_section_title
;
Structure prediction by ZEFSAII (Michael W. Deem and Ramdas Pophale) SiO2 
 PCOD9061277
Probable space group: P -1
;
_chemical_formula_sum "Si O2"
_cell_formula_units_Z 12
_cell_length_a 6.441575
_cell_length_b 13.516738
_cell_length_c 8.716586
_cell_angle_alpha 136.936921
_cell_angle_beta 76.815819
_cell_angle_gamma 97.785471
_cell_volume 503.996096
_symmetry_space_group_name_H-M "P -1"
_symmetry_group_IT_number 2
_symmetry_cell_setting 'triclinic'
loop_
_space_group_symop_operation_xyz
x,y,z
-x,-y,-z
loop_
_atom_site_type_symbol
_atom_site_label
_atom_site_fract_x
_atom_site_fract_y
_atom_site_fract_z
Si Si1 0.408968 0.343398 0.353595
Si Si2 0.884701 0.593456 0.986181
Si Si3 0.596017 0.872098 0.445005
Si Si4 0.676765 0.066072 0.932201
Si Si5 0.626949 0.352810 0.612813
Si Si6 0.962953 0.284675 0.209323
O O1 0.608990 0.219910 0.579306
O O2 0.410281 0.335110 0.529707
O O3 0.187406 0.314623 0.281708
O O4 0.565811 0.225969 0.107998
O O5 0.773156 0.751259 0.221523
O O6 0.691528 0.496529 0.849334
O O7 0.000000 0.500000 0.000000
O O8 0.034397 0.626079 0.850460
O O9 0.500000 0.000000 0.500000
O O10 0.692209 0.959383 0.668451
O O11 0.908850 0.115926 0.002199
O O12 0.500000 0.000000 0.000000
O O13 0.500000 0.500000 0.500000
O O14 0.799689 0.331259 0.424835
#
# Coordination Sequence:
#
# PCOD9061277 Si02
#       6
#     2   2   2   2   2   2
#     4  11  23  44  82 113 149 197 277 326 379 456
#     4  12  29  50  79 121 160 207 263 330 402 470
#     4  12  28  53  74 115 169 207 250 335 406 463
#     4  11  25  49  71 114 152 205 260 320 391 470
#     4  11  26  50  80 113 153 214 271 322 385 478
#     4  11  25  49  84 112 148 207 275 321 383 472
#
# _framework density 23.809708000000001
#
# number of rings (size 3 to 8) (size 9 to 14) (size 15 to 20)
#    0.000    0.667    5.000    2.000    7.000    1.333 
#    6.000    0.000    0.000    0.000    0.000    0.000 
#    0.000    0.000    0.000    0.000    0.000    0.000 
#
# Total GULP energy -66931.231923 kJ/mol
# GULP energy per Si atom -5577.602660 kJ/mol
# Density = 2.375552 g / cm^3
# Si number density = 23.809708 Si / 1000 Ang^3
#
#
#
# Elastic Constant Matrix: (Units=GPa)
#
#
# Indices 1 2 3 4 5 6 
#
# 1 133.7961 66.2218 50.9740 5.2502 28.3764 23.5618
# 2 66.2218 179.8175 61.8783 7.2681 1.8946 21.2450
# 3 50.9740 61.8783 141.2558 30.3363 16.2777 9.1819
# 4 5.2502 7.2681 30.3363 47.8111 16.3734 5.5446
# 5 28.3764 1.8946 16.2777 16.3734 51.8028 8.5368
# 6 23.5618 21.2450 9.1819 5.5446 8.5368 46.1636
#
#
#
# Elastic Compliance Matrix: (Units=1/GPa)
#
#
# Indices 1 2 3 4 5 6 
#
# 1 0.011750 -0.003074 -0.002702 0.003325 -0.005976 -0.003339
# 2 -0.003074 0.007743 -0.002461 0.000107 0.002466 -0.001974
# 3 -0.002702 -0.002461 0.010350 -0.006044 0.000035 0.001173
# 4 0.003325 0.000107 -0.006044 0.027454 -0.008221 -0.002321
# 5 -0.005976 0.002466 0.000035 -0.008221 0.025371 -0.001796
# 6 -0.003339 -0.001974 0.001173 -0.002321 -0.001796 0.024652
#
#
# Mechanical properties :
#
#
# Convention : Reuss Voigt Hill
#
# Bulk Modulus (GPa) = 74.80197 90.33528 82.56863
# Shear Modulus (GPa) = 38.98577 47.54186 43.26381
#
# Velocity S-wave (km/s) = 4.05086 4.47334 4.26733
# Velocity P-wave (km/s) = 7.30507 8.04387 7.68336
#
# Compressibility (1/GPa) = 0.01336863
#
# Stress axis : x y z
#
# Youngs Moduli (GPa) = 85.10669 129.14427 96.61434
#
# Poissons Ratio (x) = 0.39704 0.26103
# Poissons Ratio (y) = 0.26165 0.23780
# Poissons Ratio (z) = 0.22994 0.31787
#
# Static dielectric constant tensor:
#      x y z
#    x 2.158750 -0.134300 -0.020670 
#    y -0.134300 2.147220 -0.018130 
#    z -0.020670 -0.018130 1.924030 
# 
# From -- ./inp_files/133565.got.cif
#   From: 2010.05.17/outbox.cif.g08.bks.cpg/sg2_67_cif.got.tgz:133565.got - 2010.06.03 11:33:40.
