data_PCOD9061812
_publ_section_title
;
Structure prediction by ZEFSAII (Michael W. Deem and Ramdas Pophale) SiO2 
 PCOD9061812
Probable space group: P -1
;
_chemical_formula_sum "Si O2"
_cell_formula_units_Z 16
_cell_length_a 18.954824
_cell_length_b 9.963979
_cell_length_c 19.696537
_cell_angle_alpha 145.188501
_cell_angle_beta 152.979563
_cell_angle_gamma 25.200534
_cell_volume 717.431482
_symmetry_space_group_name_H-M "P -1"
_symmetry_group_IT_number 2
_symmetry_cell_setting 'triclinic'
loop_
_space_group_symop_operation_xyz
x,y,z
-x,-y,-z
loop_
_atom_site_type_symbol
_atom_site_label
_atom_site_fract_x
_atom_site_fract_y
_atom_site_fract_z
Si Si1 0.635018 0.482298 0.907110
Si Si2 0.308643 0.722890 0.374720
Si Si3 0.890365 0.154840 0.540579
Si Si4 0.517884 0.339714 0.878735
Si Si5 0.558878 0.198891 0.607108
Si Si6 0.778288 0.821317 0.122023
Si Si7 0.760855 0.718823 0.908740
Si Si8 0.960978 0.276380 0.395971
O O1 0.647483 0.346941 0.935310
O O2 0.656139 0.259044 0.775551
O O3 0.404014 0.838992 0.857777
O O4 0.781234 0.558086 0.047876
O O5 0.500000 0.500000 0.500000
O O6 0.322727 0.916210 0.411330
O O7 0.301083 0.489677 0.230021
O O8 0.090823 0.977100 0.332574
O O9 0.653324 0.455029 0.451362
O O10 0.007474 0.255257 0.717783
O O11 0.000000 0.000000 0.500000
O O12 0.930470 0.884114 0.506424
O O13 0.283148 0.535100 0.732147
O O14 0.624943 0.989894 0.848236
O O15 0.500000 0.500000 0.000000
O O16 0.500000 0.000000 0.500000
O O17 0.728339 0.850639 0.011393
O O18 0.000000 0.500000 0.000000
O O19 0.000000 0.500000 0.500000
#
# Coordination Sequence:
#
# PCOD9061812 Si02
#       8
#     2   2   2   2   2   2   2   2
#     4  11  24  45  71 102 143 184 236 288 355 427
#     4  12  26  47  71 104 143 189 238 295 364 420
#     4  12  24  46  72 104 143 187 241 292 354 426
#     4  12  24  45  72 104 136 184 239 290 347 428
#     4  12  28  47  70 104 146 188 235 301 358 420
#     4  11  23  46  71 103 140 188 233 285 360 429
#     4  12  26  46  73 103 145 188 232 301 360 419
#     4  12  27  45  72 105 140 186 243 290 355 430
#
# _framework density 22.301780999999998
#
# number of rings (size 3 to 8) (size 9 to 14) (size 15 to 20)
#    0.000    0.250    6.250    2.250    5.250    1.000 
#    2.250    1.250    0.000    0.000    0.000    0.000 
#    0.000    0.000    0.000    0.000    0.000    0.000 
#
# Total GULP energy -89551.200111 kJ/mol
# GULP energy per Si atom -5596.950007 kJ/mol
# Density = 2.225102 g / cm^3
# Si number density = 22.301781 Si / 1000 Ang^3
#
#
#
# Elastic Constant Matrix: (Units=GPa)
#
#
# Indices 1 2 3 4 5 6 
#
# 1 141.9588 27.9282 8.8865 7.3780 -4.4349 37.5602
# 2 27.9282 81.0673 3.7385 -1.6847 3.3782 22.3369
# 3 8.8865 3.7385 62.1722 16.7666 -2.1930 13.8107
# 4 7.3780 -1.6847 16.7666 34.1035 1.9698 8.9895
# 5 -4.4349 3.3782 -2.1930 1.9698 38.2367 6.0446
# 6 37.5602 22.3369 13.8107 8.9895 6.0446 52.0391
#
#
#
# Elastic Compliance Matrix: (Units=1/GPa)
#
#
# Indices 1 2 3 4 5 6 
#
# 1 0.009048 -0.001565 0.000442 -0.000772 0.002217 -0.006100
# 2 -0.001565 0.014453 -0.000177 0.002604 -0.000751 -0.005390
# 3 0.000442 -0.000177 0.019371 -0.008665 0.002281 -0.004153
# 4 -0.000772 0.002604 -0.008665 0.035071 -0.001977 -0.004089
# 5 0.002217 -0.000751 0.002281 -0.001977 0.027457 -0.004731
# 6 -0.006100 -0.005390 -0.004153 -0.004089 -0.004731 0.028291
#
#
# Mechanical properties :
#
#
# Convention : Reuss Voigt Hill
#
# Bulk Modulus (GPa) = 24.82997 40.70054 32.76525
# Shear Modulus (GPa) = 33.39696 41.18554 37.29125
#
# Velocity S-wave (km/s) = 3.87396 4.30203 4.09359
# Velocity P-wave (km/s) = 5.58282 6.55486 6.08827
#
# Compressibility (1/GPa) = 0.04027391
#
# Stress axis : x y z
#
# Youngs Moduli (GPa) = 110.52217 69.18873 51.62226
#
# Poissons Ratio (x) = 0.10829 -0.02284
# Poissons Ratio (y) = 0.17298 0.00912
# Poissons Ratio (z) = -0.04890 0.01223
#
# Static dielectric constant tensor:
#      x y z
#    x 1.868650 0.006080 -0.013430 
#    y 0.006080 1.804340 0.008780 
#    z -0.013430 0.008780 1.795910 
# 
# From -- ./inp_files/216512.got.cif
#   From: 2010.05.17/outbox.cif.g08.bks.cpg/sg2_109_cif.got.tgz:216512.got - 2010.06.03 11:33:40.
