data_PCOD9061811
_publ_section_title
;
Structure prediction by ZEFSAII (Michael W. Deem and Ramdas Pophale) SiO2 
 PCOD9061811
Probable space group: P -1
;
_chemical_formula_sum "Si O2"
_cell_formula_units_Z 16
_cell_length_a 15.388085
_cell_length_b 10.415482
_cell_length_c 9.131611
_cell_angle_alpha 136.809148
_cell_angle_beta 48.018888
_cell_angle_gamma 110.251504
_cell_volume 715.245129
_symmetry_space_group_name_H-M "P -1"
_symmetry_group_IT_number 2
_symmetry_cell_setting 'triclinic'
loop_
_space_group_symop_operation_xyz
x,y,z
-x,-y,-z
loop_
_atom_site_type_symbol
_atom_site_label
_atom_site_fract_x
_atom_site_fract_y
_atom_site_fract_z
Si Si1 0.658665 0.222960 0.666499
Si Si2 0.548788 0.850416 0.954381
Si Si3 0.675163 0.445731 0.326117
Si Si4 0.689672 0.571731 0.090069
Si Si5 0.934812 0.026457 0.254438
Si Si6 0.939623 0.377657 0.074233
Si Si7 0.031013 0.566127 0.364370
Si Si8 0.435868 0.836295 0.598800
O O1 0.560585 0.197799 0.873854
O O2 0.791003 0.081256 0.434181
O O3 0.618278 0.189277 0.519759
O O4 0.672700 0.440180 0.861663
O O5 0.608944 0.955997 0.098264
O O6 0.632964 0.656783 0.625582
O O7 0.500000 0.000000 0.000000
O O8 0.664267 0.469645 0.184248
O O9 0.815778 0.355199 0.130873
O O10 0.599183 0.313811 0.374780
O O11 0.583571 0.773642 0.368063
O O12 0.831148 0.564796 0.936923
O O13 0.963755 0.211593 0.454576
O O14 0.000000 0.000000 0.000000
O O15 0.980395 0.833292 0.139134
O O16 0.927265 0.517956 0.344058
O O17 0.000000 0.500000 0.000000
O O18 0.000000 0.500000 0.500000
#
# Coordination Sequence:
#
# PCOD9061811 Si02
#       8
#     2   2   2   2   2   2   2   2
#     4  11  26  45  72 108 142 184 240 300 355 428
#     4  12  26  44  71 105 140 192 233 289 365 429
#     4  12  26  47  71 105 148 187 238 293 362 435
#     4  11  23  46  71 102 151 186 228 302 362 428
#     4  11  25  47  74 103 148 188 241 300 360 426
#     4  12  27  47  72 106 144 193 244 297 356 429
#     4  11  25  46  75 106 141 197 241 297 367 426
#     4  12  25  45  74 106 144 182 239 294 363 428
#
# _framework density 22.369954
#
# number of rings (size 3 to 8) (size 9 to 14) (size 15 to 20)
#    0.000    0.500    5.000    2.625    5.250    2.500 
#    0.000    0.000    0.000    0.000    0.000    0.000 
#    0.000    0.000    0.000    0.000    0.000    0.000 
#
# Total GULP energy -89524.468067 kJ/mol
# GULP energy per Si atom -5595.279254 kJ/mol
# Density = 2.231904 g / cm^3
# Si number density = 22.369954 Si / 1000 Ang^3
#
#
#
# Elastic Constant Matrix: (Units=GPa)
#
#
# Indices 1 2 3 4 5 6 
#
# 1 89.8381 4.8248 17.4694 6.0334 11.7440 2.3153
# 2 4.8248 80.4129 17.0684 1.0961 -7.8096 -8.4027
# 3 17.4694 17.0684 79.9794 11.9473 3.8457 -3.8138
# 4 6.0334 1.0961 11.9473 45.4409 1.1886 8.0285
# 5 11.7440 -7.8096 3.8457 1.1886 48.5950 -0.0357
# 6 2.3153 -8.4027 -3.8138 8.0285 -0.0357 28.4737
#
#
#
# Elastic Compliance Matrix: (Units=1/GPa)
#
#
# Indices 1 2 3 4 5 6 
#
# 1 0.012064 -0.000629 -0.002326 -0.000673 -0.002817 -0.001292
# 2 -0.000629 0.013696 -0.002685 -0.000282 0.002575 0.003816
# 3 -0.002326 -0.002685 0.014307 -0.003784 -0.000907 0.002379
# 4 -0.000673 -0.000282 -0.003784 0.024414 -0.000186 -0.007419
# 5 -0.002817 0.002575 -0.000907 -0.000186 0.021750 0.000947
# 6 -0.001292 0.003816 0.002379 -0.007419 0.000947 0.038763
#
#
# Mechanical properties :
#
#
# Convention : Reuss Voigt Hill
#
# Bulk Modulus (GPa) = 34.74006 36.55063 35.64534
# Shear Modulus (GPa) = 34.27692 38.55977 36.41835
#
# Velocity S-wave (km/s) = 3.91868 4.15629 4.03923
# Velocity P-wave (km/s) = 6.00318 6.27755 6.14190
#
# Compressibility (1/GPa) = 0.02878522
#
# Stress axis : x y z
#
# Youngs Moduli (GPa) = 82.89076 73.01263 69.89696
#
# Poissons Ratio (x) = 0.04596 0.16261
# Poissons Ratio (y) = 0.05218 0.18768
# Poissons Ratio (z) = 0.19283 0.19605
#
# Static dielectric constant tensor:
#      x y z
#    x 1.769500 0.026660 0.002400 
#    y 0.026660 1.804260 0.032420 
#    z 0.002400 0.032420 1.824720 
# 
# From -- ./inp_files/308678.got.cif
#   From: 2010.05.17/outbox.cif.g08.bks.cpg/sg2_155_cif.got.tgz:308678.got - 2010.06.03 11:33:40.
