data_PCOD9061905
_publ_section_title
;
Structure prediction by ZEFSAII (Michael W. Deem and Ramdas Pophale) SiO2 
 PCOD9061905
Probable space group: P -1
;
_chemical_formula_sum "Si O2"
_cell_formula_units_Z 16
_cell_length_a 10.470514
_cell_length_b 18.597252
_cell_length_c 6.338369
_cell_angle_alpha 77.237482
_cell_angle_beta 102.859793
_cell_angle_gamma 144.749516
_cell_volume 692.784925
_symmetry_space_group_name_H-M "P -1"
_symmetry_group_IT_number 2
_symmetry_cell_setting 'triclinic'
loop_
_space_group_symop_operation_xyz
x,y,z
-x,-y,-z
loop_
_atom_site_type_symbol
_atom_site_label
_atom_site_fract_x
_atom_site_fract_y
_atom_site_fract_z
Si Si1 0.508250 0.839218 0.311871
Si Si2 0.938042 0.123496 0.353109
Si Si3 0.216574 0.551109 0.866481
Si Si4 0.844358 0.219156 0.530539
Si Si5 0.556651 0.448803 0.794070
Si Si6 0.139695 0.309594 0.959592
Si Si7 0.198664 0.697852 0.919243
Si Si8 0.454803 0.318991 0.468269
O O1 0.363323 0.829262 0.415521
O O2 0.498887 0.746211 0.408101
O O3 0.760125 0.979164 0.345088
O O4 0.418557 0.814286 0.056920
O O5 0.849839 0.136530 0.502730
O O6 0.188543 0.206825 0.422346
O O7 0.962021 0.182891 0.109201
O O8 0.215847 0.637419 0.806842
O O9 0.382944 0.597771 0.724344
O O10 0.326578 0.576875 0.109224
O O11 0.972055 0.407520 0.894101
O O12 0.889635 0.280383 0.284839
O O13 0.022226 0.300122 0.732950
O O14 0.319505 0.341441 0.887433
O O15 0.516383 0.422731 0.550830
O O16 0.713356 0.576722 0.892434
#
# Coordination Sequence:
#
# PCOD9061905 Si02
#       8
#     2   2   2   2   2   2   2   2
#     4  12  27  48  75 108 148 193 248 297 352 436
#     4  12  27  48  75 108 148 193 248 297 352 436
#     4  11  23  46  73 106 146 185 241 303 364 434
#     4  12  25  49  71 107 146 195 239 294 372 422
#     4  11  23  46  73 106 146 185 241 303 364 434
#     4  11  26  46  73 109 145 191 242 297 367 429
#     4  11  26  46  73 109 145 191 242 297 367 429
#     4  12  25  49  77 109 145 193 240 300 372 422
#
# _framework density 23.095192000000001
#
# number of rings (size 3 to 8) (size 9 to 14) (size 15 to 20)
#    0.000    0.500    5.000    3.000    0.000    8.000 
#    0.000    1.250    0.000    0.000    0.000    0.000 
#    0.000    0.000    0.000    0.000    0.000    0.000 
#
# Total GULP energy -89190.470083 kJ/mol
# GULP energy per Si atom -5574.404380 kJ/mol
# Density = 2.304263 g / cm^3
# Si number density = 23.095192 Si / 1000 Ang^3
#
#
#
# Elastic Constant Matrix: (Units=GPa)
#
#
# Indices 1 2 3 4 5 6 
#
# 1 104.9961 36.1360 32.9462 14.0377 1.4120 1.3607
# 2 36.1360 96.4482 44.4549 16.6739 -16.7591 2.3017
# 3 32.9462 44.4549 89.9861 15.8385 -9.4051 -3.4483
# 4 14.0377 16.6739 15.8385 24.1954 -1.1701 -0.5438
# 5 1.4120 -16.7591 -9.4051 -1.1701 41.3336 7.4133
# 6 1.3607 2.3017 -3.4483 -0.5438 7.4133 31.9443
#
#
#
# Elastic Compliance Matrix: (Units=1/GPa)
#
#
# Indices 1 2 3 4 5 6 
#
# 1 0.011841 -0.003151 -0.002460 -0.003201 -0.002322 -0.000059
# 2 -0.003151 0.016027 -0.005301 -0.005535 0.005786 -0.003030
# 3 -0.002460 -0.005301 0.015711 -0.005113 0.001032 0.001856
# 4 -0.003201 -0.005535 -0.005113 0.050276 -0.002113 0.001330
# 5 -0.002322 0.005786 0.001032 -0.002113 0.028003 -0.006741
# 6 -0.000059 -0.003030 0.001856 0.001330 -0.006741 0.033313
#
#
# Mechanical properties :
#
#
# Convention : Reuss Voigt Hill
#
# Bulk Modulus (GPa) = 45.96743 57.61161 51.78952
# Shear Modulus (GPa) = 27.13766 31.35421 29.24593
#
# Velocity S-wave (km/s) = 3.43160 3.68857 3.56240
# Velocity P-wave (km/s) = 5.97058 6.56812 6.27646
#
# Compressibility (1/GPa) = 0.02175453
#
# Stress axis : x y z
#
# Youngs Moduli (GPa) = 84.45571 62.39548 63.64909
#
# Poissons Ratio (x) = 0.19661 0.15657
# Poissons Ratio (y) = 0.26613 0.33741
# Poissons Ratio (z) = 0.20775 0.33076
#
# Static dielectric constant tensor:
#      x y z
#    x 1.910520 -0.007080 0.025560 
#    y -0.007080 1.852270 0.024630 
#    z 0.025560 0.024630 1.916110 
# 
# From -- ./inp_files/83218.got.cif
#   From: 2010.05.17/outbox.cif.g08.bks.cpg/sg2_42_cif.got.tgz:83218.got - 2010.06.03 11:33:40.
