data_PCOD9061496
_publ_section_title
;
Structure prediction by ZEFSAII (Michael W. Deem and Ramdas Pophale) SiO2 
 PCOD9061496
Probable space group: P -1
;
_chemical_formula_sum "Si O2"
_cell_formula_units_Z 16
_cell_length_a 8.983889
_cell_length_b 14.560099
_cell_length_c 12.474784
_cell_angle_alpha 130.594979
_cell_angle_beta 64.231698
_cell_angle_gamma 78.211045
_cell_volume 783.007632
_symmetry_space_group_name_H-M "P -1"
_symmetry_group_IT_number 2
_symmetry_cell_setting 'triclinic'
loop_
_space_group_symop_operation_xyz
x,y,z
-x,-y,-z
loop_
_atom_site_type_symbol
_atom_site_label
_atom_site_fract_x
_atom_site_fract_y
_atom_site_fract_z
Si Si1 0.511728 0.137510 0.103613
Si Si2 0.512008 0.295096 0.621365
Si Si3 0.783113 0.663839 0.444034
Si Si4 0.294025 0.318113 0.082161
Si Si5 0.033139 0.173122 0.572854
Si Si6 0.520266 0.103605 0.650547
Si Si7 0.047883 0.978633 0.223399
Si Si8 0.366809 0.633443 0.990287
O O1 0.396894 0.236899 0.325919
O O2 0.364512 0.254079 0.133202
O O3 0.500000 0.000000 0.000000
O O4 0.773717 0.053301 0.941100
O O5 0.333707 0.347563 0.625094
O O6 0.444788 0.258407 0.722822
O O7 0.777661 0.111638 0.371798
O O8 0.488557 0.449878 0.767233
O O9 0.858399 0.757284 0.448599
O O10 0.020918 0.480486 0.273766
O O11 0.378809 0.174206 0.859931
O O12 0.442209 0.362363 0.043492
O O13 0.033346 0.079754 0.404443
O O14 0.783812 0.316517 0.818165
O O15 0.211209 0.026700 0.494355
O O16 0.500000 0.000000 0.500000
O O17 0.182006 0.789091 0.080821
#
# Coordination Sequence:
#
# PCOD9061496 Si02
#       8
#     2   2   2   2   2   2   2   2
#     4  11  23  47  73  95 122 181 240 278 328 395
#     4  12  27  41  67 107 143 174 217 282 347 408
#     4  12  26  43  67 101 137 178 227 278 342 393
#     4  11  25  45  71  99 134 179 229 280 329 412
#     4  12  21  43  69  98 136 179 227 276 331 412
#     4  12  23  40  69 105 139 176 222 280 346 394
#     4  11  23  45  71  96 133 177 233 279 329 403
#     4  11  24  42  66 102 136 177 222 270 341 405
#
# _framework density 20.434027
#
# number of rings (size 3 to 8) (size 9 to 14) (size 15 to 20)
#    0.000    0.500    6.250    3.000    1.750    3.000 
#    0.000    2.500    0.000    0.000    0.000    0.000 
#    0.000    0.000    0.000    0.000    0.000    0.000 
#
# Total GULP energy -89512.135666 kJ/mol
# GULP energy per Si atom -5594.508479 kJ/mol
# Density = 2.038752 g / cm^3
# Si number density = 20.434027 Si / 1000 Ang^3
#
#
#
# Elastic Constant Matrix: (Units=GPa)
#
#
# Indices 1 2 3 4 5 6 
#
# 1 68.1377 30.7096 16.9749 -0.9724 3.3232 -6.2436
# 2 30.7096 85.2366 30.2503 -10.3972 2.0112 4.2969
# 3 16.9749 30.2503 74.2758 -0.6833 -11.7624 0.6892
# 4 -0.9724 -10.3972 -0.6833 40.1599 3.7750 -1.2862
# 5 3.3232 2.0112 -11.7624 3.7750 36.1184 2.1731
# 6 -6.2436 4.2969 0.6892 -1.2862 2.1731 31.7020
#
#
#
# Elastic Compliance Matrix: (Units=1/GPa)
#
#
# Indices 1 2 3 4 5 6 
#
# 1 0.018524 -0.006209 -0.002110 -0.000835 -0.002239 0.004655
# 2 -0.006209 0.016724 -0.005718 0.004218 -0.002481 -0.003024
# 3 -0.002110 -0.005718 0.017270 -0.001853 0.006362 -0.000527
# 4 -0.000835 0.004218 -0.001853 0.026294 -0.003546 0.000614
# 5 -0.002239 -0.002481 0.006362 -0.003546 0.030623 -0.002486
# 6 0.004655 -0.003024 -0.000527 0.000614 -0.002486 0.033077
#
#
# Mechanical properties :
#
#
# Convention : Reuss Voigt Hill
#
# Bulk Modulus (GPa) = 40.91103 42.61331 41.76217
# Shear Modulus (GPa) = 27.97449 31.57705 29.77577
#
# Velocity S-wave (km/s) = 3.70403 3.93532 3.82143
# Velocity P-wave (km/s) = 6.19336 6.44580 6.32084
#
# Compressibility (1/GPa) = 0.02444328
#
# Stress axis : x y z
#
# Youngs Moduli (GPa) = 53.98400 59.79440 57.90446
#
# Poissons Ratio (x) = 0.37125 0.12219
# Poissons Ratio (y) = 0.33518 0.33111
# Poissons Ratio (z) = 0.11392 0.34192
#
# Static dielectric constant tensor:
#      x y z
#    x 1.705460 0.007820 -0.025840 
#    y 0.007820 1.747590 0.012430 
#    z -0.025840 0.012430 1.744430 
# 
# From -- ./inp_files/272326.got.cif
#   From: 2010.05.17/outbox.cif.g08.bks.cpg/sg2_137_cif.got.tgz:272326.got - 2010.06.03 11:33:40.
