data_PCOD9061985
_publ_section_title
;
Structure prediction by ZEFSAII (Michael W. Deem and Ramdas Pophale) SiO2 
 PCOD9061985
Probable space group: P -1
;
_chemical_formula_sum "Si O2"
_cell_formula_units_Z 13
_cell_length_a 11.397594
_cell_length_b 13.846642
_cell_length_c 10.289643
_cell_angle_alpha 147.612689
_cell_angle_beta 114.289490
_cell_angle_gamma 43.393327
_cell_volume 499.196613
_symmetry_space_group_name_H-M "P -1"
_symmetry_group_IT_number 2
_symmetry_cell_setting 'triclinic'
loop_
_space_group_symop_operation_xyz
x,y,z
-x,-y,-z
loop_
_atom_site_type_symbol
_atom_site_label
_atom_site_fract_x
_atom_site_fract_y
_atom_site_fract_z
Si Si1 0.497835 0.719012 0.245564
Si Si2 0.000000 0.500000 0.500000
Si Si3 0.233785 0.610547 0.642964
Si Si4 0.650655 0.020482 0.240922
Si Si5 0.058650 0.734138 0.180169
Si Si6 0.757536 0.511108 0.755528
Si Si7 0.321557 0.905176 0.111762
O O1 0.426499 0.871620 0.523607
O O2 0.341027 0.940252 0.311020
O O3 0.500000 0.500000 0.000000
O O4 0.728884 0.518410 0.085497
O O5 0.122790 0.564199 0.608504
O O6 0.204208 0.183383 0.294241
O O7 0.476661 0.299088 0.392734
O O8 0.159236 0.702023 0.563741
O O9 0.228719 0.808343 0.935713
O O10 0.872817 0.867445 0.160637
O O11 0.691961 0.767325 0.947891
O O12 0.092160 0.605931 0.190636
O O13 0.000000 0.000000 0.500000
O O14 0.558346 0.638576 0.872651
#
# Coordination Sequence:
#
# PCOD9061985 Si02
#       7
#     2   1   2   2   2   2   2
#     4  11  23  46  76 108 152 191 254 311 371 452
#     4  12  28  46  72 116 148 198 252 302 392 444
#     4  12  26  50  74 105 153 194 250 311 373 453
#     4  12  24  47  73 107 148 194 248 311 369 445
#     4  11  24  44  74 109 143 200 248 302 387 440
#     4  11  26  49  70 108 146 196 253 309 372 449
#     4  11  25  49  74 110 146 199 247 310 380 443
#
# _framework density 26.041843
#
# number of rings (size 3 to 8) (size 9 to 14) (size 15 to 20)
#    0.000    0.615    4.615    2.769    2.154    3.692 
#    2.769    0.000    0.000    0.000    0.000    0.000 
#    0.000    0.000    0.000    0.000    0.000    0.000 
#
# Total GULP energy -72680.492373 kJ/mol
# GULP energy per Si atom -5590.807106 kJ/mol
# Density = 2.598257 g / cm^3
# Si number density = 26.041843 Si / 1000 Ang^3
#
#
#
# Elastic Constant Matrix: (Units=GPa)
#
#
# Indices 1 2 3 4 5 6 
#
# 1 110.2190 34.3572 25.9942 -4.2792 7.6660 -31.7325
# 2 34.3572 74.6023 31.1427 -2.1602 -4.1996 -9.1289
# 3 25.9942 31.1427 83.6717 2.4268 -0.7422 -3.2808
# 4 -4.2792 -2.1602 2.4268 47.7924 4.1700 4.8915
# 5 7.6660 -4.1996 -0.7422 4.1700 41.6157 4.6339
# 6 -31.7325 -9.1289 -3.2808 4.8915 4.6339 37.7828
#
#
#
# Elastic Compliance Matrix: (Units=1/GPa)
#
#
# Indices 1 2 3 4 5 6 
#
# 1 0.014751 -0.004589 -0.002475 0.000453 -0.004558 0.011566
# 2 -0.004589 0.017802 -0.005206 0.000475 0.002543 -0.000378
# 3 -0.002475 -0.005206 0.014615 -0.001040 0.000518 -0.001996
# 4 0.000453 0.000475 -0.001040 0.021428 -0.001964 -0.002128
# 5 -0.004558 0.002543 0.000518 -0.001964 0.026011 -0.006104
# 6 0.011566 -0.000378 -0.001996 -0.002128 -0.006104 0.036940
#
#
# Mechanical properties :
#
#
# Convention : Reuss Voigt Hill
#
# Bulk Modulus (GPa) = 44.19316 50.16458 47.17887
# Shear Modulus (GPa) = 30.55681 37.23811 33.89746
#
# Velocity S-wave (km/s) = 3.42917 3.78555 3.61176
# Velocity P-wave (km/s) = 5.71715 6.19775 5.96229
#
# Compressibility (1/GPa) = 0.02262794
#
# Stress axis : x y z
#
# Youngs Moduli (GPa) = 67.79037 56.17453 68.42454
#
# Poissons Ratio (x) = 0.25776 0.16935
# Poissons Ratio (y) = 0.31106 0.35624
# Poissons Ratio (z) = 0.16778 0.29246
#
# Static dielectric constant tensor:
#      x y z
#    x 2.082180 0.047120 -0.042110 
#    y 0.047120 2.116940 -0.019590 
#    z -0.042110 -0.019590 2.014860 
# 
# From -- ./inp_files/183523.got.cif
#   From: 2010.05.17/outbox.cif.g08.bks.cpg/sg2_92_cif.got.tgz:183523.got - 2010.06.03 11:33:40.
