data_PCOD9061422
_publ_section_title
;
Structure prediction by ZEFSAII (Michael W. Deem and Ramdas Pophale) SiO2 
 PCOD9061422
Probable space group: P -1
;
_chemical_formula_sum "Si O2"
_cell_formula_units_Z 16
_cell_length_a 13.477018
_cell_length_b 9.446181
_cell_length_c 22.357458
_cell_angle_alpha 145.238035
_cell_angle_beta 25.211451
_cell_angle_gamma 137.996633
_cell_volume 691.264777
_symmetry_space_group_name_H-M "P -1"
_symmetry_group_IT_number 2
_symmetry_cell_setting 'triclinic'
loop_
_space_group_symop_operation_xyz
x,y,z
-x,-y,-z
loop_
_atom_site_type_symbol
_atom_site_label
_atom_site_fract_x
_atom_site_fract_y
_atom_site_fract_z
Si Si1 0.480658 0.827435 0.009220
Si Si2 0.170739 0.486758 0.539829
Si Si3 0.547230 0.147306 0.250860
Si Si4 0.684334 0.299421 0.721847
Si Si5 0.892675 0.026918 0.938432
Si Si6 0.773886 0.012549 0.363915
Si Si7 0.791599 0.349262 0.301112
Si Si8 0.055282 0.121171 0.647451
O O1 0.539507 0.538379 0.860719
O O2 0.681857 0.907744 0.974001
O O3 0.225295 0.873809 0.192162
O O4 0.500000 0.000000 0.000000
O O5 0.326731 0.246986 0.368963
O O6 0.298613 0.626355 0.573426
O O7 0.909511 0.410047 0.671385
O O8 0.160255 0.692263 0.565837
O O9 0.610805 0.248834 0.317050
O O10 0.482755 0.862347 0.201122
O O11 0.765613 0.225454 0.117955
O O12 0.814255 0.107729 0.538011
O O13 0.086007 0.091609 0.806319
O O14 0.002598 0.845847 0.865955
O O15 0.853619 0.886852 0.337287
O O16 0.500000 0.000000 0.500000
O O17 0.875460 0.619640 0.330385
#
# Coordination Sequence:
#
# PCOD9061422 Si02
#       8
#     2   2   2   2   2   2   2   2
#     4  12  25  49  71 109 154 190 243 314 368 433
#     4  11  23  45  70 105 147 193 246 294 368 436
#     4  12  25  42  76 110 147 192 247 305 371 439
#     4  12  26  43  77 114 142 195 249 302 373 434
#     4  11  25  46  73 102 150 187 248 306 365 436
#     4  11  25  48  71  99 148 197 240 302 370 434
#     4  11  24  45  70 105 151 190 242 301 366 437
#     4  12  26  45  77 108 150 195 253 297 375 439
#
# _framework density 23.145977999999999
#
# number of rings (size 3 to 8) (size 9 to 14) (size 15 to 20)
#    0.000    0.500    5.000    3.375    5.250    4.000 
#    0.000    1.250    0.000    0.000    0.000    0.000 
#    0.000    0.000    0.000    0.000    0.000    0.000 
#
# Total GULP energy -89292.331663 kJ/mol
# GULP energy per Si atom -5580.770729 kJ/mol
# Density = 2.309330 g / cm^3
# Si number density = 23.145978 Si / 1000 Ang^3
#
#
#
# Elastic Constant Matrix: (Units=GPa)
#
#
# Indices 1 2 3 4 5 6 
#
# 1 81.2835 19.2834 33.3715 -7.8917 -10.3429 -9.2655
# 2 19.2834 76.8795 14.4369 -9.3664 1.2034 -13.2909
# 3 33.3715 14.4369 120.9014 -26.0103 -7.9960 -7.3346
# 4 -7.8917 -9.3664 -26.0103 45.0310 -2.1611 -9.7760
# 5 -10.3429 1.2034 -7.9960 -2.1611 34.4426 -1.4010
# 6 -9.2655 -13.2909 -7.3346 -9.7760 -1.4010 38.8321
#
#
#
# Elastic Compliance Matrix: (Units=1/GPa)
#
#
# Indices 1 2 3 4 5 6 
#
# 1 0.015167 -0.002718 -0.003240 0.000951 0.004057 0.002462
# 2 -0.002718 0.015106 0.000046 0.003837 -0.000870 0.005465
# 3 -0.003240 0.000046 0.010872 0.006473 0.002078 0.003001
# 4 0.000951 0.003837 0.006473 0.029331 0.003913 0.010288
# 5 0.004057 -0.000870 0.002078 0.003913 0.031139 0.003171
# 6 0.002462 0.005465 0.003001 0.010288 0.003171 0.031481
#
#
# Mechanical properties :
#
#
# Convention : Reuss Voigt Hill
#
# Bulk Modulus (GPa) = 34.10447 45.91645 40.01046
# Shear Modulus (GPa) = 32.32189 37.79265 35.05727
#
# Velocity S-wave (km/s) = 3.74095 4.04517 3.89603
# Velocity P-wave (km/s) = 5.78153 6.45745 6.12882
#
# Compressibility (1/GPa) = 0.02932167
#
# Stress axis : x y z
#
# Youngs Moduli (GPa) = 65.93405 66.19734 91.98062
#
# Poissons Ratio (x) = 0.17991 0.29798
# Poissons Ratio (y) = 0.17920 -0.00421
# Poissons Ratio (z) = 0.21360 -0.00303
#
# Static dielectric constant tensor:
#      x y z
#    x 1.842410 0.019160 0.058220 
#    y 0.019160 1.867530 0.074760 
#    z 0.058220 0.074760 2.030920 
# 
# From -- ./inp_files/594235.got.cif
#   From: 2010.05.17/outbox.cif.g08.bks.cpg/sg2_298_cif.got.tgz:594235.got - 2010.06.03 11:33:40.
