data_PCOD9061224
_publ_section_title
;
Structure prediction by ZEFSAII (Michael W. Deem and Ramdas Pophale) SiO2 
 PCOD9061224
Probable space group: P -1
;
_chemical_formula_sum "Si O2"
_cell_formula_units_Z 14
_cell_length_a 14.372373
_cell_length_b 13.772385
_cell_length_c 8.557935
_cell_angle_alpha 65.438601
_cell_angle_beta 138.455862
_cell_angle_gamma 144.776949
_cell_volume 556.681763
_symmetry_space_group_name_H-M "P -1"
_symmetry_group_IT_number 2
_symmetry_cell_setting 'triclinic'
loop_
_space_group_symop_operation_xyz
x,y,z
-x,-y,-z
loop_
_atom_site_type_symbol
_atom_site_label
_atom_site_fract_x
_atom_site_fract_y
_atom_site_fract_z
Si Si1 0.240315 0.871336 0.836835
Si Si2 0.875119 0.218340 0.890017
Si Si3 0.848103 0.503981 0.377723
Si Si4 0.305323 0.366982 0.990950
Si Si5 0.460213 0.613183 0.449088
Si Si6 0.472781 0.804103 0.587664
Si Si7 0.101873 0.016633 0.454828
O O1 0.011726 0.651792 0.631230
O O2 0.204236 0.967471 0.669312
O O3 0.241706 0.865462 0.026864
O O4 0.500000 0.000000 0.000000
O O5 0.747216 0.244905 0.648243
O O6 0.748257 0.036952 0.765500
O O7 0.178704 0.411721 0.162281
O O8 0.814032 0.589375 0.174523
O O9 0.576705 0.292809 0.250078
O O10 0.000000 0.500000 0.500000
O O11 0.500000 0.500000 0.000000
O O12 0.449918 0.417799 0.291881
O O13 0.103376 0.147589 0.827339
O O14 0.437578 0.707238 0.459188
O O15 0.322529 0.228888 0.512959
O O16 0.000000 0.000000 0.500000
#
# Coordination Sequence:
#
# PCOD9061224 Si02
#       7
#     2   2   2   2   2   2   2
#     4  11  23  44  75 112 154 199 264 321 376 477
#     4  11  25  45  76 122 151 201 271 318 388 481
#     4  11  24  45  76 112 156 205 253 322 396 454
#     4  11  24  51  77 113 159 201 264 323 388 481
#     4  12  24  51  83 110 160 209 265 326 396 465
#     4  11  24  46  79 113 161 204 256 325 396 468
#     4  11  28  49  77 113 159 208 259 327 402 463
#
# _framework density 25.149018000000002
#
# number of rings (size 3 to 8) (size 9 to 14) (size 15 to 20)
#    0.000    0.857    2.857    3.429    4.000    4.571 
#    5.143    2.143    0.000    0.000    0.000    0.000 
#    0.000    0.000    0.000    0.000    0.000    0.000 
#
# Total GULP energy -78565.034634 kJ/mol
# GULP energy per Si atom -5611.788188 kJ/mol
# Density = 2.509178 g / cm^3
# Si number density = 25.149018 Si / 1000 Ang^3
#
#
#
# Elastic Constant Matrix: (Units=GPa)
#
#
# Indices 1 2 3 4 5 6 
#
# 1 137.3598 65.6331 43.0223 7.6604 11.7773 7.7286
# 2 65.6331 166.1596 84.3375 13.2422 10.5680 -3.9615
# 3 43.0223 84.3375 129.6046 26.8247 5.2545 -11.7761
# 4 7.6604 13.2422 26.8247 35.4463 6.1652 9.6597
# 5 11.7773 10.5680 5.2545 6.1652 36.1114 -5.6822
# 6 7.7286 -3.9615 -11.7761 9.6597 -5.6822 57.0855
#
#
#
# Elastic Compliance Matrix: (Units=1/GPa)
#
#
# Indices 1 2 3 4 5 6 
#
# 1 0.009456 -0.002904 -0.001635 0.001358 -0.002591 -0.002307
# 2 -0.002904 0.010158 -0.006015 0.001820 -0.001557 -0.000606
# 3 -0.001635 -0.006015 0.014622 -0.010244 0.002673 0.004820
# 4 0.001358 0.001820 -0.010244 0.038909 -0.007625 -0.009514
# 5 -0.002591 -0.001557 0.002673 -0.007625 0.030714 0.005142
# 6 -0.002307 -0.000606 0.004820 -0.009514 0.005142 0.020904
#
#
# Mechanical properties :
#
#
# Convention : Reuss Voigt Hill
#
# Bulk Modulus (GPa) = 76.16661 91.01219 83.58940
# Shear Modulus (GPa) = 33.27877 41.73739 37.50808
#
# Velocity S-wave (km/s) = 3.64161 4.07824 3.86610
# Velocity P-wave (km/s) = 6.93063 7.64485 7.29649
#
# Compressibility (1/GPa) = 0.01312911
#
# Stress axis : x y z
#
# Youngs Moduli (GPa) = 105.75459 98.44858 68.38925
#
# Poissons Ratio (x) = 0.28586 0.11181
# Poissons Ratio (y) = 0.30707 0.41134
# Poissons Ratio (z) = 0.17291 0.59214
#
# Static dielectric constant tensor:
#      x y z
#    x 1.842840 -0.112210 0.038920 
#    y -0.112210 1.925540 0.047880 
#    z 0.038920 0.047880 1.980230 
# 
# From -- ./inp_files/389506.got.cif
#   From: 2010.05.17/outbox.cif.g08.bks.cpg/sg2_195_cif.got.tgz:389506.got - 2010.06.03 11:33:40.
