data_PCOD9061295
_publ_section_title
;
Structure prediction by ZEFSAII (Michael W. Deem and Ramdas Pophale) SiO2 
 PCOD9061295
Probable space group: P -1
;
_chemical_formula_sum "Si O2"
_cell_formula_units_Z 16
_cell_length_a 14.728471
_cell_length_b 5.771305
_cell_length_c 8.970626
_cell_angle_alpha 78.404849
_cell_angle_beta 112.727018
_cell_angle_gamma 89.838494
_cell_volume 686.228956
_symmetry_space_group_name_H-M "P -1"
_symmetry_group_IT_number 2
_symmetry_cell_setting 'triclinic'
loop_
_space_group_symop_operation_xyz
x,y,z
-x,-y,-z
loop_
_atom_site_type_symbol
_atom_site_label
_atom_site_fract_x
_atom_site_fract_y
_atom_site_fract_z
Si Si1 0.964605 0.436604 0.320519
Si Si2 0.307255 0.691647 0.568281
Si Si3 0.212740 0.897421 0.766881
Si Si4 0.946537 0.754234 0.002029
Si Si5 0.362243 0.023882 0.055990
Si Si6 0.824345 0.677209 0.526486
Si Si7 0.727018 0.879078 0.718437
Si Si8 0.540225 0.647799 0.143937
O O1 0.877315 0.267079 0.270291
O O2 0.939370 0.673638 0.179753
O O3 0.000000 0.500000 0.500000
O O4 0.067614 0.306612 0.340747
O O5 0.297102 0.805822 0.712163
O O6 0.202213 0.579658 0.504846
O O7 0.306521 0.861879 0.404179
O O8 0.402773 0.509643 0.673246
O O9 0.263283 0.907327 0.958395
O O10 0.180994 0.150621 0.640035
O O11 0.000000 0.500000 0.000000
O O12 0.836516 0.825140 0.862511
O O13 0.000000 0.000000 0.000000
O O14 0.381718 0.201412 0.911201
O O15 0.345937 0.155834 0.186207
O O16 0.454071 0.825928 0.136079
O O17 0.740220 0.736724 0.590195
O O18 0.500000 0.500000 0.000000
#
# Coordination Sequence:
#
# PCOD9061295 Si02
#       8
#     2   2   2   2   2   2   2   2
#     4  12  26  42  72 106 142 198 254 306 363 443
#     4  11  23  46  72 103 143 195 239 314 374 451
#     4  11  24  41  73 104 140 188 248 307 364 445
#     4  12  29  50  70 107 158 204 254 314 378 448
#     4  11  26  45  73 111 138 191 250 313 382 456
#     4  11  23  45  66 102 149 191 240 298 370 442
#     4  11  28  43  70 103 150 196 243 300 387 455
#     4  11  24  47  76 105 143 182 249 319 382 446
#
# _framework density 23.315832
#
# number of rings (size 3 to 8) (size 9 to 14) (size 15 to 20)
#    0.000    0.750    5.000    1.125    7.000    1.500 
#    0.000    1.250    0.000    0.000    0.000    0.000 
#    0.000    0.000    0.000    0.000    0.000    0.000 
#
# Total GULP energy -89282.164953 kJ/mol
# GULP energy per Si atom -5580.135310 kJ/mol
# Density = 2.326276 g / cm^3
# Si number density = 23.315832 Si / 1000 Ang^3
#
#
#
# Elastic Constant Matrix: (Units=GPa)
#
#
# Indices 1 2 3 4 5 6 
#
# 1 76.2999 28.7962 40.4662 10.9317 1.9240 -17.0401
# 2 28.7962 54.8697 28.8463 -1.8713 -4.9247 -4.9003
# 3 40.4662 28.8463 133.3650 -26.6782 5.3255 -9.1218
# 4 10.9317 -1.8713 -26.6782 37.8118 -13.6912 8.3543
# 5 1.9240 -4.9247 5.3255 -13.6912 39.2817 9.4488
# 6 -17.0401 -4.9003 -9.1218 8.3543 9.4488 37.1836
#
#
#
# Elastic Compliance Matrix: (Units=1/GPa)
#
#
# Indices 1 2 3 4 5 6 
#
# 1 0.032690 -0.011989 -0.010899 -0.028505 -0.016704 0.021376
# 2 -0.011989 0.025487 -0.000944 0.008534 0.008431 -0.006426
# 3 -0.010899 -0.000944 0.013571 0.016383 0.005967 -0.006987
# 4 -0.028505 0.008534 0.016383 0.064041 0.029750 -0.029868
# 5 -0.016704 0.008431 0.005967 0.029750 0.042308 -0.022515
# 6 0.021376 -0.006426 -0.006987 -0.029868 -0.022515 0.046561
#
#
# Mechanical properties :
#
#
# Convention : Reuss Voigt Hill
#
# Bulk Modulus (GPa) = 41.52112 51.19467 46.35790
# Shear Modulus (GPa) = 17.83490 33.95047 25.89269
#
# Velocity S-wave (km/s) = 2.76873 3.82004 3.33606
# Velocity P-wave (km/s) = 5.29792 6.43908 5.89617
#
# Compressibility (1/GPa) = 0.02408413
#
# Stress axis : x y z
#
# Youngs Moduli (GPa) = 30.58996 39.23584 73.68839
#
# Poissons Ratio (x) = 0.47038 0.80314
# Poissons Ratio (y) = 0.36673 0.06958
# Poissons Ratio (z) = 0.33340 0.03705
#
# Static dielectric constant tensor:
#      x y z
#    x 1.958650 -0.072310 -0.010760 
#    y -0.072310 2.005540 0.061740 
#    z -0.010760 0.061740 1.884380 
# 
# From -- ./inp_files/97662.got.cif
#   From: 2010.05.17/outbox.cif.g08.bks.cpg/sg2_49_cif.got.tgz:97662.got - 2010.06.03 11:33:40.
