data_PCOD9061712
_publ_section_title
;
Structure prediction by ZEFSAII (Michael W. Deem and Ramdas Pophale) SiO2 
 PCOD9061712
Probable space group: P -1
;
_chemical_formula_sum "Si O2"
_cell_formula_units_Z 16
_cell_length_a 9.616209
_cell_length_b 9.383328
_cell_length_c 17.148478
_cell_angle_alpha 37.080567
_cell_angle_beta 120.471203
_cell_angle_gamma 112.329682
_cell_volume 803.191810
_symmetry_space_group_name_H-M "P -1"
_symmetry_group_IT_number 2
_symmetry_cell_setting 'triclinic'
loop_
_space_group_symop_operation_xyz
x,y,z
-x,-y,-z
loop_
_atom_site_type_symbol
_atom_site_label
_atom_site_fract_x
_atom_site_fract_y
_atom_site_fract_z
Si Si1 0.391343 0.206218 0.916696
Si Si2 0.907347 0.024806 0.616245
Si Si3 0.335381 0.532119 0.616278
Si Si4 0.265972 0.175877 0.612306
Si Si5 0.400301 0.699537 0.931319
Si Si6 0.078959 0.745664 0.911634
Si Si7 0.295505 0.364789 0.363457
Si Si8 0.151746 0.876864 0.053764
O O1 0.314287 0.356578 0.759978
O O2 0.514643 0.342732 0.942674
O O3 0.500000 0.000000 0.000000
O O4 0.279371 0.080818 0.000869
O O5 0.815249 0.816288 0.636705
O O6 0.958116 0.939472 0.754285
O O7 0.782558 0.245213 0.495547
O O8 0.078096 0.097835 0.594316
O O9 0.288417 0.384452 0.590732
O O10 0.521586 0.608140 0.628599
O O11 0.304524 0.268656 0.496562
O O12 0.387202 0.954962 0.771496
O O13 0.216040 0.694673 0.907766
O O14 0.500000 0.500000 0.000000
O O15 0.129635 0.824453 0.977781
O O16 0.000000 0.500000 0.000000
O O17 0.212482 0.629519 0.217619
O O18 0.000000 0.000000 0.000000
#
# Coordination Sequence:
#
# PCOD9061712 Si02
#       8
#     2   2   2   2   2   2   2   2
#     4  12  22  47  69  94 136 175 229 282 329 399
#     4  11  26  43  71  97 136 184 219 273 352 396
#     4  12  25  45  72  97 133 186 222 276 347 399
#     4  11  25  45  65 100 141 172 227 280 332 412
#     4  11  25  42  71  99 131 182 221 276 342 393
#     4  11  23  46  65  97 139 169 227 281 324 405
#     4  12  25  45  65 104 140 169 228 285 332 410
#     4  12  27  43  72 102 132 182 227 281 341 395
#
# _framework density 19.920521999999998
#
# number of rings (size 3 to 8) (size 9 to 14) (size 15 to 20)
#    0.000    0.500    5.000    2.250    7.000    1.000 
#    0.000    0.000    0.000    0.000    0.000    0.000 
#    0.000    0.000    0.000    0.000    0.000    0.000 
#
# Total GULP energy -89211.656306 kJ/mol
# GULP energy per Si atom -5575.728519 kJ/mol
# Density = 1.987518 g / cm^3
# Si number density = 19.920522 Si / 1000 Ang^3
#
#
#
# Elastic Constant Matrix: (Units=GPa)
#
#
# Indices 1 2 3 4 5 6 
#
# 1 105.9221 20.7798 33.3558 -20.4145 10.6345 -8.3211
# 2 20.7798 55.4739 18.0330 -1.7408 7.7285 -2.0210
# 3 33.3558 18.0330 123.4945 -6.8466 -3.3736 -19.4753
# 4 -20.4145 -1.7408 -6.8466 33.0371 -6.5369 3.3364
# 5 10.6345 7.7285 -3.3736 -6.5369 35.3207 -7.2959
# 6 -8.3211 -2.0210 -19.4753 3.3364 -7.2959 37.6189
#
#
#
# Elastic Compliance Matrix: (Units=1/GPa)
#
#
# Indices 1 2 3 4 5 6 
#
# 1 0.012358 -0.003329 -0.002496 0.006525 -0.001960 0.000304
# 2 -0.003329 0.020625 -0.002623 -0.002240 -0.004519 -0.001664
# 3 -0.002496 -0.002623 0.010094 0.000576 0.003460 0.005153
# 4 0.006525 -0.002240 0.000576 0.035349 0.005010 -0.000542
# 5 -0.001960 -0.004519 0.003460 0.005010 0.032593 0.006992
# 6 0.000304 -0.001664 0.005153 -0.000542 0.006992 0.030632
#
#
# Mechanical properties :
#
#
# Convention : Reuss Voigt Hill
#
# Bulk Modulus (GPa) = 38.19419 47.69195 42.94307
# Shear Modulus (GPa) = 29.89147 35.37681 32.63414
#
# Velocity S-wave (km/s) = 3.87788 4.21871 4.05188
# Velocity P-wave (km/s) = 6.26622 6.90819 6.59502
#
# Compressibility (1/GPa) = 0.02618199
#
# Stress axis : x y z
#
# Youngs Moduli (GPa) = 80.91781 48.48546 99.07293
#
# Poissons Ratio (x) = 0.16141 0.24726
# Poissons Ratio (y) = 0.26937 0.25982
# Poissons Ratio (z) = 0.20195 0.12716
#
# Static dielectric constant tensor:
#      x y z
#    x 1.643470 0.282390 0.120410 
#    y 0.282390 4.934360 1.772390 
#    z 0.120410 1.772390 2.685760 
# 
# From -- ./inp_files/205325.got.cif
#   From: 2010.05.17/outbox.cif.g08.bks.cpg/sg2_103_cif.got.tgz:205325.got - 2010.06.03 11:33:40.
