data_PCOD9061866
_publ_section_title
;
Structure prediction by ZEFSAII (Michael W. Deem and Ramdas Pophale) SiO2 
 PCOD9061866
Probable space group: P -1
;
_chemical_formula_sum "Si O2"
_cell_formula_units_Z 14
_cell_length_a 9.508386
_cell_length_b 9.132914
_cell_length_c 7.492547
_cell_angle_alpha 89.772251
_cell_angle_beta 107.914596
_cell_angle_gamma 57.098727
_cell_volume 507.746751
_symmetry_space_group_name_H-M "P -1"
_symmetry_group_IT_number 2
_symmetry_cell_setting 'triclinic'
loop_
_space_group_symop_operation_xyz
x,y,z
-x,-y,-z
loop_
_atom_site_type_symbol
_atom_site_label
_atom_site_fract_x
_atom_site_fract_y
_atom_site_fract_z
Si Si1 0.975980 0.595181 0.265950
Si Si2 0.500000 0.000000 0.500000
Si Si3 0.092213 0.652875 0.929463
Si Si4 0.500000 0.500000 0.000000
Si Si5 0.730362 0.375479 0.499821
Si Si6 0.129780 0.895841 0.720193
Si Si7 0.410806 0.750916 0.294364
Si Si8 0.653133 0.948222 0.197173
O O1 0.005792 0.408744 0.238937
O O2 0.776363 0.734591 0.256723
O O3 0.099107 0.616796 0.446959
O O4 0.018647 0.647879 0.092600
O O5 0.577997 0.084523 0.668723
O O6 0.412801 0.965091 0.635887
O O7 0.047011 0.839771 0.838531
O O8 0.310166 0.517371 0.002674
O O9 0.443521 0.670408 0.110916
O O10 0.708416 0.301057 0.302689
O O11 0.575874 0.581809 0.470364
O O12 0.747464 0.248025 0.665655
O O13 0.213182 0.998925 0.814423
O O14 0.000000 0.000000 0.500000
O O15 0.500000 0.000000 0.000000
#
# Coordination Sequence:
#
# PCOD9061866 Si02
#       8
#     2   1   2   1   2   2   2   2
#     4  11  26  51  74 117 153 208 277 342 403 495
#     4  12  28  50  74 120 158 218 270 352 406 494
#     4  11  27  45  81 113 156 206 271 340 410 484
#     4  12  22  46  82 118 150 214 268 332 410 506
#     4  11  23  46  72 107 153 211 262 328 405 498
#     4  12  26  49  75 111 159 214 273 334 414 502
#     4  11  25  44  79 111 157 209 271 328 415 495
#     4  12  30  48  76 115 165 213 276 342 421 498
#
# _framework density 27.572803
#
# number of rings (size 3 to 8) (size 9 to 14) (size 15 to 20)
#    0.000    0.571    5.714    0.857    4.000    5.714 
#    0.000    0.000    0.000    0.000    0.000    0.000 
#    0.000    0.000    0.000    0.000    0.000    0.000 
#
# Total GULP energy -77982.498988 kJ/mol
# GULP energy per Si atom -5570.178499 kJ/mol
# Density = 2.751005 g / cm^3
# Si number density = 27.572803 Si / 1000 Ang^3
#
#
#
# Elastic Constant Matrix: (Units=GPa)
#
#
# Indices 1 2 3 4 5 6 
#
# 1 113.5731 24.2523 66.5147 7.9111 -2.6452 23.7054
# 2 24.2523 75.4796 29.6427 17.2742 6.0776 29.1085
# 3 66.5147 29.6427 132.6227 42.6973 -27.1880 19.3964
# 4 7.9111 17.2742 42.6973 59.9254 15.2160 7.0696
# 5 -2.6452 6.0776 -27.1880 15.2160 72.0112 10.6846
# 6 23.7054 29.1085 19.3964 7.0696 10.6846 53.7397
#
#
#
# Elastic Compliance Matrix: (Units=1/GPa)
#
#
# Indices 1 2 3 4 5 6 
#
# 1 0.014703 -0.001167 -0.009747 0.006662 -0.004093 -0.002399
# 2 -0.001167 0.018077 -0.001239 -0.003152 -0.000125 -0.008390
# 3 -0.009747 -0.001239 0.020242 -0.015273 0.010989 -0.002511
# 4 0.006662 -0.003152 -0.015273 0.030345 -0.012066 0.002688
# 5 -0.004093 -0.000125 0.010989 -0.012066 0.021144 -0.004709
# 6 -0.002399 -0.008390 -0.002511 0.002688 -0.004709 0.025700
#
#
# Mechanical properties :
#
#
# Convention : Reuss Voigt Hill
#
# Bulk Modulus (GPa) = 34.82045 62.49942 48.65993
# Shear Modulus (GPa) = 30.47100 50.55297 40.51199
#
# Velocity S-wave (km/s) = 3.32793 4.28651 3.83727
# Velocity P-wave (km/s) = 5.23667 6.87133 6.10892
#
# Compressibility (1/GPa) = 0.02871875
#
# Stress axis : x y z
#
# Youngs Moduli (GPa) = 68.01125 55.31798 49.40108
#
# Poissons Ratio (x) = 0.06454 0.48149
# Poissons Ratio (y) = 0.07934 0.06121
# Poissons Ratio (z) = 0.66288 0.06854
#
# Static dielectric constant tensor:
#      x y z
#    x 2.407540 -0.082420 -0.021950 
#    y -0.082420 1.982490 0.202640 
#    z -0.021950 0.202640 1.833210 
# 
# From -- ./inp_files/159357.got.cif
#   From: 2010.05.17/outbox.cif.g08.bks.cpg/sg2_80_cif.got.tgz:159357.got - 2010.06.03 11:33:40.
