data_PCOD9061098
_publ_section_title
;
Structure prediction by ZEFSAII (Michael W. Deem and Ramdas Pophale) SiO2 
 PCOD9061098
Probable space group: P -1
;
_chemical_formula_sum "Si O2"
_cell_formula_units_Z 12
_cell_length_a 10.572958
_cell_length_b 13.087405
_cell_length_c 17.336471
_cell_angle_alpha 34.726611
_cell_angle_beta 32.463660
_cell_angle_gamma 23.477737
_cell_volume 499.898654
_symmetry_space_group_name_H-M "P -1"
_symmetry_group_IT_number 2
_symmetry_cell_setting 'triclinic'
loop_
_space_group_symop_operation_xyz
x,y,z
-x,-y,-z
loop_
_atom_site_type_symbol
_atom_site_label
_atom_site_fract_x
_atom_site_fract_y
_atom_site_fract_z
Si Si1 0.172760 0.211192 0.590745
Si Si2 0.151043 0.072855 0.322233
Si Si3 0.624220 0.674826 0.191869
Si Si4 0.771561 0.417038 0.000314
Si Si5 0.277673 0.822675 0.134730
Si Si6 0.656532 0.073570 0.159121
O O1 0.000000 0.500000 0.500000
O O2 0.881825 0.239932 0.690196
O O3 0.500000 0.000000 0.500000
O O4 0.260009 0.093639 0.705653
O O5 0.313983 0.883964 0.281265
O O6 0.448533 0.046675 0.223978
O O7 0.000000 0.000000 0.500000
O O8 0.818752 0.376034 0.281473
O O9 0.538684 0.776747 0.084916
O O10 0.916249 0.639862 0.095394
O O11 0.478621 0.609187 0.096263
O O12 0.623962 0.607754 0.883767
O O13 0.952032 0.124876 0.090613
O O14 0.000000 0.000000 0.000000
#
# Coordination Sequence:
#
# PCOD9061098 Si02
#       6
#     2   2   2   2   2   2
#     4  12  30  48  72 107 149 201 243 304 380 446
#     4  11  26  46  72 107 145 203 242 301 376 438
#     4  11  24  42  71 104 147 183 247 303 367 432
#     4  11  23  44  72 113 134 192 241 310 359 432
#     4  12  24  44  74 104 150 184 247 297 381 428
#     4  11  26  51  79 108 152 194 257 307 361 451
#
# _framework density 24.004866
#
# number of rings (size 3 to 8) (size 9 to 14) (size 15 to 20)
#    0.000    0.667    1.667    5.500    4.667    4.667 
#    0.000    0.000    0.000    0.000    0.000    0.000 
#    0.000    0.000    0.000    0.000    0.000    0.000 
#
# Total GULP energy -66898.742085 kJ/mol
# GULP energy per Si atom -5574.895174 kJ/mol
# Density = 2.395023 g / cm^3
# Si number density = 24.004866 Si / 1000 Ang^3
#
#
#
# Elastic Constant Matrix: (Units=GPa)
#
#
# Indices 1 2 3 4 5 6 
#
# 1 79.1509 64.7150 28.5260 -21.8987 28.4441 -3.4402
# 2 64.7150 236.0635 90.2875 -30.7916 23.1593 27.8611
# 3 28.5260 90.2875 121.7085 -13.7742 10.3053 7.7080
# 4 -21.8987 -30.7916 -13.7742 53.3208 1.4460 12.4680
# 5 28.4441 23.1593 10.3053 1.4460 37.3094 -1.4724
# 6 -3.4402 27.8611 7.7080 12.4680 -1.4724 45.1463
#
#
#
# Elastic Compliance Matrix: (Units=1/GPa)
#
#
# Indices 1 2 3 4 5 6 
#
# 1 0.023943 -0.004076 -0.000543 0.007324 -0.015783 0.001895
# 2 -0.004076 0.008199 -0.004305 0.003284 -0.001140 -0.005580
# 3 -0.000543 -0.004305 0.011519 0.000126 -0.000076 0.000612
# 4 0.007324 0.003284 0.000126 0.026034 -0.009020 -0.008974
# 5 -0.015783 -0.001140 -0.000076 -0.009020 0.040044 0.003311
# 6 0.001895 -0.005580 0.000612 -0.008974 0.003311 0.028220
#
#
# Mechanical properties :
#
#
# Convention : Reuss Voigt Hill
#
# Bulk Modulus (GPa) = 38.74051 89.33110 64.03580
# Shear Modulus (GPa) = 30.41135 44.04827 37.22981
#
# Velocity S-wave (km/s) = 3.56319 4.28831 3.94245
# Velocity P-wave (km/s) = 5.75344 7.86218 6.88898
#
# Compressibility (1/GPa) = 0.02581278
#
# Stress axis : x y z
#
# Youngs Moduli (GPa) = 41.76616 121.96589 86.81048
#
# Poissons Ratio (x) = 0.49716 0.04711
# Poissons Ratio (y) = 0.17025 0.37375
# Poissons Ratio (z) = 0.02266 0.52511
#
# Static dielectric constant tensor:
#      x y z
#    x 2.093060 0.004530 0.009970 
#    y 0.004530 1.960870 0.005790 
#    z 0.009970 0.005790 1.994420 
# 
# From -- ./inp_files/457031.got.cif
#   From: 2010.05.17/outbox.cif.g08.bks.cpg/sg2_229_cif.got.tgz:457031.got - 2010.06.03 11:33:40.
