data_PCOD9061476
_publ_section_title
;
Structure prediction by ZEFSAII (Michael W. Deem and Ramdas Pophale) SiO2 
 PCOD9061476
Probable space group: P -1
;
_chemical_formula_sum "Si O2"
_cell_formula_units_Z 12
_cell_length_a 14.375994
_cell_length_b 10.508491
_cell_length_c 8.499766
_cell_angle_alpha 60.316454
_cell_angle_beta 139.388737
_cell_angle_gamma 89.505667
_cell_volume 532.393986
_symmetry_space_group_name_H-M "P -1"
_symmetry_group_IT_number 2
_symmetry_cell_setting 'triclinic'
loop_
_space_group_symop_operation_xyz
x,y,z
-x,-y,-z
loop_
_atom_site_type_symbol
_atom_site_label
_atom_site_fract_x
_atom_site_fract_y
_atom_site_fract_z
Si Si1 0.805253 0.548650 0.262535
Si Si2 0.478645 0.892278 0.386611
Si Si3 0.100606 0.540678 0.226947
Si Si4 0.305877 0.696867 0.713772
Si Si5 0.484170 0.369134 0.665998
Si Si6 0.763603 0.946245 0.734066
O O1 0.780716 0.605814 0.380591
O O2 0.822463 0.359212 0.394765
O O3 0.000000 0.500000 0.500000
O O4 0.637395 0.705138 0.824710
O O5 0.467465 0.804138 0.271764
O O6 0.575571 0.980634 0.417649
O O7 0.279233 0.037645 0.142246
O O8 0.263710 0.514722 0.357630
O O9 0.000000 0.500000 0.000000
O O10 0.935002 0.750651 0.974088
O O11 0.232424 0.884856 0.403258
O O12 0.500000 0.500000 0.000000
O O13 0.369041 0.717534 0.948502
O O14 0.500000 0.500000 0.500000
#
# Coordination Sequence:
#
# PCOD9061476 Si02
#       6
#     2   2   2   2   2   2
#     4  12  23  46  70 100 141 187 224 284 354 409
#     4  11  23  45  71 104 139 184 230 286 350 408
#     4  12  25  45  73 103 139 183 231 286 344 412
#     4  12  24  45  71 100 138 186 229 284 350 404
#     4  12  23  45  73 100 141 183 231 284 343 415
#     4  11  24  45  68 108 136 181 237 283 347 411
#
# _framework density 22.5397
#
# number of rings (size 3 to 8) (size 9 to 14) (size 15 to 20)
#    0.000    0.333    8.333    0.000    0.000    1.333 
#    6.000    0.833    0.000    0.000    0.000    0.000 
#    0.000    0.000    0.000    0.000    0.000    0.000 
#
# Total GULP energy -67024.902207 kJ/mol
# GULP energy per Si atom -5585.408517 kJ/mol
# Density = 2.248840 g / cm^3
# Si number density = 22.539700 Si / 1000 Ang^3
#
#
#
# Elastic Constant Matrix: (Units=GPa)
#
#
# Indices 1 2 3 4 5 6 
#
# 1 171.5238 57.8695 43.9245 3.8492 36.9578 5.3044
# 2 57.8695 159.0325 47.5036 16.0744 14.0523 -12.8316
# 3 43.9245 47.5036 79.6985 9.1623 8.6233 -7.7751
# 4 3.8492 16.0744 9.1623 52.8205 -9.2203 -1.3529
# 5 36.9578 14.0523 8.6233 -9.2203 41.0532 0.8589
# 6 5.3044 -12.8316 -7.7751 -1.3529 0.8589 59.2982
#
#
#
# Elastic Compliance Matrix: (Units=1/GPa)
#
#
# Indices 1 2 3 4 5 6 
#
# 1 0.008718 -0.001679 -0.003123 -0.000801 -0.006767 -0.001473
# 2 -0.001679 0.008381 -0.003586 -0.001956 -0.001074 0.001465
# 3 -0.003123 -0.003586 0.016726 -0.001513 0.000151 0.001660
# 4 -0.000801 -0.001956 -0.001513 0.020965 0.006421 -0.000165
# 5 -0.006767 -0.001074 0.000151 0.006421 0.032227 0.000073
# 6 -0.001473 0.001465 0.001660 -0.000165 0.000073 0.017525
#
#
# Mechanical properties :
#
#
# Convention : Reuss Voigt Hill
#
# Bulk Modulus (GPa) = 58.66003 78.76111 68.71057
# Shear Modulus (GPa) = 39.36979 48.03154 43.70066
#
# Velocity S-wave (km/s) = 4.18387 4.62126 4.40799
# Velocity P-wave (km/s) = 7.03004 7.96830 7.51383
#
# Compressibility (1/GPa) = 0.01704738
#
# Stress axis : x y z
#
# Youngs Moduli (GPa) = 114.70478 119.31756 59.78880
#
# Poissons Ratio (x) = 0.20038 0.18674
# Poissons Ratio (y) = 0.19263 0.21440
# Poissons Ratio (z) = 0.35825 0.42787
#
# Static dielectric constant tensor:
#      x y z
#    x 1.333220 0.331560 -0.238400 
#    y 0.331560 1.674110 0.072130 
#    z -0.238400 0.072130 1.856340 
# 
# From -- ./inp_files/290031.got.cif
#   From: 2010.05.17/outbox.cif.g08.bks.cpg/sg2_146_cif.got.tgz:290031.got - 2010.06.03 11:33:40.
