data_PCOD9061929
_publ_section_title
;
Structure prediction by ZEFSAII (Michael W. Deem and Ramdas Pophale) SiO2 
 PCOD9061929
Probable space group: P -1
;
_chemical_formula_sum "Si O2"
_cell_formula_units_Z 15
_cell_length_a 9.169844
_cell_length_b 21.065304
_cell_length_c 8.955802
_cell_angle_alpha 32.753115
_cell_angle_beta 48.875904
_cell_angle_gamma 49.815395
_cell_volume 686.780726
_symmetry_space_group_name_H-M "P -1"
_symmetry_group_IT_number 2
_symmetry_cell_setting 'triclinic'
loop_
_space_group_symop_operation_xyz
x,y,z
-x,-y,-z
loop_
_atom_site_type_symbol
_atom_site_label
_atom_site_fract_x
_atom_site_fract_y
_atom_site_fract_z
Si Si1 0.155137 0.694673 0.661549
Si Si2 0.537317 0.526858 0.252061
Si Si3 0.197865 0.530333 0.241295
Si Si4 0.219004 0.872742 0.463102
Si Si5 0.352876 0.269467 0.540807
Si Si6 0.767370 0.900934 0.814816
Si Si7 0.262335 0.244728 0.340315
Si Si8 0.500000 0.000000 0.500000
O O1 0.318658 0.595435 0.664263
O O2 0.206826 0.824868 0.396625
O O3 0.945832 0.716965 0.678828
O O4 0.144846 0.636002 0.947546
O O5 0.500000 0.500000 0.500000
O O6 0.338119 0.552467 0.236904
O O7 0.634400 0.642053 0.958172
O O8 0.312414 0.411600 0.310413
O O9 0.000000 0.500000 0.500000
O O10 0.420606 0.782283 0.558534
O O11 0.002830 0.872814 0.676049
O O12 0.259315 0.000599 0.228618
O O13 0.224386 0.232334 0.567183
O O14 0.304143 0.211204 0.843793
O O15 0.643243 0.951853 0.650077
O O16 0.393050 0.124683 0.415946
#
# Coordination Sequence:
#
# PCOD9061929 Si02
#       8
#     2   2   2   2   2   2   2   1
#     4  12  24  48  71 103 146 185 241 297 364 434
#     4  12  27  46  72 107 147 186 240 303 365 432
#     4  12  26  44  74 105 140 192 238 297 369 434
#     4  11  23  46  74 103 142 189 243 295 357 433
#     4  12  25  48  73 102 146 191 241 296 366 432
#     4  11  26  47  74 105 146 191 244 298 360 431
#     4  12  27  47  72 104 145 188 240 302 359 428
#     4  12  26  46  74 102 144 186 240 308 352 426
#
# _framework density 21.841031999999998
#
# number of rings (size 3 to 8) (size 9 to 14) (size 15 to 20)
#    0.000    0.267    5.333    3.600    3.733    0.000 
#    0.000    4.000    0.000    0.000    0.000    0.000 
#    0.000    0.000    0.000    0.000    0.000    0.000 
#
# Total GULP energy -83582.312297 kJ/mol
# GULP energy per Si atom -5572.154153 kJ/mol
# Density = 2.179132 g / cm^3
# Si number density = 21.841032 Si / 1000 Ang^3
#
#
#
# Elastic Constant Matrix: (Units=GPa)
#
#
# Indices 1 2 3 4 5 6 
#
# 1 181.9996 27.5234 28.5268 -3.2537 18.7872 4.9262
# 2 27.5234 87.8153 10.3164 -13.1531 5.2038 5.5046
# 3 28.5268 10.3164 41.5999 1.7993 13.2806 1.6612
# 4 -3.2537 -13.1531 1.7993 29.1236 7.4956 -1.7587
# 5 18.7872 5.2038 13.2806 7.4956 31.9691 -5.7797
# 6 4.9262 5.5046 1.6612 -1.7587 -5.7797 44.8263
#
#
#
# Elastic Compliance Matrix: (Units=1/GPa)
#
#
# Indices 1 2 3 4 5 6 
#
# 1 0.006519 -0.001308 -0.003331 0.000967 -0.002593 -0.000729
# 2 -0.001308 0.013216 -0.001835 0.006465 -0.002401 -0.001467
# 3 -0.003331 -0.001835 0.030239 -0.000472 -0.010540 -0.001907
# 4 0.000967 0.006465 -0.000472 0.040174 -0.010974 -0.000721
# 5 -0.002593 -0.002401 -0.010540 -0.010974 0.041204 0.005853
# 6 -0.000729 -0.001467 -0.001907 -0.000721 0.005853 0.023366
#
#
# Mechanical properties :
#
#
# Convention : Reuss Voigt Hill
#
# Bulk Modulus (GPa) = 27.00784 49.34977 38.17880
# Shear Modulus (GPa) = 27.77658 37.52035 32.64847
#
# Velocity S-wave (km/s) = 3.57004 4.14923 3.87049
# Velocity P-wave (km/s) = 5.42090 6.75269 6.12311
#
# Compressibility (1/GPa) = 0.03702629
#
# Stress axis : x y z
#
# Youngs Moduli (GPa) = 153.39644 75.66791 33.06975
#
# Poissons Ratio (x) = 0.09896 0.11016
# Poissons Ratio (y) = 0.20061 0.06068
# Poissons Ratio (z) = 0.51097 0.13885
#
# Static dielectric constant tensor:
#      x y z
#    x 1.816050 0.031150 -0.014940 
#    y 0.031150 1.826850 -0.013050 
#    z -0.014940 -0.013050 1.831650 
# 
# From -- ./inp_files/178382.got.cif
#   From: 2010.05.17/outbox.cif.g08.bks.cpg/sg2_90_cif.got.tgz:178382.got - 2010.06.03 11:33:40.
