data_PCOD9061592
_publ_section_title
;
Structure prediction by ZEFSAII (Michael W. Deem and Ramdas Pophale) SiO2 
 PCOD9061592
Probable space group: P -1
;
_chemical_formula_sum "Si O2"
_cell_formula_units_Z 16
_cell_length_a 18.629166
_cell_length_b 16.560071
_cell_length_c 5.555802
_cell_angle_alpha 70.397377
_cell_angle_beta 53.383078
_cell_angle_gamma 34.862391
_cell_volume 740.787792
_symmetry_space_group_name_H-M "P -1"
_symmetry_group_IT_number 2
_symmetry_cell_setting 'triclinic'
loop_
_space_group_symop_operation_xyz
x,y,z
-x,-y,-z
loop_
_atom_site_type_symbol
_atom_site_label
_atom_site_fract_x
_atom_site_fract_y
_atom_site_fract_z
Si Si1 0.792782 0.103989 0.810448
Si Si2 0.006921 0.205346 0.780811
Si Si3 0.540275 0.595570 0.323881
Si Si4 0.406149 0.985913 0.701790
Si Si5 0.551767 0.557841 0.838626
Si Si6 0.068794 0.199148 0.163262
Si Si7 0.805224 0.191057 0.198495
Si Si8 0.610894 0.098341 0.679870
O O1 0.836744 0.117491 0.461644
O O2 0.862658 0.953737 0.820949
O O3 0.603433 0.260062 0.033073
O O4 0.836744 0.117491 0.956399
O O5 0.979788 0.276194 0.514986
O O6 0.198772 0.041305 0.561149
O O7 0.979789 0.276194 0.013468
O O8 0.907430 0.196361 0.988779
O O9 0.631781 0.510293 0.472637
O O10 0.385091 0.656300 0.573518
O O11 0.467224 0.747568 0.317984
O O12 0.631780 0.510293 0.979659
O O13 0.435944 0.912414 0.463759
O O14 0.500000 0.000000 0.500000
O O15 0.435944 0.912414 0.967641
O O16 0.217886 0.144008 0.920220
O O17 0.500000 0.500000 0.000000
#
# Coordination Sequence:
#
# PCOD9061592 Si02
#       8
#     2   2   2   2   2   2   2   2
#     4  10  19  28  38  55  79 104 135 166 192 229
#     4  10  18  26  38  55  76 104 136 166 188 214
#     4  10  19  30  42  59  83 108 139 170 198 237
#     4  10  18  29  43  58  76 105 143 173 202 235
#     4  10  18  29  43  58  76 105 143 173 202 235
#     4  10  19  28  38  55  79 104 135 166 192 229
#     4  10  18  26  38  55  76 104 136 166 188 214
#     4  10  19  30  42  59  83 108 139 170 198 237
#
# _framework density 21.598627
#
# number of rings (size 3 to 8) (size 9 to 14) (size 15 to 20)
#    0.000    2.000    0.000    9.000    0.000    5.500 
#    0.000    0.000    0.000    0.000    0.000    0.000 
#    0.000    0.000    0.000    0.000    0.000 2320.000 
#
# Total GULP energy -89380.574998 kJ/mol
# GULP energy per Si atom -5586.285937 kJ/mol
# Density = 2.154947 g / cm^3
# Si number density = 21.598627 Si / 1000 Ang^3
#
#
#
# Elastic Constant Matrix: (Units=GPa)
#
#
# Indices 1 2 3 4 5 6 
#
# 1 154.1798 20.3481 123.7693 0.8078 24.6097 17.6498
# 2 20.3481 46.6999 26.0379 4.5126 -2.2088 -4.0614
# 3 123.7693 26.0379 164.1134 -31.6364 38.6926 -10.6304
# 4 0.8078 4.5126 -31.6364 17.5260 -4.2688 -8.3930
# 5 24.6097 -2.2088 38.6926 -4.2688 74.4529 -0.4885
# 6 17.6498 -4.0614 -10.6304 -8.3930 -0.4885 14.4242
#
#
#
# Elastic Compliance Matrix: (Units=1/GPa)
#
#
# Indices 1 2 3 4 5 6 
#
# 1 -0.000767 -0.004554 0.007468 0.022950 -0.002326 0.018435
# 2 -0.004554 0.024964 -0.000591 -0.001098 0.002566 0.011614
# 3 0.007468 -0.000591 -0.005099 -0.022159 -0.001277 -0.025999
# 4 0.022950 -0.001098 -0.022159 -0.005948 0.003241 -0.048073
# 5 -0.002326 0.002566 -0.001277 0.003241 0.015158 0.005026
# 6 0.018435 0.011614 -0.025999 -0.048073 0.005026 0.003077
#
#
# Mechanical properties :
#
#
# Convention : Reuss Voigt Hill
#
# Bulk Modulus (GPa) = 42.11605 78.36708 60.24157
# Shear Modulus (GPa) = 144.28497 34.26981 89.27739
#
# Velocity S-wave (km/s) = 8.18217 3.98762 6.43619
# Velocity P-wave (km/s) = 10.43099 7.58707 9.12056
#
# Compressibility (1/GPa) = 0.02374392
#
# Stress axis : x y z
#
# Youngs Moduli (GPa) = -1303.30422 40.05698 -196.10202
#
# Poissons Ratio (x) = 0.18241 1.46443
# Poissons Ratio (y) = -5.93485 -0.11588
# Poissons Ratio (z) = 9.73268 0.02367
#
# Static dielectric constant tensor:
#      x y z
#    x 1.825660 -0.024910 0.077530 
#    y -0.024910 1.814820 0.012580 
#    z 0.077530 0.012580 1.852310 
# 
# From -- ./inp_files/99041.got.cif
#   From: 2010.05.17/outbox.cif.g08.bks.cpg/sg2_50_cif.got.tgz:99041.got - 2010.06.03 11:33:40.
