data_PCOD9061539
_publ_section_title
;
Structure prediction by ZEFSAII (Michael W. Deem and Ramdas Pophale) SiO2 
 PCOD9061539
Probable space group: P -1
;
_chemical_formula_sum "Si O2"
_cell_formula_units_Z 14
_cell_length_a 14.372957
_cell_length_b 6.923711
_cell_length_c 23.616112
_cell_angle_alpha 104.704838
_cell_angle_beta 158.982399
_cell_angle_gamma 62.376150
_cell_volume 617.088995
_symmetry_space_group_name_H-M "P -1"
_symmetry_group_IT_number 2
_symmetry_cell_setting 'triclinic'
loop_
_space_group_symop_operation_xyz
x,y,z
-x,-y,-z
loop_
_atom_site_type_symbol
_atom_site_label
_atom_site_fract_x
_atom_site_fract_y
_atom_site_fract_z
Si Si1 0.112813 0.805519 0.246528
Si Si2 0.313690 0.973239 0.202475
Si Si3 0.727339 0.408165 0.066524
Si Si4 0.887529 0.744756 0.219569
Si Si5 0.180843 0.468159 0.982738
Si Si6 0.314684 0.511920 0.541433
Si Si7 0.382866 0.839855 0.682836
O O1 0.459993 0.647159 0.397478
O O2 0.117354 0.779094 0.315112
O O3 0.904823 0.108372 0.137030
O O4 0.934331 0.693481 0.114134
O O5 0.508088 0.998467 0.265808
O O6 0.585704 0.701059 0.370958
O O7 0.134516 0.222301 0.161719
O O8 0.000000 0.000000 0.000000
O O9 0.957635 0.483442 0.219326
O O10 0.500000 0.500000 0.000000
O O11 0.586116 0.550384 0.935855
O O12 0.941899 0.720382 0.316248
O O13 0.500000 0.000000 0.000000
O O14 0.369660 0.350283 0.140438
O O15 0.421811 0.667579 0.640369
O O16 0.000000 0.000000 0.500000
#
# Coordination Sequence:
#
# PCOD9061539 Si02
#       7
#     2   2   2   2   2   2   2
#     4  11  23  45  72  99 142 191 243 306 362 442
#     4  12  24  49  77 110 147 195 254 302 365 452
#     4  11  24  42  72 105 138 189 244 303 365 432
#     4  11  26  45  68 104 145 191 247 305 375 436
#     4  11  24  45  74 105 144 197 243 296 376 446
#     4  12  26  46  72 106 145 191 250 307 368 448
#     4  12  29  45  72 111 153 194 243 311 375 440
#
# _framework density 22.687163999999999
#
# number of rings (size 3 to 8) (size 9 to 14) (size 15 to 20)
#    0.000    0.571    5.714    1.714    4.000    3.429 
#    0.000    0.000    0.000    0.000    0.000    0.000 
#    0.000    0.000    0.000    0.000    0.000    0.000 
#
# Total GULP energy -78213.792299 kJ/mol
# GULP energy per Si atom -5586.699450 kJ/mol
# Density = 2.263553 g / cm^3
# Si number density = 22.687164 Si / 1000 Ang^3
#
#
#
# Elastic Constant Matrix: (Units=GPa)
#
#
# Indices 1 2 3 4 5 6 
#
# 1 128.5324 29.0932 42.8894 -4.2737 -5.3739 34.7554
# 2 29.0932 140.2825 45.4939 2.1468 -13.6650 17.8237
# 3 42.8894 45.4939 96.2675 -8.3460 -31.6420 19.2272
# 4 -4.2737 2.1468 -8.3460 25.1313 1.3051 -5.1096
# 5 -5.3739 -13.6650 -31.6420 1.3051 52.1989 -5.0347
# 6 34.7554 17.8237 19.2272 -5.1096 -5.0347 49.4342
#
#
#
# Elastic Compliance Matrix: (Units=1/GPa)
#
#
# Indices 1 2 3 4 5 6 
#
# 1 0.010793 -0.000294 -0.004185 -0.000669 -0.002078 -0.006135
# 2 -0.000294 0.008691 -0.003931 -0.002425 -0.000239 -0.001673
# 3 -0.004185 -0.003931 0.017727 0.004814 0.009058 -0.001115
# 4 -0.000669 -0.002425 0.004814 0.042215 0.001544 0.003993
# 5 -0.002078 -0.000239 0.009058 0.001544 0.024398 0.000668
# 6 -0.006135 -0.001673 -0.001115 0.003993 0.000668 0.026060
#
#
# Mechanical properties :
#
#
# Convention : Reuss Voigt Hill
#
# Bulk Modulus (GPa) = 49.03995 66.67061 57.85528
# Shear Modulus (GPa) = 32.57322 41.85993 37.21658
#
# Velocity S-wave (km/s) = 3.79325 4.30011 4.05461
# Velocity P-wave (km/s) = 6.39121 7.35564 6.89032
#
# Compressibility (1/GPa) = 0.02039154
#
# Stress axis : x y z
#
# Youngs Moduli (GPa) = 92.65211 115.06741 56.41010
#
# Poissons Ratio (x) = 0.03380 0.23610
# Poissons Ratio (y) = 0.02721 0.22173
# Poissons Ratio (z) = 0.38778 0.45229
#
# Static dielectric constant tensor:
#      x y z
#    x 1.955320 0.003350 0.096540 
#    y 0.003350 1.843080 -0.008530 
#    z 0.096540 -0.008530 2.205360 
# 
# From -- ./inp_files/107254.got.cif
#   From: 2010.05.17/outbox.cif.g08.bks.cpg/sg2_54_cif.got.tgz:107254.got - 2010.06.03 11:33:40.
