data_PCOD9061855
_publ_section_title
;
Structure prediction by ZEFSAII (Michael W. Deem and Ramdas Pophale) SiO2 
 PCOD9061855
Probable space group: P -1
;
_chemical_formula_sum "Si O2"
_cell_formula_units_Z 12
_cell_length_a 7.493488
_cell_length_b 5.512297
_cell_length_c 15.001666
_cell_angle_alpha 71.131575
_cell_angle_beta 65.587133
_cell_angle_gamma 67.561681
_cell_volume 511.340696
_symmetry_space_group_name_H-M "P -1"
_symmetry_group_IT_number 2
_symmetry_cell_setting 'triclinic'
loop_
_space_group_symop_operation_xyz
x,y,z
-x,-y,-z
loop_
_atom_site_type_symbol
_atom_site_label
_atom_site_fract_x
_atom_site_fract_y
_atom_site_fract_z
Si Si1 0.975285 0.770605 0.918440
Si Si2 0.621091 0.222528 0.959009
Si Si3 0.255304 0.070560 0.740239
Si Si4 0.117394 0.470624 0.207803
Si Si5 0.067903 0.211875 0.566610
Si Si6 0.267349 0.036197 0.365448
O O1 0.853303 0.731105 0.857723
O O2 0.833979 0.020873 0.974319
O O3 0.176630 0.838712 0.831081
O O4 0.000000 0.500000 0.000000
O O5 0.722873 0.354072 0.843795
O O6 0.500000 0.500000 0.000000
O O7 0.500000 0.000000 0.000000
O O8 0.186494 0.127494 0.644545
O O9 0.111953 0.340492 0.781681
O O10 0.496210 0.023523 0.700567
O O11 0.145471 0.315472 0.312306
O O12 0.216488 0.035432 0.480720
O O13 0.000000 0.500000 0.500000
O O14 0.850057 0.156707 0.629702
#
# Coordination Sequence:
#
# PCOD9061855 Si02
#       6
#     2   2   2   2   2   2
#     4  11  26  47  73 108 154 198 260 315 376 463
#     4  11  24  45  74 103 144 199 256 313 385 447
#     4  11  25  45  71 108 149 194 249 315 383 454
#     4  11  24  46  69 107 150 192 259 311 373 471
#     4  11  23  46  72 105 146 189 253 313 377 467
#     4  11  25  43  74 103 146 198 244 311 389 448
#
# _framework density 23.467717
#
# number of rings (size 3 to 8) (size 9 to 14) (size 15 to 20)
#    0.000    1.000    5.000    0.500    2.333    6.000 
#    0.000    0.000    0.000    0.000    0.000    0.000 
#    0.000    0.000    0.000    0.000    0.000    0.000 
#
# Total GULP energy -66874.385137 kJ/mol
# GULP energy per Si atom -5572.865428 kJ/mol
# Density = 2.341430 g / cm^3
# Si number density = 23.467717 Si / 1000 Ang^3
#
#
#
# Elastic Constant Matrix: (Units=GPa)
#
#
# Indices 1 2 3 4 5 6 
#
# 1 99.5936 30.5082 65.7632 -12.8534 -39.6370 -0.2467
# 2 30.5082 121.0891 59.4853 -10.4546 -15.3890 -4.7663
# 3 65.7632 59.4853 146.1350 -26.5526 -20.3096 -1.0942
# 4 -12.8534 -10.4546 -26.5526 55.7453 2.6489 -5.5514
# 5 -39.6370 -15.3890 -20.3096 2.6489 63.5506 -0.2958
# 6 -0.2467 -4.7663 -1.0942 -5.5514 -0.2958 28.6468
#
#
#
# Elastic Compliance Matrix: (Units=1/GPa)
#
#
# Indices 1 2 3 4 5 6 
#
# 1 0.018301 -0.000028 -0.006850 0.000523 0.009197 0.000088
# 2 -0.000028 0.010486 -0.004048 0.000136 0.001230 0.001629
# 3 -0.006850 -0.004048 0.011993 0.003486 -0.001564 0.000385
# 4 0.000523 0.000136 0.003486 0.020119 0.000654 0.004066
# 5 0.009197 0.001230 -0.001564 0.000654 0.021245 0.000570
# 6 0.000088 0.001629 0.000385 0.004066 0.000570 0.035988
#
#
# Mechanical properties :
#
#
# Convention : Reuss Voigt Hill
#
# Bulk Modulus (GPa) = 52.83595 75.37012 64.10304
# Shear Modulus (GPa) = 34.17779 43.65929 38.91854
#
# Velocity S-wave (km/s) = 3.82039 4.31791 4.07675
# Velocity P-wave (km/s) = 6.48257 7.55284 7.03808
#
# Compressibility (1/GPa) = 0.01892651
#
# Stress axis : x y z
#
# Youngs Moduli (GPa) = 54.64251 95.36316 83.38542
#
# Poissons Ratio (x) = 0.00269 0.57121
# Poissons Ratio (y) = 0.00154 0.33755
# Poissons Ratio (z) = 0.37432 0.38603
#
# Static dielectric constant tensor:
#      x y z
#    x 1.918150 0.035920 -0.003350 
#    y 0.035920 2.044730 0.034960 
#    z -0.003350 0.034960 1.942810 
# 
# From -- ./inp_files/551864.got.cif
#   From: 2010.05.17/outbox.cif.g08.bks.cpg/sg2_276_cif.got.tgz:551864.got - 2010.06.03 11:33:40.
