data_PCOD9061737
_publ_section_title
;
Structure prediction by ZEFSAII (Michael W. Deem and Ramdas Pophale) SiO2 
 PCOD9061737
Probable space group: P -1
;
_chemical_formula_sum "Si O2"
_cell_formula_units_Z 16
_cell_length_a 9.233423
_cell_length_b 8.578852
_cell_length_c 13.317830
_cell_angle_alpha 131.149250
_cell_angle_beta 87.158577
_cell_angle_gamma 102.209073
_cell_volume 770.623310
_symmetry_space_group_name_H-M "P -1"
_symmetry_group_IT_number 2
_symmetry_cell_setting 'triclinic'
loop_
_space_group_symop_operation_xyz
x,y,z
-x,-y,-z
loop_
_atom_site_type_symbol
_atom_site_label
_atom_site_fract_x
_atom_site_fract_y
_atom_site_fract_z
Si Si1 0.058476 0.303518 0.957215
Si Si2 0.450309 0.398643 0.351203
Si Si3 0.628671 0.205113 0.110539
Si Si4 0.440354 0.206548 0.608106
Si Si5 0.116172 0.164653 0.291805
Si Si6 0.043294 0.656221 0.804573
Si Si7 0.889269 0.785481 0.452303
Si Si8 0.372517 0.419681 0.890260
O O1 0.219916 0.323523 0.912328
O O2 0.950192 0.084324 0.831611
O O3 0.000000 0.500000 0.000000
O O4 0.055361 0.324518 0.086569
O O5 0.500000 0.500000 0.500000
O O6 0.574113 0.294192 0.252922
O O7 0.443641 0.591198 0.357721
O O8 0.292552 0.232941 0.293897
O O9 0.795731 0.181337 0.112401
O O10 0.640069 0.384149 0.099220
O O11 0.500000 0.000000 0.000000
O O12 0.280130 0.200935 0.560201
O O13 0.416869 0.247525 0.742799
O O14 0.500000 0.000000 0.500000
O O15 0.092317 0.224715 0.432969
O O16 0.032898 0.285872 0.268183
O O17 0.076183 0.422128 0.690437
O O18 0.000000 0.000000 0.500000
O O19 0.500000 0.500000 0.000000
#
# Coordination Sequence:
#
# PCOD9061737 Si02
#       8
#     2   2   2   2   2   2   2   2
#     4  12  25  48  70 103 147 185 239 290 356 424
#     4  11  23  46  68 100 142 180 237 289 354 419
#     4  11  24  45  69  99 141 184 230 292 356 415
#     4  11  25  47  70 100 141 184 238 294 352 423
#     4  12  27  43  74 106 140 194 238 293 359 423
#     4  12  25  47  72 105 145 188 238 294 351 430
#     4  12  25  49  70 103 144 186 237 297 357 421
#     4  11  26  45  69 103 138 184 239 292 352 422
#
# _framework density 20.762415000000001
#
# number of rings (size 3 to 8) (size 9 to 14) (size 15 to 20)
#    0.000    0.500    5.000    3.000    7.000    2.000 
#    2.250    0.000    0.000    0.000    0.000    0.000 
#    0.000    0.000    0.000    0.000    0.000    0.000 
#
# Total GULP energy -89565.060795 kJ/mol
# GULP energy per Si atom -5597.816300 kJ/mol
# Density = 2.071516 g / cm^3
# Si number density = 20.762415 Si / 1000 Ang^3
#
#
#
# Elastic Constant Matrix: (Units=GPa)
#
#
# Indices 1 2 3 4 5 6 
#
# 1 113.8047 60.7933 68.0424 -7.8045 5.9001 24.3032
# 2 60.7933 82.4080 60.2192 -0.7793 -2.5659 31.0025
# 3 68.0424 60.2192 173.0815 -17.9611 -8.6639 9.9490
# 4 -7.8045 -0.7793 -17.9611 51.4439 0.6926 2.3410
# 5 5.9001 -2.5659 -8.6639 0.6926 42.2792 -2.7901
# 6 24.3032 31.0025 9.9490 2.3410 -2.7901 43.3689
#
#
#
# Elastic Compliance Matrix: (Units=1/GPa)
#
#
# Indices 1 2 3 4 5 6 
#
# 1 0.016200 -0.008832 -0.003202 0.001361 -0.003629 -0.002337
# 2 -0.008832 0.027844 -0.005632 -0.002283 0.000916 -0.013481
# 3 -0.003202 -0.005632 0.009142 0.002421 0.002185 0.003733
# 4 0.001361 -0.002283 0.002421 0.020496 -0.000221 -0.000807
# 5 -0.003629 0.000916 0.002185 -0.000221 0.024830 0.002487
# 6 -0.002337 -0.013481 0.003733 -0.000807 0.002487 0.033352
#
#
# Mechanical properties :
#
#
# Convention : Reuss Voigt Hill
#
# Bulk Modulus (GPa) = 56.00749 83.04491 69.52620
# Shear Modulus (GPa) = 28.87731 39.43434 34.15582
#
# Velocity S-wave (km/s) = 3.73345 4.36284 4.06036
# Velocity P-wave (km/s) = 6.75417 8.09096 7.45260
#
# Compressibility (1/GPa) = 0.01785476
#
# Stress axis : x y z
#
# Youngs Moduli (GPa) = 61.72890 35.91394 109.38759
#
# Poissons Ratio (x) = 0.31720 0.35023
# Poissons Ratio (y) = 0.54520 0.61604
# Poissons Ratio (z) = 0.19764 0.20226
#
# Static dielectric constant tensor:
#      x y z
#    x 1.719830 0.003600 -0.006050 
#    y 0.003600 1.720450 0.005170 
#    z -0.006050 0.005170 1.733880 
# 
# From -- ./inp_files/306545.got.cif
#   From: 2010.05.17/outbox.cif.g08.bks.cpg/sg2_154_cif.got.tgz:306545.got - 2010.06.03 11:33:40.
