data_PCOD9061830
_publ_section_title
;
Structure prediction by ZEFSAII (Michael W. Deem and Ramdas Pophale) SiO2 
 PCOD9061830
Probable space group: P -1
;
_chemical_formula_sum "Si O2"
_cell_formula_units_Z 16
_cell_length_a 24.216933
_cell_length_b 14.701481
_cell_length_c 18.364106
_cell_angle_alpha 151.309999
_cell_angle_beta 20.114058
_cell_angle_gamma 159.621503
_cell_volume 782.684079
_symmetry_space_group_name_H-M "P -1"
_symmetry_group_IT_number 2
_symmetry_cell_setting 'triclinic'
loop_
_space_group_symop_operation_xyz
x,y,z
-x,-y,-z
loop_
_atom_site_type_symbol
_atom_site_label
_atom_site_fract_x
_atom_site_fract_y
_atom_site_fract_z
Si Si1 0.769427 0.330085 0.210035
Si Si2 0.821043 0.408844 0.718388
Si Si3 0.204680 0.380910 0.337300
Si Si4 0.938630 0.754648 0.942408
Si Si5 0.256824 0.057077 0.476862
Si Si6 0.525567 0.555124 0.390288
Si Si7 0.520647 0.749502 0.074143
Si Si8 0.239572 0.750412 0.663094
O O1 0.643450 0.427261 0.420613
O O2 0.797524 0.314815 0.250952
O O3 0.615561 0.037093 0.163938
O O4 0.000000 0.500000 0.000000
O O5 0.953325 0.605884 0.758798
O O6 0.652725 0.412237 0.890022
O O7 0.000000 0.500000 0.500000
O O8 0.684193 0.115350 0.708513
O O9 0.393075 0.609772 0.209799
O O10 0.170893 0.508341 0.531606
O O11 0.290698 0.251989 0.170785
O O12 0.992091 0.160168 0.396652
O O13 0.094317 0.808963 0.853469
O O14 0.683092 0.571504 0.152036
O O15 0.000000 0.000000 0.000000
O O16 0.395015 0.294794 0.416502
O O17 0.302567 0.192519 0.592716
O O18 0.500000 0.000000 0.500000
#
# Coordination Sequence:
#
# PCOD9061830 Si02
#       8
#     2   2   2   2   2   2   2   2
#     4  12  27  48  71 103 148 192 237 290 367 432
#     4  12  23  44  71 102 137 181 236 295 354 422
#     4  11  24  44  69 104 134 183 232 301 347 431
#     4  12  28  43  74 109 140 186 239 298 357 422
#     4  11  23  46  71  93 143 180 235 291 360 416
#     4  11  27  45  71 103 141 187 238 294 358 433
#     4  11  24  40  73  98 137 183 236 285 364 417
#     4  12  26  46  72 104 146 184 238 298 353 423
#
# _framework density 20.442475000000002
#
# number of rings (size 3 to 8) (size 9 to 14) (size 15 to 20)
#    0.000    0.500    5.000    2.250    8.750    0.500 
#    2.250    1.250    0.000    0.000    0.000    0.000 
#    0.000    0.000    0.000    0.000    0.000    0.000 
#
# Total GULP energy -89417.104188 kJ/mol
# GULP energy per Si atom -5588.569012 kJ/mol
# Density = 2.039595 g / cm^3
# Si number density = 20.442475 Si / 1000 Ang^3
#
#
#
# Elastic Constant Matrix: (Units=GPa)
#
#
# Indices 1 2 3 4 5 6 
#
# 1 144.6929 24.6267 56.8128 0.3499 -13.5490 -2.9458
# 2 24.6267 81.0226 13.2024 6.0047 7.8996 -3.1246
# 3 56.8128 13.2024 107.6593 -7.7664 -12.7496 -7.0509
# 4 0.3499 6.0047 -7.7664 26.0877 -4.9522 -6.4003
# 5 -13.5490 7.8996 -12.7496 -4.9522 37.7545 0.7528
# 6 -2.9458 -3.1246 -7.0509 -6.4003 0.7528 33.5345
#
#
#
# Elastic Compliance Matrix: (Units=1/GPa)
#
#
# Indices 1 2 3 4 5 6 
#
# 1 0.009228 -0.002279 -0.004402 -0.000607 0.002232 -0.000493
# 2 -0.002279 0.014077 -0.001420 -0.004537 -0.004839 0.000055
# 3 -0.004402 -0.001420 0.012849 0.005703 0.003741 0.003187
# 4 -0.000607 -0.004537 0.005703 0.044905 0.008366 0.009106
# 5 0.002232 -0.004839 0.003741 0.008366 0.030633 0.001441
# 6 -0.000493 0.000055 0.003187 0.009106 0.001441 0.032157
#
#
# Mechanical properties :
#
#
# Convention : Reuss Voigt Hill
#
# Bulk Modulus (GPa) = 50.12356 58.07317 54.09836
# Shear Modulus (GPa) = 29.99381 35.39085 32.69233
#
# Velocity S-wave (km/s) = 3.83460 4.16533 4.00338
# Velocity P-wave (km/s) = 6.64666 7.18353 6.92030
#
# Compressibility (1/GPa) = 0.01995070
#
# Stress axis : x y z
#
# Youngs Moduli (GPa) = 108.36649 71.03961 77.82822
#
# Poissons Ratio (x) = 0.16192 0.34259
# Poissons Ratio (y) = 0.24699 0.11053
# Poissons Ratio (z) = 0.47702 0.10089
#
# Static dielectric constant tensor:
#      x y z
#    x 1.748530 -0.006670 -0.017620 
#    y -0.006670 1.713810 0.007960 
#    z -0.017620 0.007960 1.736770 
# 
# From -- ./inp_files/392003.got.cif
#   From: 2010.05.17/outbox.cif.g08.bks.cpg/sg2_197_cif.got.tgz:392003.got - 2010.06.03 11:33:40.
