data_PCOD9061251
_publ_section_title
;
Structure prediction by ZEFSAII (Michael W. Deem and Ramdas Pophale) SiO2 
 PCOD9061251
Probable space group: P -1
;
_chemical_formula_sum "Si O2"
_cell_formula_units_Z 13
_cell_length_a 9.263990
_cell_length_b 9.699529
_cell_length_c 11.927682
_cell_angle_alpha 49.871499
_cell_angle_beta 98.684386
_cell_angle_gamma 134.457307
_cell_volume 488.337142
_symmetry_space_group_name_H-M "P -1"
_symmetry_group_IT_number 2
_symmetry_cell_setting 'triclinic'
loop_
_space_group_symop_operation_xyz
x,y,z
-x,-y,-z
loop_
_atom_site_type_symbol
_atom_site_label
_atom_site_fract_x
_atom_site_fract_y
_atom_site_fract_z
Si Si1 0.500000 0.500000 0.500000
Si Si2 0.810918 0.282526 0.840303
Si Si3 0.749806 0.647034 0.674630
Si Si4 0.875985 0.824851 0.835392
Si Si5 0.289934 0.659278 0.783298
Si Si6 0.788239 0.150371 0.672205
Si Si7 0.684018 0.004281 0.214013
O O1 0.555688 0.538331 0.624756
O O2 0.449370 0.674219 0.408412
O O3 0.798411 0.483836 0.746208
O O4 0.675809 0.083989 0.816835
O O5 0.091677 0.500524 0.749555
O O6 0.713182 0.093173 0.042209
O O7 0.706256 0.626364 0.812129
O O8 0.000000 0.000000 0.500000
O O9 0.148506 0.016267 0.741761
O O10 0.882697 0.040461 0.745779
O O11 0.775177 0.599759 0.038558
O O12 0.227849 0.751862 0.821761
O O13 0.578066 0.952687 0.657201
O O14 0.000000 0.500000 0.500000
#
# Coordination Sequence:
#
# PCOD9061251 Si02
#       7
#     1   2   2   2   2   2   2
#     4  12  26  36  70 116 142 174 238 300 360 412
#     4  11  24  47  76  99 146 190 241 301 350 431
#     4  12  22  43  70 105 143 185 236 299 352 417
#     4  11  23  47  71 104 148 187 238 298 356 432
#     4  11  23  47  75 104 136 196 244 289 364 428
#     4  12  29  45  67 109 153 187 239 295 365 431
#     4  11  23  44  76 111 134 187 249 296 356 427
#
# _framework density 26.620954000000001
#
# number of rings (size 3 to 8) (size 9 to 14) (size 15 to 20)
#    0.000    0.615    4.615    3.231    4.308    4.308 
#    2.769    0.000    0.000    0.000    0.000    0.000 
#    0.000    0.000    0.000    0.000    0.000    0.000 
#
# Total GULP energy -72637.894608 kJ/mol
# GULP energy per Si atom -5587.530354 kJ/mol
# Density = 2.656036 g / cm^3
# Si number density = 26.620954 Si / 1000 Ang^3
#
#
#
# Elastic Constant Matrix: (Units=GPa)
#
#
# Indices 1 2 3 4 5 6 
#
# 1 125.8943 30.0148 53.7193 -18.1987 31.2379 -3.2356
# 2 30.0148 117.6780 30.5405 3.1003 26.5980 26.0017
# 3 53.7193 30.5405 142.0117 -7.9733 45.6202 7.3583
# 4 -18.1987 3.1003 -7.9733 57.1060 1.8468 15.6548
# 5 31.2379 26.5980 45.6202 1.8468 50.7403 -7.4543
# 6 -3.2356 26.0017 7.3583 15.6548 -7.4543 44.5069
#
#
#
# Elastic Compliance Matrix: (Units=1/GPa)
#
#
# Indices 1 2 3 4 5 6 
#
# 1 0.010698 -0.001378 -0.002343 0.003229 -0.003846 0.000190
# 2 -0.001378 0.012484 0.001052 0.001926 -0.008122 -0.009605
# 3 -0.002343 0.001052 0.011409 0.002570 -0.010237 -0.005289
# 4 0.003229 0.001926 0.002570 0.021859 -0.007614 -0.010279
# 5 -0.003846 -0.008122 -0.010237 -0.007614 0.038049 0.015209
# 6 0.000190 -0.009605 -0.005289 -0.010279 0.015209 0.035131
#
#
# Mechanical properties :
#
#
# Convention : Reuss Voigt Hill
#
# Bulk Modulus (GPa) = 34.18748 68.23700 51.21224
# Shear Modulus (GPa) = 34.54988 48.55795 41.55391
#
# Velocity S-wave (km/s) = 3.60647 4.27552 3.95517
# Velocity P-wave (km/s) = 5.49658 7.07545 6.33539
#
# Compressibility (1/GPa) = 0.02925048
#
# Stress axis : x y z
#
# Youngs Moduli (GPa) = 93.47853 80.10461 87.65180
#
# Poissons Ratio (x) = 0.11040 0.20539
# Poissons Ratio (y) = 0.12883 -0.09217
# Poissons Ratio (z) = 0.21904 -0.08424
#
# Static dielectric constant tensor:
#      x y z
#    x 2.186760 -0.045060 0.039290 
#    y -0.045060 2.008410 0.193290 
#    z 0.039290 0.193290 1.807810 
# 
# From -- ./inp_files/157821.got.cif
#   From: 2010.05.17/outbox.cif.g08.bks.cpg/sg2_79_cif.got.tgz:157821.got - 2010.06.03 11:33:40.
