data_PCOD9061989
_publ_section_title
;
Structure prediction by ZEFSAII (Michael W. Deem and Ramdas Pophale) SiO2 
 PCOD9061989
Probable space group: P -1
;
_chemical_formula_sum "Si O2"
_cell_formula_units_Z 12
_cell_length_a 14.497523
_cell_length_b 8.010427
_cell_length_c 6.188723
_cell_angle_alpha 63.724144
_cell_angle_beta 51.881841
_cell_angle_gamma 57.719276
_cell_volume 471.089108
_symmetry_space_group_name_H-M "P -1"
_symmetry_group_IT_number 2
_symmetry_cell_setting 'triclinic'
loop_
_space_group_symop_operation_xyz
x,y,z
-x,-y,-z
loop_
_atom_site_type_symbol
_atom_site_label
_atom_site_fract_x
_atom_site_fract_y
_atom_site_fract_z
Si Si1 0.592570 0.568822 0.182614
Si Si2 0.944790 0.162042 0.678829
Si Si3 0.847175 0.882209 0.260450
Si Si4 0.297306 0.576637 0.316873
Si Si5 0.269516 0.275794 0.816198
Si Si6 0.638409 0.073364 0.786256
O O1 0.500000 0.500000 0.500000
O O2 0.723089 0.572253 0.092113
O O3 0.507985 0.798258 0.114930
O O4 0.621038 0.438076 0.003751
O O5 0.845974 0.355534 0.596367
O O6 0.051672 0.197554 0.647743
O O7 0.000000 0.000000 0.500000
O O8 0.872909 0.065331 0.003922
O O9 0.846373 0.736228 0.147411
O O10 0.712842 0.956833 0.535043
O O11 0.342007 0.360304 0.487474
O O12 0.303998 0.753579 0.353936
O O13 0.328721 0.062650 0.969150
#
# Coordination Sequence:
#
# PCOD9061989 Si02
#       6
#     2   2   2   2   2   2
#     4  12  27  46  72 105 143 189 233 288 350 416
#     4  11  23  46  77 102 139 187 232 290 355 412
#     4  11  24  45  75 104 138 189 230 287 356 409
#     4  12  26  46  74 103 141 183 240 288 348 419
#     4  12  27  44  73 106 143 185 237 284 352 415
#     4  12  25  48  71 104 146 184 234 289 349 414
#
# _framework density 25.472887
#
# number of rings (size 3 to 8) (size 9 to 14) (size 15 to 20)
#    0.000    0.333    5.000    3.000    0.000    2.000 
#    0.000    4.167    0.000    0.000    0.000    0.000 
#    0.000    0.000    0.000    0.000    0.000    0.000 
#
# Total GULP energy -67042.363272 kJ/mol
# GULP energy per Si atom -5586.863606 kJ/mol
# Density = 2.541491 g / cm^3
# Si number density = 25.472887 Si / 1000 Ang^3
#
#
#
# Elastic Constant Matrix: (Units=GPa)
#
#
# Indices 1 2 3 4 5 6 
#
# 1 174.1009 21.5402 -4.5442 0.9725 14.4768 20.5091
# 2 21.5402 69.3047 44.9982 -17.6896 11.3036 0.5722
# 3 -4.5442 44.9982 105.5365 -10.3613 15.4170 -17.8025
# 4 0.9725 -17.6896 -10.3613 47.5109 -0.0074 -3.1701
# 5 14.4768 11.3036 15.4170 -0.0074 30.2602 -4.8695
# 6 20.5091 0.5722 -17.8025 -3.1701 -4.8695 35.9759
#
#
#
# Elastic Compliance Matrix: (Units=1/GPa)
#
#
# Indices 1 2 3 4 5 6 
#
# 1 0.006842 -0.002531 0.001128 -0.001096 -0.003526 -0.003876
# 2 -0.002531 0.023770 -0.009732 0.006538 -0.003291 -0.003620
# 3 0.001128 -0.009732 0.015337 0.000139 -0.003653 0.006619
# 4 -0.001096 0.006538 0.000139 0.023699 -0.001587 0.002463
# 5 -0.003526 -0.003291 -0.003653 -0.001587 0.038685 0.005351
# 6 -0.003876 -0.003620 0.006619 0.002463 0.005351 0.034281
#
#
# Mechanical properties :
#
#
# Convention : Reuss Voigt Hill
#
# Bulk Modulus (GPa) = 42.23293 52.54782 47.39038
# Shear Modulus (GPa) = 28.93882 41.87926 35.40904
#
# Velocity S-wave (km/s) = 3.37421 4.05911 3.73241
# Velocity P-wave (km/s) = 5.63879 6.53010 6.10075
#
# Compressibility (1/GPa) = 0.02367820
#
# Stress axis : x y z
#
# Youngs Moduli (GPa) = 146.14781 42.07007 65.20034
#
# Poissons Ratio (x) = 0.10649 -0.07352
# Poissons Ratio (y) = 0.36994 0.63453
# Poissons Ratio (z) = -0.16479 0.40943
#
# Static dielectric constant tensor:
#      x y z
#    x 2.115340 -0.015680 0.006130 
#    y -0.015680 1.984980 -0.041430 
#    z 0.006130 -0.041430 1.989170 
# 
# From -- ./inp_files/27365.got.cif
#   From: 2010.05.17/outbox.cif.g08.bks.cpg/sg2_14_cif.got.tgz:27365.got - 2010.06.03 11:33:40.
