data_PCOD9061789
_publ_section_title
;
Structure prediction by ZEFSAII (Michael W. Deem and Ramdas Pophale) SiO2 
 PCOD9061789
Probable space group: P -1
;
_chemical_formula_sum "Si O2"
_cell_formula_units_Z 16
_cell_length_a 8.824788
_cell_length_b 13.546166
_cell_length_c 11.379564
_cell_angle_alpha 64.147910
_cell_angle_beta 69.148584
_cell_angle_gamma 121.532266
_cell_volume 676.504327
_symmetry_space_group_name_H-M "P -1"
_symmetry_group_IT_number 2
_symmetry_cell_setting 'triclinic'
loop_
_space_group_symop_operation_xyz
x,y,z
-x,-y,-z
loop_
_atom_site_type_symbol
_atom_site_label
_atom_site_fract_x
_atom_site_fract_y
_atom_site_fract_z
Si Si1 0.558903 0.785365 0.286136
Si Si2 0.141010 0.216760 0.939755
Si Si3 0.393071 0.111051 0.295416
Si Si4 0.115759 0.293919 0.467877
Si Si5 0.938055 0.346486 0.926506
Si Si6 0.243700 0.778399 0.212947
Si Si7 0.489267 0.386702 0.979409
Si Si8 0.499602 0.291255 0.388891
O O1 0.621619 0.705645 0.245571
O O2 0.352310 0.746236 0.289390
O O3 0.480769 0.727488 0.471248
O O4 0.853881 0.005210 0.096072
O O5 0.233894 0.248543 0.031466
O O6 0.087033 0.312800 0.882892
O O7 0.342524 0.120286 0.437835
O O8 0.665477 0.188012 0.160807
O O9 0.461525 0.261973 0.128639
O O10 0.139490 0.908356 0.416254
O O11 0.245010 0.453571 0.260531
O O12 0.345101 0.323958 0.405025
O O13 0.994647 0.282341 0.625398
O O14 0.844716 0.325402 0.831128
O O15 0.181397 0.542147 0.823583
O O16 0.500000 0.000000 0.000000
O O17 0.500000 0.500000 0.000000
#
# Coordination Sequence:
#
# PCOD9061789 Si02
#       8
#     2   2   2   2   2   2   2   2
#     4  11  26  43  73 105 137 194 239 299 363 434
#     4  11  23  46  70 105 142 183 242 299 361 429
#     4  12  26  50  73 106 152 194 238 303 365 434
#     4  12  26  47  77 108 144 199 242 298 367 438
#     4  12  25  47  74  99 149 186 233 311 363 422
#     4  12  25  48  71 107 145 189 245 303 372 428
#     4  12  26  45  75 110 148 190 246 298 364 438
#     4  12  27  45  71 107 142 189 247 295 362 434
#
# _framework density 23.650994000000001
#
# number of rings (size 3 to 8) (size 9 to 14) (size 15 to 20)
#    0.000    0.250    5.000    3.000    7.000    1.500 
#    0.000    1.250    0.000    0.000    0.000    0.000 
#    0.000    0.000    0.000    0.000    0.000    0.000 
#
# Total GULP energy -89582.651906 kJ/mol
# GULP energy per Si atom -5598.915744 kJ/mol
# Density = 2.359716 g / cm^3
# Si number density = 23.650994 Si / 1000 Ang^3
#
#
#
# Elastic Constant Matrix: (Units=GPa)
#
#
# Indices 1 2 3 4 5 6 
#
# 1 96.9937 29.9860 22.4837 14.9247 -15.6179 9.3358
# 2 29.9860 82.6902 2.0568 17.6993 -15.9783 -3.1139
# 3 22.4837 2.0568 87.5299 5.4023 -21.9856 -1.1564
# 4 14.9247 17.6993 5.4023 43.6701 5.6040 -4.7868
# 5 -15.6179 -15.9783 -21.9856 5.6040 38.5026 -2.3540
# 6 9.3358 -3.1139 -1.1564 -4.7868 -2.3540 28.9009
#
#
#
# Elastic Compliance Matrix: (Units=1/GPa)
#
#
# Indices 1 2 3 4 5 6 
#
# 1 0.013579 -0.003734 -0.002556 -0.003740 0.002720 -0.005289
# 2 -0.003734 0.016448 0.003064 -0.006524 0.008175 0.002686
# 3 -0.002556 0.003064 0.014512 -0.003116 0.009095 0.001961
# 4 -0.003740 -0.006524 -0.003116 0.028963 -0.009952 0.004367
# 5 0.002720 0.008175 0.009095 -0.009952 0.037217 0.001749
# 6 -0.005289 0.002686 0.001961 0.004367 0.001749 0.037543
#
#
# Mechanical properties :
#
#
# Convention : Reuss Voigt Hill
#
# Bulk Modulus (GPa) = 26.25507 41.80743 34.03125
# Shear Modulus (GPa) = 29.86689 36.39388 33.13038
#
# Velocity S-wave (km/s) = 3.55747 3.92700 3.74679
# Velocity P-wave (km/s) = 5.29143 6.18683 5.75657
#
# Compressibility (1/GPa) = 0.03808788
#
# Stress axis : x y z
#
# Youngs Moduli (GPa) = 73.64118 60.79664 68.90937
#
# Poissons Ratio (x) = 0.22699 0.17614
# Poissons Ratio (y) = 0.27495 -0.21114
# Poissons Ratio (z) = 0.18824 -0.18628
#
# Static dielectric constant tensor:
#      x y z
#    x 1.853200 -0.082050 0.086560 
#    y -0.082050 1.607420 0.335680 
#    z 0.086560 0.335680 1.478060 
# 
# From -- ./inp_files/205714.got.cif
#   From: 2010.05.17/outbox.cif.g08.bks.cpg/sg2_103_cif.got.tgz:205714.got - 2010.06.03 11:33:40.
