data_PCOD9061708
_publ_section_title
;
Structure prediction by ZEFSAII (Michael W. Deem and Ramdas Pophale) SiO2 
 PCOD9061708
Probable space group: P -1
;
_chemical_formula_sum "Si O2"
_cell_formula_units_Z 16
_cell_length_a 14.918854
_cell_length_b 13.149450
_cell_length_c 9.441698
_cell_angle_alpha 146.001752
_cell_angle_beta 47.243787
_cell_angle_gamma 115.074404
_cell_volume 715.532828
_symmetry_space_group_name_H-M "P -1"
_symmetry_group_IT_number 2
_symmetry_cell_setting 'triclinic'
loop_
_space_group_symop_operation_xyz
x,y,z
-x,-y,-z
loop_
_atom_site_type_symbol
_atom_site_label
_atom_site_fract_x
_atom_site_fract_y
_atom_site_fract_z
Si Si1 0.116304 0.019215 0.805914
Si Si2 0.378284 0.956485 0.146021
Si Si3 0.896133 0.896086 0.537144
Si Si4 0.693209 0.663570 0.159689
Si Si5 0.637532 0.328341 0.953023
Si Si6 0.962977 0.627108 0.904179
Si Si7 0.434785 0.222925 0.867685
Si Si8 0.818898 0.768572 0.763229
O O1 0.217037 0.822999 0.408197
O O2 0.049728 0.178421 0.942600
O O3 0.191863 0.107592 0.939689
O O4 0.000000 0.000000 0.000000
O O5 0.252096 0.990439 0.222147
O O6 0.334261 0.118295 0.505005
O O7 0.407750 0.748139 0.944303
O O8 0.500000 0.000000 0.000000
O O9 0.885093 0.850641 0.661674
O O10 0.935231 0.696672 0.176058
O O11 0.000000 0.000000 0.500000
O O12 0.634516 0.665564 0.070120
O O13 0.637444 0.544401 0.191089
O O14 0.847928 0.564837 0.889265
O O15 0.542221 0.302371 0.904094
O O16 0.093238 0.449816 0.550500
O O17 0.500000 0.000000 0.500000
O O18 0.325295 0.231222 0.111846
#
# Coordination Sequence:
#
# PCOD9061708 Si02
#       8
#     2   2   2   2   2   2   2   2
#     4  12  23  40  70 100 130 177 226 278 340 412
#     4  11  24  47  71  94 139 188 232 281 344 413
#     4  11  25  45  65 101 136 179 230 287 342 404
#     4  11  24  43  71  99 137 178 229 287 338 408
#     4  12  24  44  70  98 138 178 228 284 342 409
#     4  11  23  46  65 101 139 177 227 284 346 405
#     4  12  22  45  66 101 142 174 223 283 346 401
#     4  12  24  40  71  95 138 181 220 282 346 405
#
# _framework density 22.360958
#
# number of rings (size 3 to 8) (size 9 to 14) (size 15 to 20)
#    0.000    0.500    6.250    3.375    3.500    0.500 
#    2.250    0.000    0.000    0.000    0.000    0.000 
#    0.000    0.000    0.000    0.000    0.000    0.000 
#
# Total GULP energy -89466.931614 kJ/mol
# GULP energy per Si atom -5591.683226 kJ/mol
# Density = 2.231006 g / cm^3
# Si number density = 22.360958 Si / 1000 Ang^3
#
#
#
# Elastic Constant Matrix: (Units=GPa)
#
#
# Indices 1 2 3 4 5 6 
#
# 1 82.7226 26.7989 15.6412 0.7218 -22.3992 1.2012
# 2 26.7989 148.5506 22.8973 -7.5282 -14.5930 5.4095
# 3 15.6412 22.8973 49.2505 -8.7826 -17.3583 -5.1186
# 4 0.7218 -7.5282 -8.7826 35.4126 7.5982 1.3367
# 5 -22.3992 -14.5930 -17.3583 7.5982 31.2395 -15.5563
# 6 1.2012 5.4095 -5.1186 1.3367 -15.5563 35.0061
#
#
#
# Elastic Compliance Matrix: (Units=1/GPa)
#
#
# Indices 1 2 3 4 5 6 
#
# 1 0.016999 -0.002147 0.001601 -0.004334 0.016955 0.007683
# 2 -0.002147 0.007652 -0.003294 0.001182 -0.001153 -0.002148
# 3 0.001601 -0.003294 0.032180 0.001188 0.025360 0.016384
# 4 -0.004334 0.001182 0.001188 0.031945 -0.013102 -0.006902
# 5 0.016955 -0.001153 0.025360 -0.013102 0.080648 0.039644
# 6 0.007683 -0.002148 0.016384 -0.006902 0.039644 0.048911
#
#
# Mechanical properties :
#
#
# Convention : Reuss Voigt Hill
#
# Bulk Modulus (GPa) = 20.34598 45.68870 33.01734
# Shear Modulus (GPa) = 20.62720 34.67737 27.65228
#
# Velocity S-wave (km/s) = 3.04051 3.94229 3.52039
# Velocity P-wave (km/s) = 4.63086 6.41864 5.59660
#
# Compressibility (1/GPa) = 0.04914976
#
# Stress axis : x y z
#
# Youngs Moduli (GPa) = 58.82833 130.68980 31.07512
#
# Poissons Ratio (x) = 0.28062 -0.04975
# Poissons Ratio (y) = 0.12632 0.10237
# Poissons Ratio (z) = -0.09419 0.43051
#
# Static dielectric constant tensor:
#      x y z
#    x 1.855630 0.011060 -0.004590 
#    y 0.011060 1.867140 -0.041200 
#    z -0.004590 -0.041200 1.799340 
# 
# From -- ./inp_files/308671.got.cif
#   From: 2010.05.17/outbox.cif.g08.bks.cpg/sg2_155_cif.got.tgz:308671.got - 2010.06.03 11:33:40.
