data_PCOD9061022
_publ_section_title
;
Structure prediction by ZEFSAII (Michael W. Deem and Ramdas Pophale) SiO2 
 PCOD9061022
Probable space group: P -1
;
_chemical_formula_sum "Si O2"
_cell_formula_units_Z 16
_cell_length_a 11.886920
_cell_length_b 8.338729
_cell_length_c 11.968825
_cell_angle_alpha 119.437294
_cell_angle_beta 91.322204
_cell_angle_gamma 120.850524
_cell_volume 824.787845
_symmetry_space_group_name_H-M "P -1"
_symmetry_group_IT_number 2
_symmetry_cell_setting 'triclinic'
loop_
_space_group_symop_operation_xyz
x,y,z
-x,-y,-z
loop_
_atom_site_type_symbol
_atom_site_label
_atom_site_fract_x
_atom_site_fract_y
_atom_site_fract_z
Si Si1 0.464602 0.505206 0.349307
Si Si2 0.650788 0.059518 0.162749
Si Si3 0.056166 0.741805 0.241747
Si Si4 0.806096 0.436154 0.962435
Si Si5 0.250672 0.293448 0.445864
Si Si6 0.543356 0.392812 0.871815
Si Si7 0.597592 0.932377 0.886439
Si Si8 0.075843 0.469441 0.594092
O O1 0.341938 0.477872 0.410317
O O2 0.620108 0.653134 0.455831
O O3 0.474992 0.573185 0.245098
O O4 0.405811 0.238944 0.255602
O O5 0.561023 0.146162 0.146603
O O6 0.803578 0.272190 0.272406
O O7 0.560512 0.880732 0.197520
O O8 0.644727 0.921427 0.007501
O O9 0.126388 0.624363 0.153400
O O10 0.017172 0.672469 0.347260
O O11 0.151269 0.018813 0.325594
O O12 0.919170 0.624380 0.117756
O O13 0.703766 0.490281 0.930495
O O14 0.704089 0.194996 0.942760
O O15 0.154365 0.359297 0.518836
O O16 0.500000 0.500000 0.000000
O O17 0.000000 0.500000 0.500000
#
# Coordination Sequence:
#
# PCOD9061022 Si02
#       8
#     2   2   2   2   2   2   2   2
#     4  11  23  42  67  93 124 162 216 266 312 364
#     4  10  21  38  63  94 122 162 212 262 309 362
#     4  11  24  45  67  89 130 172 210 254 311 388
#     4  10  23  42  68  98 121 164 214 264 318 365
#     4  11  26  45  64  90 127 176 212 251 315 382
#     4  11  24  37  68 101 127 153 209 279 319 352
#     4  10  17  40  68  87 122 159 214 268 303 366
#     4  12  27  42  62  91 133 175 208 249 313 389
#
# _framework density 19.398927
#
# number of rings (size 3 to 8) (size 9 to 14) (size 15 to 20)
#    0.000    1.250    5.000    0.375    5.250    1.000 
#    0.000    1.875    0.000    0.000    0.000    0.000 
#    0.000    0.000    0.000    0.000    0.000    0.000 
#
# Total GULP energy -89203.395135 kJ/mol
# GULP energy per Si atom -5575.212196 kJ/mol
# Density = 1.935477 g / cm^3
# Si number density = 19.398927 Si / 1000 Ang^3
#
#
#
# Elastic Constant Matrix: (Units=GPa)
#
#
# Indices 1 2 3 4 5 6 
#
# 1 79.2388 26.2243 38.4102 -9.3684 5.5039 12.6725
# 2 26.2243 93.2786 50.2722 -14.6711 14.0142 9.7419
# 3 38.4102 50.2722 110.0862 -0.0306 21.5586 2.5868
# 4 -9.3684 -14.6711 -0.0306 43.7414 8.2468 -2.8973
# 5 5.5039 14.0142 21.5586 8.2468 31.7980 -2.1363
# 6 12.6725 9.7419 2.5868 -2.8973 -2.1363 23.7479
#
#
#
# Elastic Compliance Matrix: (Units=1/GPa)
#
#
# Indices 1 2 3 4 5 6 
#
# 1 0.017102 -0.000487 -0.005488 0.003032 -0.000348 -0.007990
# 2 -0.000487 0.016484 -0.006278 0.005967 -0.004843 -0.005526
# 3 -0.005488 -0.006278 0.014899 -0.001997 -0.005657 0.003129
# 4 0.003032 0.005967 -0.001997 0.027104 -0.008921 -0.001344
# 5 -0.000348 -0.004843 -0.005657 -0.008921 0.040149 0.005312
# 6 -0.007990 -0.005526 0.003129 -0.001344 0.005312 0.048613
#
#
# Mechanical properties :
#
#
# Convention : Reuss Voigt Hill
#
# Bulk Modulus (GPa) = 41.70108 56.93522 49.31815
# Shear Modulus (GPa) = 25.40011 31.03726 28.21869
#
# Velocity S-wave (km/s) = 3.62243 4.00427 3.81813
# Velocity P-wave (km/s) = 6.24814 7.12687 6.70192
#
# Compressibility (1/GPa) = 0.02398019
#
# Stress axis : x y z
#
# Youngs Moduli (GPa) = 58.47301 60.66396 67.11761
#
# Poissons Ratio (x) = 0.02952 0.36835
# Poissons Ratio (y) = 0.02845 0.42136
# Poissons Ratio (z) = 0.32091 0.38085
#
# Static dielectric constant tensor:
#      x y z
#    x 1.719760 0.014640 -0.046600 
#    y 0.014640 1.708230 -0.033980 
#    z -0.046600 -0.033980 1.704110 
# 
# From -- ./inp_files/417764.got.cif
#   From: 2010.05.17/outbox.cif.g08.bks.cpg/sg2_209_cif.got.tgz:417764.got - 2010.06.03 11:33:40.
