data_PCOD9061130
_publ_section_title
;
Structure prediction by ZEFSAII (Michael W. Deem and Ramdas Pophale) SiO2 
 PCOD9061130
Probable space group: P -1
;
_chemical_formula_sum "Si O2"
_cell_formula_units_Z 16
_cell_length_a 15.074168
_cell_length_b 8.837703
_cell_length_c 12.584516
_cell_angle_alpha 52.014363
_cell_angle_beta 47.852433
_cell_angle_gamma 40.420468
_cell_volume 786.646813
_symmetry_space_group_name_H-M "P -1"
_symmetry_group_IT_number 2
_symmetry_cell_setting 'triclinic'
loop_
_space_group_symop_operation_xyz
x,y,z
-x,-y,-z
loop_
_atom_site_type_symbol
_atom_site_label
_atom_site_fract_x
_atom_site_fract_y
_atom_site_fract_z
Si Si1 0.672259 0.004975 0.391856
Si Si2 0.354620 0.314432 0.608722
Si Si3 0.054083 0.231339 0.077419
Si Si4 0.365434 0.080154 0.916259
Si Si5 0.309071 0.305444 0.100062
Si Si6 0.851761 0.203316 0.089185
Si Si7 0.144679 0.253038 0.445221
Si Si8 0.913297 0.128126 0.408426
O O1 0.505200 0.224336 0.463806
O O2 0.762981 0.107504 0.245577
O O3 0.689831 0.837227 0.353862
O O4 0.734014 0.843545 0.517552
O O5 0.378266 0.232158 0.748943
O O6 0.233779 0.599665 0.577123
O O7 0.926482 0.253885 0.100258
O O8 0.028702 0.148914 0.242820
O O9 0.232137 0.069832 0.985501
O O10 0.000000 0.500000 0.000000
O O11 0.529666 0.839595 0.910210
O O12 0.320241 0.197390 0.020362
O O13 0.201457 0.292355 0.272555
O O14 0.245487 0.574879 0.007390
O O15 0.000000 0.000000 0.000000
O O16 0.000000 0.500000 0.500000
O O17 0.120209 0.047833 0.539630
O O18 0.000000 0.000000 0.500000
#
# Coordination Sequence:
#
# PCOD9061130 Si02
#       8
#     2   2   2   2   2   2   2   2
#     4  11  25  45  72 105 139 192 235 296 370 423
#     4  11  24  48  73 100 147 187 240 300 362 432
#     4  12  23  43  68 100 139 181 233 286 352 423
#     4  11  23  44  73 102 143 185 237 297 357 429
#     4  11  25  44  72 106 143 187 236 300 363 422
#     4  12  25  44  70 104 139 189 235 286 356 432
#     4  12  25  46  70 106 147 181 239 301 362 425
#     4  12  26  42  71 105 135 189 237 292 355 432
#
# _framework density 20.339497000000001
#
# number of rings (size 3 to 8) (size 9 to 14) (size 15 to 20)
#    0.000    0.500    5.000    3.000    0.000    3.500 
#    0.000    2.500    0.000    0.000    0.000    0.000 
#    0.000    0.000    0.000    0.000    0.000    0.000 
#
# Total GULP energy -89302.057308 kJ/mol
# GULP energy per Si atom -5581.378582 kJ/mol
# Density = 2.029320 g / cm^3
# Si number density = 20.339497 Si / 1000 Ang^3
#
#
#
# Elastic Constant Matrix: (Units=GPa)
#
#
# Indices 1 2 3 4 5 6 
#
# 1 97.3196 49.4609 57.7224 -1.9269 -8.1542 -10.9795
# 2 49.4609 156.8765 65.9972 -1.8450 -4.0890 -18.0005
# 3 57.7224 65.9972 160.8721 -9.0475 5.1338 7.5285
# 4 -1.9269 -1.8450 -9.0475 26.1947 -10.1373 8.6346
# 5 -8.1542 -4.0890 5.1338 -10.1373 44.1463 -6.5622
# 6 -10.9795 -18.0005 7.5285 8.6346 -6.5622 33.1589
#
#
#
# Elastic Compliance Matrix: (Units=1/GPa)
#
#
# Indices 1 2 3 4 5 6 
#
# 1 0.015344 -0.001792 -0.005278 -0.001434 0.003912 0.006454
# 2 -0.001792 0.009128 -0.003547 -0.002181 0.001318 0.005996
# 3 -0.005278 -0.003547 0.010256 0.004418 -0.002622 -0.007672
# 4 -0.001434 -0.002181 0.004418 0.046851 0.007798 -0.013319
# 5 0.003912 0.001318 -0.002622 0.007798 0.026456 0.005811
# 6 0.006454 0.005996 -0.007672 -0.013319 0.005811 0.041910
#
#
# Mechanical properties :
#
#
# Convention : Reuss Voigt Hill
#
# Bulk Modulus (GPa) = 74.10301 84.60323 79.35312
# Shear Modulus (GPa) = 28.46117 36.82582 32.64349
#
# Velocity S-wave (km/s) = 3.74479 4.25968 4.01051
# Velocity P-wave (km/s) = 7.43035 8.11659 7.78104
#
# Compressibility (1/GPa) = 0.01349473
#
# Stress axis : x y z
#
# Youngs Moduli (GPa) = 65.17164 109.54850 97.49988
#
# Poissons Ratio (x) = 0.19627 0.51462
# Poissons Ratio (y) = 0.11676 0.34586
# Poissons Ratio (z) = 0.34398 0.38861
#
# Static dielectric constant tensor:
#      x y z
#    x 1.759570 0.004970 -0.020980 
#    y 0.004970 1.731230 0.025070 
#    z -0.020980 0.025070 1.674660 
# 
# From -- ./inp_files/298635.got.cif
#   From: 2010.05.17/outbox.cif.g08.bks.cpg/sg2_150_cif.got.tgz:298635.got - 2010.06.03 11:33:40.
