data_PCOD9061881
_publ_section_title
;
Structure prediction by ZEFSAII (Michael W. Deem and Ramdas Pophale) SiO2 
 PCOD9061881
Probable space group: P -1
;
_chemical_formula_sum "Si O2"
_cell_formula_units_Z 16
_cell_length_a 8.060797
_cell_length_b 11.166712
_cell_length_c 10.156704
_cell_angle_alpha 125.104831
_cell_angle_beta 96.533058
_cell_angle_gamma 63.629879
_cell_volume 657.473483
_symmetry_space_group_name_H-M "P -1"
_symmetry_group_IT_number 2
_symmetry_cell_setting 'triclinic'
loop_
_space_group_symop_operation_xyz
x,y,z
-x,-y,-z
loop_
_atom_site_type_symbol
_atom_site_label
_atom_site_fract_x
_atom_site_fract_y
_atom_site_fract_z
Si Si1 0.603195 0.355929 0.524030
Si Si2 0.556044 0.053740 0.259634
Si Si3 0.557805 0.650447 0.871692
Si Si4 0.859940 0.207415 0.998284
Si Si5 0.296133 0.145485 0.606109
Si Si6 0.250473 0.138508 0.099548
Si Si7 0.200257 0.459773 0.926067
Si Si8 0.012647 0.065544 0.393142
O O1 0.500000 0.500000 0.500000
O O2 0.514013 0.230160 0.428507
O O3 0.599687 0.465337 0.717218
O O4 0.818436 0.222489 0.435949
O O5 0.356247 0.068236 0.203024
O O6 0.706215 0.913359 0.280651
O O7 0.661503 0.997293 0.093954
O O8 0.681964 0.721371 0.846257
O O9 0.331217 0.759469 0.922002
O O10 0.633599 0.634593 0.015433
O O11 0.925177 0.066257 0.802536
O O12 0.808281 0.372732 0.016272
O O13 0.030160 0.188162 0.099210
O O14 0.248621 0.333812 0.730619
O O15 0.160760 0.129448 0.479907
O O16 0.500000 0.000000 0.500000
O O17 0.000000 0.500000 0.000000
O O18 0.000000 0.000000 0.500000
#
# Coordination Sequence:
#
# PCOD9061881 Si02
#       8
#     2   2   2   2   2   2   2   2
#     4  12  25  45  70 108 142 193 239 301 372 436
#     4  11  23  46  72  97 143 195 235 290 372 431
#     4  12  25  43  71 108 143 186 246 302 363 433
#     4  12  26  45  72 112 139 191 246 304 362 439
#     4  12  26  43  70 110 142 183 242 308 362 428
#     4  11  23  48  73  97 144 195 236 291 363 442
#     4  12  23  43  71 102 144 192 240 290 368 433
#     4  12  24  46  74 102 145 191 241 300 369 436
#
# _framework density 24.335581000000001
#
# number of rings (size 3 to 8) (size 9 to 14) (size 15 to 20)
#    0.000    0.250    6.250    3.375    1.750    0.000 
#    2.250    3.750    0.000    0.000    0.000    0.000 
#    0.000    0.000    0.000    0.000    0.000    0.000 
#
# Total GULP energy -89398.792255 kJ/mol
# GULP energy per Si atom -5587.424516 kJ/mol
# Density = 2.428019 g / cm^3
# Si number density = 24.335581 Si / 1000 Ang^3
#
#
#
# Elastic Constant Matrix: (Units=GPa)
#
#
# Indices 1 2 3 4 5 6 
#
# 1 125.1830 43.9694 67.5161 2.0119 15.4530 -31.2315
# 2 43.9694 107.5724 14.9005 9.7393 6.2989 -22.7061
# 3 67.5161 14.9005 176.0706 35.9430 26.8523 -5.4032
# 4 2.0119 9.7393 35.9430 45.3415 -4.4450 6.1675
# 5 15.4530 6.2989 26.8523 -4.4450 42.6010 -2.9493
# 6 -31.2315 -22.7061 -5.4032 6.1675 -2.9493 56.9601
#
#
#
# Elastic Compliance Matrix: (Units=1/GPa)
#
#
# Indices 1 2 3 4 5 6 
#
# 1 0.013551 -0.004111 -0.005496 0.003972 -0.000094 0.004835
# 2 -0.004111 0.011858 0.001810 -0.004374 -0.001650 0.003033
# 3 -0.005496 0.001810 0.010272 -0.008757 -0.005708 -0.000665
# 4 0.003972 -0.004374 -0.008757 0.030973 0.007725 -0.003350
# 5 -0.000094 -0.001650 -0.005708 0.007725 0.028112 -0.000631
# 6 0.004835 0.003033 -0.000665 -0.003350 -0.000631 0.021683
#
#
# Mechanical properties :
#
#
# Convention : Reuss Voigt Hill
#
# Bulk Modulus (GPa) = 49.78347 73.51091 61.64719
# Shear Modulus (GPa) = 36.03914 47.80985 41.92449
#
# Velocity S-wave (km/s) = 3.85245 4.43720 4.15512
# Velocity P-wave (km/s) = 6.34744 7.51827 6.95753
#
# Compressibility (1/GPa) = 0.02008699
#
# Stress axis : x y z
#
# Youngs Moduli (GPa) = 73.79724 84.32804 97.35495
#
# Poissons Ratio (x) = 0.34667 0.53510
# Poissons Ratio (y) = 0.30338 -0.17626
# Poissons Ratio (z) = 0.40562 -0.15268
#
# Static dielectric constant tensor:
#      x y z
#    x 2.097190 0.053520 0.003450 
#    y 0.053520 2.008830 -0.065630 
#    z 0.003450 -0.065630 1.993980 
# 
# From -- ./inp_files/399828.got.cif
#   From: 2010.05.17/outbox.cif.g08.bks.cpg/sg2_200_cif.got.tgz:399828.got - 2010.06.03 11:33:40.
