data_PCOD9061693
_publ_section_title
;
Structure prediction by ZEFSAII (Michael W. Deem and Ramdas Pophale) SiO2 
 PCOD9061693
Probable space group: P -1
;
_chemical_formula_sum "Si O2"
_cell_formula_units_Z 14
_cell_length_a 7.077339
_cell_length_b 14.693817
_cell_length_c 7.202017
_cell_angle_alpha 105.963217
_cell_angle_beta 118.795726
_cell_angle_gamma 55.026530
_cell_volume 537.820637
_symmetry_space_group_name_H-M "P -1"
_symmetry_group_IT_number 2
_symmetry_cell_setting 'triclinic'
loop_
_space_group_symop_operation_xyz
x,y,z
-x,-y,-z
loop_
_atom_site_type_symbol
_atom_site_label
_atom_site_fract_x
_atom_site_fract_y
_atom_site_fract_z
Si Si1 0.287818 0.739805 0.634841
Si Si2 0.147130 0.286537 0.742919
Si Si3 0.976843 0.008627 0.215871
Si Si4 0.158671 0.483698 0.749844
Si Si5 0.280289 0.659767 0.986603
Si Si6 0.211365 0.136837 0.006650
Si Si7 0.481189 0.174214 0.473896
O O1 0.359731 0.672106 0.822872
O O2 0.492525 0.739281 0.595829
O O3 0.113195 0.707057 0.421419
O O4 0.122184 0.868673 0.691281
O O5 0.103726 0.407778 0.814958
O O6 0.279315 0.201574 0.926181
O O7 0.319909 0.233979 0.613078
O O8 0.242572 0.924621 0.390689
O O9 0.776299 0.969843 0.135490
O O10 0.000000 0.000000 0.000000
O O11 0.122924 0.598361 0.868551
O O12 0.000000 0.500000 0.500000
O O13 0.462289 0.412436 0.820436
O O14 0.910876 0.220671 0.952900
O O15 0.342289 0.126647 0.258398
#
# Coordination Sequence:
#
# PCOD9061693 Si02
#       7
#     2   2   2   2   2   2   2
#     4  12  25  49  71 108 151 189 248 301 350 439
#     4  12  26  48  76 107 146 194 244 292 373 427
#     4  12  26  46  73 109 149 193 244 300 358 426
#     4  11  23  45  78 107 143 188 240 298 370 427
#     4  11  24  48  74 109 146 184 246 304 352 439
#     4  12  26  48  75 106 148 197 237 298 369 423
#     4  12  27  48  73 106 153 191 246 298 351 440
#
# _framework density 26.030981000000001
#
# number of rings (size 3 to 8) (size 9 to 14) (size 15 to 20)
#    0.000    0.286    5.714    2.143    2.000    3.429 
#    0.000    4.286    0.000    0.000    0.000    0.000 
#    0.000    0.000    0.000    0.000    0.000    0.000 
#
# Total GULP energy -78592.971495 kJ/mol
# GULP energy per Si atom -5613.783678 kJ/mol
# Density = 2.597173 g / cm^3
# Si number density = 26.030981 Si / 1000 Ang^3
#
#
#
# Elastic Constant Matrix: (Units=GPa)
#
#
# Indices 1 2 3 4 5 6 
#
# 1 105.9567 13.2856 32.1956 -9.9384 -8.5831 14.8234
# 2 13.2856 102.8528 42.2549 4.0046 13.3498 31.3213
# 3 32.1956 42.2549 143.6191 -18.2506 16.6799 6.1385
# 4 -9.9384 4.0046 -18.2506 40.9562 12.5863 2.1557
# 5 -8.5831 13.3498 16.6799 12.5863 57.0093 3.4669
# 6 14.8234 31.3213 6.1385 2.1557 3.4669 46.5289
#
#
#
# Elastic Compliance Matrix: (Units=1/GPa)
#
#
# Indices 1 2 3 4 5 6 
#
# 1 0.010954 0.000413 -0.002569 0.000953 0.002315 -0.003645
# 2 0.000413 0.014336 -0.004101 -0.002336 -0.001029 -0.009056
# 3 -0.002569 -0.004101 0.009698 0.005059 -0.003522 0.002328
# 4 0.000953 -0.002336 0.005059 0.029373 -0.007261 -0.000218
# 5 0.002315 -0.001029 -0.003522 -0.007261 0.020812 -0.000795
# 6 -0.003645 -0.009056 0.002328 -0.000218 -0.000795 0.028512
#
#
# Mechanical properties :
#
#
# Convention : Reuss Voigt Hill
#
# Bulk Modulus (GPa) = 44.49581 58.65566 51.57573
# Shear Modulus (GPa) = 37.39979 46.54506 41.97242
#
# Velocity S-wave (km/s) = 3.79455 4.23314 4.01983
# Velocity P-wave (km/s) = 6.02733 6.81722 6.43441
#
# Compressibility (1/GPa) = 0.02247403
#
# Stress axis : x y z
#
# Youngs Moduli (GPa) = 91.29436 69.75248 103.11641
#
# Poissons Ratio (x) = -0.02881 0.26490
# Poissons Ratio (y) = -0.03771 0.42287
# Poissons Ratio (z) = 0.23453 0.28605
#
# Static dielectric constant tensor:
#      x y z
#    x 2.077890 0.022360 0.015540 
#    y 0.022360 2.073680 -0.008400 
#    z 0.015540 -0.008400 1.994290 
# 
# From -- ./inp_files/210821.got.cif
#   From: 2010.05.17/outbox.cif.g08.bks.cpg/sg2_106_cif.got.tgz:210821.got - 2010.06.03 11:33:40.
