data_PCOD9061491
_publ_section_title
;
Structure prediction by ZEFSAII (Michael W. Deem and Ramdas Pophale) SiO2 
 PCOD9061491
Probable space group: P -1
;
_chemical_formula_sum "Si O2"
_cell_formula_units_Z 13
_cell_length_a 12.219766
_cell_length_b 7.571090
_cell_length_c 6.561050
_cell_angle_alpha 114.840768
_cell_angle_beta 119.780862
_cell_angle_gamma 84.525819
_cell_volume 473.128797
_symmetry_space_group_name_H-M "P -1"
_symmetry_group_IT_number 2
_symmetry_cell_setting 'triclinic'
loop_
_space_group_symop_operation_xyz
x,y,z
-x,-y,-z
loop_
_atom_site_type_symbol
_atom_site_label
_atom_site_fract_x
_atom_site_fract_y
_atom_site_fract_z
Si Si1 0.969320 0.194842 0.895583
Si Si2 0.470253 0.279862 0.773666
Si Si3 0.353656 0.433645 0.379423
Si Si4 0.000000 0.000000 0.500000
Si Si5 0.746871 0.206325 0.990536
Si Si6 0.285329 0.118530 0.850438
Si Si7 0.868763 0.426323 0.570949
O O1 0.951057 0.265782 0.668785
O O2 0.834419 0.166514 0.863952
O O3 0.039031 0.017388 0.801457
O O4 0.058121 0.366258 0.180951
O O5 0.364300 0.285157 0.504548
O O6 0.403630 0.136916 0.815448
O O7 0.500000 0.500000 0.000000
O O8 0.607094 0.240371 0.802740
O O9 0.500000 0.500000 0.500000
O O10 0.267964 0.590797 0.453114
O O11 0.293168 0.324569 0.074943
O O12 0.852377 0.913719 0.391453
O O13 0.832602 0.385762 0.283916
O O14 0.709551 0.048352 0.057920
#
# Coordination Sequence:
#
# PCOD9061491 Si02
#       7
#     2   2   2   1   2   2   2
#     4  11  26  45  74 106 147 195 247 301 363 448
#     4  12  26  46  76 107 144 196 248 299 358 444
#     4  12  24  44  74 106 144 195 244 299 363 432
#     4  12  26  50  70 108 148 192 242 302 374 432
#     4  12  26  47  73 111 147 193 242 306 374 426
#     4  12  28  47  71 110 153 190 243 307 365 435
#     4  11  23  45  71 110 145 190 247 304 361 438
#
# _framework density 27.476664
#
# number of rings (size 3 to 8) (size 9 to 14) (size 15 to 20)
#    0.000    0.308    6.154    1.846    2.154    2.462 
#    0.000    0.000    0.000    0.000    0.000    0.000 
#    0.000    0.000    0.000    0.000    0.000    0.000 
#
# Total GULP energy -72678.694867 kJ/mol
# GULP energy per Si atom -5590.668836 kJ/mol
# Density = 2.741413 g / cm^3
# Si number density = 27.476664 Si / 1000 Ang^3
#
#
#
# Elastic Constant Matrix: (Units=GPa)
#
#
# Indices 1 2 3 4 5 6 
#
# 1 224.4726 30.4224 45.5033 5.2397 -12.1652 10.6264
# 2 30.4224 69.5190 19.2095 -8.9941 6.3109 9.6931
# 3 45.5033 19.2095 131.7883 16.5345 -2.0965 3.8940
# 4 5.2397 -8.9941 16.5345 52.8929 -7.5760 10.2803
# 5 -12.1652 6.3109 -2.0965 -7.5760 54.1335 -1.6540
# 6 10.6264 9.6931 3.8940 10.2803 -1.6540 35.6342
#
#
#
# Elastic Compliance Matrix: (Units=1/GPa)
#
#
# Indices 1 2 3 4 5 6 
#
# 1 0.005106 -0.001843 -0.001447 -0.000029 0.001278 -0.000795
# 2 -0.001843 0.017369 -0.002349 0.004616 -0.002047 -0.005345
# 3 -0.001447 -0.002349 0.008802 -0.003227 -0.000130 0.001033
# 4 -0.000029 0.004616 -0.003227 0.022436 0.002248 -0.007263
# 5 0.001278 -0.002047 -0.000130 0.002248 0.019322 0.000438
# 6 -0.000795 -0.005345 0.001033 -0.007263 0.000438 0.031757
#
#
# Mechanical properties :
#
#
# Convention : Reuss Voigt Hill
#
# Bulk Modulus (GPa) = 50.00430 68.45003 59.22716
# Shear Modulus (GPa) = 40.73816 50.57507 45.65662
#
# Velocity S-wave (km/s) = 3.85469 4.29494 4.08076
# Velocity P-wave (km/s) = 6.16846 7.03999 6.61859
#
# Compressibility (1/GPa) = 0.01999828
#
# Stress axis : x y z
#
# Youngs Moduli (GPa) = 195.86504 57.57506 113.60968
#
# Poissons Ratio (x) = 0.10614 0.16435
# Poissons Ratio (y) = 0.36107 0.26686
# Poissons Ratio (z) = 0.28334 0.13524
#
# Static dielectric constant tensor:
#      x y z
#    x 6.726360 -6.265750 -4.036960 
#    y -6.265750 10.832600 5.441820 
#    z -4.036960 5.441820 5.747970 
# 
# From -- ./inp_files/61236.got.cif
#   From: 2010.05.17/outbox.cif.g08.bks.cpg/sg2_31_cif.got.tgz:61236.got - 2010.06.03 11:33:40.
