data_PCOD9061982
_publ_section_title
;
Structure prediction by ZEFSAII (Michael W. Deem and Ramdas Pophale) SiO2 
 PCOD9061982
Probable space group: P -1
;
_chemical_formula_sum "Si O2"
_cell_formula_units_Z 10
_cell_length_a 10.326183
_cell_length_b 15.550413
_cell_length_c 9.947080
_cell_angle_alpha 35.003017
_cell_angle_beta 135.510644
_cell_angle_gamma 155.099836
_cell_volume 382.857388
_symmetry_space_group_name_H-M "P -1"
_symmetry_group_IT_number 2
_symmetry_cell_setting 'triclinic'
loop_
_space_group_symop_operation_xyz
x,y,z
-x,-y,-z
loop_
_atom_site_type_symbol
_atom_site_label
_atom_site_fract_x
_atom_site_fract_y
_atom_site_fract_z
Si Si1 0.697419 0.673800 0.566733
Si Si2 0.780376 0.150505 0.830717
Si Si3 0.833269 0.473595 0.600421
Si Si4 0.710136 0.339721 0.082240
Si Si5 0.210114 0.208232 0.215937
O O1 0.381087 0.551989 0.437081
O O2 0.716837 0.765871 0.608545
O O3 0.635580 0.465515 0.842433
O O4 0.023580 0.926166 0.407712
O O5 0.668476 0.216269 0.753170
O O6 0.055584 0.378088 0.643966
O O7 0.549167 0.927866 0.837720
O O8 0.922303 0.125640 0.070899
O O9 0.149503 0.620009 0.721832
O O10 0.000000 0.500000 0.000000
O O11 0.500000 0.500000 0.000000
#
# Coordination Sequence:
#
# PCOD9061982 Si02
#       5
#     2   2   2   2   2
#     4  11  26  46  75 106 145 192 240 296 362 431
#     4  11  25  46  76 106 148 190 241 302 359 427
#     4  11  25  49  74 107 145 194 241 295 363 430
#     4  12  28  46  69 110 147 188 244 301 354 432
#     4  11  23  46  76 107 141 192 242 295 362 429
#
# _framework density 26.119385000000001
#
# number of rings (size 3 to 8) (size 9 to 14) (size 15 to 20)
#    0.000    0.800    4.000    1.800    5.600    5.600 
#    3.600    0.000    0.000    0.000    0.000    0.000 
#    0.000    0.000    0.000    0.000    0.000    0.000 
#
# Total GULP energy -55677.055100 kJ/mol
# GULP energy per Si atom -5567.705510 kJ/mol
# Density = 2.605994 g / cm^3
# Si number density = 26.119385 Si / 1000 Ang^3
#
#
#
# Elastic Constant Matrix: (Units=GPa)
#
#
# Indices 1 2 3 4 5 6 
#
# 1 -20.2137 49.3250 -39.1104 19.3046 25.5817 26.4731
# 2 49.3250 119.1118 93.8958 -10.4685 12.5444 -16.0443
# 3 -39.1104 93.8958 83.3023 15.3718 15.9463 20.4235
# 4 19.3046 -10.4685 15.3718 69.1857 -0.7060 -10.0562
# 5 25.5817 12.5444 15.9463 -0.7060 57.1572 -6.9496
# 6 26.4731 -16.0443 20.4235 -10.0562 -6.9496 28.8935
#
#
#
# Elastic Compliance Matrix: (Units=1/GPa)
#
#
# Indices 1 2 3 4 5 6 
#
# 1 0.003782 0.007596 -0.009752 0.003576 0.000500 0.009011
# 2 0.007596 0.006594 -0.001825 -0.001290 -0.004793 -0.003610
# 3 -0.009752 -0.001825 0.007786 0.001268 0.003045 0.003591
# 4 0.003576 -0.001290 0.001268 0.012846 -0.001610 -0.000805
# 5 0.000500 -0.004793 0.003045 -0.001610 0.017249 -0.001684
# 6 0.009011 -0.003610 0.003591 -0.000805 -0.001684 0.021126
#
#
# Mechanical properties :
#
#
# Convention : Reuss Voigt Hill
#
# Bulk Modulus (GPa) = 98.03026 43.38014 70.70520
# Shear Modulus (GPa) = 61.92397 36.25328 49.08862
#
# Velocity S-wave (km/s) = 4.87437 3.72961 4.33990
# Velocity P-wave (km/s) = 8.32421 5.93221 7.22785
#
# Compressibility (1/GPa) = 0.01020093
#
# Stress axis : x y z
#
# Youngs Moduli (GPa) = 264.41476 151.65873 128.43205
#
# Poissons Ratio (x) = -1.15205 1.25241
# Poissons Ratio (y) = -2.00858 0.23442
# Poissons Ratio (z) = 2.57845 0.27682
#
# Static dielectric constant tensor:
#      x y z
#    x 2.068630 -0.015390 0.022410 
#    y -0.015390 2.115950 0.141110 
#    z 0.022410 0.141110 2.071380 
# 
# From -- ./inp_files/246602.got.cif
#   From: 2010.05.17/outbox.cif.g08.bks.cpg/sg2_124_cif.got.tgz:246602.got - 2010.06.03 11:33:40.
