data_PCOD9061825
_publ_section_title
;
Structure prediction by ZEFSAII (Michael W. Deem and Ramdas Pophale) SiO2 
 PCOD9061825
Probable space group: P -1
;
_chemical_formula_sum "Si O2"
_cell_formula_units_Z 15
_cell_length_a 11.712314
_cell_length_b 13.094232
_cell_length_c 19.023962
_cell_angle_alpha 152.825552
_cell_angle_beta 28.249736
_cell_angle_gamma 143.792901
_cell_volume 627.025212
_symmetry_space_group_name_H-M "P -1"
_symmetry_group_IT_number 2
_symmetry_cell_setting 'triclinic'
loop_
_space_group_symop_operation_xyz
x,y,z
-x,-y,-z
loop_
_atom_site_type_symbol
_atom_site_label
_atom_site_fract_x
_atom_site_fract_y
_atom_site_fract_z
Si Si1 0.649421 0.277564 0.247054
Si Si2 0.045829 0.008765 0.798054
Si Si3 0.473962 0.281573 0.484154
Si Si4 0.606907 0.836895 0.178010
Si Si5 0.848012 0.710059 0.220822
Si Si6 0.177594 0.507749 0.248549
Si Si7 0.000000 0.500000 0.500000
Si Si8 0.918789 0.909124 0.566020
O O1 0.695668 0.297606 0.318264
O O2 0.675020 0.530904 0.357565
O O3 0.373224 0.160647 0.316583
O O4 0.821603 0.130025 0.022053
O O5 0.978251 0.763505 0.654360
O O6 0.225413 0.009271 0.766356
O O7 0.174437 0.164274 0.762770
O O8 0.418911 0.349517 0.635815
O O9 0.438552 0.010353 0.341304
O O10 0.445245 0.648974 0.195040
O O11 0.761928 0.710566 0.961466
O O12 0.999282 0.885915 0.299309
O O13 0.000000 0.500000 0.000000
O O14 0.069526 0.452193 0.349335
O O15 0.033338 0.686011 0.393339
O O16 0.000000 0.000000 0.500000
#
# Coordination Sequence:
#
# PCOD9061825 Si02
#       8
#     2   2   2   2   2   2   1   2
#     4  11  26  44  75 106 139 188 247 295 359 429
#     4  12  28  49  72 111 149 194 241 305 370 434
#     4  11  23  46  71 107 138 185 247 294 355 438
#     4  11  26  49  77 101 146 200 243 292 369 448
#     4  12  25  49  71 108 145 190 245 299 370 431
#     4  11  26  48  73 111 143 195 248 297 370 440
#     4  12  26  48  70 112 158 178 246 310 368 432
#     4  12  25  49  76 102 146 195 246 303 358 439
#
# _framework density 23.922483
#
# number of rings (size 3 to 8) (size 9 to 14) (size 15 to 20)
#    0.000    0.533    5.333    0.800    7.467    4.800 
#    2.400    0.000    0.000    0.000    0.000    0.000 
#    0.000    0.000    0.000    0.000    0.000    0.000 
#
# Total GULP energy -83507.633021 kJ/mol
# GULP energy per Si atom -5567.175535 kJ/mol
# Density = 2.386803 g / cm^3
# Si number density = 23.922483 Si / 1000 Ang^3
#
#
#
# Elastic Constant Matrix: (Units=GPa)
#
#
# Indices 1 2 3 4 5 6 
#
# 1 80.0685 36.4550 51.0172 -10.8056 10.1119 -11.7075
# 2 36.4550 112.7100 52.1372 -1.2323 10.3704 -30.1086
# 3 51.0172 52.1372 165.1383 11.0614 21.3107 -6.5831
# 4 -10.8056 -1.2323 11.0614 52.3916 -5.4861 7.5414
# 5 10.1119 10.3704 21.3107 -5.4861 35.1610 -4.4909
# 6 -11.7075 -30.1086 -6.5831 7.5414 -4.4909 52.4391
#
#
#
# Elastic Compliance Matrix: (Units=1/GPa)
#
#
# Indices 1 2 3 4 5 6 
#
# 1 0.017706 -0.003269 -0.004629 0.004378 -0.000534 0.000819
# 2 -0.003269 0.012934 -0.002695 -0.000783 -0.000543 0.006424
# 3 -0.004629 -0.002695 0.009010 -0.003146 -0.003996 -0.001340
# 4 0.004378 -0.000783 -0.003146 0.021419 0.003887 -0.002614
# 5 -0.000534 -0.000543 -0.003996 0.003887 0.031942 0.001244
# 6 0.000819 0.006424 -0.001340 -0.002614 0.001244 0.023255
#
#
# Mechanical properties :
#
#
# Convention : Reuss Voigt Hill
#
# Bulk Modulus (GPa) = 54.16613 70.79283 62.47948
# Shear Modulus (GPa) = 34.81733 42.55217 38.68475
#
# Velocity S-wave (km/s) = 3.81914 4.22210 4.02567
# Velocity P-wave (km/s) = 6.49148 7.30924 6.91246
#
# Compressibility (1/GPa) = 0.01846172
#
# Stress axis : x y z
#
# Youngs Moduli (GPa) = 56.47894 77.31681 110.99290
#
# Poissons Ratio (x) = 0.25278 0.51383
# Poissons Ratio (y) = 0.18465 0.29911
# Poissons Ratio (z) = 0.26146 0.20836
#
# Static dielectric constant tensor:
#      x y z
#    x 2.184060 0.354190 -0.036490 
#    y 0.354190 2.347710 -0.080580 
#    z -0.036490 -0.080580 1.849810 
# 
# From -- ./inp_files/237524.got.cif
#   From: 2010.05.17/outbox.cif.g08.bks.cpg/sg2_119_cif.got.tgz:237524.got - 2010.06.03 11:33:40.
