data_PCOD9061182
_publ_section_title
;
Structure prediction by ZEFSAII (Michael W. Deem and Ramdas Pophale) SiO2 
 PCOD9061182
Probable space group: P -1
;
_chemical_formula_sum "Si O2"
_cell_formula_units_Z 14
_cell_length_a 9.164009
_cell_length_b 12.044595
_cell_length_c 14.451336
_cell_angle_alpha 151.087170
_cell_angle_beta 59.298030
_cell_angle_gamma 131.274314
_cell_volume 569.698355
_symmetry_space_group_name_H-M "P -1"
_symmetry_group_IT_number 2
_symmetry_cell_setting 'triclinic'
loop_
_space_group_symop_operation_xyz
x,y,z
-x,-y,-z
loop_
_atom_site_type_symbol
_atom_site_label
_atom_site_fract_x
_atom_site_fract_y
_atom_site_fract_z
Si Si1 0.931967 0.726620 0.267305
Si Si2 0.783479 0.820775 0.901424
Si Si3 0.177048 0.841092 0.097661
Si Si4 0.622283 0.181586 0.236844
Si Si5 0.631165 0.070007 0.369150
Si Si6 0.545693 0.661752 0.248044
Si Si7 0.917551 0.732894 0.611895
O O1 0.740698 0.668155 0.226299
O O2 0.113765 0.783992 0.184460
O O3 0.870158 0.446726 0.134740
O O4 0.000000 0.000000 0.500000
O O5 0.640300 0.629636 0.887244
O O6 0.802169 0.658382 0.692401
O O7 0.710313 0.020087 0.040015
O O8 0.000000 0.000000 0.000000
O O9 0.405227 0.070997 0.188467
O O10 0.055727 0.977765 0.202802
O O11 0.604122 0.090759 0.284213
O O12 0.771767 0.499089 0.419327
O O13 0.503452 0.165942 0.538116
O O14 0.868765 0.235987 0.432147
O O15 0.565293 0.785405 0.231018
#
# Coordination Sequence:
#
# PCOD9061182 Si02
#       7
#     2   2   2   2   2   2   2
#     4  11  24  47  72 100 145 182 236 296 346 416
#     4  12  25  44  70 104 142 185 236 287 353 422
#     4  11  26  46  70 105 139 188 236 285 355 420
#     4  12  24  44  72 101 146 186 232 293 353 417
#     4  11  23  44  74 103 138 187 232 293 355 412
#     4  11  23  46  72 104 139 185 239 288 352 421
#     4  12  25  47  70 105 147 184 233 293 352 420
#
# _framework density 24.574407000000001
#
# number of rings (size 3 to 8) (size 9 to 14) (size 15 to 20)
#    0.000    0.571    5.714    2.571    0.000    2.286 
#   10.286    0.000    0.000    0.000    0.000    0.000 
#    0.000    0.000    0.000    0.000    0.000    0.000 
#
# Total GULP energy -78336.048408 kJ/mol
# GULP energy per Si atom -5595.432029 kJ/mol
# Density = 2.451847 g / cm^3
# Si number density = 24.574407 Si / 1000 Ang^3
#
#
#
# Elastic Constant Matrix: (Units=GPa)
#
#
# Indices 1 2 3 4 5 6 
#
# 1 109.6325 24.5590 28.5606 8.8169 -15.0588 15.6025
# 2 24.5590 89.9056 37.8868 6.5044 5.4776 5.3510
# 3 28.5606 37.8868 145.9740 13.0692 -15.5717 -1.3505
# 4 8.8169 6.5044 13.0692 37.2300 -3.7794 -9.4757
# 5 -15.0588 5.4776 -15.5717 -3.7794 45.7163 3.3160
# 6 15.6025 5.3510 -1.3505 -9.4757 3.3160 51.0650
#
#
#
# Elastic Compliance Matrix: (Units=1/GPa)
#
#
# Indices 1 2 3 4 5 6 
#
# 1 0.011192 -0.002466 -0.000965 -0.002493 0.003730 -0.003891
# 2 -0.002466 0.013544 -0.003320 -0.001171 -0.003609 -0.000736
# 3 -0.000965 -0.003320 0.008355 -0.001753 0.002755 0.000359
# 4 -0.002493 -0.001171 -0.001753 0.029962 0.000738 0.006350
# 5 0.003730 -0.003609 0.002755 0.000738 0.024691 -0.002155
# 6 -0.003891 -0.000736 0.000359 0.006350 -0.002155 0.022177
#
#
# Mechanical properties :
#
#
# Convention : Reuss Voigt Hill
#
# Bulk Modulus (GPa) = 51.04687 58.61387 54.83037
# Shear Modulus (GPa) = 38.47632 43.76929 41.12281
#
# Velocity S-wave (km/s) = 3.96119 4.22488 4.09516
# Velocity P-wave (km/s) = 6.46056 6.90672 6.68737
#
# Compressibility (1/GPa) = 0.01958984
#
# Stress axis : x y z
#
# Youngs Moduli (GPa) = 89.35235 73.83471 119.68764
#
# Poissons Ratio (x) = 0.18207 0.11546
# Poissons Ratio (y) = 0.22033 0.39733
# Poissons Ratio (z) = 0.08620 0.24511
#
# Static dielectric constant tensor:
#      x y z
#    x 1.887280 -0.065690 -0.039100 
#    y -0.065690 2.023210 0.008360 
#    z -0.039100 0.008360 2.075710 
# 
# From -- ./inp_files/224319.got.cif
#   From: 2010.05.17/outbox.cif.g08.bks.cpg/sg2_113_cif.got.tgz:224319.got - 2010.06.03 11:33:40.
