data_PCOD9061933
_publ_section_title
;
Structure prediction by ZEFSAII (Michael W. Deem and Ramdas Pophale) SiO2 
 PCOD9061933
Probable space group: P -1
;
_chemical_formula_sum "Si O2"
_cell_formula_units_Z 12
_cell_length_a 7.785630
_cell_length_b 18.291789
_cell_length_c 5.508937
_cell_angle_alpha 82.725032
_cell_angle_beta 67.439411
_cell_angle_gamma 40.349598
_cell_volume 450.694944
_symmetry_space_group_name_H-M "P -1"
_symmetry_group_IT_number 2
_symmetry_cell_setting 'triclinic'
loop_
_space_group_symop_operation_xyz
x,y,z
-x,-y,-z
loop_
_atom_site_type_symbol
_atom_site_label
_atom_site_fract_x
_atom_site_fract_y
_atom_site_fract_z
Si Si1 0.811858 0.173320 0.526453
Si Si2 0.000000 0.500000 0.500000
Si Si3 0.925156 0.787901 0.994190
Si Si4 0.496466 0.638158 0.006677
Si Si5 0.754431 0.048106 0.298980
Si Si6 0.500000 0.000000 0.500000
Si Si7 0.813846 0.433451 0.252411
O O1 0.943950 0.188637 0.256874
O O2 0.560823 0.284694 0.786856
O O3 0.715186 0.126693 0.474049
O O4 0.093830 0.070474 0.599347
O O5 0.064165 0.547405 0.629802
O O6 0.361535 0.376042 0.309369
O O7 0.954588 0.701557 0.878050
O O8 0.182396 0.698699 0.100146
O O9 0.642970 0.905635 0.234992
O O10 0.739484 0.504277 0.021526
O O11 0.499430 0.079809 0.300384
O O12 0.000000 0.000000 0.000000
O O13 0.500000 0.500000 0.500000
#
# Coordination Sequence:
#
# PCOD9061933 Si02
#       7
#     2   1   2   2   2   1   2
#     4  11  23  46  74 103 153 202 255 331 390 463
#     4  12  28  46  72 116 154 204 264 324 408 468
#     4  12  26  49  76 114 155 211 263 334 398 481
#     4  12  24  50  73 110 158 200 260 332 398 480
#     4  11  24  48  69 107 154 203 264 328 381 474
#     4  12  26  48  76 114 156 212 268 320 408 472
#     4  12  26  49  78 111 156 205 263 328 399 474
#
# _framework density 26.625547999999998
#
# number of rings (size 3 to 8) (size 9 to 14) (size 15 to 20)
#    0.000    0.333    6.667    1.000    2.333    0.667 
#    3.000    0.000    0.000    0.000    0.000    0.000 
#    0.000    0.000    0.000    0.000    0.000    0.000 
#
# Total GULP energy -66812.185596 kJ/mol
# GULP energy per Si atom -5567.682133 kJ/mol
# Density = 2.656495 g / cm^3
# Si number density = 26.625548 Si / 1000 Ang^3
#
#
#
# Elastic Constant Matrix: (Units=GPa)
#
#
# Indices 1 2 3 4 5 6 
#
# 1 116.2464 36.1290 15.8864 4.8277 26.1183 24.7659
# 2 36.1290 143.9088 53.8853 21.2215 17.0586 21.6317
# 3 15.8864 53.8853 136.9854 57.1656 16.2589 17.2292
# 4 4.8277 21.2215 57.1656 41.8055 9.3131 4.4117
# 5 26.1183 17.0586 16.2589 9.3131 48.0019 24.8395
# 6 24.7659 21.6317 17.2292 4.4117 24.8395 41.0472
#
#
#
# Elastic Compliance Matrix: (Units=1/GPa)
#
#
# Indices 1 2 3 4 5 6 
#
# 1 0.010670 -0.001870 -0.000037 0.000916 -0.003556 -0.003384
# 2 -0.001870 0.008881 -0.003019 0.000064 0.000084 -0.002342
# 3 -0.000037 -0.003019 0.019110 -0.024503 0.001932 -0.004944
# 4 0.000916 0.000064 -0.024503 0.058147 -0.007699 0.008107
# 5 -0.003556 0.000084 0.001932 -0.007699 0.032730 -0.017689
# 6 -0.003384 -0.002342 -0.004944 0.008107 -0.017689 0.039546
#
#
# Mechanical properties :
#
#
# Convention : Reuss Voigt Hill
#
# Bulk Modulus (GPa) = 34.70974 67.66020 51.18497
# Shear Modulus (GPa) = 26.51972 45.58693 36.05332
#
# Velocity S-wave (km/s) = 3.15941 4.14230 3.68378
# Velocity P-wave (km/s) = 5.13554 6.95307 6.11224
#
# Compressibility (1/GPa) = 0.02881036
#
# Stress axis : x y z
#
# Youngs Moduli (GPa) = 93.71715 112.59384 52.32995
#
# Poissons Ratio (x) = 0.21057 0.00191
# Poissons Ratio (y) = 0.17527 0.15797
# Poissons Ratio (z) = 0.00343 0.33990
#
# Static dielectric constant tensor:
#      x y z
#    x 1.329230 0.097970 0.186580 
#    y 0.097970 2.269760 -0.341980 
#    z 0.186580 -0.341980 2.261080 
# 
# From -- ./inp_files/47314.got.cif
#   From: 2010.05.17/outbox.cif.g08.bks.cpg/sg2_24_cif.got.tgz:47314.got - 2010.06.03 11:33:40.
