data_PCOD9061051
_publ_section_title
;
Structure prediction by ZEFSAII (Michael W. Deem and Ramdas Pophale) SiO2 
 PCOD9061051
Probable space group: P -1
;
_chemical_formula_sum "Si O2"
_cell_formula_units_Z 14
_cell_length_a 7.888102
_cell_length_b 20.394335
_cell_length_c 11.859557
_cell_angle_alpha 148.682661
_cell_angle_beta 138.003452
_cell_angle_gamma 34.427747
_cell_volume 555.819944
_symmetry_space_group_name_H-M "P -1"
_symmetry_group_IT_number 2
_symmetry_cell_setting 'triclinic'
loop_
_space_group_symop_operation_xyz
x,y,z
-x,-y,-z
loop_
_atom_site_type_symbol
_atom_site_label
_atom_site_fract_x
_atom_site_fract_y
_atom_site_fract_z
Si Si1 0.374910 0.679589 0.030079
Si Si2 0.537737 0.366995 0.584044
Si Si3 0.580719 0.792407 0.507326
Si Si4 0.857974 0.892214 0.488494
Si Si5 0.175329 0.367588 0.988045
Si Si6 0.807504 0.468360 0.556754
Si Si7 0.775742 0.950795 0.150339
O O1 0.496678 0.739866 0.276200
O O2 0.485114 0.701904 0.995344
O O3 0.517467 0.501968 0.843200
O O4 0.014386 0.773155 0.003049
O O5 0.491634 0.272782 0.515009
O O6 0.276349 0.453962 0.491381
O O7 0.857676 0.246832 0.502802
O O8 0.937655 0.707583 0.570372
O O9 0.381361 0.970293 0.692476
O O10 0.866239 0.771084 0.229157
O O11 0.500000 0.000000 0.500000
O O12 0.997143 0.992163 0.680286
O O13 0.100987 0.448148 0.188372
O O14 0.000000 0.500000 0.000000
O O15 0.500000 0.500000 0.500000
O O16 0.500000 0.000000 0.000000
#
# Coordination Sequence:
#
# PCOD9061051 Si02
#       7
#     2   2   2   2   2   2   2
#     4  12  22  44  75  99 139 191 239 285 351 431
#     4  11  24  43  68 107 144 180 238 299 356 418
#     4  11  25  43  69 103 142 189 236 291 355 430
#     4  11  23  44  72 102 142 188 237 293 349 427
#     4  12  22  43  75 107 138 184 243 292 350 426
#     4  12  23  40  71 107 141 185 233 297 359 414
#     4  11  26  45  69 104 147 188 236 299 361 418
#
# _framework density 25.188013000000002
#
# number of rings (size 3 to 8) (size 9 to 14) (size 15 to 20)
#    0.000    0.571    5.714    2.143    0.000    2.286 
#    0.000    3.571    0.000    0.000    0.000    0.000 
#    0.000    0.000    0.000    0.000    0.000    0.000 
#
# Total GULP energy -78111.446899 kJ/mol
# GULP energy per Si atom -5579.389064 kJ/mol
# Density = 2.513068 g / cm^3
# Si number density = 25.188013 Si / 1000 Ang^3
#
#
#
# Elastic Constant Matrix: (Units=GPa)
#
#
# Indices 1 2 3 4 5 6 
#
# 1 84.5937 43.6030 14.5528 3.3429 4.2827 -14.2304
# 2 43.6030 192.8855 41.9812 19.1672 -10.8619 -39.7630
# 3 14.5528 41.9812 118.2354 6.9446 -4.1604 -3.1953
# 4 3.3429 19.1672 6.9446 49.1166 -0.4956 -8.7123
# 5 4.2827 -10.8619 -4.1604 -0.4956 41.0654 3.1442
# 6 -14.2304 -39.7630 -3.1953 -8.7123 3.1442 52.6504
#
#
#
# Elastic Compliance Matrix: (Units=1/GPa)
#
#
# Indices 1 2 3 4 5 6 
#
# 1 0.013783 -0.002757 -0.000784 0.000549 -0.002379 0.001829
# 2 -0.002757 0.007400 -0.002016 -0.001626 0.001688 0.004351
# 3 -0.000784 -0.002016 0.009296 -0.000703 0.000583 -0.001321
# 4 0.000549 -0.001626 -0.000703 0.021488 -0.000488 0.002462
# 5 -0.002379 0.001688 0.000583 -0.000488 0.025169 -0.000917
# 6 0.001829 0.004351 -0.001321 0.002462 -0.000917 0.023156
#
#
# Mechanical properties :
#
#
# Convention : Reuss Voigt Hill
#
# Bulk Modulus (GPa) = 51.63627 66.22095 58.92861
# Shear Modulus (GPa) = 42.42269 48.27166 45.34717
#
# Velocity S-wave (km/s) = 4.10840 4.38248 4.24765
# Velocity P-wave (km/s) = 6.56126 7.20805 6.89224
#
# Compressibility (1/GPa) = 0.01936623
#
# Stress axis : x y z
#
# Youngs Moduli (GPa) = 72.55074 135.13574 107.57297
#
# Poissons Ratio (x) = 0.37253 0.08437
# Poissons Ratio (y) = 0.20000 0.21683
# Poissons Ratio (z) = 0.05690 0.27239
#
# Static dielectric constant tensor:
#      x y z
#    x 2.070830 -0.068320 0.036280 
#    y -0.068320 2.137910 -0.045870 
#    z 0.036280 -0.045870 2.112380 
# 
# From -- ./inp_files/406924.got.cif
#   From: 2010.05.17/outbox.cif.g08.bks.cpg/sg2_204_cif.got.tgz:406924.got - 2010.06.03 11:33:40.
