data_PCOD9061883
_publ_section_title
;
Structure prediction by ZEFSAII (Michael W. Deem and Ramdas Pophale) SiO2 
 PCOD9061883
Probable space group: P -1
;
_chemical_formula_sum "Si O2"
_cell_formula_units_Z 16
_cell_length_a 11.704008
_cell_length_b 6.278783
_cell_length_c 11.616619
_cell_angle_alpha 102.508233
_cell_angle_beta 99.781392
_cell_angle_gamma 56.420218
_cell_volume 693.007204
_symmetry_space_group_name_H-M "P -1"
_symmetry_group_IT_number 2
_symmetry_cell_setting 'triclinic'
loop_
_space_group_symop_operation_xyz
x,y,z
-x,-y,-z
loop_
_atom_site_type_symbol
_atom_site_label
_atom_site_fract_x
_atom_site_fract_y
_atom_site_fract_z
Si Si1 0.129325 0.509335 0.477720
Si Si2 0.268681 0.224167 0.052224
Si Si3 0.753216 0.230828 0.587801
Si Si4 0.534043 0.702889 0.745051
Si Si5 0.622307 0.930168 0.424298
Si Si6 0.106925 0.716682 0.929203
Si Si7 0.384464 0.685315 0.909715
Si Si8 0.131799 0.169487 0.241866
O O1 0.134783 0.751928 0.465208
O O2 0.162880 0.345897 0.346516
O O3 0.000000 0.500000 0.500000
O O4 0.253837 0.361647 0.571091
O O5 0.368953 0.290234 0.141088
O O6 0.210447 0.127551 0.131614
O O7 0.151975 0.482670 0.998785
O O8 0.346374 0.979724 0.953147
O O9 0.626065 0.509084 0.636830
O O10 0.692100 0.088931 0.491798
O O11 0.818756 0.080748 0.701216
O O12 0.439483 0.979879 0.701779
O O13 0.446541 0.606108 0.783335
O O14 0.500000 0.000000 0.500000
O O15 0.246479 0.690951 0.909834
O O16 0.025684 0.697370 0.805336
O O17 0.000000 0.000000 0.000000
O O18 0.500000 0.500000 0.000000
#
# Coordination Sequence:
#
# PCOD9061883 Si02
#       8
#     2   2   2   2   2   2   2   2
#     4  11  26  45  68 100 138 177 231 299 354 423
#     4  12  24  47  68 101 146 183 236 297 347 428
#     4  11  23  46  72  97 145 179 232 297 357 425
#     4  12  23  42  72  99 137 188 224 293 358 408
#     4  11  24  45  69 106 132 183 241 285 355 433
#     4  12  26  44  70 101 139 187 240 289 350 427
#     4  12  27  45  67 105 144 184 237 293 355 425
#     4  11  24  42  72  97 132 190 230 280 364 425
#
# _framework density 23.087783000000002
#
# number of rings (size 3 to 8) (size 9 to 14) (size 15 to 20)
#    0.000    0.500    5.000    3.375    0.000    5.000 
#    0.000    0.000    0.000    0.000    0.000    0.000 
#    0.000    0.000    0.000    0.000    0.000    0.000 
#
# Total GULP energy -89519.085549 kJ/mol
# GULP energy per Si atom -5594.942847 kJ/mol
# Density = 2.303523 g / cm^3
# Si number density = 23.087783 Si / 1000 Ang^3
#
#
#
# Elastic Constant Matrix: (Units=GPa)
#
#
# Indices 1 2 3 4 5 6 
#
# 1 151.5043 30.6778 19.2481 -25.2855 -23.3440 2.9439
# 2 30.6778 98.8407 29.8169 -32.7866 -0.9147 -3.1409
# 3 19.2481 29.8169 61.7871 -33.4854 1.2021 -6.3891
# 4 -25.2855 -32.7866 -33.4854 49.0520 -2.5148 3.5597
# 5 -23.3440 -0.9147 1.2021 -2.5148 47.0642 -7.6033
# 6 2.9439 -3.1409 -6.3891 3.5597 -7.6033 37.6805
#
#
#
# Elastic Compliance Matrix: (Units=1/GPa)
#
#
# Indices 1 2 3 4 5 6 
#
# 1 0.008098 -0.001300 -0.000136 0.003443 0.004138 -0.000255
# 2 -0.001300 0.013477 -0.002487 0.006629 0.000066 0.000190
# 3 -0.000136 -0.002487 0.026470 0.016156 0.000535 0.002873
# 4 0.003443 0.006629 0.016156 0.037788 0.003468 0.000153
# 5 0.004138 0.000066 0.000535 0.003468 0.024171 0.004323
# 6 -0.000255 0.000190 0.002873 0.000153 0.004323 0.027920
#
#
# Mechanical properties :
#
#
# Convention : Reuss Voigt Hill
#
# Bulk Modulus (GPa) = 24.87735 52.40199 38.63967
# Shear Modulus (GPa) = 31.41298 42.25196 36.83247
#
# Velocity S-wave (km/s) = 3.69262 4.28256 3.99848
# Velocity P-wave (km/s) = 5.38322 6.87021 6.17167
#
# Compressibility (1/GPa) = 0.04019721
#
# Stress axis : x y z
#
# Youngs Moduli (GPa) = 123.48471 74.20131 37.77914
#
# Poissons Ratio (x) = 0.09647 0.00515
# Poissons Ratio (y) = 0.16054 0.09397
# Poissons Ratio (z) = 0.01682 0.18457
#
# Static dielectric constant tensor:
#      x y z
#    x 1.911560 0.004840 -0.033500 
#    y 0.004840 1.926060 0.003890 
#    z -0.033500 0.003890 1.847040 
# 
# From -- ./inp_files/68550.got.cif
#   From: 2010.05.17/outbox.cif.g08.bks.cpg/sg2_35_cif.got.tgz:68550.got - 2010.06.03 11:33:40.
