data_PCOD9061361
_publ_section_title
;
Structure prediction by ZEFSAII (Michael W. Deem and Ramdas Pophale) SiO2 
 PCOD9061361
Probable space group: P -1
;
_chemical_formula_sum "Si O2"
_cell_formula_units_Z 12
_cell_length_a 14.713589
_cell_length_b 10.227621
_cell_length_c 6.899449
_cell_angle_alpha 41.198732
_cell_angle_beta 104.744321
_cell_angle_gamma 123.645721
_cell_volume 543.776214
_symmetry_space_group_name_H-M "P -1"
_symmetry_group_IT_number 2
_symmetry_cell_setting 'triclinic'
loop_
_space_group_symop_operation_xyz
x,y,z
-x,-y,-z
loop_
_atom_site_type_symbol
_atom_site_label
_atom_site_fract_x
_atom_site_fract_y
_atom_site_fract_z
Si Si1 0.884171 0.438279 0.096926
Si Si2 0.106501 0.856978 0.218634
Si Si3 0.624156 0.143959 0.642314
Si Si4 0.431951 0.220049 0.328976
Si Si5 0.139503 0.333233 0.854156
Si Si6 0.728729 0.065315 0.127549
O O1 0.868805 0.276452 0.455626
O O2 0.888349 0.661692 0.940493
O O3 0.788124 0.298031 0.039709
O O4 0.000000 0.500000 0.000000
O O5 0.970112 0.705087 0.274662
O O6 0.175878 0.901945 0.006696
O O7 0.144131 0.112842 0.039060
O O8 0.520112 0.167795 0.526803
O O9 0.739277 0.415669 0.393394
O O10 0.616303 0.960143 0.681147
O O11 0.633177 0.045733 0.961099
O O12 0.333281 0.150366 0.509997
O O13 0.500000 0.500000 0.000000
#
# Coordination Sequence:
#
# PCOD9061361 Si02
#       6
#     2   2   2   2   2   2
#     4  12  23  43  71 102 142 185 227 281 346 415
#     4  11  25  44  67 110 142 181 230 280 345 421
#     4  11  25  47  71 103 138 182 233 290 348 410
#     4  11  27  49  71 101 136 181 241 293 342 408
#     4  11  23  45  69 101 147 179 225 286 341 416
#     4  12  23  46  73 100 140 186 229 285 351 410
#
# _framework density 22.067902
#
# number of rings (size 3 to 8) (size 9 to 14) (size 15 to 20)
#    0.000    0.667    5.000    2.000    4.667    1.333 
#    9.000    0.000    0.000    0.000    0.000    0.000 
#    0.000    0.000    0.000    0.000    0.000    0.000 
#
# Total GULP energy -67063.383897 kJ/mol
# GULP energy per Si atom -5588.615325 kJ/mol
# Density = 2.201767 g / cm^3
# Si number density = 22.067902 Si / 1000 Ang^3
#
#
#
# Elastic Constant Matrix: (Units=GPa)
#
#
# Indices 1 2 3 4 5 6 
#
# 1 57.6775 46.5165 27.5050 6.3921 -13.1424 -9.4517
# 2 46.5165 188.1591 62.2126 4.9521 -3.9096 -8.7263
# 3 27.5050 62.2126 74.4504 7.3059 -21.3469 -5.6435
# 4 6.3921 4.9521 7.3059 36.4824 3.4221 0.0031
# 5 -13.1424 -3.9096 -21.3469 3.4221 38.8894 2.4547
# 6 -9.4517 -8.7263 -5.6435 0.0031 2.4547 44.6292
#
#
#
# Elastic Compliance Matrix: (Units=1/GPa)
#
#
# Indices 1 2 3 4 5 6 
#
# 1 0.025099 -0.004946 -0.002571 -0.003838 0.006681 0.003656
# 2 -0.004946 0.008698 -0.006949 0.001523 -0.004748 0.000036
# 3 -0.002571 -0.006949 0.024128 -0.004568 0.012048 0.000486
# 4 -0.003838 0.001523 -0.004568 0.029372 -0.006189 -0.000754
# 5 0.006681 -0.004748 0.012048 -0.006189 0.034646 0.000105
# 6 0.003656 0.000036 0.000486 -0.000754 0.000105 0.023244
#
#
# Mechanical properties :
#
#
# Convention : Reuss Voigt Hill
#
# Bulk Modulus (GPa) = 34.48941 65.86170 50.17555
# Shear Modulus (GPa) = 27.20625 36.27038 31.73831
#
# Velocity S-wave (km/s) = 3.51499 4.05851 3.79649
# Velocity P-wave (km/s) = 5.66889 7.20221 6.48105
#
# Compressibility (1/GPa) = 0.02899441
#
# Stress axis : x y z
#
# Youngs Moduli (GPa) = 39.84208 114.97093 41.44592
#
# Poissons Ratio (x) = 0.56861 0.10654
# Poissons Ratio (y) = 0.19704 0.28801
# Poissons Ratio (z) = 0.10241 0.79894
#
# Static dielectric constant tensor:
#      x y z
#    x 1.872300 -0.004520 -0.009380 
#    y -0.004520 1.820870 -0.011420 
#    z -0.009380 -0.011420 1.829840 
# 
# From -- ./inp_files/86891.got.cif
#   From: 2010.05.17/outbox.cif.g08.bks.cpg/sg2_44_cif.got.tgz:86891.got - 2010.06.03 11:33:40.
