data_PCOD9061113
_publ_section_title
;
Structure prediction by ZEFSAII (Michael W. Deem and Ramdas Pophale) SiO2 
 PCOD9061113
Probable space group: P -1
;
_chemical_formula_sum "Si O2"
_cell_formula_units_Z 16
_cell_length_a 16.171128
_cell_length_b 8.904535
_cell_length_c 13.133978
_cell_angle_alpha 45.465288
_cell_angle_beta 29.288245
_cell_angle_gamma 45.503763
_cell_volume 637.580964
_symmetry_space_group_name_H-M "P -1"
_symmetry_group_IT_number 2
_symmetry_cell_setting 'triclinic'
loop_
_space_group_symop_operation_xyz
x,y,z
-x,-y,-z
loop_
_atom_site_type_symbol
_atom_site_label
_atom_site_fract_x
_atom_site_fract_y
_atom_site_fract_z
Si Si1 0.812248 0.654901 0.002148
Si Si2 0.010980 0.759420 0.556288
Si Si3 0.765578 0.988247 0.551798
Si Si4 0.514638 0.239772 0.836669
Si Si5 0.416762 0.961358 0.816743
Si Si6 0.379112 0.461242 0.264513
Si Si7 0.111430 0.813028 0.849581
Si Si8 0.268295 0.084237 0.695702
O O1 0.963081 0.644079 0.763182
O O2 0.643821 0.657014 0.113892
O O3 0.843439 0.426893 0.134849
O O4 0.749563 0.881229 0.022803
O O5 0.189663 0.632218 0.370101
O O6 0.856274 0.793521 0.621861
O O7 0.000000 0.000000 0.500000
O O8 0.696050 0.195123 0.601569
O O9 0.903119 0.016531 0.307128
O O10 0.588874 0.991568 0.677583
O O11 0.521316 0.395047 0.847174
O O12 0.500000 0.000000 0.000000
O O13 0.467549 0.699001 0.890967
O O14 0.381595 0.033111 0.702013
O O15 0.316716 0.274453 0.487155
O O16 0.255497 0.872791 0.742145
O O17 0.931934 0.838910 0.088530
#
# Coordination Sequence:
#
# PCOD9061113 Si02
#       8
#     2   2   2   2   2   2   2   2
#     4  11  25  45  75 108 142 199 241 302 360 438
#     4  12  25  48  76 102 148 194 248 302 365 436
#     4  11  25  45  72 108 147 189 247 301 362 442
#     4  11  23  44  72  99 147 189 243 294 369 431
#     4  11  27  43  71 112 150 182 247 301 369 435
#     4  12  24  47  75 105 145 199 238 306 370 433
#     4  11  25  47  76 109 147 193 247 301 364 439
#     4  11  25  47  73 110 152 188 242 306 375 424
#
# _framework density 25.094854000000002
#
# number of rings (size 3 to 8) (size 9 to 14) (size 15 to 20)
#    0.000    0.750    5.000    1.125    5.250    2.000 
#    0.000    5.625    0.000    0.000    0.000    0.000 
#    0.000    0.000    0.000    0.000    0.000    0.000 
#
# Total GULP energy -89296.751955 kJ/mol
# GULP energy per Si atom -5581.046997 kJ/mol
# Density = 2.503774 g / cm^3
# Si number density = 25.094854 Si / 1000 Ang^3
#
#
#
# Elastic Constant Matrix: (Units=GPa)
#
#
# Indices 1 2 3 4 5 6 
#
# 1 103.0127 28.2088 7.2205 -2.3616 -14.1370 9.1463
# 2 28.2088 152.9948 18.7649 2.1465 -7.4301 27.2152
# 3 7.2205 18.7649 63.3347 4.6069 -3.5224 9.7565
# 4 -2.3616 2.1465 4.6069 43.9734 -1.0839 5.1678
# 5 -14.1370 -7.4301 -3.5224 -1.0839 43.1694 6.3364
# 6 9.1463 27.2152 9.7565 5.1678 6.3364 34.3197
#
#
#
# Elastic Compliance Matrix: (Units=1/GPa)
#
#
# Indices 1 2 3 4 5 6 
#
# 1 0.010859 -0.001338 -0.000315 0.001077 0.003708 -0.002590
# 2 -0.001338 0.008100 -0.001240 0.000423 0.001761 -0.006103
# 3 -0.000315 -0.001240 0.016967 -0.001240 0.001604 -0.003866
# 4 0.001077 0.000423 -0.001240 0.023424 0.001511 -0.004076
# 5 0.003708 0.001761 0.001604 0.001511 0.026006 -0.007870
# 6 -0.002590 -0.006103 -0.003866 -0.004076 -0.007870 0.037834
#
#
# Mechanical properties :
#
#
# Convention : Reuss Voigt Hill
#
# Bulk Modulus (GPa) = 33.17683 47.52565 40.35124
# Shear Modulus (GPa) = 35.96511 41.96903 38.96707
#
# Velocity S-wave (km/s) = 3.78983 4.09395 3.94482
# Velocity P-wave (km/s) = 5.69207 6.42859 6.07151
#
# Compressibility (1/GPa) = 0.03014152
#
# Stress axis : x y z
#
# Youngs Moduli (GPa) = 92.08547 123.45363 58.93674
#
# Poissons Ratio (x) = 0.16517 0.01855
# Poissons Ratio (y) = 0.12320 0.07309
# Poissons Ratio (z) = 0.02899 0.15309
#
# Static dielectric constant tensor:
#      x y z
#    x 2.016170 0.023190 0.053880 
#    y 0.023190 2.032190 0.022380 
#    z 0.053880 0.022380 2.121970 
# 
# From -- ./inp_files/537571.got.cif
#   From: 2010.05.17/outbox.cif.g08.bks.cpg/sg2_269_cif.got.tgz:537571.got - 2010.06.03 11:33:40.
