data_PCOD9061193
_publ_section_title
;
Structure prediction by ZEFSAII (Michael W. Deem and Ramdas Pophale) SiO2 
 PCOD9061193
Probable space group: P -1
;
_chemical_formula_sum "Si O2"
_cell_formula_units_Z 16
_cell_length_a 8.872612
_cell_length_b 11.284377
_cell_length_c 17.504010
_cell_angle_alpha 151.087401
_cell_angle_beta 49.606275
_cell_angle_gamma 130.998157
_cell_volume 626.282863
_symmetry_space_group_name_H-M "P -1"
_symmetry_group_IT_number 2
_symmetry_cell_setting 'triclinic'
loop_
_space_group_symop_operation_xyz
x,y,z
-x,-y,-z
loop_
_atom_site_type_symbol
_atom_site_label
_atom_site_fract_x
_atom_site_fract_y
_atom_site_fract_z
Si Si1 0.274391 0.511735 0.109041
Si Si2 0.645131 0.679718 0.490679
Si Si3 0.906850 0.070383 0.321898
Si Si4 0.853374 0.610329 0.698005
Si Si5 0.532221 0.860454 0.987852
Si Si6 0.109532 0.721631 0.821038
Si Si7 0.522195 0.020527 0.597515
Si Si8 0.839653 0.179819 0.805273
O O1 0.312155 0.735763 0.287663
O O2 0.149747 0.590638 0.124510
O O3 0.104931 0.280284 0.068640
O O4 0.500000 0.500000 0.000000
O O5 0.500000 0.500000 0.500000
O O6 0.813386 0.530139 0.328410
O O7 0.554835 0.777772 0.498492
O O8 0.740897 0.931170 0.648233
O O9 0.863116 0.330726 0.514801
O O10 0.099300 0.185198 0.270386
O O11 0.695167 0.941459 0.280111
O O12 0.962073 0.880540 0.257302
O O13 0.043169 0.702688 0.744442
O O14 0.634505 0.627627 0.810015
O O15 0.320717 0.790467 0.061154
O O16 0.702493 0.055733 0.091032
O O17 0.500000 0.000000 0.000000
O O18 0.500000 0.000000 0.500000
#
# Coordination Sequence:
#
# PCOD9061193 Si02
#       8
#     2   2   2   2   2   2   2   2
#     4  11  28  50  70 102 147 197 239 290 370 444
#     4  11  23  44  74 106 136 187 246 297 359 431
#     4  11  24  42  73 105 140 181 238 301 352 418
#     4  11  24  42  70 104 143 179 234 293 366 418
#     4  12  26  43  70 109 141 180 240 302 359 430
#     4  12  25  44  75  98 142 189 241 288 364 427
#     4  11  27  44  72 103 147 188 245 297 362 433
#     4  11  24  46  72 101 144 183 239 293 358 434
#
# _framework density 25.547563
#
# number of rings (size 3 to 8) (size 9 to 14) (size 15 to 20)
#    0.000    0.750    3.750    2.625    8.750    1.000 
#    0.000    1.250    0.000    0.000    0.000    0.000 
#    0.000    0.000    0.000    0.000    0.000    0.000 
#
# Total GULP energy -89556.373665 kJ/mol
# GULP energy per Si atom -5597.273354 kJ/mol
# Density = 2.548942 g / cm^3
# Si number density = 25.547563 Si / 1000 Ang^3
#
#
#
# Elastic Constant Matrix: (Units=GPa)
#
#
# Indices 1 2 3 4 5 6 
#
# 1 151.5304 11.1281 35.6510 6.1613 -27.8030 -30.2622
# 2 11.1281 57.1238 -3.8026 -8.5526 -2.5551 -12.9251
# 3 35.6510 -3.8026 79.5540 -8.7233 -17.3579 -2.9888
# 4 6.1613 -8.5526 -8.7233 33.7806 6.3073 -3.7998
# 5 -27.8030 -2.5551 -17.3579 6.3073 46.9822 6.2465
# 6 -30.2622 -12.9251 -2.9888 -3.7998 6.2465 50.0200
#
#
#
# Elastic Compliance Matrix: (Units=1/GPa)
#
#
# Indices 1 2 3 4 5 6 
#
# 1 0.009243 -0.001367 -0.003536 -0.003200 0.003948 0.004291
# 2 -0.001367 0.020041 0.002397 0.006582 -0.000388 0.005043
# 3 -0.003536 0.002397 0.015448 0.004567 0.003219 -0.000652
# 4 -0.003200 0.006582 0.004567 0.034311 -0.004887 0.003255
# 5 0.003948 -0.000388 0.003219 -0.004887 0.025590 -0.001086
# 6 0.004291 0.005043 -0.000652 0.003255 -0.001086 0.024235
#
#
# Mechanical properties :
#
#
# Convention : Reuss Voigt Hill
#
# Bulk Modulus (GPa) = 25.17609 41.57347 33.37478
# Shear Modulus (GPa) = 33.98599 42.50534 38.24566
#
# Velocity S-wave (km/s) = 3.65129 4.08336 3.87335
# Velocity P-wave (km/s) = 5.25850 6.20807 5.75291
#
# Compressibility (1/GPa) = 0.03972023
#
# Stress axis : x y z
#
# Youngs Moduli (GPa) = 108.18788 49.89780 64.73437
#
# Poissons Ratio (x) = 0.06823 0.22888
# Poissons Ratio (y) = 0.14794 -0.15519
# Poissons Ratio (z) = 0.38252 -0.11962
#
# Static dielectric constant tensor:
#      x y z
#    x 1.996920 -0.043430 0.041170 
#    y -0.043430 2.082340 -0.025030 
#    z 0.041170 -0.025030 2.056930 
# 
# From -- ./inp_files/560128.got.cif
#   From: 2010.05.17/outbox.cif.g08.bks.cpg/sg2_281_cif.got.tgz:560128.got - 2010.06.03 11:33:40.
