data_PCOD9061221
_publ_section_title
;
Structure prediction by ZEFSAII (Michael W. Deem and Ramdas Pophale) SiO2 
 PCOD9061221
Probable space group: P -1
;
_chemical_formula_sum "Si O2"
_cell_formula_units_Z 16
_cell_length_a 11.470383
_cell_length_b 12.001529
_cell_length_c 5.655556
_cell_angle_alpha 72.056525
_cell_angle_beta 107.131841
_cell_angle_gamma 85.729471
_cell_volume 696.036987
_symmetry_space_group_name_H-M "P -1"
_symmetry_group_IT_number 2
_symmetry_cell_setting 'triclinic'
loop_
_space_group_symop_operation_xyz
x,y,z
-x,-y,-z
loop_
_atom_site_type_symbol
_atom_site_label
_atom_site_fract_x
_atom_site_fract_y
_atom_site_fract_z
Si Si1 0.414913 0.202399 0.237605
Si Si2 0.697637 0.408467 0.639196
Si Si3 0.691876 0.158526 0.620245
Si Si4 0.803735 0.784665 0.588969
Si Si5 0.356031 0.022968 0.972112
Si Si6 0.931089 0.530321 0.689206
Si Si7 0.494551 0.403314 0.859240
Si Si8 0.070306 0.017519 0.282170
O O1 0.550198 0.159530 0.455699
O O2 0.306847 0.262948 0.306965
O O3 0.359662 0.093166 0.173444
O O4 0.439869 0.291899 0.991072
O O5 0.704517 0.295537 0.546482
O O6 0.826351 0.449703 0.697760
O O7 0.631566 0.368561 0.858276
O O8 0.602306 0.526171 0.427912
O O9 0.802145 0.079985 0.591557
O O10 0.695644 0.095626 0.921615
O O11 0.730417 0.889144 0.311072
O O12 0.878027 0.672050 0.569333
O O13 0.892640 0.851101 0.759646
O O14 0.500000 0.000000 0.000000
O O15 0.000000 0.500000 0.500000
O O16 0.000000 0.500000 0.000000
O O17 0.500000 0.500000 0.000000
O O18 0.000000 0.000000 0.500000
O O19 0.000000 0.000000 0.000000
#
# Coordination Sequence:
#
# PCOD9061221 Si02
#       8
#     2   2   2   2   2   2   2   2
#     4  12  24  43  78 117 151 198 259 332 412 470
#     4  11  27  48  74 113 156 202 261 326 401 472
#     4  12  25  47  76 118 153 203 261 325 401 490
#     4  12  28  52  82 111 163 205 270 339 397 477
#     4  12  23  43  75 116 160 199 251 321 413 482
#     4  12  33  54  84 114 156 221 282 331 391 470
#     4  11  23  44  75 110 153 199 246 323 410 470
#     4  12  30  52  78 110 158 217 266 315 395 469
#
# _framework density 22.987283000000001
#
# number of rings (size 3 to 8) (size 9 to 14) (size 15 to 20)
#    0.000    0.250    3.750    4.125   10.500    1.000 
#    0.000    0.000    0.000    0.000    0.000    0.000 
#    0.000    0.000    0.000    0.000    0.000    0.000 
#
# Total GULP energy -89463.787905 kJ/mol
# GULP energy per Si atom -5591.486744 kJ/mol
# Density = 2.293496 g / cm^3
# Si number density = 22.987283 Si / 1000 Ang^3
#
#
#
# Elastic Constant Matrix: (Units=GPa)
#
#
# Indices 1 2 3 4 5 6 
#
# 1 177.9784 61.9787 59.8787 10.7983 -23.5774 -7.4451
# 2 61.9787 133.2975 37.9041 3.0801 -7.0064 -3.3989
# 3 59.8787 37.9041 108.8233 -1.7338 -5.5501 6.8963
# 4 10.7983 3.0801 -1.7338 46.7490 9.5142 -2.9397
# 5 -23.5774 -7.0064 -5.5501 9.5142 30.7553 6.6580
# 6 -7.4451 -3.3989 6.8963 -2.9397 6.6580 52.7977
#
#
#
# Elastic Compliance Matrix: (Units=1/GPa)
#
#
# Indices 1 2 3 4 5 6 
#
# 1 0.008860 -0.002634 -0.003719 -0.003279 0.006411 0.000574
# 2 -0.002634 0.009237 -0.001818 0.000039 -0.000366 0.000509
# 3 -0.003719 -0.001818 0.011959 0.001533 -0.001154 -0.001973
# 4 -0.003279 0.000039 0.001533 0.024405 -0.010208 0.001986
# 5 0.006411 -0.000366 -0.001154 -0.010208 0.041323 -0.004748
# 6 0.000574 0.000509 -0.001973 0.001986 -0.004748 0.020021
#
#
# Mechanical properties :
#
#
# Convention : Reuss Voigt Hill
#
# Bulk Modulus (GPa) = 72.92420 82.18025 77.55222
# Shear Modulus (GPa) = 36.57149 43.41625 39.99387
#
# Velocity S-wave (km/s) = 3.99299 4.35064 4.17565
# Velocity P-wave (km/s) = 7.28363 7.81443 7.55369
#
# Compressibility (1/GPa) = 0.01371287
#
# Stress axis : x y z
#
# Youngs Moduli (GPa) = 112.87307 108.26321 83.61709
#
# Poissons Ratio (x) = 0.28522 0.31097
# Poissons Ratio (y) = 0.29736 0.15201
# Poissons Ratio (z) = 0.41977 0.19681
#
# Static dielectric constant tensor:
#      x y z
#    x 1.939590 -0.035940 -0.068270 
#    y -0.035940 1.937930 0.071990 
#    z -0.068270 0.071990 1.955720 
# 
# From -- ./inp_files/69342.got.cif
#   From: 2010.05.17/outbox.cif.g08.bks.cpg/sg2_35_cif.got.tgz:69342.got - 2010.06.03 11:33:40.
