data_PCOD9061345
_publ_section_title
;
Structure prediction by ZEFSAII (Michael W. Deem and Ramdas Pophale) SiO2 
 PCOD9061345
Probable space group: P -1
;
_chemical_formula_sum "Si O2"
_cell_formula_units_Z 14
_cell_length_a 11.868384
_cell_length_b 10.082136
_cell_length_c 17.000531
_cell_angle_alpha 71.754229
_cell_angle_beta 158.618353
_cell_angle_gamma 104.959118
_cell_volume 701.071849
_symmetry_space_group_name_H-M "P -1"
_symmetry_group_IT_number 2
_symmetry_cell_setting 'triclinic'
loop_
_space_group_symop_operation_xyz
x,y,z
-x,-y,-z
loop_
_atom_site_type_symbol
_atom_site_label
_atom_site_fract_x
_atom_site_fract_y
_atom_site_fract_z
Si Si1 0.448981 0.841510 0.971222
Si Si2 0.467257 0.594397 0.299412
Si Si3 0.142279 0.342367 0.608200
Si Si4 0.350430 0.023510 0.244439
Si Si5 0.281709 0.883540 0.682543
Si Si6 0.770346 0.694152 0.795186
Si Si7 0.214099 0.249229 0.387372
O O1 0.472472 0.840383 0.892799
O O2 0.105587 0.803198 0.778693
O O3 0.686847 0.731626 0.191916
O O4 0.500000 0.000000 0.000000
O O5 0.616155 0.657742 0.307242
O O6 0.451432 0.428043 0.309868
O O7 0.662206 0.638515 0.492842
O O8 0.107082 0.655158 0.061201
O O9 0.000000 0.500000 0.500000
O O10 0.871410 0.249607 0.424660
O O11 0.517274 0.055085 0.265604
O O12 0.359382 0.155669 0.283578
O O13 0.530425 0.884139 0.422598
O O14 0.000000 0.000000 0.000000
O O15 0.000000 0.000000 0.500000
O O16 0.825743 0.695801 0.737284
#
# Coordination Sequence:
#
# PCOD9061345 Si02
#       7
#     2   2   2   2   2   2   2
#     4  12  25  42  76 102 133 189 235 279 353 417
#     4  11  23  45  68  96 138 184 223 282 344 412
#     4  12  25  46  70 103 141 180 237 291 346 411
#     4  12  25  44  69 105 140 177 228 294 339 404
#     4  12  24  47  72 101 142 182 235 286 346 421
#     4  11  25  43  67  99 140 180 226 280 350 403
#     4  12  23  45  72  99 134 186 232 278 344 420
#
# _framework density 19.969424
#
# number of rings (size 3 to 8) (size 9 to 14) (size 15 to 20)
#    0.000    0.286    7.143    1.714    2.000    0.571 
#    5.143    0.000    0.000    0.000    0.000    0.000 
#    0.000    0.000    0.000    0.000    0.000    0.000 
#
# Total GULP energy -78349.787092 kJ/mol
# GULP energy per Si atom -5596.413364 kJ/mol
# Density = 1.992397 g / cm^3
# Si number density = 19.969424 Si / 1000 Ang^3
#
#
#
# Elastic Constant Matrix: (Units=GPa)
#
#
# Indices 1 2 3 4 5 6 
#
# 1 87.6867 6.0847 21.0430 15.1683 -14.3082 7.5202
# 2 6.0847 112.5338 50.7791 9.6318 -5.6531 -9.5464
# 3 21.0430 50.7791 90.4425 19.8877 -18.4984 -7.4205
# 4 15.1683 9.6318 19.8877 36.8683 5.1580 5.0283
# 5 -14.3082 -5.6531 -18.4984 5.1580 39.4791 2.7106
# 6 7.5202 -9.5464 -7.4205 5.0283 2.7106 36.3500
#
#
#
# Elastic Compliance Matrix: (Units=1/GPa)
#
#
# Indices 1 2 3 4 5 6 
#
# 1 0.013726 0.000369 -0.001355 -0.005387 0.005279 -0.002668
# 2 0.000369 0.012142 -0.007248 0.000597 -0.001717 0.001678
# 3 -0.001355 -0.007248 0.019632 -0.009782 0.008736 0.003087
# 4 -0.005387 0.000597 -0.009782 0.036666 -0.010899 -0.004985
# 5 0.005279 -0.001717 0.008736 -0.010899 0.032562 -0.000680
# 6 -0.002668 0.001678 0.003087 -0.004985 -0.000680 0.029873
#
#
# Mechanical properties :
#
#
# Convention : Reuss Voigt Hill
#
# Bulk Modulus (GPa) = 34.44360 49.60851 42.02605
# Shear Modulus (GPa) = 29.28340 36.72322 33.00331
#
# Velocity S-wave (km/s) = 3.83353 4.29298 4.06974
# Velocity P-wave (km/s) = 6.07291 7.03342 6.57074
#
# Compressibility (1/GPa) = 0.02903297
#
# Stress axis : x y z
#
# Youngs Moduli (GPa) = 72.85412 82.36130 50.93626
#
# Poissons Ratio (x) = -0.03043 0.06904
# Poissons Ratio (y) = -0.02692 0.36916
# Poissons Ratio (z) = 0.09875 0.59692
#
# Static dielectric constant tensor:
#      x y z
#    x 1.691410 -0.005050 0.000700 
#    y -0.005050 1.686010 -0.004560 
#    z 0.000700 -0.004560 1.685760 
# 
# From -- ./inp_files/124284.got.cif
#   From: 2010.05.17/outbox.cif.g08.bks.cpg/sg2_63_cif.got.tgz:124284.got - 2010.06.03 11:33:40.
