data_PCOD9061918
_publ_section_title
;
Structure prediction by ZEFSAII (Michael W. Deem and Ramdas Pophale) SiO2 
 PCOD9061918
Probable space group: P -1
;
_chemical_formula_sum "Si O2"
_cell_formula_units_Z 13
_cell_length_a 5.363604
_cell_length_b 20.848381
_cell_length_c 11.865268
_cell_angle_alpha 32.044712
_cell_angle_beta 62.383592
_cell_angle_gamma 50.741683
_cell_volume 536.451717
_symmetry_space_group_name_H-M "P -1"
_symmetry_group_IT_number 2
_symmetry_cell_setting 'triclinic'
loop_
_space_group_symop_operation_xyz
x,y,z
-x,-y,-z
loop_
_atom_site_type_symbol
_atom_site_label
_atom_site_fract_x
_atom_site_fract_y
_atom_site_fract_z
Si Si1 0.847695 0.757347 0.527114
Si Si2 0.283118 0.515857 0.363381
Si Si3 0.261150 0.808303 0.232606
Si Si4 0.450777 0.424025 0.229241
Si Si5 0.500000 0.000000 0.000000
Si Si6 0.178102 0.807534 0.013274
Si Si7 0.639085 0.088833 0.396259
O O1 0.756293 0.649422 0.650732
O O2 0.579769 0.834796 0.563360
O O3 0.880699 0.854606 0.275754
O O4 0.186233 0.686274 0.634552
O O5 0.588148 0.358860 0.546415
O O6 0.260290 0.533588 0.206789
O O7 0.000000 0.500000 0.500000
O O8 0.273816 0.645761 0.230785
O O9 0.331249 0.833817 0.053655
O O10 0.374380 0.884683 0.180100
O O11 0.500000 0.500000 0.000000
O O12 0.798119 0.910477 0.971203
O O13 0.325163 0.825379 0.841267
O O14 0.500000 0.000000 0.500000
O O15 0.000000 0.000000 0.500000
#
# Coordination Sequence:
#
# PCOD9061918 Si02
#       7
#     2   2   2   2   1   2   2
#     4  11  25  47  72 108 153 199 256 319 387 458
#     4  11  23  46  73 114 151 193 254 322 384 456
#     4  11  26  46  79 108 155 204 254 323 392 467
#     4  11  24  44  74 108 150 204 250 311 393 463
#     4  12  26  46  72 108 150 198 262 300 394 450
#     4  12  27  46  77 111 150 203 259 318 390 463
#     4  12  29  49  74 110 155 207 264 319 382 458
#
# _framework density 24.233308999999998
#
# number of rings (size 3 to 8) (size 9 to 14) (size 15 to 20)
#    0.000    0.615    1.538    5.077    6.462    3.692 
#    0.000    0.000    0.000    0.000    0.000    0.000 
#    0.000    0.000    0.000    0.000    0.000    0.000 
#
# Total GULP energy -72475.513608 kJ/mol
# GULP energy per Si atom -5575.039508 kJ/mol
# Density = 2.417815 g / cm^3
# Si number density = 24.233309 Si / 1000 Ang^3
#
#
#
# Elastic Constant Matrix: (Units=GPa)
#
#
# Indices 1 2 3 4 5 6 
#
# 1 137.7864 37.3120 27.3338 -16.1833 -36.8384 27.8380
# 2 37.3120 186.8020 44.6752 8.1714 -12.5170 17.4289
# 3 27.3338 44.6752 102.7969 10.6199 -24.1017 15.7057
# 4 -16.1833 8.1714 10.6199 70.4201 7.7032 -5.3642
# 5 -36.8384 -12.5170 -24.1017 7.7032 39.5791 -2.3060
# 6 27.8380 17.4289 15.7057 -5.3642 -2.3060 46.6533
#
#
#
# Elastic Compliance Matrix: (Units=1/GPa)
#
#
# Indices 1 2 3 4 5 6 
#
# 1 0.011533 -0.001272 0.000671 0.001127 0.010172 -0.006000
# 2 -0.001272 0.006233 -0.002285 -0.000683 -0.000524 -0.000905
# 3 0.000671 -0.002285 0.013406 -0.002822 0.008384 -0.003970
# 4 0.001127 -0.000683 -0.002822 0.015541 -0.003786 0.002132
# 5 0.010172 -0.000524 0.008384 -0.003786 0.039993 -0.007155
# 6 -0.006000 -0.000905 -0.003970 0.002132 -0.007155 0.026581
#
#
# Mechanical properties :
#
#
# Convention : Reuss Voigt Hill
#
# Bulk Modulus (GPa) = 39.36754 71.78081 55.57417
# Shear Modulus (GPa) = 39.20791 52.53479 45.87135
#
# Velocity S-wave (km/s) = 4.02672 4.66110 4.35547
# Velocity P-wave (km/s) = 6.15628 7.65851 6.94811
#
# Compressibility (1/GPa) = 0.02540164
#
# Stress axis : x y z
#
# Youngs Moduli (GPa) = 86.70654 160.43875 74.59281
#
# Poissons Ratio (x) = 0.20409 -0.05009
# Poissons Ratio (y) = 0.11030 0.17042
# Poissons Ratio (z) = -0.05822 0.36654
#
# Static dielectric constant tensor:
#      x y z
#    x 1.661720 0.121230 0.120240 
#    y 0.121230 1.977970 0.029650 
#    z 0.120240 0.029650 1.954760 
# 
# From -- ./inp_files/361962.got.cif
#   From: 2010.05.17/outbox.cif.g08.bks.cpg/sg2_181_cif.got.tgz:361962.got - 2010.06.03 11:33:40.
