data_PCOD9061110
_publ_section_title
;
Structure prediction by ZEFSAII (Michael W. Deem and Ramdas Pophale) SiO2 
 PCOD9061110
Probable space group: P -1
;
_chemical_formula_sum "Si O2"
_cell_formula_units_Z 12
_cell_length_a 4.999726
_cell_length_b 19.452457
_cell_length_c 7.841423
_cell_angle_alpha 142.500698
_cell_angle_beta 81.750020
_cell_angle_gamma 92.843701
_cell_volume 456.831155
_symmetry_space_group_name_H-M "P -1"
_symmetry_group_IT_number 2
_symmetry_cell_setting 'triclinic'
loop_
_space_group_symop_operation_xyz
x,y,z
-x,-y,-z
loop_
_atom_site_type_symbol
_atom_site_label
_atom_site_fract_x
_atom_site_fract_y
_atom_site_fract_z
Si Si1 0.169568 0.063725 0.252685
Si Si2 0.975506 0.745649 0.796605
Si Si3 0.614196 0.179100 0.600023
Si Si4 0.424004 0.883214 0.144952
Si Si5 0.789807 0.456056 0.808855
Si Si6 0.651612 0.592391 0.769768
O O1 0.447387 0.128157 0.357275
O O2 0.935973 0.160607 0.518363
O O3 0.252732 0.972021 0.212148
O O4 0.000000 0.000000 0.000000
O O5 0.816520 0.662678 0.763043
O O6 0.123280 0.677375 0.491901
O O7 0.729409 0.844001 0.971689
O O8 0.226265 0.783220 0.953388
O O9 0.555451 0.103633 0.626433
O O10 0.519202 0.308479 0.909597
O O11 0.819073 0.517714 0.747875
O O12 0.500000 0.500000 0.000000
O O13 0.000000 0.500000 0.000000
O O14 0.500000 0.500000 0.500000
#
# Coordination Sequence:
#
# PCOD9061110 Si02
#       6
#     2   2   2   2   2   2
#     4  12  26  44  67 103 144 183 225 286 356 420
#     4  11  24  44  72 102 134 187 240 286 346 415
#     4  11  24  44  70 100 133 185 237 284 343 412
#     4  11  23  44  72  99 133 181 237 291 339 412
#     4  12  26  42  65 101 140 179 225 288 353 412
#     4  11  25  48  74 103 140 187 241 293 343 417
#
# _framework density 26.267911000000002
#
# number of rings (size 3 to 8) (size 9 to 14) (size 15 to 20)
#    0.000    0.667    0.000    9.000    0.000    9.333 
#    0.000    0.000    0.000    0.000    0.000    0.000 
#    0.000    0.000    0.000    0.000    0.000    0.000 
#
# Total GULP energy -67141.040882 kJ/mol
# GULP energy per Si atom -5595.086740 kJ/mol
# Density = 2.620812 g / cm^3
# Si number density = 26.267911 Si / 1000 Ang^3
#
#
#
# Elastic Constant Matrix: (Units=GPa)
#
#
# Indices 1 2 3 4 5 6 
#
# 1 213.4164 23.8729 55.2526 -8.9862 3.9530 -22.4582
# 2 23.8729 90.8910 26.6518 0.7560 15.0601 -29.6076
# 3 55.2526 26.6518 84.0664 -20.9707 25.0637 -26.3747
# 4 -8.9862 0.7560 -20.9707 31.4330 -17.5464 11.4297
# 5 3.9530 15.0601 25.0637 -17.5464 78.4689 -0.9473
# 6 -22.4582 -29.6076 -26.3747 11.4297 -0.9473 52.5858
#
#
#
# Elastic Compliance Matrix: (Units=1/GPa)
#
#
# Indices 1 2 3 4 5 6 
#
# 1 0.005753 -0.000355 -0.003966 -0.000640 0.000907 0.000423
# 2 -0.000355 0.015391 -0.002686 -0.007470 -0.003643 0.008725
# 3 -0.003966 -0.002686 0.020155 0.008455 -0.003771 0.004997
# 4 -0.000640 -0.007470 0.008455 0.046125 0.008957 -0.010103
# 5 0.000907 -0.003643 -0.003771 0.008957 0.016542 -0.005204
# 6 0.000423 0.008725 0.004997 -0.010103 -0.005204 0.028718
#
#
# Mechanical properties :
#
#
# Convention : Reuss Voigt Hill
#
# Bulk Modulus (GPa) = 36.65058 66.65871 51.65464
# Shear Modulus (GPa) = 32.09408 51.33730 41.71569
#
# Velocity S-wave (km/s) = 3.49921 4.42563 3.98940
# Velocity P-wave (km/s) = 5.50535 7.17959 6.39747
#
# Compressibility (1/GPa) = 0.02728470
#
# Stress axis : x y z
#
# Youngs Moduli (GPa) = 173.82441 64.97356 49.61630
#
# Poissons Ratio (x) = 0.02308 0.19677
# Poissons Ratio (y) = 0.06174 0.13326
# Poissons Ratio (z) = 0.68935 0.17451
#
# Static dielectric constant tensor:
#      x y z
#    x 1.976260 0.058780 -0.022670 
#    y 0.058780 2.132530 0.065680 
#    z -0.022670 0.065680 2.245540 
# 
# From -- ./inp_files/142119.got.cif
#   From: 2010.05.17/outbox.cif.g08.bks.cpg/sg2_72_cif.got.tgz:142119.got - 2010.06.03 11:33:40.
