data_PCOD9061564
_publ_section_title
;
Structure prediction by ZEFSAII (Michael W. Deem and Ramdas Pophale) SiO2 
 PCOD9061564
Probable space group: P -1
;
_chemical_formula_sum "Si O2"
_cell_formula_units_Z 16
_cell_length_a 9.379673
_cell_length_b 14.162709
_cell_length_c 5.577456
_cell_angle_alpha 102.654726
_cell_angle_beta 71.806226
_cell_angle_gamma 74.809867
_cell_volume 641.660462
_symmetry_space_group_name_H-M "P -1"
_symmetry_group_IT_number 2
_symmetry_cell_setting 'triclinic'
loop_
_space_group_symop_operation_xyz
x,y,z
-x,-y,-z
loop_
_atom_site_type_symbol
_atom_site_label
_atom_site_fract_x
_atom_site_fract_y
_atom_site_fract_z
Si Si1 0.132801 0.939844 0.591756
Si Si2 0.946856 0.143883 0.007468
Si Si3 0.416810 0.800977 0.892779
Si Si4 0.568413 0.585951 0.925599
Si Si5 0.320074 0.297081 0.691316
Si Si6 0.132954 0.547125 0.535686
Si Si7 0.502261 0.093657 0.716904
Si Si8 0.036213 0.660642 0.164661
O O1 0.079701 0.850613 0.688794
O O2 0.320244 0.900108 0.417932
O O3 0.000000 0.000000 0.500000
O O4 0.097715 0.038337 0.841800
O O5 0.770248 0.144630 0.028529
O O6 0.967191 0.230519 0.877655
O O7 0.442885 0.699923 0.991134
O O8 0.525124 0.744486 0.581222
O O9 0.492066 0.886442 0.988943
O O10 0.688269 0.537526 0.615985
O O11 0.500000 0.500000 0.000000
O O12 0.673599 0.611411 0.092092
O O13 0.351310 0.194477 0.779250
O O14 0.147489 0.327791 0.681492
O O15 0.096028 0.592402 0.849555
O O16 0.000000 0.500000 0.500000
O O17 0.127460 0.621142 0.346507
O O18 0.500000 0.000000 0.500000
#
# Coordination Sequence:
#
# PCOD9061564 Si02
#       8
#     2   2   2   2   2   2   2   2
#     4  11  23  45  73 103 149 187 245 312 371 447
#     4  11  25  45  72 106 142 197 247 307 376 448
#     4  11  24  45  72 103 147 189 247 312 368 451
#     4  11  26  43  72 104 143 195 244 306 373 443
#     4  11  25  46  67 104 147 185 244 306 369 445
#     4  12  26  49  73 106 151 195 250 311 374 442
#     4  11  24  45  72 106 142 192 247 305 381 450
#     4  12  28  46  77 108 147 202 251 308 375 453
#
# _framework density 24.935307000000002
#
# number of rings (size 3 to 8) (size 9 to 14) (size 15 to 20)
#    0.000    0.750    3.750    2.625    7.000    1.000 
#    0.000    0.000    0.000    0.000    0.000    0.000 
#    0.000    0.000    0.000    0.000    0.000    0.000 
#
# Total GULP energy -89242.358369 kJ/mol
# GULP energy per Si atom -5577.647398 kJ/mol
# Density = 2.487855 g / cm^3
# Si number density = 24.935307 Si / 1000 Ang^3
#
#
#
# Elastic Constant Matrix: (Units=GPa)
#
#
# Indices 1 2 3 4 5 6 
#
# 1 70.6310 31.6439 9.3034 3.2471 -10.6120 -28.1504
# 2 31.6439 131.7076 23.6423 -3.8502 15.5920 -11.2117
# 3 9.3034 23.6423 76.4630 10.0181 -9.5810 -4.9750
# 4 3.2471 -3.8502 10.0181 48.5527 -6.5453 -0.5310
# 5 -10.6120 15.5920 -9.5810 -6.5453 36.5070 2.3497
# 6 -28.1504 -11.2117 -4.9750 -0.5310 2.3497 45.8672
#
#
#
# Elastic Compliance Matrix: (Units=1/GPa)
#
#
# Indices 1 2 3 4 5 6 
#
# 1 0.022698 -0.005582 0.000915 -0.000900 0.008273 0.012231
# 2 -0.005582 0.010315 -0.003545 0.001007 -0.006718 -0.000933
# 3 0.000915 -0.003545 0.015142 -0.002755 0.005193 0.001039
# 4 -0.000900 0.001007 -0.002755 0.021636 0.002495 -0.000483
# 5 0.008273 -0.006718 0.005193 0.002495 0.034330 0.002269
# 6 0.012231 -0.000933 0.001039 -0.000483 0.002269 0.029071
#
#
# Mechanical properties :
#
#
# Convention : Reuss Voigt Hill
#
# Bulk Modulus (GPa) = 31.51492 45.33120 38.42306
# Shear Modulus (GPa) = 31.21217 40.46617 35.83917
#
# Velocity S-wave (km/s) = 3.54181 4.03283 3.79527
# Velocity P-wave (km/s) = 5.42144 6.31695 5.88625
#
# Compressibility (1/GPa) = 0.03173100
#
# Stress axis : x y z
#
# Youngs Moduli (GPa) = 44.05754 96.94324 66.04039
#
# Poissons Ratio (x) = 0.54115 -0.06041
# Poissons Ratio (y) = 0.24593 0.23409
# Poissons Ratio (z) = -0.04030 0.34364
#
# Static dielectric constant tensor:
#      x y z
#    x 1.965000 -0.019690 0.118960 
#    y -0.019690 2.143790 -0.135910 
#    z 0.118960 -0.135910 2.292480 
# 
# From -- ./inp_files/39701.got.cif
#   From: 2010.05.17/outbox.cif.g08.bks.cpg/sg2_20_cif.got.tgz:39701.got - 2010.06.03 11:33:40.
