data_PCOD9061087
_publ_section_title
;
Structure prediction by ZEFSAII (Michael W. Deem and Ramdas Pophale) SiO2 
 PCOD9061087
Probable space group: P -1
;
_chemical_formula_sum "Si O2"
_cell_formula_units_Z 16
_cell_length_a 10.883767
_cell_length_b 9.463487
_cell_length_c 17.848773
_cell_angle_alpha 149.093061
_cell_angle_beta 54.023657
_cell_angle_gamma 120.127241
_cell_volume 764.159925
_symmetry_space_group_name_H-M "P -1"
_symmetry_group_IT_number 2
_symmetry_cell_setting 'triclinic'
loop_
_space_group_symop_operation_xyz
x,y,z
-x,-y,-z
loop_
_atom_site_type_symbol
_atom_site_label
_atom_site_fract_x
_atom_site_fract_y
_atom_site_fract_z
Si Si1 0.329555 0.081590 0.572263
Si Si2 0.078929 0.178982 0.988048
Si Si3 0.864235 0.441483 0.079934
Si Si4 0.190992 0.504644 0.393796
Si Si5 0.823227 0.892939 0.522129
Si Si6 0.338238 0.637657 0.104129
Si Si7 0.640260 0.026818 0.906145
Si Si8 0.077725 0.628254 0.656424
O O1 0.260129 0.321276 0.758266
O O2 0.280232 0.147669 0.534027
O O3 0.500000 0.000000 0.500000
O O4 0.238081 0.806706 0.493896
O O5 0.221259 0.381260 0.036846
O O6 0.948449 0.387572 0.102682
O O7 0.000000 0.000000 0.000000
O O8 0.117736 0.939344 0.804831
O O9 0.780336 0.165437 0.961796
O O10 0.000000 0.500000 0.000000
O O11 0.103734 0.399948 0.302428
O O12 0.117997 0.542594 0.518894
O O13 0.321286 0.287472 0.267245
O O14 0.847585 0.597561 0.419218
O O15 0.731802 0.119880 0.707964
O O16 0.000000 0.000000 0.500000
O O17 0.363526 0.784555 0.080939
O O18 0.500000 0.500000 0.000000
O O19 0.500000 0.000000 0.000000
#
# Coordination Sequence:
#
# PCOD9061087 Si02
#       8
#     2   2   2   2   2   2   2   2
#     4  12  28  46  72 108 151 196 244 311 388 447
#     4  12  26  45  75 111 147 190 250 308 370 445
#     4  12  25  46  76 106 144 195 254 307 363 445
#     4  11  24  43  72 104 141 186 251 299 369 436
#     4  12  25  48  77 107 150 197 255 308 374 456
#     4  12  30  49  74 111 155 199 245 312 386 448
#     4  12  27  47  74 106 150 196 246 308 379 446
#     4  11  23  44  72 107 138 186 245 312 357 438
#
# _framework density 20.938026000000001
#
# number of rings (size 3 to 8) (size 9 to 14) (size 15 to 20)
#    0.000    0.250    5.000    3.750    7.000    0.000 
#    2.250    1.250    0.000    0.000    0.000    0.000 
#    0.000    0.000    0.000    0.000    0.000    0.000 
#
# Total GULP energy -89162.841595 kJ/mol
# GULP energy per Si atom -5572.677600 kJ/mol
# Density = 2.089037 g / cm^3
# Si number density = 20.938026 Si / 1000 Ang^3
#
#
#
# Elastic Constant Matrix: (Units=GPa)
#
#
# Indices 1 2 3 4 5 6 
#
# 1 128.5423 55.1734 56.5396 1.9305 -10.7923 -1.5043
# 2 55.1734 126.4372 46.5728 8.7672 -1.4776 -2.5245
# 3 56.5396 46.5728 170.3288 13.2495 -4.9880 18.9408
# 4 1.9305 8.7672 13.2495 42.7114 0.7569 1.1444
# 5 -10.7923 -1.4776 -4.9880 0.7569 39.4397 13.9078
# 6 -1.5043 -2.5245 18.9408 1.1444 13.9078 44.4024
#
#
#
# Elastic Compliance Matrix: (Units=1/GPa)
#
#
# Indices 1 2 3 4 5 6 
#
# 1 0.010715 -0.003752 -0.002605 0.001040 0.002256 0.000527
# 2 -0.003752 0.010281 -0.001679 -0.001439 -0.001409 0.001652
# 3 -0.002605 -0.001679 0.007835 -0.001890 0.001661 -0.003997
# 4 0.001040 -0.001439 -0.001890 0.024250 -0.000586 0.000318
# 5 0.002256 -0.001409 0.001661 -0.000586 0.029663 -0.009988
# 6 0.000527 0.001652 -0.003997 0.000318 -0.009988 0.027459
#
#
# Mechanical properties :
#
#
# Convention : Reuss Voigt Hill
#
# Bulk Modulus (GPa) = 78.36246 82.43109 80.39677
# Shear Modulus (GPa) = 38.30639 43.11220 40.70930
#
# Velocity S-wave (km/s) = 4.28192 4.54259 4.41418
# Velocity P-wave (km/s) = 7.87106 8.18340 8.02875
#
# Compressibility (1/GPa) = 0.01276121
#
# Stress axis : x y z
#
# Youngs Moduli (GPa) = 93.32300 97.26800 127.63621
#
# Poissons Ratio (x) = 0.36492 0.33243
# Poissons Ratio (y) = 0.35012 0.21426
# Poissons Ratio (z) = 0.24306 0.16328
#
# Static dielectric constant tensor:
#      x y z
#    x 1.862440 0.044940 -0.002580 
#    y 0.044940 1.819590 -0.012870 
#    z -0.002580 -0.012870 1.695190 
# 
# From -- ./inp_files/567108.got.cif
#   From: 2010.05.17/outbox.cif.g08.bks.cpg/sg2_284_cif.got.tgz:567108.got - 2010.06.03 11:33:40.
