data_PCOD9061415
_publ_section_title
;
Structure prediction by ZEFSAII (Michael W. Deem and Ramdas Pophale) SiO2 
 PCOD9061415
Probable space group: P -1
;
_chemical_formula_sum "Si O2"
_cell_formula_units_Z 16
_cell_length_a 9.247636
_cell_length_b 11.562664
_cell_length_c 14.088615
_cell_angle_alpha 147.266865
_cell_angle_beta 92.536840
_cell_angle_gamma 74.859773
_cell_volume 740.557528
_symmetry_space_group_name_H-M "P -1"
_symmetry_group_IT_number 2
_symmetry_cell_setting 'triclinic'
loop_
_space_group_symop_operation_xyz
x,y,z
-x,-y,-z
loop_
_atom_site_type_symbol
_atom_site_label
_atom_site_fract_x
_atom_site_fract_y
_atom_site_fract_z
Si Si1 0.321445 0.178505 0.105268
Si Si2 0.815367 0.171204 0.124695
Si Si3 0.590308 0.166777 0.602226
Si Si4 0.309346 0.298975 0.987090
Si Si5 0.800698 0.077247 0.365112
Si Si6 0.843590 0.191218 0.756519
Si Si7 0.636569 0.295287 0.004406
Si Si8 0.840054 0.462929 0.492360
O O1 0.263278 0.306577 0.291470
O O2 0.290077 0.353027 0.136695
O O3 0.500000 0.000000 0.000000
O O4 0.243049 0.007678 0.951730
O O5 0.788339 0.395570 0.343372
O O6 0.718818 0.237705 0.069656
O O7 0.000000 0.000000 0.000000
O O8 0.746720 0.083222 0.614947
O O9 0.500000 0.000000 0.500000
O O10 0.656272 0.180840 0.508586
O O11 0.467182 0.424643 0.809987
O O12 0.241484 0.114854 0.824398
O O13 0.500940 0.201517 0.912960
O O14 0.216732 0.540822 0.096011
O O15 0.967908 0.945139 0.333460
O O16 0.834348 0.257556 0.420156
O O17 0.776308 0.203541 0.868948
O O18 0.000000 0.500000 0.500000
#
# Coordination Sequence:
#
# PCOD9061415 Si02
#       8
#     2   2   2   2   2   2   2   2
#     4  12  26  46  73 102 143 186 240 303 357 424
#     4  12  25  48  71 103 142 189 239 296 363 424
#     4  11  24  45  67 104 143 181 234 293 358 431
#     4  11  23  45  70 103 142 185 237 296 362 431
#     4  12  25  43  73 106 143 186 239 300 359 425
#     4  11  24  43  71 103 141 188 234 292 363 426
#     4  11  24  44  70  96 138 188 234 287 360 429
#     4  12  27  45  71 107 145 190 245 296 361 430
#
# _framework density 21.605343999999999
#
# number of rings (size 3 to 8) (size 9 to 14) (size 15 to 20)
#    0.000    0.500    3.750    6.000    0.000    2.500 
#    0.000    0.000    0.000    0.000    0.000    0.000 
#    0.000    0.000    0.000    0.000    0.000    0.000 
#
# Total GULP energy -89343.581332 kJ/mol
# GULP energy per Si atom -5583.973833 kJ/mol
# Density = 2.155617 g / cm^3
# Si number density = 21.605344 Si / 1000 Ang^3
#
#
#
# Elastic Constant Matrix: (Units=GPa)
#
#
# Indices 1 2 3 4 5 6 
#
# 1 142.7929 26.0526 53.6660 8.3360 18.7342 8.9131
# 2 26.0526 79.7484 6.3820 -11.2457 19.0807 7.5650
# 3 53.6660 6.3820 87.0846 -13.7499 21.4972 3.6224
# 4 8.3360 -11.2457 -13.7499 27.9330 8.5106 -0.2183
# 5 18.7342 19.0807 21.4972 8.5106 44.6046 -0.8362
# 6 8.9131 7.5650 3.6224 -0.2183 -0.8362 39.9518
#
#
#
# Elastic Compliance Matrix: (Units=1/GPa)
#
#
# Indices 1 2 3 4 5 6 
#
# 1 0.011999 -0.005913 -0.010033 -0.012326 0.004666 -0.000617
# 2 -0.005913 0.019955 0.008581 0.018176 -0.013720 -0.003425
# 3 -0.010033 0.008581 0.024739 0.023453 -0.015888 -0.001834
# 4 -0.012326 0.018176 0.023453 0.066431 -0.026632 -0.003012
# 5 0.004666 -0.013720 -0.015888 -0.026632 0.039137 0.003671
# 6 -0.000617 -0.003425 -0.001834 -0.003012 0.003671 0.026043
#
#
# Mechanical properties :
#
#
# Convention : Reuss Voigt Hill
#
# Bulk Modulus (GPa) = 23.83131 53.53634 38.68382
# Shear Modulus (GPa) = 23.03920 37.39957 30.21938
#
# Velocity S-wave (km/s) = 3.26907 4.16508 3.74398
# Velocity P-wave (km/s) = 5.03024 6.92557 6.05256
#
# Compressibility (1/GPa) = 0.04196161
#
# Stress axis : x y z
#
# Youngs Moduli (GPa) = 83.34214 50.11248 40.42259
#
# Poissons Ratio (x) = 0.29631 0.40557
# Poissons Ratio (y) = 0.49279 -0.34685
# Poissons Ratio (z) = 0.83619 -0.42999
#
# Static dielectric constant tensor:
#      x y z
#    x 1.555770 -0.003230 -0.064010 
#    y -0.003230 1.822570 -0.027790 
#    z -0.064010 -0.027790 1.731310 
# 
# From -- ./inp_files/501181.got.cif
#   From: 2010.05.17/outbox.cif.g08.bks.cpg/sg2_251_cif.got.tgz:501181.got - 2010.06.03 11:33:40.
