data_PCOD9061000
_publ_section_title
;
Structure prediction by ZEFSAII (Michael W. Deem and Ramdas Pophale) SiO2 
 PCOD9061000
Probable space group: P -1
;
_chemical_formula_sum "Si O2"
_cell_formula_units_Z 16
_cell_length_a 15.490420
_cell_length_b 12.413969
_cell_length_c 9.706448
_cell_angle_alpha 49.086940
_cell_angle_beta 36.799297
_cell_angle_gamma 69.599548
_cell_volume 778.587261
_symmetry_space_group_name_H-M "P -1"
_symmetry_group_IT_number 2
_symmetry_cell_setting 'triclinic'
loop_
_space_group_symop_operation_xyz
x,y,z
-x,-y,-z
loop_
_atom_site_type_symbol
_atom_site_label
_atom_site_fract_x
_atom_site_fract_y
_atom_site_fract_z
Si Si1 0.898432 0.373127 0.347326
Si Si2 0.413257 0.612725 0.350979
Si Si3 0.616217 0.661898 0.787069
Si Si4 0.505144 0.164778 0.406283
Si Si5 0.859865 0.359566 0.728309
Si Si6 0.042985 0.153120 0.725056
Si Si7 0.407808 0.291268 0.684357
Si Si8 0.920588 0.850908 0.636583
O O1 0.722782 0.326408 0.555318
O O2 0.875739 0.408128 0.506826
O O3 0.988001 0.258589 0.348802
O O4 0.000000 0.500000 0.000000
O O5 0.376469 0.429736 0.531633
O O6 0.455361 0.640908 0.434765
O O7 0.547241 0.681109 0.007744
O O8 0.605360 0.791690 0.591916
O O9 0.800754 0.705064 0.537735
O O10 0.500000 0.500000 0.000000
O O11 0.444204 0.179571 0.624435
O O12 0.500000 0.000000 0.500000
O O13 0.679554 0.300551 0.055036
O O14 0.000000 0.500000 0.500000
O O15 0.904321 0.213554 0.831933
O O16 0.073729 0.117857 0.558599
O O17 0.000000 0.000000 0.000000
O O18 0.256697 0.216163 0.032932
O O19 0.000000 0.000000 0.500000
#
# Coordination Sequence:
#
# PCOD9061000 Si02
#       8
#     2   2   2   2   2   2   2   2
#     4  11  24  43  69 102 138 173 226 292 341 409
#     4  11  23  44  71 105 133 178 240 288 340 409
#     4  12  23  43  72 101 132 184 238 281 336 419
#     4  12  27  45  68 101 144 183 226 287 356 412
#     4  11  26  43  68 101 137 178 232 287 340 410
#     4  11  26  46  68  99 140 183 229 283 349 418
#     4  11  25  43  73 100 140 181 232 291 347 412
#     4  11  26  45  68 100 141 182 226 279 354 421
#
# _framework density 20.550039000000002
#
# number of rings (size 3 to 8) (size 9 to 14) (size 15 to 20)
#    0.000    0.750    5.000    1.500    7.000    1.000 
#    2.250    1.250    0.000    0.000    0.000    0.000 
#    0.000    0.000    0.000    0.000    0.000    0.000 
#
# Total GULP energy -89225.206697 kJ/mol
# GULP energy per Si atom -5576.575419 kJ/mol
# Density = 2.050327 g / cm^3
# Si number density = 20.550039 Si / 1000 Ang^3
#
#
#
# Elastic Constant Matrix: (Units=GPa)
#
#
# Indices 1 2 3 4 5 6 
#
# 1 96.7559 33.5716 45.6961 0.5038 18.1455 -2.5131
# 2 33.5716 88.9317 28.1155 9.4234 15.1784 11.6627
# 3 45.6961 28.1155 83.1506 14.8400 11.1308 -8.5685
# 4 0.5038 9.4234 14.8400 33.8380 -1.4046 -6.6860
# 5 18.1455 15.1784 11.1308 -1.4046 42.9431 1.1083
# 6 -2.5131 11.6627 -8.5685 -6.6860 1.1083 22.1895
#
#
#
# Elastic Compliance Matrix: (Units=1/GPa)
#
#
# Indices 1 2 3 4 5 6 
#
# 1 0.015891 -0.003841 -0.007540 0.004481 -0.003319 0.002423
# 2 -0.003841 0.016404 -0.003231 -0.005563 -0.003215 -0.011820
# 3 -0.007540 -0.003231 0.019160 -0.006161 -0.001006 0.006437
# 4 0.004481 -0.005563 -0.006161 0.036180 0.002548 0.011827
# 5 -0.003319 -0.003215 -0.001006 0.002548 0.026159 0.000386
# 6 0.002423 -0.011820 0.006437 0.011827 0.000386 0.057583
#
#
# Mechanical properties :
#
#
# Convention : Reuss Voigt Hill
#
# Bulk Modulus (GPa) = 44.98124 53.73384 49.35754
# Shear Modulus (GPa) = 24.03714 30.55780 27.29747
#
# Velocity S-wave (km/s) = 3.42378 3.86034 3.64860
# Velocity P-wave (km/s) = 6.12910 6.78780 6.46684
#
# Compressibility (1/GPa) = 0.02223149
#
# Stress axis : x y z
#
# Youngs Moduli (GPa) = 62.92830 60.95961 52.19246
#
# Poissons Ratio (x) = 0.23416 0.39353
# Poissons Ratio (y) = 0.24172 0.16861
# Poissons Ratio (z) = 0.47448 0.19694
#
# Static dielectric constant tensor:
#      x y z
#    x 1.733530 0.038760 0.010850 
#    y 0.038760 1.781020 -0.019560 
#    z 0.010850 -0.019560 1.714430 
# 
# From -- ./inp_files/306423.got.cif
#   From: 2010.05.17/outbox.cif.g08.bks.cpg/sg2_154_cif.got.tgz:306423.got - 2010.06.03 11:33:40.
