data_PCOD9061090
_publ_section_title
;
Structure prediction by ZEFSAII (Michael W. Deem and Ramdas Pophale) SiO2 
 PCOD9061090
Probable space group: P -1
;
_chemical_formula_sum "Si O2"
_cell_formula_units_Z 16
_cell_length_a 10.934767
_cell_length_b 6.675365
_cell_length_c 10.020869
_cell_angle_alpha 103.386134
_cell_angle_beta 110.890609
_cell_angle_gamma 75.227189
_cell_volume 652.734838
_symmetry_space_group_name_H-M "P -1"
_symmetry_group_IT_number 2
_symmetry_cell_setting 'triclinic'
loop_
_space_group_symop_operation_xyz
x,y,z
-x,-y,-z
loop_
_atom_site_type_symbol
_atom_site_label
_atom_site_fract_x
_atom_site_fract_y
_atom_site_fract_z
Si Si1 0.473922 0.841879 0.084222
Si Si2 0.758138 0.971315 0.814166
Si Si3 0.377946 0.702629 0.756784
Si Si4 0.873641 0.673716 0.017445
Si Si5 0.760726 0.664258 0.254437
Si Si6 0.879466 0.658567 0.589657
Si Si7 0.644341 0.431318 0.809858
Si Si8 0.897393 0.205537 0.446313
O O1 0.624255 0.809784 0.180762
O O2 0.417590 0.640381 0.089095
O O3 0.383377 0.015812 0.166623
O O4 0.440342 0.832916 0.914258
O O5 0.860662 0.894583 0.966006
O O6 0.797837 0.796000 0.692011
O O7 0.735020 0.203015 0.771217
O O8 0.292109 0.552430 0.776768
O O9 0.505501 0.556217 0.709359
O O10 0.254090 0.825228 0.640207
O O11 0.746757 0.579973 0.903196
O O12 0.858898 0.683754 0.172911
O O13 0.000000 0.500000 0.000000
O O14 0.813133 0.710214 0.426972
O O15 0.886514 0.409908 0.569208
O O16 0.025221 0.717304 0.640331
O O17 0.000000 0.000000 0.500000
#
# Coordination Sequence:
#
# PCOD9061090 Si02
#       8
#     2   2   2   2   2   2   2   2
#     4   9  18  40  71  95 128 173 224 277 344 383
#     4  10  25  41  62 103 137 181 217 282 346 399
#     4  10  17  41  76  94 129 180 229 287 327 397
#     4  12  25  39  67 103 138 171 235 289 331 395
#     4  10  19  41  70  96 131 179 220 280 335 402
#     4  10  24  45  64  94 148 174 221 273 338 424
#     4   9  20  44  64  97 140 169 225 285 341 389
#     4  10  24  43  69  97 127 187 233 266 336 409
#
# _framework density 24.512250999999999
#
# number of rings (size 3 to 8) (size 9 to 14) (size 15 to 20)
#    0.750    1.250    2.500    0.750    5.250    3.500 
#    4.500    0.000    0.000    3.000    0.000    0.000 
#    0.000    0.000    0.000    0.000    0.000    0.000 
#
# Total GULP energy -89173.006581 kJ/mol
# GULP energy per Si atom -5573.312911 kJ/mol
# Density = 2.445646 g / cm^3
# Si number density = 24.512251 Si / 1000 Ang^3
#
#
#
# Elastic Constant Matrix: (Units=GPa)
#
#
# Indices 1 2 3 4 5 6 
#
# 1 106.1238 35.1901 45.1106 -0.1646 19.0705 -24.9921
# 2 35.1901 152.3391 43.4045 -9.2570 13.8043 -23.3365
# 3 45.1106 43.4045 98.0636 2.1335 6.9122 -11.8569
# 4 -0.1646 -9.2570 2.1335 41.1460 -16.4469 2.5968
# 5 19.0705 13.8043 6.9122 -16.4469 46.2540 -3.4540
# 6 -24.9921 -23.3365 -11.8569 2.5968 -3.4540 42.8405
#
#
#
# Elastic Compliance Matrix: (Units=1/GPa)
#
#
# Indices 1 2 3 4 5 6 
#
# 1 0.014200 -0.000518 -0.005119 -0.002304 -0.005284 0.006299
# 2 -0.000518 0.008193 -0.002959 0.001368 -0.001066 0.003173
# 3 -0.005119 -0.002959 0.013772 -0.001170 0.000469 -0.000677
# 4 -0.002304 0.001368 -0.001170 0.029153 0.010948 -0.001807
# 5 -0.005284 -0.001066 0.000469 0.010948 0.027793 -0.001956
# 6 0.006299 0.003173 -0.000677 -0.001807 -0.001956 0.028509
#
#
# Mechanical properties :
#
#
# Convention : Reuss Voigt Hill
#
# Bulk Modulus (GPa) = 52.70497 67.10412 59.90455
# Shear Modulus (GPa) = 34.45035 41.56952 38.00993
#
# Velocity S-wave (km/s) = 3.75298 4.12256 3.94210
# Velocity P-wave (km/s) = 6.35043 7.07784 6.72398
#
# Compressibility (1/GPa) = 0.01897354
#
# Stress axis : x y z
#
# Youngs Moduli (GPa) = 70.42345 122.05833 72.60944
#
# Poissons Ratio (x) = 0.06323 0.37166
# Poissons Ratio (y) = 0.03648 0.21485
# Poissons Ratio (z) = 0.36047 0.36117
#
# Static dielectric constant tensor:
#      x y z
#    x 1.989490 0.030300 0.039240 
#    y 0.030300 2.181260 -0.066090 
#    z 0.039240 -0.066090 1.954700 
# 
# From -- ./inp_files/244662.got.cif
#   From: 2010.05.17/outbox.cif.g08.bks.cpg/sg2_123_cif.got.tgz:244662.got - 2010.06.03 11:33:40.
