data_PCOD9061652
_publ_section_title
;
Structure prediction by ZEFSAII (Michael W. Deem and Ramdas Pophale) SiO2 
 PCOD9061652
Probable space group: P -1
;
_chemical_formula_sum "Si O2"
_cell_formula_units_Z 11
_cell_length_a 15.875213
_cell_length_b 6.188331
_cell_length_c 9.050652
_cell_angle_alpha 84.331260
_cell_angle_beta 148.497383
_cell_angle_gamma 78.498229
_cell_volume 387.511303
_symmetry_space_group_name_H-M "P -1"
_symmetry_group_IT_number 2
_symmetry_cell_setting 'triclinic'
loop_
_space_group_symop_operation_xyz
x,y,z
-x,-y,-z
loop_
_atom_site_type_symbol
_atom_site_label
_atom_site_fract_x
_atom_site_fract_y
_atom_site_fract_z
Si Si1 0.500000 0.000000 0.000000
Si Si2 0.742718 0.330314 0.917081
Si Si3 0.215168 0.421441 0.782787
Si Si4 0.857489 0.803315 0.811774
Si Si5 0.880876 0.103614 0.586632
Si Si6 0.455407 0.273350 0.637264
O O1 0.344461 0.173577 0.890774
O O2 0.440426 0.261338 0.791664
O O3 0.658008 0.174853 0.872154
O O4 0.664651 0.433250 0.629486
O O5 0.688097 0.573480 0.920694
O O6 0.969882 0.148719 0.265284
O O7 0.208537 0.655321 0.668791
O O8 0.000000 0.500000 0.500000
O O9 0.671499 0.834230 0.601751
O O10 0.771215 0.002411 0.527570
O O11 0.000000 0.500000 0.000000
O O12 0.982925 0.860973 0.100285
#
# Coordination Sequence:
#
# PCOD9061652 Si02
#       6
#     1   2   2   2   2   2
#     4  12  30  48  78 118 156 212 266 324 400 466
#     4  11  26  48  77 114 157 210 263 325 412 466
#     4  12  28  51  81 116 164 211 266 336 395 476
#     4  11  23  45  75 114 152 203 267 324 393 472
#     4  11  25  45  81 112 150 209 266 321 394 480
#     4  11  26  47  74 110 159 203 258 331 389 471
#
# _framework density 28.386267
#
# number of rings (size 3 to 8) (size 9 to 14) (size 15 to 20)
#    0.000    0.727    1.818    3.818    7.636    5.091 
#    0.000    0.000    0.000    0.000    0.000    0.000 
#    0.000    0.000    0.000    0.000    0.000    0.000 
#
# Total GULP energy -61433.139813 kJ/mol
# GULP energy per Si atom -5584.830892 kJ/mol
# Density = 2.832166 g / cm^3
# Si number density = 28.386267 Si / 1000 Ang^3
#
#
#
# Elastic Constant Matrix: (Units=GPa)
#
#
# Indices 1 2 3 4 5 6 
#
# 1 244.7788 71.9768 53.7070 -3.4541 -1.6507 46.1044
# 2 71.9768 111.3769 24.2473 6.5178 10.6924 -14.5426
# 3 53.7070 24.2473 78.5837 -14.2488 -12.3639 1.2904
# 4 -3.4541 6.5178 -14.2488 40.9092 10.3217 8.9379
# 5 -1.6507 10.6924 -12.3639 10.3217 73.7340 -9.5859
# 6 46.1044 -14.5426 1.2904 8.9379 -9.5859 76.2678
#
#
#
# Elastic Compliance Matrix: (Units=1/GPa)
#
#
# Indices 1 2 3 4 5 6 
#
# 1 0.007227 -0.004724 -0.003200 0.001604 -0.000627 -0.005482
# 2 -0.004724 0.013580 -0.001998 -0.004270 -0.001052 0.005847
# 3 -0.003200 -0.001998 0.016818 0.005072 0.002456 0.000983
# 4 0.001604 -0.004270 0.005072 0.029106 -0.003310 -0.005697
# 5 -0.000627 -0.001052 0.002456 -0.003310 0.014887 0.002396
# 6 -0.005482 0.005847 0.000983 -0.005697 0.002396 0.018493
#
#
# Mechanical properties :
#
#
# Convention : Reuss Voigt Hill
#
# Bulk Modulus (GPa) = 56.23076 81.62240 68.92658
# Shear Modulus (GPa) = 39.71944 57.16941 48.44443
#
# Velocity S-wave (km/s) = 3.74471 4.49261 4.13560
# Velocity P-wave (km/s) = 6.20881 7.46512 6.86576
#
# Compressibility (1/GPa) = 0.01778386
#
# Stress axis : x y z
#
# Youngs Moduli (GPa) = 138.36342 73.63559 59.45873
#
# Poissons Ratio (x) = 0.34782 0.19025
# Poissons Ratio (y) = 0.65357 0.11879
# Poissons Ratio (z) = 0.44272 0.14711
#
# Static dielectric constant tensor:
#      x y z
#    x 2.157530 0.005600 -0.067430 
#    y 0.005600 1.935020 -0.238880 
#    z -0.067430 -0.238880 2.050570 
# 
# From -- ./inp_files/35153.got.cif
#   From: 2010.05.17/outbox.cif.g08.bks.cpg/sg2_18_cif.got.tgz:35153.got - 2010.06.03 11:33:40.
