data_PCOD9061116
_publ_section_title
;
Structure prediction by ZEFSAII (Michael W. Deem and Ramdas Pophale) SiO2 
 PCOD9061116
Probable space group: P -1
;
_chemical_formula_sum "Si O2"
_cell_formula_units_Z 16
_cell_length_a 5.803562
_cell_length_b 14.644684
_cell_length_c 17.287453
_cell_angle_alpha 28.026513
_cell_angle_beta 116.427102
_cell_angle_gamma 108.662705
_cell_volume 608.901034
_symmetry_space_group_name_H-M "P -1"
_symmetry_group_IT_number 2
_symmetry_cell_setting 'triclinic'
loop_
_space_group_symop_operation_xyz
x,y,z
-x,-y,-z
loop_
_atom_site_type_symbol
_atom_site_label
_atom_site_fract_x
_atom_site_fract_y
_atom_site_fract_z
Si Si1 0.248613 0.807699 0.538610
Si Si2 0.710177 0.918713 0.795060
Si Si3 0.367557 0.080645 0.043150
Si Si4 0.161434 0.232004 0.365175
Si Si5 0.122193 0.477280 0.662518
Si Si6 0.307407 0.665499 0.894076
Si Si7 0.774996 0.367993 0.913447
Si Si8 0.636380 0.660381 0.360296
O O1 0.548368 0.836818 0.575307
O O2 0.235473 0.588963 0.666663
O O3 0.044117 0.851892 0.545514
O O4 0.174997 0.949701 0.348260
O O5 0.665086 0.996549 0.816741
O O6 0.441528 0.860289 0.768561
O O7 0.922519 0.724007 0.979302
O O8 0.599087 0.211560 0.976802
O O9 0.469397 0.878614 0.164814
O O10 0.114248 0.248877 0.858884
O O11 0.971175 0.298857 0.214768
O O12 0.234878 0.418452 0.285577
O O13 0.289793 0.424090 0.650035
O O14 0.886420 0.636952 0.472427
O O15 0.290483 0.607049 0.024066
O O16 0.500000 0.500000 0.000000
O O17 0.500000 0.500000 0.500000
#
# Coordination Sequence:
#
# PCOD9061116 Si02
#       8
#     2   2   2   2   2   2   2   2
#     4  12  28  46  73 107 152 194 251 313 377 449
#     4  11  26  43  70 104 146 198 247 314 371 444
#     4  11  24  47  74 108 148 199 251 301 381 455
#     4  12  26  45  73 104 142 200 248 307 377 442
#     4  11  25  46  73 109 145 196 248 303 377 453
#     4  11  24  43  71 105 145 193 257 314 371 443
#     4  11  23  44  73 100 143 198 252 309 367 446
#     4  11  26  45  75 110 152 189 241 316 375 452
#
# _framework density 26.276851000000001
#
# number of rings (size 3 to 8) (size 9 to 14) (size 15 to 20)
#    0.000    0.750    2.500    3.750    8.750    3.500 
#    0.000    0.000    0.000    0.000    0.000    0.000 
#    0.000    0.000    0.000    0.000    0.000    0.000 
#
# Total GULP energy -89412.177499 kJ/mol
# GULP energy per Si atom -5588.261094 kJ/mol
# Density = 2.621704 g / cm^3
# Si number density = 26.276851 Si / 1000 Ang^3
#
#
#
# Elastic Constant Matrix: (Units=GPa)
#
#
# Indices 1 2 3 4 5 6 
#
# 1 150.3664 55.4186 26.7105 8.4880 -5.5874 -3.7390
# 2 55.4186 86.5416 25.1674 8.5720 7.1351 -8.3315
# 3 26.7105 25.1674 99.1050 -4.9754 -4.7560 -7.8973
# 4 8.4880 8.5720 -4.9754 46.8820 -3.8456 5.1936
# 5 -5.5874 7.1351 -4.7560 -3.8456 57.4780 0.9669
# 6 -3.7390 -8.3315 -7.8973 5.1936 0.9669 19.6226
#
#
#
# Elastic Compliance Matrix: (Units=1/GPa)
#
#
# Indices 1 2 3 4 5 6 
#
# 1 0.008956 -0.005612 -0.001024 -0.000469 0.001469 -0.001037
# 2 -0.005612 0.017114 -0.002664 -0.003343 -0.003218 0.006168
# 3 -0.001024 -0.002664 0.011407 0.001679 0.001241 0.002759
# 4 -0.000469 -0.003343 0.001679 0.023167 0.002177 -0.007072
# 5 0.001469 -0.003218 0.001241 0.002177 0.018223 -0.002061
# 6 -0.001037 0.006168 0.002759 -0.007072 -0.002061 0.056467
#
#
# Mechanical properties :
#
#
# Convention : Reuss Voigt Hill
#
# Bulk Modulus (GPa) = 52.97818 61.17844 57.07831
# Shear Modulus (GPa) = 31.20612 40.04427 35.62520
#
# Velocity S-wave (km/s) = 3.44988 3.90800 3.68606
# Velocity P-wave (km/s) = 6.00618 6.61030 6.31547
#
# Compressibility (1/GPa) = 0.01887569
#
# Stress axis : x y z
#
# Youngs Moduli (GPa) = 111.65907 58.43282 87.66798
#
# Poissons Ratio (x) = 0.32790 0.08981
# Poissons Ratio (y) = 0.62658 0.23357
# Poissons Ratio (z) = 0.11438 0.15568
#
# Static dielectric constant tensor:
#      x y z
#    x 2.191200 0.207430 0.069270 
#    y 0.207430 2.272550 0.049300 
#    z 0.069270 0.049300 2.212070 
# 
# From -- ./inp_files/106490.got.cif
#   From: 2010.05.17/outbox.cif.g08.bks.cpg/sg2_54_cif.got.tgz:106490.got - 2010.06.03 11:33:40.
