data_PCOD9061977
_publ_section_title
;
Structure prediction by ZEFSAII (Michael W. Deem and Ramdas Pophale) SiO2 
 PCOD9061977
Probable space group: P -1
;
_chemical_formula_sum "Si O2"
_cell_formula_units_Z 16
_cell_length_a 8.067295
_cell_length_b 13.592024
_cell_length_c 11.288623
_cell_angle_alpha 126.447503
_cell_angle_beta 107.570787
_cell_angle_gamma 41.370966
_cell_volume 633.505973
_symmetry_space_group_name_H-M "P -1"
_symmetry_group_IT_number 2
_symmetry_cell_setting 'triclinic'
loop_
_space_group_symop_operation_xyz
x,y,z
-x,-y,-z
loop_
_atom_site_type_symbol
_atom_site_label
_atom_site_fract_x
_atom_site_fract_y
_atom_site_fract_z
Si Si1 0.144138 0.079389 0.263192
Si Si2 0.420390 0.246336 0.487953
Si Si3 0.025760 0.516308 0.279339
Si Si4 0.648435 0.347887 0.754950
Si Si5 0.550213 0.335127 0.350490
Si Si6 0.795215 0.841654 0.906653
Si Si7 0.170560 0.141675 0.589377
Si Si8 0.253123 0.759395 0.027897
O O1 0.197638 0.156940 0.234019
O O2 0.180753 0.094162 0.419817
O O3 0.844730 0.190099 0.266515
O O4 0.306205 0.875318 0.112731
O O5 0.496781 0.311887 0.645846
O O6 0.509827 0.257478 0.391509
O O7 0.116645 0.390992 0.558107
O O8 0.596308 0.039184 0.415648
O O9 0.314602 0.420902 0.276090
O O10 0.064248 0.352853 0.150649
O O11 0.853111 0.698497 0.292757
O O12 0.731467 0.279351 0.857656
O O13 0.903997 0.229457 0.647078
O O14 0.460671 0.563281 0.868799
O O15 0.500000 0.500000 0.500000
O O16 0.968638 0.865613 0.000053
O O17 0.500000 0.000000 0.000000
#
# Coordination Sequence:
#
# PCOD9061977 Si02
#       8
#     2   2   2   2   2   2   2   2
#     4  12  25  46  78 107 142 191 260 296 373 439
#     4  12  23  46  71 110 158 182 243 313 375 427
#     4  12  27  45  70 110 152 194 243 305 376 434
#     4  11  23  46  76 105 145 192 250 295 367 443
#     4  12  24  43  76 110 144 195 245 305 371 437
#     4  12  29  49  72 105 154 199 242 309 374 441
#     4  12  26  45  78 112 145 197 244 313 369 437
#     4  11  25  47  74 106 144 203 244 294 360 457
#
# _framework density 25.256274999999999
#
# number of rings (size 3 to 8) (size 9 to 14) (size 15 to 20)
#    0.000    0.250    5.000    3.750    5.250    0.000 
#    2.250    0.625    0.000    0.000    0.000    0.000 
#    0.000    0.000    0.000    0.000    0.000    0.000 
#
# Total GULP energy -89675.916277 kJ/mol
# GULP energy per Si atom -5604.744767 kJ/mol
# Density = 2.519879 g / cm^3
# Si number density = 25.256275 Si / 1000 Ang^3
#
#
#
# Elastic Constant Matrix: (Units=GPa)
#
#
# Indices 1 2 3 4 5 6 
#
# 1 106.0353 21.7472 20.6573 7.5457 -23.1696 14.9293
# 2 21.7472 107.4986 26.7672 14.1445 -9.8879 23.9216
# 3 20.6573 26.7672 78.1597 16.6361 1.0800 12.4178
# 4 7.5457 14.1445 16.6361 46.9941 11.8661 7.0382
# 5 -23.1696 -9.8879 1.0800 11.8661 49.0694 14.7666
# 6 14.9293 23.9216 12.4178 7.0382 14.7666 48.0053
#
#
#
# Elastic Compliance Matrix: (Units=1/GPa)
#
#
# Indices 1 2 3 4 5 6 
#
# 1 0.012615 0.000388 -0.002096 -0.002672 0.008469 -0.005788
# 2 0.000388 0.012333 -0.002633 -0.003224 0.005560 -0.006823
# 3 -0.002096 -0.002633 0.015301 -0.003969 -0.000520 -0.001252
# 4 -0.002672 -0.003224 -0.003969 0.025954 -0.008814 0.002370
# 5 0.008469 0.005560 -0.000520 -0.008814 0.031780 -0.013753
# 6 -0.005788 -0.006823 -0.001252 0.002370 -0.013753 0.030238
#
#
# Mechanical properties :
#
#
# Convention : Reuss Voigt Hill
#
# Bulk Modulus (GPa) = 31.67724 47.78190 39.72957
# Shear Modulus (GPa) = 33.91556 43.64855 38.78206
#
# Velocity S-wave (km/s) = 3.66848 4.16170 3.92285
# Velocity P-wave (km/s) = 5.52387 6.48482 6.02354
#
# Compressibility (1/GPa) = 0.03156841
#
# Stress axis : x y z
#
# Youngs Moduli (GPa) = 79.27039 81.08036 65.35615
#
# Poissons Ratio (x) = -0.03149 0.13697
# Poissons Ratio (y) = -0.03078 0.17208
# Poissons Ratio (z) = 0.16614 0.21348
#
# Static dielectric constant tensor:
#      x y z
#    x 1.992110 0.045170 0.025550 
#    y 0.045170 2.039460 0.007420 
#    z 0.025550 0.007420 1.989180 
# 
# From -- ./inp_files/399627.got.cif
#   From: 2010.05.17/outbox.cif.g08.bks.cpg/sg2_200_cif.got.tgz:399627.got - 2010.06.03 11:33:40.
