data_PCOD9061525
_publ_section_title
;
Structure prediction by ZEFSAII (Michael W. Deem and Ramdas Pophale) SiO2 
 PCOD9061525
Probable space group: P -1
;
_chemical_formula_sum "Si O2"
_cell_formula_units_Z 16
_cell_length_a 16.721608
_cell_length_b 9.349429
_cell_length_c 11.308493
_cell_angle_alpha 86.020207
_cell_angle_beta 135.196307
_cell_angle_gamma 128.670838
_cell_volume 713.480581
_symmetry_space_group_name_H-M "P -1"
_symmetry_group_IT_number 2
_symmetry_cell_setting 'triclinic'
loop_
_space_group_symop_operation_xyz
x,y,z
-x,-y,-z
loop_
_atom_site_type_symbol
_atom_site_label
_atom_site_fract_x
_atom_site_fract_y
_atom_site_fract_z
Si Si1 0.682238 0.318768 0.853074
Si Si2 0.873201 0.525894 0.511844
Si Si3 0.100427 0.254697 0.116257
Si Si4 0.191760 0.858279 0.038918
Si Si5 0.445847 0.535775 0.054290
Si Si6 0.085315 0.337930 0.715362
Si Si7 0.592627 0.440244 0.365338
Si Si8 0.312110 0.977644 0.623029
O O1 0.781133 0.555009 0.879409
O O2 0.450744 0.101913 0.646774
O O3 0.741177 0.233901 0.855341
O O4 0.780721 0.415605 0.081164
O O5 0.948900 0.642407 0.454177
O O6 0.711118 0.475466 0.386135
O O7 0.768498 0.262414 0.415587
O O8 0.046750 0.706395 0.781137
O O9 0.260191 0.403439 0.379359
O O10 0.933201 0.193251 0.987721
O O11 0.000000 0.000000 0.000000
O O12 0.391607 0.149440 0.202100
O O13 0.529954 0.532232 0.251539
O O14 0.554176 0.801620 0.152770
O O15 0.500000 0.500000 0.000000
O O16 0.213905 0.326816 0.839552
O O17 0.880168 0.120958 0.581971
#
# Coordination Sequence:
#
# PCOD9061525 Si02
#       8
#     2   2   2   2   2   2   2   2
#     4  11  25  46  71 107 138 187 241 293 358 413
#     4  11  23  45  72 113 142 186 234 293 356 419
#     4  11  29  50  74 103 138 189 241 296 355 427
#     4  11  25  45  76 104 143 181 236 299 358 423
#     4  11  26  44  67 105 146 195 235 287 356 426
#     4  11  25  42  73 107 145 188 235 289 348 424
#     4  11  26  48  72 105 144 186 235 296 357 421
#     4  11  25  42  73 103 146 189 235 293 349 425
#
# _framework density 22.425276
#
# number of rings (size 3 to 8) (size 9 to 14) (size 15 to 20)
#    0.000    1.000    3.750    0.750    7.000    5.500 
#    0.000    0.000    0.000    0.000    0.000    0.000 
#    0.000    0.000    0.000    0.000    0.000    0.000 
#
# Total GULP energy -89498.722858 kJ/mol
# GULP energy per Si atom -5593.670179 kJ/mol
# Density = 2.237423 g / cm^3
# Si number density = 22.425276 Si / 1000 Ang^3
#
#
#
# Elastic Constant Matrix: (Units=GPa)
#
#
# Indices 1 2 3 4 5 6 
#
# 1 147.9068 45.5090 57.0051 3.8899 38.6368 -12.2601
# 2 45.5090 102.1324 45.2594 18.5226 11.2228 -8.5834
# 3 57.0051 45.2594 86.3909 15.7337 28.8102 -1.0947
# 4 3.8899 18.5226 15.7337 28.4558 -2.5032 1.6761
# 5 38.6368 11.2228 28.8102 -2.5032 50.4674 7.5098
# 6 -12.2601 -8.5834 -1.0947 1.6761 7.5098 27.5511
#
#
#
# Elastic Compliance Matrix: (Units=1/GPa)
#
#
# Indices 1 2 3 4 5 6 
#
# 1 0.011206 -0.002131 -0.004289 0.001315 -0.006459 0.005833
# 2 -0.002131 0.014414 -0.005081 -0.006453 0.000470 0.003605
# 3 -0.004289 -0.005081 0.021402 -0.008674 -0.008254 0.000136
# 4 0.001315 -0.006453 -0.008674 0.045123 0.008640 -0.006870
# 5 -0.006459 0.000470 -0.008254 0.008640 0.031611 -0.012198
# 6 0.005833 0.003605 0.000136 -0.006870 -0.012198 0.043763
#
#
# Mechanical properties :
#
#
# Convention : Reuss Voigt Hill
#
# Bulk Modulus (GPa) = 41.63469 70.21967 55.92718
# Shear Modulus (GPa) = 25.18530 33.87197 29.52863
#
# Velocity S-wave (km/s) = 3.35487 3.89065 3.63265
# Velocity P-wave (km/s) = 5.79768 7.18078 6.52598
#
# Compressibility (1/GPa) = 0.02401843
#
# Stress axis : x y z
#
# Youngs Moduli (GPa) = 89.23659 69.37711 46.72511
#
# Poissons Ratio (x) = 0.14784 0.20043
# Poissons Ratio (y) = 0.19016 0.23742
# Poissons Ratio (z) = 0.38278 0.35252
#
# Static dielectric constant tensor:
#      x y z
#    x 1.838530 -0.008280 0.011370 
#    y -0.008280 1.803760 -0.005740 
#    z 0.011370 -0.005740 1.868140 
# 
# From -- ./inp_files/462163.got.cif
#   From: 2010.05.17/outbox.cif.g08.bks.cpg/sg2_232_cif.got.tgz:462163.got - 2010.06.03 11:33:40.
