data_PCOD9061467
_publ_section_title
;
Structure prediction by ZEFSAII (Michael W. Deem and Ramdas Pophale) SiO2 
 PCOD9061467
Probable space group: P -1
;
_chemical_formula_sum "Si O2"
_cell_formula_units_Z 16
_cell_length_a 8.479350
_cell_length_b 22.732775
_cell_length_c 15.835475
_cell_angle_alpha 24.095743
_cell_angle_beta 135.403697
_cell_angle_gamma 147.305386
_cell_volume 650.952010
_symmetry_space_group_name_H-M "P -1"
_symmetry_group_IT_number 2
_symmetry_cell_setting 'triclinic'
loop_
_space_group_symop_operation_xyz
x,y,z
-x,-y,-z
loop_
_atom_site_type_symbol
_atom_site_label
_atom_site_fract_x
_atom_site_fract_y
_atom_site_fract_z
Si Si1 0.182154 0.670633 0.415305
Si Si2 0.854249 0.998871 0.034742
Si Si3 0.662470 0.415402 0.675816
Si Si4 0.792500 0.291699 0.042242
Si Si5 0.626516 0.370742 0.084961
Si Si6 0.306204 0.331348 0.361602
Si Si7 0.811509 0.777493 0.736095
Si Si8 0.251904 0.003241 0.315865
O O1 0.184331 0.844990 0.177871
O O2 0.500859 0.725565 0.466752
O O3 0.000000 0.500000 0.500000
O O4 0.997587 0.569757 0.564351
O O5 0.531157 0.780592 0.196021
O O6 0.054550 0.027421 0.151125
O O7 0.000000 0.000000 0.000000
O O8 0.500000 0.500000 0.500000
O O9 0.668406 0.362381 0.842883
O O10 0.018683 0.458290 0.979656
O O11 0.523251 0.079408 0.256291
O O12 0.981725 0.261559 0.097276
O O13 0.467951 0.327127 0.172134
O O14 0.450236 0.154843 0.268413
O O15 0.540123 0.446547 0.877030
O O16 0.256342 0.294862 0.290448
O O17 0.002673 0.205740 0.465672
O O18 0.000000 0.000000 0.500000
#
# Coordination Sequence:
#
# PCOD9061467 Si02
#       8
#     2   2   2   2   2   2   2   2
#     4  12  26  46  76 112 145 197 255 312 383 443
#     4  12  26  48  72 109 152 199 248 312 377 452
#     4  12  25  49  75 108 151 199 254 308 377 459
#     4  11  25  44  73 103 145 200 238 307 377 448
#     4  11  24  48  69 106 148 185 247 306 378 439
#     4  11  25  43  72 105 143 192 240 309 368 439
#     4  11  23  45  71 102 142 186 241 303 370 446
#     4  12  25  46  69 105 146 189 250 308 366 451
#
# _framework density 24.579386
#
# number of rings (size 3 to 8) (size 9 to 14) (size 15 to 20)
#    0.000    0.500    3.750    4.875    1.750    6.000 
#    4.500    0.000    0.000    0.000    0.000    0.000 
#    0.000    0.000    0.000    0.000    0.000    0.000 
#
# Total GULP energy -89403.127002 kJ/mol
# GULP energy per Si atom -5587.695438 kJ/mol
# Density = 2.452344 g / cm^3
# Si number density = 24.579386 Si / 1000 Ang^3
#
#
#
# Elastic Constant Matrix: (Units=GPa)
#
#
# Indices 1 2 3 4 5 6 
#
# 1 75.4512 26.1130 39.1119 2.4711 8.2589 2.2057
# 2 26.1130 103.6611 38.5778 7.2849 9.9012 4.5373
# 3 39.1119 38.5778 145.8257 -7.1372 5.4083 2.6871
# 4 2.4711 7.2849 -7.1372 46.0869 5.5269 -4.8308
# 5 8.2589 9.9012 5.4083 5.5269 56.3172 -3.1035
# 6 2.2057 4.5373 2.6871 -4.8308 -3.1035 31.6096
#
#
#
# Elastic Compliance Matrix: (Units=1/GPa)
#
#
# Indices 1 2 3 4 5 6 
#
# 1 0.016237 -0.002476 -0.003675 -0.000943 -0.001542 -0.000761
# 2 -0.002476 0.011513 -0.002403 -0.002081 -0.001321 -0.001723
# 3 -0.003675 -0.002403 0.008572 0.001926 -0.000042 0.000163
# 4 -0.000943 -0.002081 0.001926 0.022955 -0.001739 0.003538
# 5 -0.001542 -0.001321 -0.000042 -0.001739 0.018492 0.001851
# 6 -0.000761 -0.001723 0.000163 0.003538 0.001851 0.032645
#
#
# Mechanical properties :
#
#
# Convention : Reuss Voigt Hill
#
# Bulk Modulus (GPa) = 52.04371 59.17151 55.60761
# Shear Modulus (GPa) = 37.33418 41.54508 39.43963
#
# Velocity S-wave (km/s) = 3.90156 4.11571 4.01007
# Velocity P-wave (km/s) = 6.44329 6.83457 6.64181
#
# Compressibility (1/GPa) = 0.01921462
#
# Stress axis : x y z
#
# Youngs Moduli (GPa) = 61.58608 86.86189 116.66371
#
# Poissons Ratio (x) = 0.21505 0.42874
# Poissons Ratio (y) = 0.15247 0.28031
# Poissons Ratio (z) = 0.22633 0.20870
#
# Static dielectric constant tensor:
#      x y z
#    x 2.255970 -0.068420 0.278620 
#    y -0.068420 2.009540 -0.087750 
#    z 0.278620 -0.087750 2.233180 
# 
# From -- ./inp_files/508728.got.cif
#   From: 2010.05.17/outbox.cif.g08.bks.cpg/sg2_255_cif.got.tgz:508728.got - 2010.06.03 11:33:40.
