data_PCOD9061748
_publ_section_title
;
Structure prediction by ZEFSAII (Michael W. Deem and Ramdas Pophale) SiO2 
 PCOD9061748
Probable space group: P -1
;
_chemical_formula_sum "Si O2"
_cell_formula_units_Z 16
_cell_length_a 13.856631
_cell_length_b 13.863753
_cell_length_c 8.204543
_cell_angle_alpha 95.388679
_cell_angle_beta 31.200960
_cell_angle_gamma 81.040445
_cell_volume 722.744718
_symmetry_space_group_name_H-M "P -1"
_symmetry_group_IT_number 2
_symmetry_cell_setting 'triclinic'
loop_
_space_group_symop_operation_xyz
x,y,z
-x,-y,-z
loop_
_atom_site_type_symbol
_atom_site_label
_atom_site_fract_x
_atom_site_fract_y
_atom_site_fract_z
Si Si1 0.663882 0.003339 0.892714
Si Si2 0.978591 0.788660 0.578731
Si Si3 0.435817 0.519319 0.281319
Si Si4 0.023819 0.729970 0.890604
Si Si5 0.242843 0.398972 0.729446
Si Si6 0.645540 0.191912 0.149220
Si Si7 0.890869 0.446154 0.762276
Si Si8 0.010157 0.927113 0.124446
O O1 0.774956 0.898449 0.834906
O O2 0.854107 0.995893 0.503568
O O3 0.500000 0.000000 0.000000
O O4 0.572946 0.113890 0.144544
O O5 0.997293 0.765994 0.743033
O O6 0.984716 0.682989 0.463850
O O7 0.182243 0.795161 0.211473
O O8 0.264660 0.644572 0.566752
O O9 0.325618 0.443443 0.468735
O O10 0.500000 0.500000 0.000000
O O11 0.648909 0.483191 0.068422
O O12 0.894141 0.663878 0.103535
O O13 0.956963 0.833098 0.120273
O O14 0.456905 0.307307 0.483529
O O15 0.122117 0.503316 0.034396
O O16 0.763225 0.130200 0.130944
O O17 0.000000 0.500000 0.500000
O O18 0.000000 0.000000 0.000000
#
# Coordination Sequence:
#
# PCOD9061748 Si02
#       8
#     2   2   2   2   2   2   2   2
#     4  11  25  46  70 100 130 180 234 289 351 412
#     4  11  23  46  68  95 146 182 226 291 347 409
#     4  12  24  44  66 101 141 183 231 282 348 414
#     4  12  24  43  66 109 139 183 234 286 346 417
#     4  12  25  42  70 101 142 187 229 289 343 418
#     4  11  23  46  70  98 135 185 230 286 354 410
#     4  12  24  46  68 103 141 184 234 281 349 413
#     4  11  24  43  70  98 134 180 234 289 349 413
#
# _framework density 22.137830999999998
#
# number of rings (size 3 to 8) (size 9 to 14) (size 15 to 20)
#    0.000    0.500    3.750    5.250    3.500    1.000 
#    9.000    2.500    0.000    0.000    0.000    0.000 
#    0.000    0.000    0.000    0.000    0.000    0.000 
#
# Total GULP energy -89542.988431 kJ/mol
# GULP energy per Si atom -5596.436777 kJ/mol
# Density = 2.208744 g / cm^3
# Si number density = 22.137831 Si / 1000 Ang^3
#
#
#
# Elastic Constant Matrix: (Units=GPa)
#
#
# Indices 1 2 3 4 5 6 
#
# 1 82.9454 39.8482 7.9004 -9.7912 -1.9021 -1.1084
# 2 39.8482 102.9179 13.1747 -9.2507 6.7114 -0.4885
# 3 7.9004 13.1747 53.3633 -5.8189 -0.7766 -11.3044
# 4 -9.7912 -9.2507 -5.8189 40.1558 0.1077 1.3735
# 5 -1.9021 6.7114 -0.7766 0.1077 40.0893 7.2703
# 6 -1.1084 -0.4885 -11.3044 1.3735 7.2703 52.7990
#
#
#
# Elastic Compliance Matrix: (Units=1/GPa)
#
#
# Indices 1 2 3 4 5 6 
#
# 1 0.015157 -0.005696 -0.000595 0.002298 0.001683 -0.000153
# 2 -0.005696 0.012460 -0.002176 0.001179 -0.002370 -0.000174
# 3 -0.000595 -0.002176 0.020515 0.002179 -0.000054 0.004310
# 4 0.002298 0.001179 0.002179 0.026056 -0.000091 -0.000140
# 5 0.001683 -0.002370 -0.000054 -0.000091 0.026070 -0.003586
# 6 -0.000153 -0.000174 0.004310 -0.000140 -0.003586 0.020355
#
#
# Mechanical properties :
#
#
# Convention : Reuss Voigt Hill
#
# Bulk Modulus (GPa) = 32.05386 40.11925 36.08656
# Shear Modulus (GPa) = 33.79585 38.49570 36.14578
#
# Velocity S-wave (km/s) = 3.91143 4.17455 4.04513
# Velocity P-wave (km/s) = 5.90844 6.43410 6.17686
#
# Compressibility (1/GPa) = 0.03119749
#
# Stress axis : x y z
#
# Youngs Moduli (GPa) = 65.97506 80.25538 48.74556
#
# Poissons Ratio (x) = 0.45717 0.02901
# Poissons Ratio (y) = 0.37582 0.10606
# Poissons Ratio (z) = 0.03926 0.17462
#
# Static dielectric constant tensor:
#      x y z
#    x 1.640930 -0.069420 0.154580 
#    y -0.069420 1.796240 0.082510 
#    z 0.154580 0.082510 1.628350 
# 
# From -- ./inp_files/271363.got.cif
#   From: 2010.05.17/outbox.cif.g08.bks.cpg/sg2_136_cif.got.tgz:271363.got - 2010.06.03 11:33:40.
