data_PCOD9061786
_publ_section_title
;
Structure prediction by ZEFSAII (Michael W. Deem and Ramdas Pophale) SiO2 
 PCOD9061786
Probable space group: P -1
;
_chemical_formula_sum "Si O2"
_cell_formula_units_Z 13
_cell_length_a 8.627625
_cell_length_b 12.108651
_cell_length_c 9.692760
_cell_angle_alpha 35.160612
_cell_angle_beta 118.225555
_cell_angle_gamma 100.743354
_cell_volume 472.082352
_symmetry_space_group_name_H-M "P -1"
_symmetry_group_IT_number 2
_symmetry_cell_setting 'triclinic'
loop_
_space_group_symop_operation_xyz
x,y,z
-x,-y,-z
loop_
_atom_site_type_symbol
_atom_site_label
_atom_site_fract_x
_atom_site_fract_y
_atom_site_fract_z
Si Si1 0.152496 0.371216 0.581672
Si Si2 0.500000 0.500000 0.000000
Si Si3 0.121469 0.030192 0.269887
Si Si4 0.713848 0.273741 0.794000
Si Si5 0.337176 0.829696 0.810379
Si Si6 0.419963 0.930506 0.272712
Si Si7 0.894336 0.531366 0.069592
O O1 0.272250 0.509237 0.454116
O O2 0.286085 0.151385 0.923875
O O3 0.000000 0.500000 0.500000
O O4 0.033867 0.358428 0.410622
O O5 0.504345 0.651840 0.977845
O O6 0.312505 0.475297 0.017531
O O7 0.154606 0.906402 0.553233
O O8 0.305771 0.893927 0.393569
O O9 0.123037 0.252924 0.085012
O O10 0.926131 0.093821 0.039117
O O11 0.691374 0.243461 0.976860
O O12 0.566300 0.233521 0.671659
O O13 0.395419 0.028911 0.648845
O O14 0.000000 0.500000 0.000000
#
# Coordination Sequence:
#
# PCOD9061786 Si02
#       7
#     2   1   2   2   2   2   2
#     4  11  23  46  70 104 145 190 250 291 368 455
#     4  12  24  44  74 106 148 194 242 308 378 428
#     4  11  24  48  70 104 145 194 248 297 375 447
#     4  11  26  47  76 106 145 196 244 309 377 436
#     4  12  27  47  70 113 145 188 254 304 370 449
#     4  12  25  46  72 108 146 196 240 305 375 441
#     4  11  25  45  72 109 142 194 249 307 367 440
#
# _framework density 27.537564
#
# number of rings (size 3 to 8) (size 9 to 14) (size 15 to 20)
#    0.000    0.615    4.615    3.692    4.308    1.846 
#    0.000    0.000    0.000    0.000    0.000    0.000 
#    0.000    0.000    0.000    0.000    0.000    0.000 
#
# Total GULP energy -72812.771644 kJ/mol
# GULP energy per Si atom -5600.982434 kJ/mol
# Density = 2.747489 g / cm^3
# Si number density = 27.537564 Si / 1000 Ang^3
#
#
#
# Elastic Constant Matrix: (Units=GPa)
#
#
# Indices 1 2 3 4 5 6 
#
# 1 111.7766 61.3464 26.3395 -0.1530 -30.9439 -19.1673
# 2 61.3464 160.0893 25.4180 11.9814 -18.7803 8.6835
# 3 26.3395 25.4180 78.3890 27.8949 -9.0037 -9.3568
# 4 -0.1530 11.9814 27.8949 47.7082 -5.4391 -8.5316
# 5 -30.9439 -18.7803 -9.0037 -5.4391 55.3557 13.2314
# 6 -19.1673 8.6835 -9.3568 -8.5316 13.2314 54.9071
#
#
#
# Elastic Compliance Matrix: (Units=1/GPa)
#
#
# Indices 1 2 3 4 5 6 
#
# 1 0.015054 -0.005155 -0.004034 0.005187 0.005349 0.004900
# 2 -0.005155 0.008793 -0.000620 -0.002472 0.000676 -0.003843
# 3 -0.004034 -0.000620 0.017971 -0.010385 -0.000632 0.000291
# 4 0.005187 -0.002472 -0.010385 0.028697 0.002146 0.004374
# 5 0.005349 0.000676 -0.000632 0.002146 0.022196 -0.003363
# 6 0.004900 -0.003843 0.000291 0.004374 -0.003363 0.022071
#
#
# Mechanical properties :
#
#
# Convention : Reuss Voigt Hill
#
# Bulk Modulus (GPa) = 45.04380 64.05142 54.54761
# Shear Modulus (GPa) = 35.26087 47.40428 41.33257
#
# Velocity S-wave (km/s) = 3.58224 4.15353 3.87842
# Velocity P-wave (km/s) = 5.78815 6.80533 6.31724
#
# Compressibility (1/GPa) = 0.02220061
#
# Stress axis : x y z
#
# Youngs Moduli (GPa) = 66.42663 113.72403 55.64536
#
# Poissons Ratio (x) = 0.58624 0.22445
# Poissons Ratio (y) = 0.34242 0.03452
# Poissons Ratio (z) = 0.26793 0.07056
#
# Static dielectric constant tensor:
#      x y z
#    x 2.139430 -0.002690 -0.007960 
#    y -0.002690 2.097360 -0.113610 
#    z -0.007960 -0.113610 1.934710 
# 
# From -- ./inp_files/173861.got.cif
#   From: 2010.05.17/outbox.cif.g08.bks.cpg/sg2_87_cif.got.tgz:173861.got - 2010.06.03 11:33:40.
