data_PCOD9061453
_publ_section_title
;
Structure prediction by ZEFSAII (Michael W. Deem and Ramdas Pophale) SiO2 
 PCOD9061453
Probable space group: P -1
;
_chemical_formula_sum "Si O2"
_cell_formula_units_Z 15
_cell_length_a 16.092619
_cell_length_b 15.193873
_cell_length_c 6.664723
_cell_angle_alpha 70.515665
_cell_angle_beta 68.326293
_cell_angle_gamma 26.210922
_cell_volume 668.856072
_symmetry_space_group_name_H-M "P -1"
_symmetry_group_IT_number 2
_symmetry_cell_setting 'triclinic'
loop_
_space_group_symop_operation_xyz
x,y,z
-x,-y,-z
loop_
_atom_site_type_symbol
_atom_site_label
_atom_site_fract_x
_atom_site_fract_y
_atom_site_fract_z
Si Si1 0.468253 0.341507 0.910294
Si Si2 0.373893 0.105651 0.333893
Si Si3 0.628028 0.751625 0.130754
Si Si4 0.500000 0.500000 0.500000
Si Si5 0.007587 0.600804 0.707403
Si Si6 0.872668 0.870572 0.939581
Si Si7 0.117129 0.657684 0.268952
Si Si8 0.912513 0.180561 0.489738
O O1 0.363338 0.365468 0.834906
O O2 0.519570 0.392364 0.725701
O O3 0.662036 0.107286 0.969000
O O4 0.321276 0.487822 0.113979
O O5 0.144951 0.307983 0.371480
O O6 0.500000 0.000000 0.500000
O O7 0.458767 0.933246 0.292473
O O8 0.411117 0.156854 0.109619
O O9 0.823916 0.607501 0.166607
O O10 0.687652 0.377512 0.518951
O O11 0.891758 0.763229 0.860686
O O12 0.120226 0.571713 0.491982
O O13 0.998629 0.832463 0.743509
O O14 0.968532 0.765910 0.147587
O O15 0.044077 0.816006 0.334109
O O16 0.000000 0.000000 0.500000
#
# Coordination Sequence:
#
# PCOD9061453 Si02
#       8
#     2   2   2   1   2   2   2   2
#     4  12  24  46  73 101 142 190 237 304 353 427
#     4  11  27  45  73 113 143 191 243 287 365 439
#     4  11  25  47  73 104 149 187 242 300 356 424
#     4  12  24  46  74  98 148 182 242 290 370 416
#     4  11  24  46  75 102 145 192 233 299 359 430
#     4  11  23  45  70  99 140 188 235 295 362 419
#     4  11  26  42  72 107 135 186 250 283 369 430
#     4  11  24  45  65 100 139 185 230 300 354 424
#
# _framework density 22.426349999999999
#
# number of rings (size 3 to 8) (size 9 to 14) (size 15 to 20)
#    0.000    0.800    5.333    1.200    3.733    2.667 
#    0.000    0.000    0.000    0.000    0.000    0.000 
#    0.000    0.000    0.000    0.000    0.000    0.000 
#
# Total GULP energy -83587.621958 kJ/mol
# GULP energy per Si atom -5572.508131 kJ/mol
# Density = 2.237531 g / cm^3
# Si number density = 22.426350 Si / 1000 Ang^3
#
#
#
# Elastic Constant Matrix: (Units=GPa)
#
#
# Indices 1 2 3 4 5 6 
#
# 1 82.4994 12.4744 33.3252 1.5328 7.1775 -11.7944
# 2 12.4744 77.9470 48.4680 -10.7352 16.2034 -12.4023
# 3 33.3252 48.4680 101.3494 -11.9016 19.1662 1.1661
# 4 1.5328 -10.7352 -11.9016 32.9967 -8.9070 10.7254
# 5 7.1775 16.2034 19.1662 -8.9070 35.7110 -12.4288
# 6 -11.7944 -12.4023 1.1661 10.7254 -12.4288 46.0195
#
#
#
# Elastic Compliance Matrix: (Units=1/GPa)
#
#
# Indices 1 2 3 4 5 6 
#
# 1 0.015358 0.001870 -0.006610 -0.004203 0.000561 0.005739
# 2 0.001870 0.019986 -0.009755 0.000552 -0.002195 0.005391
# 3 -0.006610 -0.009755 0.018380 0.004670 -0.005509 -0.007365
# 4 -0.004203 0.000552 0.004670 0.036217 0.004215 -0.008349
# 5 0.000561 -0.002195 -0.005509 0.004215 0.035810 0.008381
# 6 0.005739 0.005391 -0.007365 -0.008349 0.008381 0.029050
#
#
# Mechanical properties :
#
#
# Convention : Reuss Voigt Hill
#
# Bulk Modulus (GPa) = 40.42961 50.03679 45.23320
# Shear Modulus (GPa) = 26.03685 34.11398 30.07541
#
# Velocity S-wave (km/s) = 3.41103 3.90443 3.66604
# Velocity P-wave (km/s) = 5.79486 6.53346 6.17521
#
# Compressibility (1/GPa) = 0.02473435
#
# Stress axis : x y z
#
# Youngs Moduli (GPa) = 65.11110 50.03618 54.40661
#
# Poissons Ratio (x) = -0.09356 0.35963
# Poissons Ratio (y) = -0.12175 0.53072
# Poissons Ratio (z) = 0.43039 0.48808
#
# Static dielectric constant tensor:
#      x y z
#    x 1.843150 -0.016270 0.021560 
#    y -0.016270 1.859820 0.004570 
#    z 0.021560 0.004570 1.819070 
# 
# From -- ./inp_files/97681.got.cif
#   From: 2010.05.17/outbox.cif.g08.bks.cpg/sg2_49_cif.got.tgz:97681.got - 2010.06.03 11:33:40.
