data_PCOD9061961
_publ_section_title
;
Structure prediction by ZEFSAII (Michael W. Deem and Ramdas Pophale) SiO2 
 PCOD9061961
Probable space group: P -1
;
_chemical_formula_sum "Si O2"
_cell_formula_units_Z 16
_cell_length_a 11.503261
_cell_length_b 14.097409
_cell_length_c 9.331639
_cell_angle_alpha 79.382008
_cell_angle_beta 88.552504
_cell_angle_gamma 149.001253
_cell_volume 714.092341
_symmetry_space_group_name_H-M "P -1"
_symmetry_group_IT_number 2
_symmetry_cell_setting 'triclinic'
loop_
_space_group_symop_operation_xyz
x,y,z
-x,-y,-z
loop_
_atom_site_type_symbol
_atom_site_label
_atom_site_fract_x
_atom_site_fract_y
_atom_site_fract_z
Si Si1 0.529072 0.462167 0.863987
Si Si2 0.367306 0.180105 0.137300
Si Si3 0.575872 0.755964 0.554482
Si Si4 0.737597 0.199122 0.344119
Si Si5 0.983690 0.775845 0.578892
Si Si6 0.077083 0.482048 0.624751
Si Si7 0.816543 0.774360 0.330167
Si Si8 0.580664 0.013901 0.845241
O O1 0.794520 0.669178 0.734493
O O2 0.350412 0.358224 0.766969
O O3 0.500000 0.500000 0.000000
O O4 0.483190 0.319720 0.960460
O O5 0.460137 0.285783 0.261064
O O6 0.402653 0.090432 0.143170
O O7 0.081381 0.997026 0.204197
O O8 0.319999 0.602312 0.543639
O O9 0.695529 0.760311 0.451564
O O10 0.769994 0.984059 0.482556
O O11 0.829276 0.375652 0.295747
O O12 0.945429 0.281839 0.375794
O O13 0.500000 0.000000 0.500000
O O14 0.632017 0.102953 0.218968
O O15 0.872206 0.722665 0.443403
O O16 0.000000 0.500000 0.500000
O O17 0.846295 0.249459 0.734169
O O18 0.500000 0.000000 0.000000
#
# Coordination Sequence:
#
# PCOD9061961 Si02
#       8
#     2   2   2   2   2   2   2   2
#     4  12  27  45  71 108 149 196 242 298 379 445
#     4  11  25  49  70 105 156 192 242 310 371 442
#     4  11  23  46  75 107 143 189 244 310 367 439
#     4  12  23  49  72 110 148 187 250 317 353 439
#     4  11  24  43  74 104 143 186 247 307 367 428
#     4  12  26  44  80 107 145 196 253 303 376 425
#     4  11  25  45  74 106 144 190 251 301 369 444
#     4  12  29  48  72 112 155 201 246 302 375 444
#
# _framework density 22.406065000000002
#
# number of rings (size 3 to 8) (size 9 to 14) (size 15 to 20)
#    0.000    0.500    3.750    4.500    3.500    5.500 
#    0.000    0.000    0.000    0.000    0.000    0.000 
#    0.000    0.000    0.000    0.000    0.000    0.000 
#
# Total GULP energy -89482.569145 kJ/mol
# GULP energy per Si atom -5592.660572 kJ/mol
# Density = 2.235507 g / cm^3
# Si number density = 22.406065 Si / 1000 Ang^3
#
#
#
# Elastic Constant Matrix: (Units=GPa)
#
#
# Indices 1 2 3 4 5 6 
#
# 1 135.3469 54.3544 42.5779 13.2277 4.4471 5.1884
# 2 54.3544 103.2908 45.6193 12.4494 17.7683 -0.8201
# 3 42.5779 45.6193 128.9293 13.3533 3.4942 -0.2842
# 4 13.2277 12.4494 13.3533 45.4398 -8.2039 -2.4861
# 5 4.4471 17.7683 3.4942 -8.2039 29.0703 -2.8058
# 6 5.1884 -0.8201 -0.2842 -2.4861 -2.8058 43.1098
#
#
#
# Elastic Compliance Matrix: (Units=1/GPa)
#
#
# Indices 1 2 3 4 5 6 
#
# 1 0.009819 -0.004544 -0.001559 -0.001036 0.001048 -0.001270
# 2 -0.004544 0.015652 -0.003399 -0.003683 -0.009504 -0.000009
# 3 -0.001559 -0.003399 0.009584 -0.001274 0.000820 0.000166
# 4 -0.001036 -0.003683 -0.001274 0.025617 0.010002 0.002174
# 5 0.001048 -0.009504 0.000820 0.010002 0.043069 0.003078
# 6 -0.001270 -0.000009 0.000166 0.002174 0.003078 0.023676
#
#
# Mechanical properties :
#
#
# Convention : Reuss Voigt Hill
#
# Bulk Modulus (GPa) = 62.29749 72.51891 67.40820
# Shear Modulus (GPa) = 32.94433 38.52500 35.73467
#
# Velocity S-wave (km/s) = 3.83865 4.15106 3.99791
# Velocity P-wave (km/s) = 6.89284 7.44386 7.17364
#
# Compressibility (1/GPa) = 0.01605201
#
# Stress axis : x y z
#
# Youngs Moduli (GPa) = 101.84161 63.88788 104.34486
#
# Poissons Ratio (x) = 0.29032 0.16265
# Poissons Ratio (y) = 0.46279 0.35463
# Poissons Ratio (z) = 0.15875 0.21713
#
# Static dielectric constant tensor:
#      x y z
#    x 1.896790 -0.084330 -0.005420 
#    y -0.084330 1.846530 0.005660 
#    z -0.005420 0.005660 1.801020 
# 
# From -- ./inp_files/272937.got.cif
#   From: 2010.05.17/outbox.cif.g08.bks.cpg/sg2_137_cif.got.tgz:272937.got - 2010.06.03 11:33:40.
