data_PCOD9061108
_publ_section_title
;
Structure prediction by ZEFSAII (Michael W. Deem and Ramdas Pophale) SiO2 
 PCOD9061108
Probable space group: P -1
;
_chemical_formula_sum "Si O2"
_cell_formula_units_Z 14
_cell_length_a 9.150946
_cell_length_b 8.117385
_cell_length_c 20.954888
_cell_angle_alpha 32.682130
_cell_angle_beta 135.356613
_cell_angle_gamma 117.821603
_cell_volume 553.654122
_symmetry_space_group_name_H-M "P -1"
_symmetry_group_IT_number 2
_symmetry_cell_setting 'triclinic'
loop_
_space_group_symop_operation_xyz
x,y,z
-x,-y,-z
loop_
_atom_site_type_symbol
_atom_site_label
_atom_site_fract_x
_atom_site_fract_y
_atom_site_fract_z
Si Si1 0.334306 0.054547 0.806637
Si Si2 0.985640 0.272471 0.462469
Si Si3 0.682876 0.044806 0.995662
Si Si4 0.236518 0.306582 0.170527
Si Si5 0.109969 0.724907 0.179392
Si Si6 0.952049 0.882625 0.707722
Si Si7 0.449785 0.219125 0.651984
O O1 0.592527 0.907920 0.951251
O O2 0.347821 0.156426 0.706152
O O3 0.207495 0.373852 0.705744
O O4 0.187263 0.827213 0.833967
O O5 0.213663 0.353745 0.498235
O O6 0.000000 0.000000 0.500000
O O7 0.943360 0.125040 0.566847
O O8 0.670795 0.415978 0.866120
O O9 0.500000 0.000000 0.000000
O O10 0.940621 0.846106 0.146174
O O11 0.211863 0.075160 0.296110
O O12 0.405669 0.094088 0.240617
O O13 0.000000 0.500000 0.000000
O O14 0.082643 0.412780 0.242355
O O15 0.359166 0.647477 0.307432
O O16 0.000000 0.000000 0.000000
#
# Coordination Sequence:
#
# PCOD9061108 Si02
#       7
#     2   2   2   2   2   2   2
#     4  11  25  48  70 103 143 193 244 299 360 437
#     4  11  27  52  75 102 143 197 254 298 355 435
#     4  12  26  41  71 102 149 187 243 302 372 434
#     4  12  23  43  67 111 147 186 237 301 364 440
#     4  12  23  45  68 110 147 184 237 306 371 436
#     4  11  25  44  73 101 149 189 243 299 360 429
#     4  11  23  44  72  98 146 185 234 301 358 422
#
# _framework density 25.286545
#
# number of rings (size 3 to 8) (size 9 to 14) (size 15 to 20)
#    0.000    0.571    4.286    3.429    6.000    0.571 
#    0.000   15.000    0.000    0.000    0.000    0.000 
#    0.000    0.000    0.000    0.000    0.000    0.000 
#
# Total GULP energy -77985.071791 kJ/mol
# GULP energy per Si atom -5570.362271 kJ/mol
# Density = 2.522899 g / cm^3
# Si number density = 25.286545 Si / 1000 Ang^3
#
#
#
# Elastic Constant Matrix: (Units=GPa)
#
#
# Indices 1 2 3 4 5 6 
#
# 1 160.1452 54.4874 58.6902 -3.3920 17.9397 2.7739
# 2 54.4874 162.8096 28.4441 7.7277 2.9418 39.9540
# 3 58.6902 28.4441 86.4046 19.3683 2.7568 16.3735
# 4 -3.3920 7.7277 19.3683 23.9123 0.5824 11.0709
# 5 17.9397 2.9418 2.7568 0.5824 37.2002 5.6691
# 6 2.7739 39.9540 16.3735 11.0709 5.6691 51.5341
#
#
#
# Elastic Compliance Matrix: (Units=1/GPa)
#
#
# Indices 1 2 3 4 5 6 
#
# 1 0.011462 -0.003468 -0.009088 0.008519 -0.005279 0.003710
# 2 -0.003468 0.008871 0.000899 -0.000893 0.001985 -0.007003
# 3 -0.009088 0.000899 0.022037 -0.017764 0.003533 -0.003782
# 4 0.008519 -0.000893 -0.017764 0.060979 -0.002619 -0.006934
# 5 -0.005279 0.001985 0.003533 -0.002619 0.029826 -0.005096
# 6 0.003710 -0.007003 -0.003782 -0.006934 -0.005096 0.027886
#
#
# Mechanical properties :
#
#
# Convention : Reuss Voigt Hill
#
# Bulk Modulus (GPa) = 52.47780 76.95587 64.71684
# Shear Modulus (GPa) = 26.21552 40.37850 33.29701
#
# Velocity S-wave (km/s) = 3.22333 4.00038 3.63269
# Velocity P-wave (km/s) = 5.88655 7.19979 6.57603
#
# Compressibility (1/GPa) = 0.01905568
#
# Stress axis : x y z
#
# Youngs Moduli (GPa) = 87.24159 112.73174 45.37876
#
# Poissons Ratio (x) = 0.39091 0.41242
# Poissons Ratio (y) = 0.30252 -0.04080
# Poissons Ratio (z) = 0.79289 -0.10135
#
# Static dielectric constant tensor:
#      x y z
#    x 1.924480 0.045180 -0.017670 
#    y 0.045180 2.008350 0.071800 
#    z -0.017670 0.071800 2.114230 
# 
# From -- ./inp_files/216289.got.cif
#   From: 2010.05.17/outbox.cif.g08.bks.cpg/sg2_109_cif.got.tgz:216289.got - 2010.06.03 11:33:40.
