data_PCOD9061271
_publ_section_title
;
Structure prediction by ZEFSAII (Michael W. Deem and Ramdas Pophale) SiO2 
 PCOD9061271
Probable space group: P -1
;
_chemical_formula_sum "Si O2"
_cell_formula_units_Z 12
_cell_length_a 11.651260
_cell_length_b 9.129782
_cell_length_c 5.364945
_cell_angle_alpha 91.993048
_cell_angle_beta 112.463827
_cell_angle_gamma 110.072847
_cell_volume 486.215254
_symmetry_space_group_name_H-M "P -1"
_symmetry_group_IT_number 2
_symmetry_cell_setting 'triclinic'
loop_
_space_group_symop_operation_xyz
x,y,z
-x,-y,-z
loop_
_atom_site_type_symbol
_atom_site_label
_atom_site_fract_x
_atom_site_fract_y
_atom_site_fract_z
Si Si1 0.570091 0.131732 0.274468
Si Si2 0.136516 0.358532 0.596826
Si Si3 0.576693 0.482355 0.311440
Si Si4 0.706288 0.050904 0.761329
Si Si5 0.906054 0.375214 0.121028
Si Si6 0.913840 0.935108 0.170942
O O1 0.595812 0.315641 0.281738
O O2 0.701565 0.098582 0.468558
O O3 0.444247 0.080109 0.358345
O O4 0.500000 0.000000 0.000000
O O5 0.271577 0.384475 0.560941
O O6 0.133890 0.521988 0.705962
O O7 0.128972 0.251112 0.823521
O O8 0.003578 0.295885 0.312834
O O9 0.500000 0.500000 0.500000
O O10 0.500000 0.500000 0.000000
O O11 0.767649 0.233396 0.919966
O O12 0.785462 0.971602 0.990360
O O13 0.000000 0.500000 0.000000
O O14 0.000000 0.000000 0.500000
O O15 0.000000 0.000000 0.000000
#
# Coordination Sequence:
#
# PCOD9061271 Si02
#       6
#     2   2   2   2   2   2
#     4  11  27  49  79 108 152 215 274 333 395 490
#     4  11  26  46  77 114 159 210 267 334 415 486
#     4  12  30  51  81 117 164 214 274 339 412 489
#     4  11  25  46  75 105 154 201 268 322 400 469
#     4  11  23  44  78 115 155 204 269 338 408 493
#     4  12  27  47  75 114 157 204 256 328 405 485
#
# _framework density 24.680423999999999
#
# number of rings (size 3 to 8) (size 9 to 14) (size 15 to 20)
#    0.000    0.667    1.667    4.000   11.667    4.000 
#    0.000    0.000    0.000    0.000    0.000    0.000 
#    0.000    0.000    0.000    0.000    0.000    0.000 
#
# Total GULP energy -66865.818680 kJ/mol
# GULP energy per Si atom -5572.151557 kJ/mol
# Density = 2.462425 g / cm^3
# Si number density = 24.680424 Si / 1000 Ang^3
#
#
#
# Elastic Constant Matrix: (Units=GPa)
#
#
# Indices 1 2 3 4 5 6 
#
# 1 105.4101 25.4991 30.6797 -26.0267 -7.6650 12.9468
# 2 25.4991 120.6626 41.4201 -36.2778 8.4046 -0.1645
# 3 30.6797 41.4201 157.5818 -34.9439 11.7872 -24.3244
# 4 -26.0267 -36.2778 -34.9439 50.7374 -5.7238 7.2642
# 5 -7.6650 8.4046 11.7872 -5.7238 43.5762 -5.0407
# 6 12.9468 -0.1645 -24.3244 7.2642 -5.0407 42.4468
#
#
#
# Elastic Compliance Matrix: (Units=1/GPa)
#
#
# Indices 1 2 3 4 5 6 
#
# 1 0.012567 -0.000371 -0.002157 0.005850 0.002973 -0.005719
# 2 -0.000371 0.011011 -0.001547 0.006781 -0.001114 -0.002023
# 3 -0.002157 -0.001547 0.008691 0.002896 -0.001478 0.004961
# 4 0.005850 0.006781 0.002896 0.030542 0.002366 -0.005044
# 5 0.002973 -0.001114 -0.001478 0.002366 0.024483 0.000745
# 6 -0.005719 -0.002023 0.004961 -0.005044 0.000745 0.029090
#
#
# Mechanical properties :
#
#
# Convention : Reuss Voigt Hill
#
# Bulk Modulus (GPa) = 41.46364 64.31690 52.89027
# Shear Modulus (GPa) = 37.71473 46.42246 42.06860
#
# Velocity S-wave (km/s) = 3.91336 4.34169 4.13308
# Velocity P-wave (km/s) = 6.10376 7.15892 6.65229
#
# Compressibility (1/GPa) = 0.02411752
#
# Stress axis : x y z
#
# Youngs Moduli (GPa) = 79.57171 90.82134 115.06035
#
# Poissons Ratio (x) = 0.03374 0.24819
# Poissons Ratio (y) = 0.02956 0.17802
# Poissons Ratio (z) = 0.17164 0.14052
#
# Static dielectric constant tensor:
#      x y z
#    x 1.395780 0.248460 -0.012110 
#    y 0.248460 2.011580 -0.043900 
#    z -0.012110 -0.043900 2.186600 
# 
# From -- ./inp_files/60844.got.cif
#   From: 2010.05.17/outbox.cif.g08.bks.cpg/sg2_31_cif.got.tgz:60844.got - 2010.06.03 11:33:40.
