data_PCOD9061719
_publ_section_title
;
Structure prediction by ZEFSAII (Michael W. Deem and Ramdas Pophale) SiO2 
 PCOD9061719
Probable space group: P -1
;
_chemical_formula_sum "Si O2"
_cell_formula_units_Z 14
_cell_length_a 14.297329
_cell_length_b 6.569579
_cell_length_c 15.052811
_cell_angle_alpha 108.776982
_cell_angle_beta 151.302855
_cell_angle_gamma 69.870171
_cell_volume 636.813415
_symmetry_space_group_name_H-M "P -1"
_symmetry_group_IT_number 2
_symmetry_cell_setting 'triclinic'
loop_
_space_group_symop_operation_xyz
x,y,z
-x,-y,-z
loop_
_atom_site_type_symbol
_atom_site_label
_atom_site_fract_x
_atom_site_fract_y
_atom_site_fract_z
Si Si1 0.799541 0.902321 0.837303
Si Si2 0.417784 0.872551 0.046964
Si Si3 0.164548 0.397892 0.341162
Si Si4 0.450032 0.677034 0.242175
Si Si5 0.063509 0.648367 0.693386
Si Si6 0.825055 0.694549 0.022026
Si Si7 0.857275 0.822593 0.372065
O O1 0.764885 0.753539 0.704130
O O2 0.828191 0.763224 0.931758
O O3 0.630131 0.102251 0.741373
O O4 0.000000 0.000000 0.000000
O O5 0.464911 0.748477 0.162626
O O6 0.625651 0.898569 0.180416
O O7 0.290051 0.103035 0.992800
O O8 0.270626 0.729992 0.855799
O O9 0.346205 0.429080 0.559702
O O10 0.016970 0.284685 0.266553
O O11 0.040582 0.614887 0.229302
O O12 0.294641 0.508691 0.097421
O O13 0.089356 0.388570 0.674212
O O14 0.908148 0.740177 0.502904
O O15 0.000000 0.000000 0.500000
#
# Coordination Sequence:
#
# PCOD9061719 Si02
#       7
#     2   2   2   2   2   2   2
#     4  11  23  46  66  99 143 181 226 281 335 397
#     4  11  24  46  72  99 142 178 227 281 345 409
#     4  12  23  44  71  96 140 178 231 278 336 401
#     4  11  24  43  69 100 137 183 227 279 337 401
#     4  11  25  46  71 100 134 185 223 286 343 401
#     4  11  25  42  69 104 135 182 227 278 335 407
#     4  11  27  46  71 104 135 174 233 284 345 413
#
# _framework density 21.984459999999999
#
# number of rings (size 3 to 8) (size 9 to 14) (size 15 to 20)
#    0.000    0.857    4.286    2.143    4.000    1.143 
#    5.143    0.000    0.000    0.000    0.000    0.000 
#    0.000    0.000    0.000    0.000    0.000    0.000 
#
# Total GULP energy -78370.176608 kJ/mol
# GULP energy per Si atom -5597.869758 kJ/mol
# Density = 2.193442 g / cm^3
# Si number density = 21.984460 Si / 1000 Ang^3
#
#
#
# Elastic Constant Matrix: (Units=GPa)
#
#
# Indices 1 2 3 4 5 6 
#
# 1 63.2946 27.4458 10.9671 -1.3165 9.8947 8.2345
# 2 27.4458 105.8618 38.9002 -8.9218 -1.7198 3.9357
# 3 10.9671 38.9002 127.4103 -23.8143 13.7524 -6.6336
# 4 -1.3165 -8.9218 -23.8143 34.3672 1.1938 -2.2020
# 5 9.8947 -1.7198 13.7524 1.1938 32.4663 1.6276
# 6 8.2345 3.9357 -6.6336 -2.2020 1.6276 15.2802
#
#
#
# Elastic Compliance Matrix: (Units=1/GPa)
#
#
# Indices 1 2 3 4 5 6 
#
# 1 0.020066 -0.004943 -0.000282 -0.001100 -0.005756 -0.009208
# 2 -0.004943 0.012322 -0.003898 0.000004 0.003941 -0.002622
# 3 -0.000282 -0.003898 0.011516 0.007658 -0.005675 0.007864
# 4 -0.001100 0.000004 0.007658 0.035133 -0.004676 0.009478
# 5 -0.005756 0.003941 -0.005675 -0.004676 0.035582 -0.004841
# 6 -0.009208 -0.002622 0.007864 0.009478 -0.004841 0.076377
#
#
# Mechanical properties :
#
#
# Convention : Reuss Voigt Hill
#
# Bulk Modulus (GPa) = 38.97187 50.13253 44.55220
# Shear Modulus (GPa) = 22.95742 31.03963 26.99852
#
# Velocity S-wave (km/s) = 3.23500 3.76159 3.50819
# Velocity P-wave (km/s) = 5.63197 6.45904 6.05963
#
# Compressibility (1/GPa) = 0.02565953
#
# Stress axis : x y z
#
# Youngs Moduli (GPa) = 49.83525 81.15690 86.83321
#
# Poissons Ratio (x) = 0.40113 0.02448
# Poissons Ratio (y) = 0.24632 0.33846
# Poissons Ratio (z) = 0.01405 0.31634
#
# Static dielectric constant tensor:
#      x y z
#    x 1.822430 -0.002750 0.003330 
#    y -0.002750 1.781780 -0.011380 
#    z 0.003330 -0.011380 1.791230 
# 
# From -- ./inp_files/47255.got.cif
#   From: 2010.05.17/outbox.cif.g08.bks.cpg/sg2_24_cif.got.tgz:47255.got - 2010.06.03 11:33:40.
