data_PCOD9061234
_publ_section_title
;
Structure prediction by ZEFSAII (Michael W. Deem and Ramdas Pophale) SiO2 
 PCOD9061234
Probable space group: P -1
;
_chemical_formula_sum "Si O2"
_cell_formula_units_Z 16
_cell_length_a 18.155682
_cell_length_b 11.962984
_cell_length_c 8.114492
_cell_angle_alpha 52.620448
_cell_angle_beta 118.176817
_cell_angle_gamma 152.353816
_cell_volume 639.477130
_symmetry_space_group_name_H-M "P -1"
_symmetry_group_IT_number 2
_symmetry_cell_setting 'triclinic'
loop_
_space_group_symop_operation_xyz
x,y,z
-x,-y,-z
loop_
_atom_site_type_symbol
_atom_site_label
_atom_site_fract_x
_atom_site_fract_y
_atom_site_fract_z
Si Si1 0.879791 0.284511 0.707014
Si Si2 0.334136 0.236352 0.660715
Si Si3 0.297998 0.693630 0.447778
Si Si4 0.289397 0.524089 0.900995
Si Si5 0.002783 0.161247 0.429077
Si Si6 0.684539 0.722241 0.032437
Si Si7 0.586301 0.965609 0.027627
Si Si8 0.859800 0.466569 0.062025
O O1 0.748437 0.215634 0.632578
O O2 0.000000 0.500000 0.500000
O O3 0.005158 0.456581 0.836072
O O4 0.795495 0.014120 0.846649
O O5 0.500000 0.500000 0.500000
O O6 0.313072 0.299985 0.747100
O O7 0.179891 0.047669 0.553004
O O8 0.337901 0.081596 0.874448
O O9 0.375051 0.721444 0.656450
O O10 0.380734 0.851388 0.220268
O O11 0.129532 0.368105 0.524718
O O12 0.257988 0.325029 0.975406
O O13 0.152527 0.436316 0.891585
O O14 0.400457 0.670105 0.051305
O O15 0.000000 0.000000 0.500000
O O16 0.077503 0.362290 0.182939
O O17 0.500000 0.500000 0.000000
O O18 0.681967 0.146949 0.130982
#
# Coordination Sequence:
#
# PCOD9061234 Si02
#       8
#     2   2   2   2   2   2   2   2
#     4  12  24  46  74 111 146 194 253 304 381 451
#     4  12  26  48  74 105 146 202 250 302 376 450
#     4  11  23  44  76 103 143 195 240 314 370 442
#     4  12  25  46  72 114 149 191 242 312 380 448
#     4  11  25  45  72 107 148 188 250 305 372 444
#     4  12  26  48  74 105 155 193 245 311 376 449
#     4  11  24  48  70 104 147 193 253 303 369 450
#     4  11  25  45  76 103 146 194 243 309 373 444
#
# _framework density 25.020441000000002
#
# number of rings (size 3 to 8) (size 9 to 14) (size 15 to 20)
#    0.000    0.500    5.000    2.250    1.750    5.500 
#    4.500    0.000    0.000    0.000    0.000    0.000 
#    0.000    0.000    0.000    0.000    0.000    0.000 
#
# Total GULP energy -89381.112365 kJ/mol
# GULP energy per Si atom -5586.319523 kJ/mol
# Density = 2.496349 g / cm^3
# Si number density = 25.020441 Si / 1000 Ang^3
#
#
#
# Elastic Constant Matrix: (Units=GPa)
#
#
# Indices 1 2 3 4 5 6 
#
# 1 103.8377 41.5758 8.5986 -14.7838 15.6699 -7.6950
# 2 41.5758 117.1231 34.0514 -5.5840 5.1989 2.0212
# 3 8.5986 34.0514 75.4115 -4.6164 8.1722 0.4128
# 4 -14.7838 -5.5840 -4.6164 37.4341 9.5303 3.9583
# 5 15.6699 5.1989 8.1722 9.5303 36.5035 -1.7009
# 6 -7.6950 2.0212 0.4128 3.9583 -1.7009 43.7368
#
#
#
# Elastic Compliance Matrix: (Units=1/GPa)
#
#
# Indices 1 2 3 4 5 6 
#
# 1 0.013492 -0.004701 0.001743 0.006474 -0.007123 0.001712
# 2 -0.004701 0.011529 -0.004912 -0.001052 0.001697 -0.001152
# 3 0.001743 -0.004912 0.015946 0.003054 -0.004419 -0.000065
# 4 0.006474 -0.001052 0.003054 0.032780 -0.011977 -0.002274
# 5 -0.007123 0.001697 -0.004419 -0.011977 0.034380 0.001131
# 6 0.001712 -0.001152 -0.000065 -0.002274 0.001131 0.023469
#
#
# Mechanical properties :
#
#
# Convention : Reuss Voigt Hill
#
# Bulk Modulus (GPa) = 39.63883 51.64709 45.64296
# Shear Modulus (GPa) = 32.10412 37.67797 34.89104
#
# Velocity S-wave (km/s) = 3.58595 3.88479 3.73835
# Velocity P-wave (km/s) = 5.74650 6.38818 6.07582
#
# Compressibility (1/GPa) = 0.02522779
#
# Stress axis : x y z
#
# Youngs Moduli (GPa) = 74.11955 86.73723 62.71199
#
# Poissons Ratio (x) = 0.40772 -0.10931
# Poissons Ratio (y) = 0.34841 0.30803
# Poissons Ratio (z) = -0.12919 0.42604
#
# Static dielectric constant tensor:
#      x y z
#    x 2.127470 0.062450 -0.088420 
#    y 0.062450 2.122110 0.017850 
#    z -0.088420 0.017850 1.979720 
# 
# From -- ./inp_files/332935.got.cif
#   From: 2010.05.17/outbox.cif.g08.bks.cpg/sg2_167_cif.got.tgz:332935.got - 2010.06.03 11:33:40.
