data_PCOD9061651
_publ_section_title
;
Structure prediction by ZEFSAII (Michael W. Deem and Ramdas Pophale) SiO2 
 PCOD9061651
Probable space group: P -1
;
_chemical_formula_sum "Si O2"
_cell_formula_units_Z 11
_cell_length_a 9.216825
_cell_length_b 8.764713
_cell_length_c 9.062529
_cell_angle_alpha 69.330468
_cell_angle_beta 134.605231
_cell_angle_gamma 91.707147
_cell_volume 460.801035
_symmetry_space_group_name_H-M "P -1"
_symmetry_group_IT_number 2
_symmetry_cell_setting 'triclinic'
loop_
_space_group_symop_operation_xyz
x,y,z
-x,-y,-z
loop_
_atom_site_type_symbol
_atom_site_label
_atom_site_fract_x
_atom_site_fract_y
_atom_site_fract_z
Si Si1 0.274546 0.246162 0.550633
Si Si2 0.256465 0.905846 0.104097
Si Si3 0.804154 0.028837 0.626415
Si Si4 0.420141 0.598121 0.757310
Si Si5 0.000000 0.500000 0.500000
Si Si6 0.778767 0.466872 0.812353
O O1 0.518977 0.134538 0.807973
O O2 0.312667 0.400371 0.429830
O O3 0.098607 0.325887 0.521908
O O4 0.191105 0.133566 0.413304
O O5 0.278928 0.972320 0.263149
O O6 0.198102 0.728893 0.143788
O O7 0.048580 0.028558 0.828775
O O8 0.651559 0.196073 0.376107
O O9 0.617560 0.522253 0.814105
O O10 0.206960 0.554109 0.583433
O O11 0.500000 0.500000 0.000000
O O12 0.000000 0.500000 0.000000
#
# Coordination Sequence:
#
# PCOD9061651 Si02
#       6
#     2   2   2   2   1   2
#     4  12  24  46  78 114 151 199 251 317 380 449
#     4  11  23  45  75 114 149 189 252 317 373 445
#     4  11  26  45  77 115 149 192 258 318 378 444
#     4  12  28  50  73 108 157 204 252 310 378 457
#     4  12  28  48  74 110 154 208 250 300 386 452
#     4  12  23  46  78 108 147 202 255 307 376 452
#
# _framework density 23.871476000000001
#
# number of rings (size 3 to 8) (size 9 to 14) (size 15 to 20)
#    0.000    0.364    5.455    3.273    0.000    2.182 
#    0.000    1.818    0.000    0.000    0.000    0.000 
#    0.000    0.000    0.000    0.000    0.000    0.000 
#
# Total GULP energy -61318.800528 kJ/mol
# GULP energy per Si atom -5574.436412 kJ/mol
# Density = 2.381714 g / cm^3
# Si number density = 23.871476 Si / 1000 Ang^3
#
#
#
# Elastic Constant Matrix: (Units=GPa)
#
#
# Indices 1 2 3 4 5 6 
#
# 1 188.9690 55.0078 52.0692 5.8870 21.0242 -41.7739
# 2 55.0078 163.0346 42.7108 12.6979 -8.4460 -30.2129
# 3 52.0692 42.7108 91.4449 -18.7317 4.4781 -18.4757
# 4 5.8870 12.6979 -18.7317 29.8041 14.4500 5.1591
# 5 21.0242 -8.4460 4.4781 14.4500 38.5633 -4.1249
# 6 -41.7739 -30.2129 -18.4757 5.1591 -4.1249 46.4272
#
#
#
# Elastic Compliance Matrix: (Units=1/GPa)
#
#
# Indices 1 2 3 4 5 6 
#
# 1 0.008118 -0.000433 -0.003982 -0.003956 -0.001966 0.005703
# 2 -0.000433 0.011018 -0.007133 -0.014950 0.009771 0.006472
# 3 -0.003982 -0.007133 0.021071 0.022864 -0.010763 -0.003337
# 4 -0.003956 -0.014950 0.022864 0.073746 -0.033045 -0.015320
# 5 -0.001966 0.009771 -0.010763 -0.033045 0.043615 0.007854
# 6 0.005703 0.006472 -0.003337 -0.015320 0.007854 0.031954
#
#
# Mechanical properties :
#
#
# Convention : Reuss Voigt Hill
#
# Bulk Modulus (GPa) = 58.44115 82.55824 70.49970
# Shear Modulus (GPa) = 22.90195 42.53631 32.71913
#
# Velocity S-wave (km/s) = 3.10076 4.22582 3.70623
# Velocity P-wave (km/s) = 6.11182 7.64654 6.92185
#
# Compressibility (1/GPa) = 0.01711123
#
# Stress axis : x y z
#
# Youngs Moduli (GPa) = 123.18858 90.75894 47.45846
#
# Poissons Ratio (x) = 0.03926 0.18898
# Poissons Ratio (y) = 0.05329 0.33853
# Poissons Ratio (z) = 0.49054 0.64740
#
# Static dielectric constant tensor:
#      x y z
#    x 1.867080 -0.016840 0.028970 
#    y -0.016840 1.947080 -0.025450 
#    z 0.028970 -0.025450 2.038200 
# 
# From -- ./inp_files/148662.got.cif
#   From: 2010.05.17/outbox.cif.g08.bks.cpg/sg2_75_cif.got.tgz:148662.got - 2010.06.03 11:33:40.
