data_PCOD9061326
_publ_section_title
;
Structure prediction by ZEFSAII (Michael W. Deem and Ramdas Pophale) SiO2 
 PCOD9061326
Probable space group: P -1
;
_chemical_formula_sum "Si O2"
_cell_formula_units_Z 16
_cell_length_a 16.336485
_cell_length_b 8.956672
_cell_length_c 8.559730
_cell_angle_alpha 108.380940
_cell_angle_beta 63.743660
_cell_angle_gamma 140.488202
_cell_volume 713.906450
_symmetry_space_group_name_H-M "P -1"
_symmetry_group_IT_number 2
_symmetry_cell_setting 'triclinic'
loop_
_space_group_symop_operation_xyz
x,y,z
-x,-y,-z
loop_
_atom_site_type_symbol
_atom_site_label
_atom_site_fract_x
_atom_site_fract_y
_atom_site_fract_z
Si Si1 0.776898 0.611033 0.744735
Si Si2 0.770946 0.046972 0.511541
Si Si3 0.232087 0.327355 0.594683
Si Si4 0.806514 0.169700 0.881448
Si Si5 0.043034 0.903744 0.091799
Si Si6 0.510972 0.834573 0.496409
Si Si7 0.965749 0.645516 0.778220
Si Si8 0.478979 0.292535 0.890801
O O1 0.783956 0.672414 0.579257
O O2 0.876436 0.595297 0.693973
O O3 0.619418 0.382483 0.842135
O O4 0.835015 0.824797 0.872960
O O5 0.749632 0.832796 0.433996
O O6 0.637232 0.970321 0.549457
O O7 0.806026 0.109162 0.683800
O O8 0.900538 0.267004 0.372404
O O9 0.367636 0.597416 0.612852
O O10 0.095681 0.219136 0.750401
O O11 0.907114 0.197772 0.912757
O O12 0.866151 0.419403 0.897481
O O13 0.654607 0.953088 0.001996
O O14 0.021088 0.854525 0.910889
O O15 0.534597 0.749236 0.298511
O O16 0.500000 0.000000 0.500000
O O17 0.500000 0.500000 0.000000
#
# Coordination Sequence:
#
# PCOD9061326 Si02
#       8
#     2   2   2   2   2   2   2   2
#     4  11  23  45  68 103 136 179 230 279 343 406
#     4  12  25  47  69  98 139 184 233 277 344 422
#     4  11  24  44  73  97 138 184 228 280 340 422
#     4  12  26  44  70 101 137 183 227 282 350 403
#     4  12  23  44  70 100 138 178 232 280 339 408
#     4  11  28  45  71 107 140 180 230 293 350 402
#     4  12  28  40  69 105 139 176 226 293 342 405
#     4  11  24  47  75  97 142 186 229 283 341 420
#
# _framework density 22.411901
#
# number of rings (size 3 to 8) (size 9 to 14) (size 15 to 20)
#    0.000    0.500    3.750    4.125    7.000    1.500 
#    0.000    0.000    0.000    0.000    0.000    0.000 
#    0.000    0.000    0.000    0.000    0.000    0.000 
#
# Total GULP energy -89557.243822 kJ/mol
# GULP energy per Si atom -5597.327739 kJ/mol
# Density = 2.236089 g / cm^3
# Si number density = 22.411901 Si / 1000 Ang^3
#
#
#
# Elastic Constant Matrix: (Units=GPa)
#
#
# Indices 1 2 3 4 5 6 
#
# 1 123.7537 33.8597 12.4613 -9.5413 6.1533 18.6180
# 2 33.8597 112.8436 30.6968 -28.3360 -6.5491 15.1342
# 3 12.4613 30.6968 80.1590 -16.5689 -5.9385 19.0657
# 4 -9.5413 -28.3360 -16.5689 36.0316 2.0598 -4.1081
# 5 6.1533 -6.5491 -5.9385 2.0598 23.0781 -2.9743
# 6 18.6180 15.1342 19.0657 -4.1081 -2.9743 38.5163
#
#
#
# Elastic Compliance Matrix: (Units=1/GPa)
#
#
# Indices 1 2 3 4 5 6 
#
# 1 0.009564 -0.002508 0.000235 0.000427 -0.003755 -0.003998
# 2 -0.002508 0.012562 -0.002218 0.007858 0.002759 -0.001575
# 3 0.000235 -0.002218 0.015981 0.004805 0.002157 -0.006474
# 4 0.000427 0.007858 0.004805 0.036053 -0.000102 -0.001835
# 5 -0.003755 0.002759 0.002157 -0.000102 0.046093 0.003212
# 6 -0.003998 -0.001575 -0.006474 -0.001835 0.003212 0.031771
#
#
# Mechanical properties :
#
#
# Convention : Reuss Voigt Hill
#
# Bulk Modulus (GPa) = 34.33456 52.31020 43.32238
# Shear Modulus (GPa) = 29.28863 35.50776 32.39820
#
# Velocity S-wave (km/s) = 3.61894 3.98468 3.80620
# Velocity P-wave (km/s) = 5.72847 6.67542 6.21999
#
# Compressibility (1/GPa) = 0.02912517
#
# Stress axis : x y z
#
# Youngs Moduli (GPa) = 104.55529 79.60387 62.57524
#
# Poissons Ratio (x) = 0.19966 -0.01469
# Poissons Ratio (y) = 0.26225 0.13877
# Poissons Ratio (z) = -0.02454 0.17653
#
# Static dielectric constant tensor:
#      x y z
#    x 1.813060 -0.040150 -0.015500 
#    y -0.040150 1.856890 0.021770 
#    z -0.015500 0.021770 1.802660 
# 
# From -- ./inp_files/205230.got.cif
#   From: 2010.05.17/outbox.cif.g08.bks.cpg/sg2_103_cif.got.tgz:205230.got - 2010.06.03 11:33:40.
