data_PCOD9061461
_publ_section_title
;
Structure prediction by ZEFSAII (Michael W. Deem and Ramdas Pophale) SiO2 
 PCOD9061461
Probable space group: P -1
;
_chemical_formula_sum "Si O2"
_cell_formula_units_Z 16
_cell_length_a 9.357917
_cell_length_b 17.349075
_cell_length_c 7.819769
_cell_angle_alpha 83.667576
_cell_angle_beta 85.464582
_cell_angle_gamma 30.056109
_cell_volume 631.628656
_symmetry_space_group_name_H-M "P -1"
_symmetry_group_IT_number 2
_symmetry_cell_setting 'triclinic'
loop_
_space_group_symop_operation_xyz
x,y,z
-x,-y,-z
loop_
_atom_site_type_symbol
_atom_site_label
_atom_site_fract_x
_atom_site_fract_y
_atom_site_fract_z
Si Si1 0.216164 0.793954 0.953286
Si Si2 0.675847 0.502317 0.156290
Si Si3 0.127367 0.927044 0.287661
Si Si4 0.796107 0.861841 0.104779
Si Si5 0.751294 0.432045 0.684418
Si Si6 0.886026 0.768954 0.630581
Si Si7 0.307685 0.390502 0.548883
Si Si8 0.699890 0.001925 0.432438
O O1 0.535428 0.608589 0.979447
O O2 0.195459 0.856146 0.112804
O O3 0.011215 0.817735 0.997610
O O4 0.080822 0.905317 0.785080
O O5 0.461536 0.533353 0.227754
O O6 0.707419 0.553156 0.287060
O O7 0.985036 0.318632 0.181610
O O8 0.431318 0.790331 0.389580
O O9 0.931749 0.959558 0.404712
O O10 0.739825 0.934131 0.270399
O O11 0.965341 0.705695 0.189660
O O12 0.500000 0.000000 0.000000
O O13 0.627044 0.573969 0.609545
O O14 0.869077 0.346306 0.509654
O O15 0.765791 0.911851 0.600862
O O16 0.638097 0.826086 0.582194
O O17 0.000000 0.500000 0.500000
#
# Coordination Sequence:
#
# PCOD9061461 Si02
#       8
#     2   2   2   2   2   2   2   2
#     4   8  16  28  46  64  85 127 152 186 232 270
#     4   9  16  31  49  69  91 122 162 197 230 274
#     4   9  16  29  43  65  97 115 154 190 231 285
#     4   9  17  28  46  68  95 116 154 193 233 276
#     4   9  17  30  48  71  92 123 159 194 235 271
#     4   9  15  27  49  70  92 114 164 201 219 271
#     4  10  18  25  43  72  96 115 144 199 246 269
#     4   9  17  28  46  74  89 124 156 191 236 275
#
# _framework density 25.331340999999998
#
# number of rings (size 3 to 8) (size 9 to 14) (size 15 to 20)
#    0.000    3.000    0.000    4.500    1.750    0.000 
#    0.000    0.625    0.000    6.000   13.000    0.000 
#    0.000    0.000    0.000    0.000    0.000    0.000 
#
# Total GULP energy -89351.751890 kJ/mol
# GULP energy per Si atom -5584.484493 kJ/mol
# Density = 2.527369 g / cm^3
# Si number density = 25.331341 Si / 1000 Ang^3
#
#
#
# Elastic Constant Matrix: (Units=GPa)
#
#
# Indices 1 2 3 4 5 6 
#
# 1 90.8729 37.0079 57.7718 -25.3503 8.0853 -22.2932
# 2 37.0079 116.6613 67.0738 -65.6553 0.7429 -13.5040
# 3 57.7718 67.0738 180.6586 -68.1801 1.8290 -5.3374
# 4 -25.3503 -65.6553 -68.1801 74.6517 6.2640 11.2259
# 5 8.0853 0.7429 1.8290 6.2640 37.7240 1.3215
# 6 -22.2932 -13.5040 -5.3374 11.2259 1.3215 32.6711
#
#
#
# Elastic Compliance Matrix: (Units=1/GPa)
#
#
# Indices 1 2 3 4 5 6 
#
# 1 0.017818 -0.002754 -0.005288 -0.002592 -0.003470 0.011187
# 2 -0.002754 0.017947 -0.000151 0.014822 -0.002235 0.000512
# 3 -0.005288 -0.000151 0.010236 0.008186 -0.000551 -0.004789
# 4 -0.002592 0.014822 0.008186 0.034386 -0.005637 -0.005892
# 5 -0.003470 -0.002235 -0.000551 -0.005637 0.028349 -0.002591
# 6 0.011187 0.000512 -0.004789 -0.005892 -0.002591 0.039800
#
#
# Mechanical properties :
#
#
# Convention : Reuss Voigt Hill
#
# Bulk Modulus (GPa) = 33.76664 79.09999 56.43331
# Shear Modulus (GPa) = 28.60496 44.09863 36.35180
#
# Velocity S-wave (km/s) = 3.36405 4.17690 3.79232
# Velocity P-wave (km/s) = 5.33367 7.38620 6.44220
#
# Compressibility (1/GPa) = 0.02961503
#
# Stress axis : x y z
#
# Youngs Moduli (GPa) = 56.12417 55.71879 97.69305
#
# Poissons Ratio (x) = 0.15342 0.51660
# Poissons Ratio (y) = 0.15454 0.01479
# Poissons Ratio (z) = 0.29679 0.00844
#
# Static dielectric constant tensor:
#      x y z
#    x 2.027130 0.122380 0.045980 
#    y 0.122380 2.166170 -0.017730 
#    z 0.045980 -0.017730 2.016810 
# 
# From -- ./inp_files/253063.got.cif
#   From: 2010.05.17/outbox.cif.g08.bks.cpg/sg2_127_cif.got.tgz:253063.got - 2010.06.03 11:33:40.
