data_PCOD9061486
_publ_section_title
;
Structure prediction by ZEFSAII (Michael W. Deem and Ramdas Pophale) SiO2 
 PCOD9061486
Probable space group: P -1
;
_chemical_formula_sum "Si O2"
_cell_formula_units_Z 12
_cell_length_a 8.385795
_cell_length_b 13.692389
_cell_length_c 10.957521
_cell_angle_alpha 31.888431
_cell_angle_beta 98.099713
_cell_angle_gamma 78.814134
_cell_volume 526.575166
_symmetry_space_group_name_H-M "P -1"
_symmetry_group_IT_number 2
_symmetry_cell_setting 'triclinic'
loop_
_space_group_symop_operation_xyz
x,y,z
-x,-y,-z
loop_
_atom_site_type_symbol
_atom_site_label
_atom_site_fract_x
_atom_site_fract_y
_atom_site_fract_z
Si Si1 0.658378 0.816562 0.614593
Si Si2 0.231667 0.375527 0.628392
Si Si3 0.499321 0.884698 0.274125
Si Si4 0.131146 0.968590 0.707732
Si Si5 0.783751 0.181416 0.844965
Si Si6 0.736774 0.369335 0.140753
O O1 0.538466 0.809613 0.495846
O O2 0.778079 0.907394 0.474785
O O3 0.500000 0.000000 0.500000
O O4 0.777646 0.560627 0.953061
O O5 0.291596 0.255443 0.629110
O O6 0.268375 0.567250 0.434684
O O7 0.000000 0.500000 0.500000
O O8 0.377389 0.160417 0.961284
O O9 0.368919 0.831715 0.238270
O O10 0.889199 0.157445 0.472634
O O11 0.201607 0.753699 0.854812
O O12 0.203212 0.885665 0.940815
O O13 0.000000 0.000000 0.000000
O O14 0.500000 0.500000 0.000000
#
# Coordination Sequence:
#
# PCOD9061486 Si02
#       6
#     2   2   2   2   2   2
#     4  12  26  48  75 102 140 190 237 292 352 415
#     4  11  23  45  71 106 139 187 230 284 357 418
#     4  11  26  46  70 104 145 182 238 288 354 421
#     4  11  26  48  71 105 145 181 238 291 349 418
#     4  12  26  45  73 107 143 189 229 293 356 415
#     4  11  25  47  76 105 139 189 236 289 351 417
#
# _framework density 22.78877
#
# number of rings (size 3 to 8) (size 9 to 14) (size 15 to 20)
#    0.000    0.667    3.333    4.000    2.333    2.667 
#    3.000    0.000    0.000    0.000    0.000    0.000 
#    0.000    0.000    0.000    0.000    0.000    0.000 
#
# Total GULP energy -67195.760114 kJ/mol
# GULP energy per Si atom -5599.646676 kJ/mol
# Density = 2.273690 g / cm^3
# Si number density = 22.788770 Si / 1000 Ang^3
#
#
#
# Elastic Constant Matrix: (Units=GPa)
#
#
# Indices 1 2 3 4 5 6 
#
# 1 110.9236 19.5403 37.8958 -17.1311 8.4858 -11.5400
# 2 19.5403 77.1720 35.9924 -7.0771 24.8435 -0.7313
# 3 37.8958 35.9924 129.2701 -38.3197 -0.0432 -4.4102
# 4 -17.1311 -7.0771 -38.3197 42.9086 5.4208 3.3883
# 5 8.4858 24.8435 -0.0432 5.4208 46.7664 -9.8860
# 6 -11.5400 -0.7313 -4.4102 3.3883 -9.8860 35.5990
#
#
#
# Elastic Compliance Matrix: (Units=1/GPa)
#
#
# Indices 1 2 3 4 5 6 
#
# 1 0.010609 -0.001194 -0.002061 0.002108 -0.000968 0.002690
# 2 -0.001194 0.019021 -0.005170 -0.000337 -0.010604 -0.003550
# 3 -0.002061 -0.005170 0.012523 0.009193 0.002174 0.000506
# 4 0.002108 -0.000337 0.009193 0.033086 -0.004581 -0.002606
# 5 -0.000968 -0.010604 0.002174 -0.004581 0.029493 0.008364
# 6 0.002690 -0.003550 0.000506 -0.002606 0.008364 0.031523
#
#
# Mechanical properties :
#
#
# Convention : Reuss Voigt Hill
#
# Bulk Modulus (GPa) = 39.52477 56.02474 47.77475
# Shear Modulus (GPa) = 30.95205 39.98395 35.46800
#
# Velocity S-wave (km/s) = 3.68940 4.19327 3.94938
# Velocity P-wave (km/s) = 5.96074 6.93415 6.46579
#
# Compressibility (1/GPa) = 0.02530059
#
# Stress axis : x y z
#
# Youngs Moduli (GPa) = 94.25714 52.57354 79.85478
#
# Poissons Ratio (x) = 0.06280 0.16460
# Poissons Ratio (y) = 0.11259 0.41288
# Poissons Ratio (z) = 0.19429 0.27183
#
# Static dielectric constant tensor:
#      x y z
#    x 1.928210 -0.022770 0.009660 
#    y -0.022770 1.835800 -0.045900 
#    z 0.009660 -0.045900 1.915100 
# 
# From -- ./inp_files/396865.got.cif
#   From: 2010.05.17/outbox.cif.g08.bks.cpg/sg2_199_cif.got.tgz:396865.got - 2010.06.03 11:33:40.
