data_PCOD9061463
_publ_section_title
;
Structure prediction by ZEFSAII (Michael W. Deem and Ramdas Pophale) SiO2 
 PCOD9061463
Probable space group: P -1
;
_chemical_formula_sum "Si O2"
_cell_formula_units_Z 12
_cell_length_a 9.411601
_cell_length_b 7.425502
_cell_length_c 11.056569
_cell_angle_alpha 103.907216
_cell_angle_beta 108.291226
_cell_angle_gamma 44.273616
_cell_volume 512.012401
_symmetry_space_group_name_H-M "P -1"
_symmetry_group_IT_number 2
_symmetry_cell_setting 'triclinic'
loop_
_space_group_symop_operation_xyz
x,y,z
-x,-y,-z
loop_
_atom_site_type_symbol
_atom_site_label
_atom_site_fract_x
_atom_site_fract_y
_atom_site_fract_z
Si Si1 0.602199 0.911151 0.775545
Si Si2 0.437503 0.502830 0.621779
Si Si3 0.173693 0.426932 0.446888
Si Si4 0.653685 0.290213 0.903824
Si Si5 0.827930 0.922327 0.290079
Si Si6 0.089685 0.614840 0.089862
O O1 0.716625 0.800956 0.657717
O O2 0.356738 0.069089 0.734582
O O3 0.655081 0.063904 0.875008
O O4 0.706771 0.646156 0.830237
O O5 0.500000 0.500000 0.500000
O O6 0.347389 0.375763 0.563964
O O7 0.587899 0.371634 0.756786
O O8 0.261434 0.803062 0.655175
O O9 0.000000 0.500000 0.500000
O O10 0.038985 0.693626 0.380285
O O11 0.500000 0.500000 0.000000
O O12 0.907660 0.849878 0.163644
O O13 0.841839 0.276861 0.960436
O O14 0.000000 0.500000 0.000000
#
# Coordination Sequence:
#
# PCOD9061463 Si02
#       6
#     2   2   2   2   2   2
#     4  11  25  48  71 103 152 185 242 302 358 428
#     4  12  24  46  75 105 147 193 239 291 365 427
#     4  11  25  40  69 109 139 189 243 294 356 425
#     4  12  28  47  76 109 145 193 240 299 366 424
#     4  11  23  45  71 101 144 191 238 298 358 424
#     4  11  26  47  72 102 141 196 244 292 362 430
#
# _framework density 23.436931999999999
#
# number of rings (size 3 to 8) (size 9 to 14) (size 15 to 20)
#    0.000    0.667    3.333    3.500    7.000    4.667 
#    0.000    0.000    0.000    0.000    0.000    0.000 
#    0.000    0.000    0.000    0.000    0.000    0.000 
#
# Total GULP energy -66984.141264 kJ/mol
# GULP energy per Si atom -5582.011772 kJ/mol
# Density = 2.338359 g / cm^3
# Si number density = 23.436932 Si / 1000 Ang^3
#
#
#
# Elastic Constant Matrix: (Units=GPa)
#
#
# Indices 1 2 3 4 5 6 
#
# 1 137.2442 22.8317 13.8668 23.5302 -7.9571 7.8367
# 2 22.8317 139.5066 9.7316 24.9756 -7.9995 18.8270
# 3 13.8668 9.7316 40.8667 7.3055 -1.7547 5.1459
# 4 23.5302 24.9756 7.3055 54.8227 -5.6258 1.6555
# 5 -7.9571 -7.9995 -1.7547 -5.6258 41.6164 8.6709
# 6 7.8367 18.8270 5.1459 1.6555 8.6709 41.4339
#
#
#
# Elastic Compliance Matrix: (Units=1/GPa)
#
#
# Indices 1 2 3 4 5 6 
#
# 1 0.008198 -0.000446 -0.001946 -0.002887 0.001271 -0.001256
# 2 -0.000446 0.008523 -0.000710 -0.003281 0.001906 -0.003968
# 3 -0.001946 -0.000710 0.026051 -0.002146 0.000849 -0.002637
# 4 -0.002887 -0.003281 -0.002146 0.021366 0.001373 0.001163
# 5 0.001271 0.001906 0.000849 0.001373 0.026269 -0.006764
# 6 -0.001256 -0.003968 -0.002637 0.001163 -0.006764 0.027872
#
#
# Mechanical properties :
#
#
# Convention : Reuss Voigt Hill
#
# Bulk Modulus (GPa) = 27.34762 45.60863 36.47813
# Shear Modulus (GPa) = 36.58339 45.65375 41.11857
#
# Velocity S-wave (km/s) = 3.95515 4.41834 4.19314
# Velocity P-wave (km/s) = 5.70539 6.74769 6.24831
#
# Compressibility (1/GPa) = 0.03656625
#
# Stress axis : x y z
#
# Youngs Moduli (GPa) = 121.98569 117.33067 38.38564
#
# Poissons Ratio (x) = 0.05239 0.07471
# Poissons Ratio (y) = 0.05447 0.02725
# Poissons Ratio (z) = 0.23743 0.08331
#
# Static dielectric constant tensor:
#      x y z
#    x 1.910800 -0.005900 -0.041470 
#    y -0.005900 1.816600 -0.115360 
#    z -0.041470 -0.115360 2.076790 
# 
# From -- ./inp_files/150246.got.cif
#   From: 2010.05.17/outbox.cif.g08.bks.cpg/sg2_76_cif.got.tgz:150246.got - 2010.06.03 11:33:40.
