data_PCOD9061112
_publ_section_title
;
Structure prediction by ZEFSAII (Michael W. Deem and Ramdas Pophale) SiO2 
 PCOD9061112
Probable space group: P -1
;
_chemical_formula_sum "Si O2"
_cell_formula_units_Z 14
_cell_length_a 7.449094
_cell_length_b 8.411452
_cell_length_c 14.544646
_cell_angle_alpha 37.393819
_cell_angle_beta 104.625244
_cell_angle_gamma 97.192453
_cell_volume 531.084558
_symmetry_space_group_name_H-M "P -1"
_symmetry_group_IT_number 2
_symmetry_cell_setting 'triclinic'
loop_
_space_group_symop_operation_xyz
x,y,z
-x,-y,-z
loop_
_atom_site_type_symbol
_atom_site_label
_atom_site_fract_x
_atom_site_fract_y
_atom_site_fract_z
Si Si1 0.221660 0.984883 0.526197
Si Si2 0.191139 0.449819 0.823916
Si Si3 0.685255 0.220262 0.567988
Si Si4 0.353413 0.539497 0.305266
Si Si5 0.837532 0.398633 0.925609
Si Si6 0.369877 0.269109 0.099416
Si Si7 0.997046 0.204656 0.751737
O O1 0.286649 0.715621 0.711914
O O2 0.285854 0.932701 0.454295
O O3 0.290044 0.249696 0.447148
O O4 0.000000 0.000000 0.500000
O O5 0.997901 0.495455 0.836920
O O6 0.138334 0.366059 0.752932
O O7 0.312184 0.237439 0.000203
O O8 0.552260 0.492384 0.403575
O O9 0.889349 0.265329 0.613306
O O10 0.594411 0.017183 0.717161
O O11 0.341963 0.587128 0.172636
O O12 0.186955 0.740987 0.232378
O O13 0.791469 0.583527 0.922114
O O14 0.906817 0.096260 0.099131
O O15 0.500000 0.500000 0.000000
#
# Coordination Sequence:
#
# PCOD9061112 Si02
#       7
#     2   2   2   2   2   2   2
#     4  12  23  42  72 103 138 182 231 286 336 410
#     4  11  23  44  72  99 138 181 234 275 337 414
#     4  12  26  44  72 102 144 178 228 290 350 395
#     4  11  23  45  69 102 140 181 225 287 348 398
#     4  11  23  44  73 100 136 185 230 278 346 405
#     4  12  26  44  72 106 135 179 237 289 337 408
#     4  11  25  45  71 101 140 189 227 275 348 418
#
# _framework density 26.361149999999999
#
# number of rings (size 3 to 8) (size 9 to 14) (size 15 to 20)
#    0.000    0.571    5.714    3.857    4.000    0.571 
#    0.000    2.143    0.000    0.000    0.000    0.000 
#    0.000    0.000    0.000    0.000    0.000    0.000 
#
# Total GULP energy -78256.318310 kJ/mol
# GULP energy per Si atom -5589.737022 kJ/mol
# Density = 2.630115 g / cm^3
# Si number density = 26.361150 Si / 1000 Ang^3
#
#
#
# Elastic Constant Matrix: (Units=GPa)
#
#
# Indices 1 2 3 4 5 6 
#
# 1 63.1071 0.4466 30.9110 -2.8598 -3.0160 1.7613
# 2 0.4466 85.1159 12.8391 -2.1669 2.9339 16.3310
# 3 30.9110 12.8391 147.8432 24.4038 27.6440 23.3788
# 4 -2.8598 -2.1669 24.4038 44.0311 5.6626 2.7618
# 5 -3.0160 2.9339 27.6440 5.6626 53.0494 -4.8348
# 6 1.7613 16.3310 23.3788 2.7618 -4.8348 34.2107
#
#
#
# Elastic Compliance Matrix: (Units=1/GPa)
#
#
# Indices 1 2 3 4 5 6 
#
# 1 0.018993 0.000121 -0.005869 0.003772 0.004024 0.003239
# 2 0.000121 0.013089 -0.000085 0.001287 -0.001403 -0.006499
# 3 -0.005869 -0.000085 0.011314 -0.005344 -0.006371 -0.007858
# 4 0.003772 0.001287 -0.005344 0.025902 0.000235 0.000786
# 5 0.004024 -0.001403 -0.006371 0.000235 0.023187 0.008074
# 6 0.003239 -0.006499 -0.007858 0.000786 0.008074 0.038614
#
#
# Mechanical properties :
#
#
# Convention : Reuss Voigt Hill
#
# Bulk Modulus (GPa) = 31.51378 42.71772 37.11575
# Shear Modulus (GPa) = 32.60744 43.04955 37.82849
#
# Velocity S-wave (km/s) = 3.52085 4.04551 3.79226
# Velocity P-wave (km/s) = 5.33939 6.16940 5.76934
#
# Compressibility (1/GPa) = 0.03173215
#
# Stress axis : x y z
#
# Youngs Moduli (GPa) = 52.65213 76.40117 88.38460
#
# Poissons Ratio (x) = -0.00928 0.51869
# Poissons Ratio (y) = -0.00640 0.00748
# Poissons Ratio (z) = 0.30899 0.00646
#
# Static dielectric constant tensor:
#      x y z
#    x 2.137700 0.097890 0.094370 
#    y 0.097890 2.107020 0.073450 
#    z 0.094370 0.073450 2.125120 
# 
# From -- ./inp_files/494320.got.cif
#   From: 2010.05.17/outbox.cif.g08.bks.cpg/sg2_248_cif.got.tgz:494320.got - 2010.06.03 11:33:40.
