data_PCOD9061047
_publ_section_title
;
Structure prediction by ZEFSAII (Michael W. Deem and Ramdas Pophale) SiO2 
 PCOD9061047
Probable space group: P -1
;
_chemical_formula_sum "Si O2"
_cell_formula_units_Z 16
_cell_length_a 5.205285
_cell_length_b 17.964971
_cell_length_c 12.448734
_cell_angle_alpha 47.478560
_cell_angle_beta 51.665458
_cell_angle_gamma 80.353469
_cell_volume 605.905985
_symmetry_space_group_name_H-M "P -1"
_symmetry_group_IT_number 2
_symmetry_cell_setting 'triclinic'
loop_
_space_group_symop_operation_xyz
x,y,z
-x,-y,-z
loop_
_atom_site_type_symbol
_atom_site_label
_atom_site_fract_x
_atom_site_fract_y
_atom_site_fract_z
Si Si1 0.668835 0.173991 0.582216
Si Si2 0.706134 0.809415 0.037747
Si Si3 0.370875 0.596251 0.926806
Si Si4 0.356416 0.602826 0.676419
Si Si5 0.238327 0.374011 0.655407
Si Si6 0.548214 0.757241 0.912458
Si Si7 0.154024 0.883929 0.182056
Si Si8 0.522304 0.018247 0.347781
O O1 0.783613 0.305564 0.410846
O O2 0.881874 0.163241 0.641555
O O3 0.224346 0.126213 0.756500
O O4 0.686542 0.095903 0.555228
O O5 0.640569 0.715060 0.234245
O O6 0.345123 0.828577 0.107081
O O7 0.804284 0.771970 0.933881
O O8 0.054624 0.926408 0.852869
O O9 0.424230 0.628086 0.758724
O O10 0.569319 0.697307 0.857608
O O11 0.500000 0.500000 0.000000
O O12 0.938321 0.526296 0.130516
O O13 0.695446 0.623086 0.492569
O O14 0.500000 0.500000 0.500000
O O15 0.836994 0.331259 0.849626
O O16 0.584047 0.881347 0.755713
O O17 0.500000 0.000000 0.000000
O O18 0.500000 0.000000 0.500000
#
# Coordination Sequence:
#
# PCOD9061047 Si02
#       8
#     2   2   2   2   2   2   2   2
#     4  12  26  45  78 105 150 190 248 303 373 440
#     4  11  25  42  72 106 143 186 239 307 370 438
#     4  11  27  45  72 101 147 194 244 303 374 446
#     4  11  25  47  69 106 142 192 243 310 364 449
#     4  11  23  44  72 101 141 182 241 305 369 430
#     4  11  25  46  72 104 140 187 245 304 369 443
#     4  12  24  44  73 111 147 191 236 310 373 437
#     4  11  26  47  69 102 143 196 241 301 366 448
#
# _framework density 26.406738000000001
#
# number of rings (size 3 to 8) (size 9 to 14) (size 15 to 20)
#    0.000    0.750    3.750    2.625    5.250    4.000 
#    0.000    0.000    0.000    0.000    0.000    0.000 
#    0.000    0.000    0.000    0.000    0.000    0.000 
#
# Total GULP energy -89587.779806 kJ/mol
# GULP energy per Si atom -5599.236238 kJ/mol
# Density = 2.634664 g / cm^3
# Si number density = 26.406738 Si / 1000 Ang^3
#
#
#
# Elastic Constant Matrix: (Units=GPa)
#
#
# Indices 1 2 3 4 5 6 
#
# 1 41.9697 -1.7403 23.6916 4.8368 -10.9801 8.8332
# 2 -1.7403 141.1105 31.8864 4.4231 0.9954 40.9733
# 3 23.6916 31.8864 155.9637 -6.3081 2.0932 17.3618
# 4 4.8368 4.4231 -6.3081 52.5249 15.1478 -4.9657
# 5 -10.9801 0.9954 2.0932 15.1478 54.6221 12.5790
# 6 8.8332 40.9733 17.3618 -4.9657 12.5790 44.2670
#
#
#
# Elastic Compliance Matrix: (Units=1/GPa)
#
#
# Indices 1 2 3 4 5 6 
#
# 1 0.035206 0.006484 -0.005492 -0.009850 0.013546 -0.015827
# 2 0.006484 0.011625 -0.002144 -0.004690 0.005540 -0.013313
# 3 -0.005492 -0.002144 0.007703 0.002345 -0.002231 0.000956
# 4 -0.009850 -0.004690 0.002345 0.025046 -0.011575 0.011486
# 5 0.013546 0.005540 -0.002231 -0.011575 0.027956 -0.016198
# 6 -0.015827 -0.013313 0.000956 0.011486 -0.016198 0.043587
#
#
# Mechanical properties :
#
#
# Convention : Reuss Voigt Hill
#
# Bulk Modulus (GPa) = 19.14617 49.63546 34.39081
# Shear Modulus (GPa) = 29.26795 49.29653 39.28224
#
# Velocity S-wave (km/s) = 3.33280 4.32535 3.86111
# Velocity P-wave (km/s) = 4.69855 6.61681 5.73840
#
# Compressibility (1/GPa) = 0.05222977
#
# Stress axis : x y z
#
# Youngs Moduli (GPa) = 28.40444 86.02475 129.82595
#
# Poissons Ratio (x) = -0.55778 0.71299
# Poissons Ratio (y) = -0.18417 0.27829
# Poissons Ratio (z) = 0.15599 0.18440
#
# Static dielectric constant tensor:
#      x y z
#    x 2.074760 -0.024240 -0.088670 
#    y -0.024240 2.119000 0.026900 
#    z -0.088670 0.026900 2.071440 
# 
# From -- ./inp_files/369342.got.cif
#   From: 2010.05.17/outbox.cif.g08.bks.cpg/sg2_185_cif.got.tgz:369342.got - 2010.06.03 11:33:40.
