data_PCOD9061435
_publ_section_title
;
Structure prediction by ZEFSAII (Michael W. Deem and Ramdas Pophale) SiO2 
 PCOD9061435
Probable space group: P -1
;
_chemical_formula_sum "Si O2"
_cell_formula_units_Z 16
_cell_length_a 12.040842
_cell_length_b 5.249397
_cell_length_c 11.017984
_cell_angle_alpha 118.259698
_cell_angle_beta 89.668829
_cell_angle_gamma 91.896873
_cell_volume 613.035300
_symmetry_space_group_name_H-M "P -1"
_symmetry_group_IT_number 2
_symmetry_cell_setting 'triclinic'
loop_
_space_group_symop_operation_xyz
x,y,z
-x,-y,-z
loop_
_atom_site_type_symbol
_atom_site_label
_atom_site_fract_x
_atom_site_fract_y
_atom_site_fract_z
Si Si1 0.509623 0.306951 0.338000
Si Si2 0.122717 0.444395 0.432818
Si Si3 0.403289 0.210789 0.084588
Si Si4 0.690712 0.005306 0.618230
Si Si5 0.713362 0.056444 0.373006
Si Si6 0.003790 0.877655 0.835048
Si Si7 0.271320 0.685601 0.088373
Si Si8 0.867415 0.606872 0.169019
O O1 0.500000 0.500000 0.500000
O O2 0.459988 0.411280 0.235528
O O3 0.635144 0.205708 0.309908
O O4 0.416722 0.059622 0.312416
O O5 0.187055 0.749860 0.522939
O O6 0.000000 0.500000 0.500000
O O7 0.098303 0.292484 0.268308
O O8 0.214403 0.234486 0.442004
O O9 0.358832 0.427634 0.033230
O O10 0.308182 0.978957 0.081504
O O11 0.500000 0.000000 0.000000
O O12 0.642540 0.016438 0.486442
O O13 0.748748 0.255980 0.755715
O O14 0.761700 0.768737 0.255788
O O15 0.094354 0.629225 0.789507
O O16 0.043103 0.138685 0.805698
O O17 0.000000 0.000000 0.000000
O O18 0.164191 0.554185 0.991607
#
# Coordination Sequence:
#
# PCOD9061435 Si02
#       8
#     2   2   2   2   2   2   2   2
#     4  11  23  45  70 110 143 191 246 292 366 431
#     4  12  26  48  72 107 147 190 246 302 372 429
#     4  11  24  44  71 105 150 191 241 299 359 436
#     4  11  26  44  75 104 147 195 242 303 360 439
#     4  12  26  44  75 105 151 194 238 305 363 442
#     4  12  28  48  76 108 146 193 249 305 363 435
#     4  11  25  45  72 106 145 194 243 298 365 427
#     4  12  27  48  73 110 149 190 249 303 365 439
#
# _framework density 26.099640000000001
#
# number of rings (size 3 to 8) (size 9 to 14) (size 15 to 20)
#    0.000    0.500    2.500    4.875    5.250    4.000 
#    0.000    0.000    0.000    0.000    0.000    0.000 
#    0.000    0.000    0.000    0.000    0.000    0.000 
#
# Total GULP energy -89429.675235 kJ/mol
# GULP energy per Si atom -5589.354702 kJ/mol
# Density = 2.604024 g / cm^3
# Si number density = 26.099640 Si / 1000 Ang^3
#
#
#
# Elastic Constant Matrix: (Units=GPa)
#
#
# Indices 1 2 3 4 5 6 
#
# 1 96.2692 33.5351 12.4241 6.6346 9.0668 -12.8603
# 2 33.5351 66.9899 25.6615 19.2354 13.3002 -22.1659
# 3 12.4241 25.6615 114.3657 7.8529 22.8941 -0.3118
# 4 6.6346 19.2354 7.8529 33.2452 -10.5568 1.2766
# 5 9.0668 13.3002 22.8941 -10.5568 50.5248 1.0440
# 6 -12.8603 -22.1659 -0.3118 1.2766 1.0440 45.1665
#
#
#
# Elastic Compliance Matrix: (Units=1/GPa)
#
#
# Indices 1 2 3 4 5 6 
#
# 1 0.012643 -0.006440 0.000082 0.001040 -0.000402 0.000420
# 2 -0.006440 0.032165 -0.002949 -0.020553 -0.010574 0.014757
# 3 0.000082 -0.002949 0.010414 -0.002113 -0.004374 -0.001191
# 4 0.001040 -0.020553 -0.002113 0.047924 0.016433 -0.011539
# 5 -0.000402 -0.010574 -0.004374 0.016433 0.028197 -0.006450
# 6 0.000420 0.014757 -0.001191 -0.011539 -0.006450 0.029969
#
#
# Mechanical properties :
#
#
# Convention : Reuss Voigt Hill
#
# Bulk Modulus (GPa) = 27.31762 46.76290 37.04026
# Shear Modulus (GPa) = 26.02404 39.52091 32.77247
#
# Velocity S-wave (km/s) = 3.16112 3.89553 3.54738
# Velocity P-wave (km/s) = 4.87985 6.17977 5.56788
#
# Compressibility (1/GPa) = 0.03660641
#
# Stress axis : x y z
#
# Youngs Moduli (GPa) = 79.09726 31.08944 96.02234
#
# Poissons Ratio (x) = 0.20023 -0.00785
# Poissons Ratio (y) = 0.50942 0.28320
# Poissons Ratio (z) = -0.00647 0.09169
#
# Static dielectric constant tensor:
#      x y z
#    x 2.652020 -0.057120 0.003830 
#    y -0.057120 2.305580 -0.042920 
#    z 0.003830 -0.042920 2.077840 
# 
# From -- ./inp_files/411296.got.cif
#   From: 2010.05.17/outbox.cif.g08.bks.cpg/sg2_206_cif.got.tgz:411296.got - 2010.06.03 11:33:40.
