data_PCOD9061085
_publ_section_title
;
Structure prediction by ZEFSAII (Michael W. Deem and Ramdas Pophale) SiO2 
 PCOD9061085
Probable space group: P -1
;
_chemical_formula_sum "Si O2"
_cell_formula_units_Z 14
_cell_length_a 8.894725
_cell_length_b 7.043269
_cell_length_c 10.740611
_cell_angle_alpha 103.221301
_cell_angle_beta 98.146519
_cell_angle_gamma 55.979326
_cell_volume 542.843345
_symmetry_space_group_name_H-M "P -1"
_symmetry_group_IT_number 2
_symmetry_cell_setting 'triclinic'
loop_
_space_group_symop_operation_xyz
x,y,z
-x,-y,-z
loop_
_atom_site_type_symbol
_atom_site_label
_atom_site_fract_x
_atom_site_fract_y
_atom_site_fract_z
Si Si1 0.898099 0.712423 0.615923
Si Si2 0.076690 0.096998 0.777014
Si Si3 0.713509 0.364817 0.908848
Si Si4 0.958428 0.407938 0.141178
Si Si5 0.668610 0.024430 0.998292
Si Si6 0.621993 0.605641 0.674474
Si Si7 0.745857 0.132792 0.477856
O O1 0.043870 0.674294 0.731459
O O2 0.752663 0.694295 0.677028
O O3 0.000000 0.500000 0.500000
O O4 0.787031 0.946659 0.559929
O O5 0.896585 0.155222 0.833799
O O6 0.059304 0.346371 0.807608
O O7 0.248837 0.942732 0.861431
O O8 0.099393 0.994766 0.627536
O O9 0.383394 0.756997 0.063733
O O10 0.619001 0.542582 0.809437
O O11 0.798448 0.439582 0.039211
O O12 0.149785 0.210817 0.069871
O O13 0.500000 0.000000 0.000000
O O14 0.709533 0.364609 0.571962
O O15 0.433718 0.785095 0.612129
#
# Coordination Sequence:
#
# PCOD9061085 Si02
#       7
#     2   2   2   2   2   2   2
#     4  12  24  45  80 110 151 200 251 312 377 449
#     4  11  23  44  72 106 150 195 251 311 371 456
#     4  11  23  48  75 107 147 197 250 314 378 452
#     4  11  23  45  75 109 153 187 256 311 373 453
#     4  11  26  44  72 109 149 198 249 315 383 446
#     4  11  26  47  75 108 156 202 252 316 371 458
#     4  11  26  48  70 113 153 202 256 304 381 447
#
# _framework density 25.790127999999999
#
# number of rings (size 3 to 8) (size 9 to 14) (size 15 to 20)
#    0.000    0.857    2.857    4.714    2.000    4.571 
#    5.143    6.429    0.000    0.000    0.000    0.000 
#    0.000    0.000    0.000    0.000    0.000    0.000 
#
# Total GULP energy -78527.377139 kJ/mol
# GULP energy per Si atom -5609.098367 kJ/mol
# Density = 2.573143 g / cm^3
# Si number density = 25.790128 Si / 1000 Ang^3
#
#
#
# Elastic Constant Matrix: (Units=GPa)
#
#
# Indices 1 2 3 4 5 6 
#
# 1 150.7969 65.2831 44.2461 -33.1622 -6.6919 10.4877
# 2 65.2831 166.2869 61.3620 -33.6854 -8.8742 5.6907
# 3 44.2461 61.3620 199.9276 -32.6660 0.1206 7.6268
# 4 -33.1622 -33.6854 -32.6660 64.3321 2.1688 -4.9613
# 5 -6.6919 -8.8742 0.1206 2.1688 31.5621 -10.9578
# 6 10.4877 5.6907 7.6268 -4.9613 -10.9578 54.5572
#
#
#
# Elastic Compliance Matrix: (Units=1/GPa)
#
#
# Indices 1 2 3 4 5 6 
#
# 1 0.008599 -0.002526 -0.000654 0.002686 0.000607 -0.000932
# 2 -0.002526 0.008101 -0.001601 0.002099 0.001745 0.000406
# 3 -0.000654 -0.001601 0.005960 0.001840 -0.000932 -0.000561
# 4 0.002686 0.002099 0.001840 0.019017 0.000109 0.000759
# 5 0.000607 0.001745 -0.000932 0.000109 0.034661 0.006803
# 6 -0.000932 0.000406 -0.000561 0.000759 0.006803 0.019980
#
#
# Mechanical properties :
#
#
# Convention : Reuss Voigt Hill
#
# Bulk Modulus (GPa) = 76.34443 95.42155 85.88299
# Shear Modulus (GPa) = 45.35312 53.16495 49.25903
#
# Velocity S-wave (km/s) = 4.19805 4.54524 4.37509
# Velocity P-wave (km/s) = 7.29141 8.03898 7.67430
#
# Compressibility (1/GPa) = 0.01309853
#
# Stress axis : x y z
#
# Youngs Moduli (GPa) = 116.28728 123.44619 167.77721
#
# Poissons Ratio (x) = 0.31189 0.10968
# Poissons Ratio (y) = 0.29380 0.26856
# Poissons Ratio (z) = 0.07602 0.19760
#
# Static dielectric constant tensor:
#      x y z
#    x 2.057760 0.000030 0.002970 
#    y 0.000030 2.083830 0.002230 
#    z 0.002970 0.002230 2.032120 
# 
# From -- ./inp_files/418175.got.cif
#   From: 2010.05.17/outbox.cif.g08.bks.cpg/sg2_210_cif.got.tgz:418175.got - 2010.06.03 11:33:40.
