data_PCOD9061983
_publ_section_title
;
Structure prediction by ZEFSAII (Michael W. Deem and Ramdas Pophale) SiO2 
 PCOD9061983
Probable space group: P -1
;
_chemical_formula_sum "Si O2"
_cell_formula_units_Z 14
_cell_length_a 8.293981
_cell_length_b 8.716739
_cell_length_c 9.161231
_cell_angle_alpha 81.238329
_cell_angle_beta 113.507127
_cell_angle_gamma 105.936478
_cell_volume 583.327179
_symmetry_space_group_name_H-M "P -1"
_symmetry_group_IT_number 2
_symmetry_cell_setting 'triclinic'
loop_
_space_group_symop_operation_xyz
x,y,z
-x,-y,-z
loop_
_atom_site_type_symbol
_atom_site_label
_atom_site_fract_x
_atom_site_fract_y
_atom_site_fract_z
Si Si1 0.152163 0.400978 0.245036
Si Si2 0.147928 0.159916 0.054240
Si Si3 0.332730 0.468928 0.591837
Si Si4 0.017265 0.334441 0.714704
Si Si5 0.599068 0.416671 0.927074
Si Si6 0.547079 0.122608 0.130719
Si Si7 0.650331 0.152793 0.467315
O O1 0.305616 0.414601 0.422781
O O2 0.031520 0.508976 0.256280
O O3 0.229655 0.488026 0.110920
O O4 0.098188 0.225714 0.183703
O O5 0.123100 0.261428 0.886577
O O6 0.354890 0.142044 0.126006
O O7 0.000000 0.000000 0.000000
O O8 0.460739 0.383852 0.745724
O O9 0.383469 0.664476 0.590606
O O10 0.140690 0.398648 0.611537
O O11 0.834906 0.203210 0.621085
O O12 0.500000 0.500000 0.000000
O O13 0.646540 0.277745 0.056063
O O14 0.666873 0.096951 0.314540
O O15 0.500000 0.000000 0.000000
O O16 0.500000 0.000000 0.500000
#
# Coordination Sequence:
#
# PCOD9061983 Si02
#       7
#     2   2   2   2   2   2   2
#     4  11  24  42  74 106 140 185 239 292 356 432
#     4  12  26  47  69 105 145 185 236 299 363 422
#     4  11  23  46  76 107 142 189 245 297 351 427
#     4  11  25  48  75 107 143 188 241 297 356 430
#     4  12  22  45  74 103 138 190 246 291 346 432
#     4  12  28  46  69 101 146 189 238 293 359 423
#     4  11  24  44  70 107 146 183 233 295 360 423
#
# _framework density 24.000252
#
# number of rings (size 3 to 8) (size 9 to 14) (size 15 to 20)
#    0.000    0.571    4.286    3.429    6.000    3.429 
#    2.571    1.429    0.000    0.000    0.000    0.000 
#    0.000    0.000    0.000    0.000    0.000    0.000 
#
# Total GULP energy -78161.255808 kJ/mol
# GULP energy per Si atom -5582.946843 kJ/mol
# Density = 2.394563 g / cm^3
# Si number density = 24.000252 Si / 1000 Ang^3
#
#
#
# Elastic Constant Matrix: (Units=GPa)
#
#
# Indices 1 2 3 4 5 6 
#
# 1 62.8210 15.2475 19.0114 11.3122 -4.2414 16.5509
# 2 15.2475 98.7195 51.7284 28.1536 -14.7668 31.9410
# 3 19.0114 51.7284 173.2826 18.9122 -19.2367 15.2936
# 4 11.3122 28.1536 18.9122 53.7251 3.6246 -2.6290
# 5 -4.2414 -14.7668 -19.2367 3.6246 46.2903 2.5022
# 6 16.5509 31.9410 15.2936 -2.6290 2.5022 35.0396
#
#
#
# Elastic Compliance Matrix: (Units=1/GPa)
#
#
# Indices 1 2 3 4 5 6 
#
# 1 0.020559 0.004944 -0.001137 -0.007528 0.004367 -0.014598
# 2 0.004944 0.024934 -0.003021 -0.014949 0.009704 -0.025560
# 3 -0.001137 -0.003021 0.007103 -0.000810 0.001948 -0.000009
# 4 -0.007528 -0.014949 -0.000810 0.029941 -0.009245 0.020443
# 5 0.004367 0.009704 0.001948 -0.009245 0.027411 -0.014410
# 6 -0.014598 -0.025560 -0.000009 0.020443 -0.014410 0.061302
#
#
# Mechanical properties :
#
#
# Convention : Reuss Voigt Hill
#
# Bulk Modulus (GPa) = 18.46105 56.31087 37.38596
# Shear Modulus (GPa) = 26.63354 43.60004 35.11679
#
# Velocity S-wave (km/s) = 3.33486 4.26684 3.82931
# Velocity P-wave (km/s) = 4.74733 6.91290 5.92981
#
# Compressibility (1/GPa) = 0.05416811
#
# Stress axis : x y z
#
# Youngs Moduli (GPa) = 48.64090 40.10574 140.78798
#
# Poissons Ratio (x) = -0.19827 0.16001
# Poissons Ratio (y) = -0.24046 0.42532
# Poissons Ratio (z) = 0.05528 0.12116
#
# Static dielectric constant tensor:
#      x y z
#    x 1.986280 -0.076610 0.015730 
#    y -0.076610 2.465760 0.229120 
#    z 0.015730 0.229120 1.990150 
# 
# From -- ./inp_files/158902.got.cif
#   From: 2010.05.17/outbox.cif.g08.bks.cpg/sg2_80_cif.got.tgz:158902.got - 2010.06.03 11:33:40.
