data_PCOD9061687
_publ_section_title
;
Structure prediction by ZEFSAII (Michael W. Deem and Ramdas Pophale) SiO2 
 PCOD9061687
Probable space group: P -1
;
_chemical_formula_sum "Si O2"
_cell_formula_units_Z 14
_cell_length_a 5.015712
_cell_length_b 15.000581
_cell_length_c 11.360813
_cell_angle_alpha 135.965405
_cell_angle_beta 58.432596
_cell_angle_gamma 119.291681
_cell_volume 496.943099
_symmetry_space_group_name_H-M "P -1"
_symmetry_group_IT_number 2
_symmetry_cell_setting 'triclinic'
loop_
_space_group_symop_operation_xyz
x,y,z
-x,-y,-z
loop_
_atom_site_type_symbol
_atom_site_label
_atom_site_fract_x
_atom_site_fract_y
_atom_site_fract_z
Si Si1 0.599419 0.889115 0.955098
Si Si2 0.534920 0.700850 0.476778
Si Si3 0.581702 0.533423 0.878264
Si Si4 0.185282 0.084053 0.644806
Si Si5 0.263691 0.603651 0.669449
Si Si6 0.906972 0.133069 0.349108
Si Si7 0.645962 0.197184 0.829536
O O1 0.408818 0.743463 0.827772
O O2 0.042536 0.115431 0.171443
O O3 0.528007 0.897897 0.117495
O O4 0.500000 0.000000 0.000000
O O5 0.599421 0.584931 0.271326
O O6 0.425139 0.816918 0.538387
O O7 0.235705 0.644911 0.578464
O O8 0.469237 0.667927 0.005591
O O9 0.500000 0.500000 0.000000
O O10 0.986148 0.792282 0.212497
O O11 0.163089 0.244478 0.460905
O O12 0.070854 0.991902 0.695800
O O13 0.500000 0.500000 0.500000
O O14 0.947060 0.549274 0.764527
O O15 0.540801 0.137876 0.667430
O O16 0.000000 0.000000 0.500000
#
# Coordination Sequence:
#
# PCOD9061687 Si02
#       7
#     2   2   2   2   2   2   2
#     4  11  23  45  77 119 153 198 266 342 414 467
#     4  11  25  48  76 111 153 208 267 325 402 492
#     4  12  28  47  79 117 162 212 273 345 410 480
#     4  12  28  47  76 103 163 213 265 315 407 496
#     4  11  24  51  80 115 164 219 277 333 411 506
#     4  11  25  45  77 110 149 206 265 318 400 498
#     4  12  27  50  74 117 159 206 264 345 407 480
#
# _framework density 28.172242000000001
#
# number of rings (size 3 to 8) (size 9 to 14) (size 15 to 20)
#    0.000    0.571    1.429    6.000    6.000    2.857 
#    0.000    5.714    0.000    0.000    0.000    0.000 
#    0.000    0.000    0.000    0.000    0.000    0.000 
#
# Total GULP energy -78464.626497 kJ/mol
# GULP energy per Si atom -5604.616178 kJ/mol
# Density = 2.810812 g / cm^3
# Si number density = 28.172242 Si / 1000 Ang^3
#
#
#
# Elastic Constant Matrix: (Units=GPa)
#
#
# Indices 1 2 3 4 5 6 
#
# 1 177.7327 55.9089 53.4846 3.5806 -4.2236 -27.5908
# 2 55.9089 152.7166 46.7829 -7.5257 -3.8219 -21.8561
# 3 53.4846 46.7829 166.1553 -14.7517 23.2299 -14.8500
# 4 3.5806 -7.5257 -14.7517 58.7498 -7.6115 -2.2606
# 5 -4.2236 -3.8219 23.2299 -7.6115 48.0339 -0.8001
# 6 -27.5908 -21.8561 -14.8500 -2.2606 -0.8001 63.1653
#
#
#
# Elastic Compliance Matrix: (Units=1/GPa)
#
#
# Indices 1 2 3 4 5 6 
#
# 1 0.007104 -0.001747 -0.001870 -0.000881 0.001285 0.002044
# 2 -0.001747 0.008022 -0.001667 0.000971 0.001472 0.001674
# 3 -0.001870 -0.001667 0.007788 0.001376 -0.003838 0.000438
# 4 -0.000881 0.000971 0.001376 0.017864 0.002181 0.000941
# 5 0.001285 0.001472 -0.003838 0.002181 0.023259 0.000541
# 6 0.002044 0.001674 0.000438 0.000941 0.000541 0.017447
#
#
# Mechanical properties :
#
#
# Convention : Reuss Voigt Hill
#
# Bulk Modulus (GPa) = 80.98928 89.88416 85.43672
# Shear Modulus (GPa) = 51.99293 56.68500 54.33896
#
# Velocity S-wave (km/s) = 4.30063 4.49050 4.39659
# Velocity P-wave (km/s) = 7.31238 7.67206 7.49438
#
# Compressibility (1/GPa) = 0.01234731
#
# Stress axis : x y z
#
# Youngs Moduli (GPa) = 140.76128 124.65091 128.41026
#
# Poissons Ratio (x) = 0.21773 0.24015
# Poissons Ratio (y) = 0.24587 0.21400
# Poissons Ratio (z) = 0.26325 0.20774
#
# Static dielectric constant tensor:
#      x y z
#    x 2.186810 0.101460 0.013640 
#    y 0.101460 2.266550 0.046750 
#    z 0.013640 0.046750 2.337940 
# 
# From -- ./inp_files/198315.got.cif
#   From: 2010.05.17/outbox.cif.g08.bks.cpg/sg2_100_cif.got.tgz:198315.got - 2010.06.03 11:33:40.
