data_PCOD9061534
_publ_section_title
;
Structure prediction by ZEFSAII (Michael W. Deem and Ramdas Pophale) SiO2 
 PCOD9061534
Probable space group: P -1
;
_chemical_formula_sum "Si O2"
_cell_formula_units_Z 16
_cell_length_a 8.524008
_cell_length_b 9.851429
_cell_length_c 12.305704
_cell_angle_alpha 130.741030
_cell_angle_beta 96.466719
_cell_angle_gamma 74.007749
_cell_volume 749.430065
_symmetry_space_group_name_H-M "P -1"
_symmetry_group_IT_number 2
_symmetry_cell_setting 'triclinic'
loop_
_space_group_symop_operation_xyz
x,y,z
-x,-y,-z
loop_
_atom_site_type_symbol
_atom_site_label
_atom_site_fract_x
_atom_site_fract_y
_atom_site_fract_z
Si Si1 0.251455 0.556179 0.297058
Si Si2 0.913301 0.335610 0.888029
Si Si3 0.627678 0.836328 0.981543
Si Si4 0.401729 0.711299 0.080897
Si Si5 0.365403 0.052160 0.417072
Si Si6 0.017149 0.304331 0.464438
Si Si7 0.148900 0.974446 0.771827
Si Si8 0.452993 0.693918 0.534937
O O1 0.188375 0.611780 0.201700
O O2 0.309170 0.334635 0.184135
O O3 0.398868 0.641656 0.385077
O O4 0.117869 0.632900 0.418735
O O5 0.787541 0.302628 0.954606
O O6 0.049240 0.143620 0.779014
O O7 0.000000 0.500000 0.000000
O O8 0.517884 0.773364 0.033502
O O9 0.500000 0.000000 0.000000
O O10 0.778839 0.915015 0.073212
O O11 0.382934 0.860885 0.254229
O O12 0.500000 0.500000 0.000000
O O13 0.174642 0.173452 0.475336
O O14 0.413986 0.196855 0.413988
O O15 0.500000 0.000000 0.500000
O O16 0.000000 0.500000 0.500000
O O17 0.968373 0.163282 0.299460
O O18 0.307450 0.840547 0.659664
O O19 0.500000 0.500000 0.500000
#
# Coordination Sequence:
#
# PCOD9061534 Si02
#       8
#     2   2   2   2   2   2   2   2
#     4  11  25  44  72 102 143 188 243 291 362 429
#     4  12  24  45  71 105 144 186 237 296 359 426
#     4  12  26  46  74 107 142 191 243 297 363 436
#     4  12  25  48  72 104 147 184 240 305 358 422
#     4  12  26  44  72 109 138 188 249 294 357 434
#     4  11  27  47  72 103 150 193 242 300 367 437
#     4  11  23  45  72  97 142 189 228 300 359 421
#     4  11  24  44  70  98 143 187 236 294 359 427
#
# _framework density 21.349556
#
# number of rings (size 3 to 8) (size 9 to 14) (size 15 to 20)
#    0.000    0.500    5.000    3.000    3.500    1.000 
#    2.250    1.250    0.000    0.000    0.000    0.000 
#    0.000    0.000    0.000    0.000    0.000    0.000 
#
# Total GULP energy -89123.402164 kJ/mol
# GULP energy per Si atom -5570.212635 kJ/mol
# Density = 2.130096 g / cm^3
# Si number density = 21.349556 Si / 1000 Ang^3
#
#
#
# Elastic Constant Matrix: (Units=GPa)
#
#
# Indices 1 2 3 4 5 6 
#
# 1 79.8458 28.7910 24.3328 16.8361 -3.1657 -1.0051
# 2 28.7910 121.8209 28.6778 33.8153 -1.6896 0.5097
# 3 24.3328 28.6778 82.3766 42.4709 0.4100 4.9299
# 4 16.8361 33.8153 42.4709 44.4655 -4.2952 -1.9426
# 5 -3.1657 -1.6896 0.4100 -4.2952 40.1462 17.0131
# 6 -1.0051 0.5097 4.9299 -1.9426 17.0131 37.2923
#
#
#
# Elastic Compliance Matrix: (Units=1/GPa)
#
#
# Indices 1 2 3 4 5 6 
#
# 1 0.014555 -0.002567 -0.003260 -0.000344 0.000843 0.000456
# 2 -0.002567 0.010915 0.001612 -0.008939 -0.000416 -0.000707
# 3 -0.003260 0.001612 0.025519 -0.024675 -0.001325 -0.004164
# 4 -0.000344 -0.008939 -0.024675 0.053537 0.003675 0.004487
# 5 0.000843 -0.000416 -0.001325 0.003675 0.031236 -0.013855
# 6 0.000456 -0.000707 -0.004164 0.004487 -0.013855 0.033942
#
#
# Mechanical properties :
#
#
# Convention : Reuss Voigt Hill
#
# Bulk Modulus (GPa) = 23.49785 49.73851 36.61818
# Shear Modulus (GPa) = 25.99823 37.86357 31.93090
#
# Velocity S-wave (km/s) = 3.49340 4.21587 3.87152
# Velocity P-wave (km/s) = 5.22513 6.85900 6.09704
#
# Compressibility (1/GPa) = 0.04255709
#
# Stress axis : x y z
#
# Youngs Moduli (GPa) = 68.70530 91.62082 39.18646
#
# Poissons Ratio (x) = 0.23522 0.12774
# Poissons Ratio (y) = 0.17639 -0.06315
# Poissons Ratio (z) = 0.22397 -0.14765
#
# Static dielectric constant tensor:
#      x y z
#    x 1.901170 -0.046030 -0.007800 
#    y -0.046030 1.856250 0.056020 
#    z -0.007800 0.056020 1.798190 
# 
# From -- ./inp_files/383583.got.cif
#   From: 2010.05.17/outbox.cif.g08.bks.cpg/sg2_192_cif.got.tgz:383583.got - 2010.06.03 11:33:40.
