data_PCOD9061145
_publ_section_title
;
Structure prediction by ZEFSAII (Michael W. Deem and Ramdas Pophale) SiO2 
 PCOD9061145
Probable space group: P -1
;
_chemical_formula_sum "Si O2"
_cell_formula_units_Z 14
_cell_length_a 11.426796
_cell_length_b 11.840848
_cell_length_c 8.762480
_cell_angle_alpha 86.647261
_cell_angle_beta 117.312838
_cell_angle_gamma 143.365680
_cell_volume 510.165963
_symmetry_space_group_name_H-M "P -1"
_symmetry_group_IT_number 2
_symmetry_cell_setting 'triclinic'
loop_
_space_group_symop_operation_xyz
x,y,z
-x,-y,-z
loop_
_atom_site_type_symbol
_atom_site_label
_atom_site_fract_x
_atom_site_fract_y
_atom_site_fract_z
Si Si1 0.719770 0.756382 0.266593
Si Si2 0.285489 0.627748 0.065584
Si Si3 0.945756 0.212341 0.088701
Si Si4 0.325883 0.926689 0.534780
Si Si5 0.934850 0.064704 0.797012
Si Si6 0.379924 0.544212 0.589294
Si Si7 0.687645 0.288176 0.249869
O O1 0.616784 0.567062 0.303278
O O2 0.488273 0.676198 0.142156
O O3 0.000000 0.000000 0.500000
O O4 0.817258 0.808439 0.148370
O O5 0.046216 0.398015 0.042796
O O6 0.182657 0.600176 0.847066
O O7 0.472882 0.850498 0.257386
O O8 0.789305 0.259237 0.413187
O O9 0.137676 0.347808 0.338415
O O10 0.629910 0.979249 0.957024
O O11 0.979977 0.136872 0.991898
O O12 0.500000 0.000000 0.500000
O O13 0.124169 0.865228 0.341581
O O14 0.659301 0.783976 0.649674
O O15 0.332945 0.615709 0.666117
#
# Coordination Sequence:
#
# PCOD9061145 Si02
#       7
#     2   2   2   2   2   2   2
#     4  12  25  47  77 105 152 188 241 300 361 435
#     4  12  26  47  72 110 144 193 243 298 361 431
#     4  11  23  44  73 106 144 190 240 287 370 419
#     4  12  22  51  75 103 152 187 242 307 349 434
#     4  11  25  48  72 109 149 191 236 302 363 422
#     4  11  24  47  74 110 145 190 242 294 362 431
#     4  11  26  47  74 108 148 190 243 300 360 425
#
# _framework density 27.442048
#
# number of rings (size 3 to 8) (size 9 to 14) (size 15 to 20)
#    0.000    0.571    5.714    2.143    0.000    6.286 
#    2.571    7.857    0.000    0.000    0.000    0.000 
#    0.000    0.000    0.000    0.000    0.000    0.000 
#
# Total GULP energy -78838.134373 kJ/mol
# GULP energy per Si atom -5631.295312 kJ/mol
# Density = 2.737959 g / cm^3
# Si number density = 27.442048 Si / 1000 Ang^3
#
#
#
# Elastic Constant Matrix: (Units=GPa)
#
#
# Indices 1 2 3 4 5 6 
#
# 1 133.3850 57.2693 46.8696 -1.6604 -1.5799 -0.1723
# 2 57.2693 164.6301 37.5752 -21.2547 4.6721 -15.6991
# 3 46.8696 37.5752 204.7740 -6.1163 -11.0126 -6.8550
# 4 -1.6604 -21.2547 -6.1163 40.4615 0.5261 -4.3163
# 5 -1.5799 4.6721 -11.0126 0.5261 44.1357 0.4082
# 6 -0.1723 -15.6991 -6.8550 -4.3163 0.4082 44.9675
#
#
#
# Elastic Compliance Matrix: (Units=1/GPa)
#
#
# Indices 1 2 3 4 5 6 
#
# 1 0.009475 -0.003303 -0.001650 -0.001764 0.000312 -0.001540
# 2 -0.003303 0.008279 -0.000587 0.004485 -0.001224 0.003230
# 3 -0.001650 -0.000587 0.005479 0.000505 0.001358 0.000660
# 4 -0.001764 0.004485 0.000505 0.027542 -0.000780 0.004287
# 5 0.000312 -0.001224 0.001358 -0.000780 0.023151 -0.000504
# 6 -0.001540 0.003230 0.000660 0.004287 -0.000504 0.023877
#
#
# Mechanical properties :
#
#
# Convention : Reuss Voigt Hill
#
# Bulk Modulus (GPa) = 82.28372 87.35748 84.82060
# Shear Modulus (GPa) = 44.27388 49.98461 47.12925
#
# Velocity S-wave (km/s) = 4.02102 4.27249 4.14866
# Velocity P-wave (km/s) = 7.18386 7.49943 7.34334
#
# Compressibility (1/GPa) = 0.01215307
#
# Stress axis : x y z
#
# Youngs Moduli (GPa) = 105.54390 120.78822 182.51463
#
# Poissons Ratio (x) = 0.39895 0.30115
# Poissons Ratio (y) = 0.34860 0.10712
# Poissons Ratio (z) = 0.17415 0.07090
#
# Static dielectric constant tensor:
#      x y z
#    x 2.100740 -0.030010 0.011140 
#    y -0.030010 2.116660 0.060600 
#    z 0.011140 0.060600 2.132740 
# 
# From -- ./inp_files/315302.got.cif
#   From: 2010.05.17/outbox.cif.g08.bks.cpg/sg2_158_cif.got.tgz:315302.got - 2010.06.03 11:33:40.
