data_PCOD9061749
_publ_section_title
;
Structure prediction by ZEFSAII (Michael W. Deem and Ramdas Pophale) SiO2 
 PCOD9061749
Probable space group: P -1
;
_chemical_formula_sum "Si O2"
_cell_formula_units_Z 16
_cell_length_a 5.858642
_cell_length_b 19.544791
_cell_length_c 9.614306
_cell_angle_alpha 46.272985
_cell_angle_beta 124.297298
_cell_angle_gamma 106.239097
_cell_volume 646.003687
_symmetry_space_group_name_H-M "P -1"
_symmetry_group_IT_number 2
_symmetry_cell_setting 'triclinic'
loop_
_space_group_symop_operation_xyz
x,y,z
-x,-y,-z
loop_
_atom_site_type_symbol
_atom_site_label
_atom_site_fract_x
_atom_site_fract_y
_atom_site_fract_z
Si Si1 0.337231 0.429800 0.858439
Si Si2 0.587520 0.744224 0.660974
Si Si3 0.798455 0.945846 0.112166
Si Si4 0.990204 0.228220 0.730304
Si Si5 0.794568 0.577701 0.481104
Si Si6 0.718379 0.573698 0.766087
Si Si7 0.729624 0.855440 0.799858
Si Si8 0.141364 0.943887 0.493938
O O1 0.380295 0.407400 0.741247
O O2 0.486233 0.518089 0.825298
O O3 0.005656 0.474566 0.695989
O O4 0.438375 0.335564 0.116727
O O5 0.298373 0.785293 0.423938
O O6 0.755727 0.675261 0.699596
O O7 0.722279 0.822104 0.683346
O O8 0.770193 0.852016 0.145092
O O9 0.957779 0.908360 0.361833
O O10 0.500000 0.000000 0.000000
O O11 0.000000 0.000000 0.000000
O O12 0.030993 0.336122 0.571591
O O13 0.032265 0.208444 0.936862
O O14 0.636029 0.585674 0.560252
O O15 0.000000 0.500000 0.000000
O O16 0.408684 0.861651 0.732161
O O17 0.768825 0.964329 0.681037
O O18 0.000000 0.000000 0.500000
#
# Coordination Sequence:
#
# PCOD9061749 Si02
#       8
#     2   2   2   2   2   2   2   2
#     4  11  23  46  68  96 143 187 236 298 369 436
#     4  12  24  45  73 101 148 191 243 307 368 450
#     4  12  27  49  80 113 155 203 252 315 391 463
#     4  12  24  46  74 109 145 190 249 310 370 456
#     4  11  24  43  71 100 139 189 238 302 363 431
#     4  12  24  42  66 100 141 191 247 298 366 441
#     4  11  25  48  71 107 145 184 250 306 387 449
#     4  11  25  48  76 104 148 195 242 318 385 463
#
# _framework density 24.767662000000001
#
# number of rings (size 3 to 8) (size 9 to 14) (size 15 to 20)
#    0.000    0.500    6.250    2.250    1.750    2.000 
#    6.750    0.000    0.000    0.000    0.000    0.000 
#    0.000    0.000    0.000    0.000    0.000    0.000 
#
# Total GULP energy -89317.188545 kJ/mol
# GULP energy per Si atom -5582.324284 kJ/mol
# Density = 2.471129 g / cm^3
# Si number density = 24.767662 Si / 1000 Ang^3
#
#
#
# Elastic Constant Matrix: (Units=GPa)
#
#
# Indices 1 2 3 4 5 6 
#
# 1 44.3533 4.1097 30.6673 7.8756 1.2591 -21.6939
# 2 4.1097 125.9540 18.9793 17.1543 2.9300 -20.7035
# 3 30.6673 18.9793 134.4370 26.4238 1.4065 -7.1064
# 4 7.8756 17.1543 26.4238 56.4724 -12.2837 -5.4976
# 5 1.2591 2.9300 1.4065 -12.2837 34.1866 2.9057
# 6 -21.6939 -20.7035 -7.1064 -5.4976 2.9057 40.5918
#
#
#
# Elastic Compliance Matrix: (Units=1/GPa)
#
#
# Indices 1 2 3 4 5 6 
#
# 1 0.038254 0.003682 -0.007785 -0.001583 -0.003759 0.021014
# 2 0.003682 0.009486 -0.001287 -0.002695 -0.002407 0.006388
# 3 -0.007785 -0.001287 0.009960 -0.003757 -0.001065 -0.003506
# 4 -0.001583 -0.002695 -0.003757 0.022308 0.008499 -0.000465
# 5 -0.003759 -0.002407 -0.001065 0.008499 0.033088 -0.004641
# 6 0.021014 0.006388 -0.003506 -0.000465 -0.004641 0.038780
#
#
# Mechanical properties :
#
#
# Convention : Reuss Voigt Hill
#
# Bulk Modulus (GPa) = 21.31227 45.80634 33.55930
# Shear Modulus (GPa) = 28.04316 42.98268 35.51292
#
# Velocity S-wave (km/s) = 3.36854 4.17038 3.79072
# Velocity P-wave (km/s) = 4.87370 6.45941 5.72175
#
# Compressibility (1/GPa) = 0.04692132
#
# Stress axis : x y z
#
# Youngs Moduli (GPa) = 26.14098 105.41629 100.39969
#
# Poissons Ratio (x) = -0.38815 0.78161
# Poissons Ratio (y) = -0.09625 0.12918
# Poissons Ratio (z) = 0.20351 0.13563
#
# Static dielectric constant tensor:
#      x y z
#    x 2.137040 0.029780 0.020730 
#    y 0.029780 1.882260 0.039820 
#    z 0.020730 0.039820 1.997960 
# 
# From -- ./inp_files/141175.got.cif
#   From: 2010.05.17/outbox.cif.g08.bks.cpg/sg2_71_cif.got.tgz:141175.got - 2010.06.03 11:33:40.
