data_PCOD9061076
_publ_section_title
;
Structure prediction by ZEFSAII (Michael W. Deem and Ramdas Pophale) SiO2 
 PCOD9061076
Probable space group: P -1
;
_chemical_formula_sum "Si O2"
_cell_formula_units_Z 16
_cell_length_a 11.353647
_cell_length_b 8.270233
_cell_length_c 16.018404
_cell_angle_alpha 43.348771
_cell_angle_beta 47.357655
_cell_angle_gamma 41.314452
_cell_volume 652.417206
_symmetry_space_group_name_H-M "P -1"
_symmetry_group_IT_number 2
_symmetry_cell_setting 'triclinic'
loop_
_space_group_symop_operation_xyz
x,y,z
-x,-y,-z
loop_
_atom_site_type_symbol
_atom_site_label
_atom_site_fract_x
_atom_site_fract_y
_atom_site_fract_z
Si Si1 0.628995 0.580653 0.103505
Si Si2 0.149285 0.188438 0.173692
Si Si3 0.666959 0.946277 0.528214
Si Si4 0.262857 0.585332 0.716054
Si Si5 0.933563 0.979655 0.130990
Si Si6 0.089994 0.187326 0.389733
Si Si7 0.274617 0.321544 0.634833
Si Si8 0.755318 0.352052 0.751994
O O1 0.595488 0.610110 0.208449
O O2 0.450662 0.587232 0.146254
O O3 0.811716 0.281970 0.114042
O O4 0.695965 0.778783 0.960473
O O5 0.145334 0.243920 0.252399
O O6 0.933816 0.390099 0.176988
O O7 0.178368 0.890963 0.255228
O O8 0.727334 0.953611 0.591376
O O9 0.733829 0.624284 0.616333
O O10 0.749366 0.118752 0.379790
O O11 0.445614 0.148393 0.556114
O O12 0.306930 0.472876 0.641516
O O13 0.786376 0.881835 0.224008
O O14 0.101605 0.778326 0.189218
O O15 0.000000 0.000000 0.000000
O O16 0.911762 0.462658 0.405702
O O17 0.000000 0.000000 0.500000
#
# Coordination Sequence:
#
# PCOD9061076 Si02
#       8
#     2   2   2   2   2   2   2   2
#     4  12  27  50  69 105 147 185 246 287 364 429
#     4  11  25  47  72 102 143 190 237 296 357 426
#     4  12  25  46  71 109 147 184 245 288 361 423
#     4  11  25  46  76 105 139 197 231 296 355 425
#     4  12  26  46  73 102 146 189 235 299 356 426
#     4  11  23  44  72 105 139 189 242 291 355 420
#     4  11  24  44  70 108 140 186 238 295 354 417
#     4  12  28  46  71 109 141 191 234 295 365 423
#
# _framework density 24.524182
#
# number of rings (size 3 to 8) (size 9 to 14) (size 15 to 20)
#    0.000    0.500    6.250    2.625    3.500    2.500 
#    2.250    0.000    0.000    0.000    0.000    0.000 
#    0.000    0.000    0.000    0.000    0.000    0.000 
#
# Total GULP energy -89389.908215 kJ/mol
# GULP energy per Si atom -5586.869263 kJ/mol
# Density = 2.446836 g / cm^3
# Si number density = 24.524182 Si / 1000 Ang^3
#
#
#
# Elastic Constant Matrix: (Units=GPa)
#
#
# Indices 1 2 3 4 5 6 
#
# 1 83.1049 19.5704 36.6886 1.6117 3.2260 -14.8976
# 2 19.5704 95.2975 24.8153 0.1230 -1.3503 -7.0131
# 3 36.6886 24.8153 120.3199 -3.6799 -17.1706 0.5991
# 4 1.6117 0.1230 -3.6799 38.0525 5.4053 -8.8599
# 5 3.2260 -1.3503 -17.1706 5.4053 38.5314 -5.9255
# 6 -14.8976 -7.0131 0.5991 -8.8599 -5.9255 36.1577
#
#
#
# Elastic Compliance Matrix: (Units=1/GPa)
#
#
# Indices 1 2 3 4 5 6 
#
# 1 0.015710 -0.001560 -0.004866 0.000643 -0.002711 0.005964
# 2 -0.001560 0.011427 -0.001895 0.000243 -0.000094 0.001649
# 3 -0.004866 -0.001895 0.010901 0.000171 0.004912 -0.001706
# 4 0.000643 0.000243 0.000171 0.028252 -0.002893 0.006758
# 5 -0.002711 -0.000094 0.004912 -0.002893 0.029211 0.002862
# 6 0.005964 0.001649 -0.001706 0.006758 0.002862 0.032587
#
#
# Mechanical properties :
#
#
# Convention : Reuss Voigt Hill
#
# Bulk Modulus (GPa) = 46.73696 51.20789 48.97243
# Shear Modulus (GPa) = 32.92451 37.05816 34.99134
#
# Velocity S-wave (km/s) = 3.66803 3.89149 3.78141
# Velocity P-wave (km/s) = 6.08590 6.41229 6.25122
#
# Compressibility (1/GPa) = 0.02139634
#
# Stress axis : x y z
#
# Youngs Moduli (GPa) = 63.65240 87.51188 91.73864
#
# Poissons Ratio (x) = 0.13648 0.44638
# Poissons Ratio (y) = 0.09927 0.17388
# Poissons Ratio (z) = 0.30972 0.16587
#
# Static dielectric constant tensor:
#      x y z
#    x 1.958020 0.020050 0.004590 
#    y 0.020050 2.036620 -0.048250 
#    z 0.004590 -0.048250 1.936430 
# 
# From -- ./inp_files/346451.got.cif
#   From: 2010.05.17/outbox.cif.g08.bks.cpg/sg2_174_cif.got.tgz:346451.got - 2010.06.03 11:33:40.
