data_PCOD9061890
_publ_section_title
;
Structure prediction by ZEFSAII (Michael W. Deem and Ramdas Pophale) SiO2 
 PCOD9061890
Probable space group: P -1
;
_chemical_formula_sum "Si O2"
_cell_formula_units_Z 15
_cell_length_a 17.635858
_cell_length_b 9.358480
_cell_length_c 11.768018
_cell_angle_alpha 130.042372
_cell_angle_beta 146.381505
_cell_angle_gamma 36.071571
_cell_volume 630.519646
_symmetry_space_group_name_H-M "P -1"
_symmetry_group_IT_number 2
_symmetry_cell_setting 'triclinic'
loop_
_space_group_symop_operation_xyz
x,y,z
-x,-y,-z
loop_
_atom_site_type_symbol
_atom_site_label
_atom_site_fract_x
_atom_site_fract_y
_atom_site_fract_z
Si Si1 0.930080 0.761491 0.099288
Si Si2 0.343960 0.255616 0.170466
Si Si3 0.265314 0.195783 0.619219
Si Si4 0.000000 0.000000 0.500000
Si Si5 0.142074 0.916236 0.034823
Si Si6 0.120800 0.531936 0.813708
Si Si7 0.485838 0.228876 0.560126
Si Si8 0.654358 0.486147 0.239443
O O1 0.015617 0.785362 0.328662
O O2 0.727865 0.882483 0.947295
O O3 0.000000 0.500000 0.000000
O O4 0.934651 0.897501 0.068877
O O5 0.363231 0.356031 0.361046
O O6 0.546123 0.076593 0.282704
O O7 0.199716 0.441545 0.991852
O O8 0.194741 0.297042 0.710066
O O9 0.313081 0.348954 0.698989
O O10 0.092367 0.275515 0.374589
O O11 0.835593 0.210687 0.326527
O O12 0.317130 0.869494 0.271937
O O13 0.194959 0.663723 0.929323
O O14 0.000000 0.000000 0.000000
O O15 0.408845 0.412734 0.660736
O O16 0.500000 0.000000 0.500000
O O17 0.500000 0.500000 0.000000
#
# Coordination Sequence:
#
# PCOD9061890 Si02
#       8
#     2   2   2   1   2   2   2   2
#     4  12  26  48  77 111 152 204 264 325 389 474
#     4  12  24  45  78 108 146 206 261 308 392 477
#     4  11  23  46  73 102 159 203 247 318 398 458
#     4  12  26  42  76 118 148 196 270 320 386 470
#     4  12  26  46  72 108 155 201 257 328 398 466
#     4  11  26  44  71 112 153 199 252 320 394 463
#     4  12  24  46  79 108 151 207 259 317 400 465
#     4  12  25  46  75 110 152 202 264 327 382 472
#
# _framework density 23.789901
#
# number of rings (size 3 to 8) (size 9 to 14) (size 15 to 20)
#    0.000    0.267    2.667    6.800    0.000    1.600 
#    0.000   10.667    0.000    0.000    0.000    0.000 
#    0.000    0.000    0.000    0.000    0.000    0.000 
#
# Total GULP energy -83685.951986 kJ/mol
# GULP energy per Si atom -5579.063466 kJ/mol
# Density = 2.373575 g / cm^3
# Si number density = 23.789901 Si / 1000 Ang^3
#
#
#
# Elastic Constant Matrix: (Units=GPa)
#
#
# Indices 1 2 3 4 5 6 
#
# 1 104.9447 16.6312 60.1270 -0.8747 -9.2122 -1.7605
# 2 16.6312 70.6607 33.6124 5.9921 -17.6825 2.0684
# 3 60.1270 33.6124 214.9234 -2.2267 -15.5259 7.3150
# 4 -0.8747 5.9921 -2.2267 39.3733 0.2073 -6.6813
# 5 -9.2122 -17.6825 -15.5259 0.2073 52.3448 7.1730
# 6 -1.7605 2.0684 7.3150 -6.6813 7.1730 42.9085
#
#
#
# Elastic Compliance Matrix: (Units=1/GPa)
#
#
# Indices 1 2 3 4 5 6 
#
# 1 0.011523 -0.001193 -0.003025 0.000436 0.000587 0.001016
# 2 -0.001193 0.016964 -0.001909 -0.003065 0.005226 -0.001892
# 3 -0.003025 -0.001909 0.005891 0.000366 0.000719 -0.001100
# 4 0.000436 -0.003065 0.000366 0.026670 -0.001575 0.004519
# 5 0.000587 0.005226 0.000719 -0.001575 0.021773 -0.004235
# 6 0.001016 -0.001892 -0.001100 0.004519 -0.004235 0.025037
#
#
# Mechanical properties :
#
#
# Convention : Reuss Voigt Hill
#
# Bulk Modulus (GPa) = 45.19993 67.91887 56.55940
# Shear Modulus (GPa) = 39.21977 45.60252 42.41114
#
# Velocity S-wave (km/s) = 4.06469 4.38298 4.22683
# Velocity P-wave (km/s) = 6.40857 7.36379 6.90272
#
# Compressibility (1/GPa) = 0.02212393
#
# Stress axis : x y z
#
# Youngs Moduli (GPa) = 86.78220 58.94801 169.75699
#
# Poissons Ratio (x) = 0.07033 0.51348
# Poissons Ratio (y) = 0.10354 0.32408
# Poissons Ratio (z) = 0.26250 0.11254
#
# Static dielectric constant tensor:
#      x y z
#    x 1.954100 -0.099630 -0.010230 
#    y -0.099630 1.984430 0.021150 
#    z -0.010230 0.021150 1.918740 
# 
# From -- ./inp_files/462497.got.cif
#   From: 2010.05.17/outbox.cif.g08.bks.cpg/sg2_232_cif.got.tgz:462497.got - 2010.06.03 11:33:40.
