data_PCOD9061576
_publ_section_title
;
Structure prediction by ZEFSAII (Michael W. Deem and Ramdas Pophale) SiO2 
 PCOD9061576
Probable space group: P -1
;
_chemical_formula_sum "Si O2"
_cell_formula_units_Z 11
_cell_length_a 8.756592
_cell_length_b 12.910262
_cell_length_c 8.913355
_cell_angle_alpha 142.510184
_cell_angle_beta 52.398443
_cell_angle_gamma 137.161205
_cell_volume 416.012109
_symmetry_space_group_name_H-M "P -1"
_symmetry_group_IT_number 2
_symmetry_cell_setting 'triclinic'
loop_
_space_group_symop_operation_xyz
x,y,z
-x,-y,-z
loop_
_atom_site_type_symbol
_atom_site_label
_atom_site_fract_x
_atom_site_fract_y
_atom_site_fract_z
Si Si1 0.872779 0.463774 0.187890
Si Si2 0.581033 0.056403 0.299946
Si Si3 0.398097 0.527094 0.249097
Si Si4 0.500000 0.500000 0.500000
Si Si5 0.970099 0.190035 0.011666
Si Si6 0.855727 0.088497 0.460869
O O1 0.609144 0.361402 0.247774
O O2 0.968467 0.359567 0.111763
O O3 0.942167 0.691730 0.448161
O O4 0.000000 0.500000 0.000000
O O5 0.625836 0.280969 0.539125
O O6 0.692588 0.014365 0.328535
O O7 0.726429 0.058849 0.077574
O O8 0.310945 0.921029 0.319210
O O9 0.524113 0.549535 0.355072
O O10 0.158731 0.322140 0.173811
O O11 0.500000 0.500000 0.000000
O O12 0.050032 0.054758 0.728637
#
# Coordination Sequence:
#
# PCOD9061576 Si02
#       6
#     2   2   2   1   2   2
#     4  12  28  49  75 109 157 200 252 318 382 454
#     4  11  23  45  73 110 145 193 255 315 373 450
#     4  12  23  47  82 110 152 206 252 311 385 451
#     4  12  28  46  78 116 150 202 258 308 384 458
#     4  12  24  48  79 104 145 205 255 306 380 457
#     4  11  26  44  74 112 142 198 261 307 378 456
#
# _framework density 26.441537
#
# number of rings (size 3 to 8) (size 9 to 14) (size 15 to 20)
#    0.000    0.364    5.455    3.273    0.000    2.182 
#    0.000    1.818    0.000    0.000    0.000    0.000 
#    0.000    0.000    0.000    0.000    0.000    0.000 
#
# Total GULP energy -61363.458485 kJ/mol
# GULP energy per Si atom -5578.496226 kJ/mol
# Density = 2.638135 g / cm^3
# Si number density = 26.441537 Si / 1000 Ang^3
#
#
#
# Elastic Constant Matrix: (Units=GPa)
#
#
# Indices 1 2 3 4 5 6 
#
# 1 96.2832 34.8017 60.6318 0.2608 -21.8151 -28.1238
# 2 34.8017 122.4156 47.9012 -1.5361 14.2636 10.5621
# 3 60.6318 47.9012 123.3167 -24.9900 -30.4601 -4.3941
# 4 0.2608 -1.5361 -24.9900 68.5727 -9.2281 11.1517
# 5 -21.8151 14.2636 -30.4601 -9.2281 37.9480 5.5156
# 6 -28.1238 10.5621 -4.3941 11.1517 5.5156 27.0498
#
#
#
# Elastic Compliance Matrix: (Units=1/GPa)
#
#
# Indices 1 2 3 4 5 6 
#
# 1 0.035778 -0.008795 -0.014278 -0.012020 0.003298 0.042596
# 2 -0.008795 0.015927 -0.006325 -0.001844 -0.014733 -0.012626
# 3 -0.014278 -0.006325 0.025000 0.014815 0.020544 -0.018611
# 4 -0.012020 -0.001844 0.014815 0.025809 0.015314 -0.023133
# 5 0.003298 -0.014733 0.020544 0.015314 0.054720 -0.004952
# 6 0.042596 -0.012626 -0.018611 -0.023133 -0.004952 0.093710
#
#
# Mechanical properties :
#
#
# Convention : Reuss Voigt Hill
#
# Bulk Modulus (GPa) = 55.83907 69.85388 62.84647
# Shear Modulus (GPa) = 15.83726 39.95949 27.89837
#
# Velocity S-wave (km/s) = 2.45001 3.89168 3.25175
# Velocity P-wave (km/s) = 5.40066 6.83148 6.15777
#
# Compressibility (1/GPa) = 0.01790861
#
# Stress axis : x y z
#
# Youngs Moduli (GPa) = 27.94986 62.78585 39.99966
#
# Poissons Ratio (x) = 0.55218 0.57113
# Poissons Ratio (y) = 0.24581 0.25301
# Poissons Ratio (z) = 0.39908 0.39715
#
# Static dielectric constant tensor:
#      x y z
#    x 2.081060 0.041510 0.018610 
#    y 0.041510 2.088530 -0.038930 
#    z 0.018610 -0.038930 2.075990 
# 
# From -- ./inp_files/152681.got.cif
#   From: 2010.05.17/outbox.cif.g08.bks.cpg/sg2_77_cif.got.tgz:152681.got - 2010.06.03 11:33:40.
