data_PCOD9061990
_publ_section_title
;
Structure prediction by ZEFSAII (Michael W. Deem and Ramdas Pophale) SiO2 
 PCOD9061990
Probable space group: P -1
;
_chemical_formula_sum "Si O2"
_cell_formula_units_Z 16
_cell_length_a 7.622966
_cell_length_b 15.671075
_cell_length_c 9.802538
_cell_angle_alpha 36.180698
_cell_angle_beta 101.583444
_cell_angle_gamma 92.636078
_cell_volume 663.425831
_symmetry_space_group_name_H-M "P -1"
_symmetry_group_IT_number 2
_symmetry_cell_setting 'triclinic'
loop_
_space_group_symop_operation_xyz
x,y,z
-x,-y,-z
loop_
_atom_site_type_symbol
_atom_site_label
_atom_site_fract_x
_atom_site_fract_y
_atom_site_fract_z
Si Si1 0.038892 0.826298 0.758332
Si Si2 0.374748 0.113270 0.433474
Si Si3 0.125360 0.854213 0.269028
Si Si4 0.446282 0.023447 0.117185
Si Si5 0.916338 0.371247 0.230327
Si Si6 0.132657 0.666300 0.245590
Si Si7 0.709202 0.642488 0.252073
Si Si8 0.407985 0.415117 0.981720
O O1 0.826152 0.815042 0.743842
O O2 0.135356 0.720389 0.789603
O O3 0.000000 0.000000 0.500000
O O4 0.139858 0.772926 0.981931
O O5 0.455960 0.257334 0.262977
O O6 0.500000 0.000000 0.500000
O O7 0.383678 0.036123 0.679931
O O8 0.022720 0.769443 0.474531
O O9 0.178018 0.742931 0.293472
O O10 0.296879 0.922426 0.260526
O O11 0.000000 0.000000 0.000000
O O12 0.370825 0.196689 0.907064
O O13 0.500000 0.000000 0.000000
O O14 0.789834 0.479413 0.174426
O O15 0.000000 0.500000 0.000000
O O16 0.260252 0.504429 0.460649
O O17 0.920012 0.649533 0.238534
O O18 0.582720 0.616522 0.137435
O O19 0.500000 0.500000 0.000000
#
# Coordination Sequence:
#
# PCOD9061990 Si02
#       8
#     2   2   2   2   2   2   2   2
#     4  12  28  44  75 112 143 197 257 323 374 448
#     4  12  26  48  73 101 157 202 248 307 390 455
#     4  12  26  46  78 111 147 201 258 309 382 463
#     4  12  29  48  75 113 157 200 251 315 389 460
#     4  12  26  48  73 111 149 192 261 317 372 445
#     4  11  23  46  77 103 147 193 256 306 379 449
#     4  11  23  47  76 105 145 199 246 312 381 445
#     4  12  25  46  74 108 146 203 250 307 386 462
#
# _framework density 24.117241
#
# number of rings (size 3 to 8) (size 9 to 14) (size 15 to 20)
#    0.000    0.250    6.250    1.500    8.750    1.000 
#    0.000    0.625    0.000    0.000    0.000    0.000 
#    0.000    0.000    0.000    0.000    0.000    0.000 
#
# Total GULP energy -89179.013273 kJ/mol
# GULP energy per Si atom -5573.688330 kJ/mol
# Density = 2.406235 g / cm^3
# Si number density = 24.117241 Si / 1000 Ang^3
#
#
#
# Elastic Constant Matrix: (Units=GPa)
#
#
# Indices 1 2 3 4 5 6 
#
# 1 43.5550 23.7457 24.8144 -9.1526 2.0002 2.6130
# 2 23.7457 183.9518 82.2286 -19.1031 -5.7969 2.1571
# 3 24.8144 82.2286 242.7510 -12.7322 -4.5109 -0.3796
# 4 -9.1526 -19.1031 -12.7322 50.8482 0.3771 -7.3633
# 5 2.0002 -5.7969 -4.5109 0.3771 30.4300 -6.8236
# 6 2.6130 2.1571 -0.3796 -7.3633 -6.8236 27.2252
#
#
#
# Elastic Compliance Matrix: (Units=1/GPa)
#
#
# Indices 1 2 3 4 5 6 
#
# 1 0.026164 -0.002327 -0.001783 0.003083 -0.002973 -0.002263
# 2 -0.002327 0.006824 -0.001961 0.001707 0.001237 0.000427
# 3 -0.001783 -0.001961 0.004993 0.000279 0.000621 0.000627
# 4 0.003083 0.001707 0.000279 0.021757 0.001184 0.005754
# 5 -0.002973 0.001237 0.000621 0.001184 0.035481 0.009409
# 6 -0.002263 0.000427 0.000627 0.005754 0.009409 0.040837
#
#
# Mechanical properties :
#
#
# Convention : Reuss Voigt Hill
#
# Bulk Modulus (GPa) = 38.70065 81.31502 60.00784
# Shear Modulus (GPa) = 31.88536 44.33195 38.10865
#
# Velocity S-wave (km/s) = 3.64001 4.29206 3.97941
# Velocity P-wave (km/s) = 5.80930 7.63885 6.78602
#
# Compressibility (1/GPa) = 0.02583936
#
# Stress axis : x y z
#
# Youngs Moduli (GPa) = 38.21975 146.53695 200.28045
#
# Poissons Ratio (x) = 0.34104 0.35716
# Poissons Ratio (y) = 0.08895 0.39266
# Poissons Ratio (z) = 0.06816 0.28729
#
# Static dielectric constant tensor:
#      x y z
#    x 1.162450 -0.670000 0.085040 
#    y -0.670000 1.331140 0.104050 
#    z 0.085040 0.104050 1.922890 
# 
# From -- ./inp_files/205289.got.cif
#   From: 2010.05.17/outbox.cif.g08.bks.cpg/sg2_103_cif.got.tgz:205289.got - 2010.06.03 11:33:40.
