data_PCOD9061058
_publ_section_title
;
Structure prediction by ZEFSAII (Michael W. Deem and Ramdas Pophale) SiO2 
 PCOD9061058
Probable space group: P -1
;
_chemical_formula_sum "Si O2"
_cell_formula_units_Z 15
_cell_length_a 9.601540
_cell_length_b 12.929911
_cell_length_c 7.509128
_cell_angle_alpha 75.314601
_cell_angle_beta 82.369131
_cell_angle_gamma 47.976044
_cell_volume 669.017658
_symmetry_space_group_name_H-M "P -1"
_symmetry_group_IT_number 2
_symmetry_cell_setting 'triclinic'
loop_
_space_group_symop_operation_xyz
x,y,z
-x,-y,-z
loop_
_atom_site_type_symbol
_atom_site_label
_atom_site_fract_x
_atom_site_fract_y
_atom_site_fract_z
Si Si1 0.340185 0.667484 0.978305
Si Si2 0.299976 0.954383 0.322868
Si Si3 0.230282 0.113458 0.765129
Si Si4 0.102706 0.365371 0.411484
Si Si5 0.500000 0.000000 0.000000
Si Si6 0.502179 0.193599 0.270235
Si Si7 0.937157 0.269626 0.297505
Si Si8 0.861675 0.185188 0.697533
O O1 0.411818 0.747183 0.866506
O O2 0.167597 0.713767 0.867845
O O3 0.500000 0.500000 0.000000
O O4 0.277882 0.704761 0.176070
O O5 0.149245 0.119473 0.328018
O O6 0.449346 0.920309 0.171308
O O7 0.401290 0.869567 0.525958
O O8 0.178094 0.917846 0.285764
O O9 0.184499 0.229931 0.585583
O O10 0.071083 0.105516 0.767592
O O11 0.435741 0.947375 0.786131
O O12 0.267658 0.136316 0.944665
O O13 0.281565 0.315844 0.291075
O O14 0.000000 0.500000 0.500000
O O15 0.953390 0.385246 0.296040
O O16 0.837866 0.260165 0.484689
#
# Coordination Sequence:
#
# PCOD9061058 Si02
#       8
#     2   2   2   2   1   2   2   2
#     4  12  29  46  70 110 151 192 242 301 368 447
#     4  12  22  44  74 110 138 191 245 309 364 417
#     4  11  23  44  72 103 139 186 245 301 352 427
#     4  11  25  44  74 103 145 198 236 292 373 438
#     4  12  24  36  68 108 146 172 248 302 346 432
#     4  12  23  46  74 102 143 191 243 298 362 428
#     4  11  24  47  75 100 148 191 243 303 365 430
#     4  11  24  44  73 106 141 188 246 295 365 429
#
# _framework density 22.420932000000001
#
# number of rings (size 3 to 8) (size 9 to 14) (size 15 to 20)
#    0.000    0.533    5.333    4.000    3.733    3.200 
#    2.400    0.667    0.000    0.000    0.000    0.000 
#    0.000    0.000    0.000    0.000    0.000    0.000 
#
# Total GULP energy -83715.261067 kJ/mol
# GULP energy per Si atom -5581.017404 kJ/mol
# Density = 2.236990 g / cm^3
# Si number density = 22.420932 Si / 1000 Ang^3
#
#
#
# Elastic Constant Matrix: (Units=GPa)
#
#
# Indices 1 2 3 4 5 6 
#
# 1 102.9679 11.5516 -7.3791 2.7427 -14.9229 10.4576
# 2 11.5516 97.6512 2.7595 24.1480 -10.6425 5.7123
# 3 -7.3791 2.7595 85.1163 12.5064 -14.9354 -6.6564
# 4 2.7427 24.1480 12.5064 32.3263 -9.3903 3.9856
# 5 -14.9229 -10.6425 -14.9354 -9.3903 30.1535 6.1333
# 6 10.4576 5.7123 -6.6564 3.9856 6.1333 22.9638
#
#
#
# Elastic Compliance Matrix: (Units=1/GPa)
#
#
# Indices 1 2 3 4 5 6 
#
# 1 0.011861 -0.000625 0.001656 0.002269 0.008698 -0.007483
# 2 -0.000625 0.012890 0.001148 -0.009158 0.002284 -0.001609
# 3 0.001656 0.001148 0.013808 -0.004830 0.006119 0.002166
# 4 0.002269 -0.009158 -0.004830 0.044118 0.011448 -0.010870
# 5 0.008698 0.002284 0.006119 0.011448 0.048468 -0.017687
# 6 -0.007483 -0.001609 0.002166 -0.010870 -0.017687 0.054593
#
#
# Mechanical properties :
#
#
# Convention : Reuss Voigt Hill
#
# Bulk Modulus (GPa) = 23.30080 33.28883 28.29482
# Shear Modulus (GPa) = 25.55129 35.67561 30.61345
#
# Velocity S-wave (km/s) = 3.37948 3.99328 3.69914
# Velocity P-wave (km/s) = 5.06388 6.01175 5.55806
#
# Compressibility (1/GPa) = 0.04291699
#
# Stress axis : x y z
#
# Youngs Moduli (GPa) = 84.31199 77.58053 72.42248
#
# Poissons Ratio (x) = 0.04852 -0.11994
# Poissons Ratio (y) = 0.05273 -0.08318
# Poissons Ratio (z) = -0.13964 -0.08910
#
# Static dielectric constant tensor:
#      x y z
#    x 1.736610 -0.090020 -0.174260 
#    y -0.090020 1.772680 -0.094380 
#    z -0.174260 -0.094380 1.569600 
# 
# From -- ./inp_files/177661.got.cif
#   From: 2010.05.17/outbox.cif.g08.bks.cpg/sg2_89_cif.got.tgz:177661.got - 2010.06.03 11:33:40.
