data_PCOD9061637
_publ_section_title
;
Structure prediction by ZEFSAII (Michael W. Deem and Ramdas Pophale) SiO2 
 PCOD9061637
Probable space group: P -1
;
_chemical_formula_sum "Si O2"
_cell_formula_units_Z 14
_cell_length_a 13.629925
_cell_length_b 11.918661
_cell_length_c 16.714896
_cell_angle_alpha 25.932886
_cell_angle_beta 145.380984
_cell_angle_gamma 128.656496
_cell_volume 597.384984
_symmetry_space_group_name_H-M "P -1"
_symmetry_group_IT_number 2
_symmetry_cell_setting 'triclinic'
loop_
_space_group_symop_operation_xyz
x,y,z
-x,-y,-z
loop_
_atom_site_type_symbol
_atom_site_label
_atom_site_fract_x
_atom_site_fract_y
_atom_site_fract_z
Si Si1 0.289493 0.724045 0.519435
Si Si2 0.980600 0.214642 0.152681
Si Si3 0.572674 0.190700 0.285292
Si Si4 0.119310 0.047007 0.884202
Si Si5 0.916980 0.861736 0.465527
Si Si6 0.814021 0.809284 0.985253
Si Si7 0.509279 0.930037 0.958594
O O1 0.417560 0.794843 0.622023
O O2 0.426790 0.408934 0.783255
O O3 0.102200 0.708729 0.444748
O O4 0.199419 0.977636 0.232010
O O5 0.902532 0.210999 0.012700
O O6 0.867506 0.092940 0.211378
O O7 0.202806 0.988218 0.468312
O O8 0.000000 0.500000 0.000000
O O9 0.500000 0.500000 0.000000
O O10 0.412796 0.100909 0.209843
O O11 0.121900 0.104937 0.943602
O O12 0.316277 0.035779 0.989152
O O13 0.058533 0.530198 0.740627
O O14 0.000000 0.000000 0.500000
O O15 0.710006 0.887755 0.338885
O O16 0.500000 0.000000 0.000000
#
# Coordination Sequence:
#
# PCOD9061637 Si02
#       7
#     2   2   2   2   2   2   2
#     4  11  26  46  73 108 150 197 253 302 368 460
#     4  11  27  49  74 108 150 195 249 309 378 441
#     4  11  23  45  75 105 142 204 247 295 369 452
#     4  11  26  49  77 105 150 197 251 309 374 446
#     4  12  28  46  74 112 156 194 243 314 381 437
#     4  12  26  48  76 111 149 198 256 304 372 451
#     4  12  25  46  74 108 148 193 251 312 380 432
#
# _framework density 23.435473999999999
#
# number of rings (size 3 to 8) (size 9 to 14) (size 15 to 20)
#    0.000    0.571    2.857    3.857   10.000    0.000 
#    0.000    3.571    0.000    0.000    0.000    0.000 
#    0.000    0.000    0.000    0.000    0.000    0.000 
#
# Total GULP energy -78042.155288 kJ/mol
# GULP energy per Si atom -5574.439663 kJ/mol
# Density = 2.338213 g / cm^3
# Si number density = 23.435474 Si / 1000 Ang^3
#
#
#
# Elastic Constant Matrix: (Units=GPa)
#
#
# Indices 1 2 3 4 5 6 
#
# 1 76.2228 31.9031 35.8174 1.5884 -0.3095 1.0778
# 2 31.9031 116.8311 50.9733 47.9527 -7.8786 -9.2639
# 3 35.8174 50.9733 109.5658 13.3012 6.2347 4.6654
# 4 1.5884 47.9527 13.3012 33.8226 3.6967 2.2444
# 5 -0.3095 -7.8786 6.2347 3.6967 38.6859 12.2947
# 6 1.0778 -9.2639 4.6654 2.2444 12.2947 46.9578
#
#
#
# Elastic Compliance Matrix: (Units=1/GPa)
#
#
# Indices 1 2 3 4 5 6 
#
# 1 0.018602 -0.010697 -0.002788 0.015802 -0.002325 -0.002407
# 2 -0.010697 0.037941 -0.008887 -0.051580 0.011433 0.008085
# 3 -0.002788 -0.008887 0.013531 0.008007 -0.004027 -0.002362
# 4 0.015802 -0.051580 0.008007 0.101504 -0.017696 -0.011552
# 5 -0.002325 0.011433 -0.004027 -0.017696 0.032035 -0.004833
# 6 -0.002407 0.008085 -0.002362 -0.011552 -0.004833 0.024998
#
#
# Mechanical properties :
#
#
# Convention : Reuss Voigt Hill
#
# Bulk Modulus (GPa) = 39.48102 60.00080 49.74091
# Shear Modulus (GPa) = 17.74319 36.15498 26.94909
#
# Velocity S-wave (km/s) = 2.75455 3.93204 3.39474
# Velocity P-wave (km/s) = 5.19615 6.80241 6.05280
#
# Compressibility (1/GPa) = 0.02532863
#
# Stress axis : x y z
#
# Youngs Moduli (GPa) = 53.75744 26.35699 73.90556
#
# Poissons Ratio (x) = 0.28194 0.20606
# Poissons Ratio (y) = 0.57504 0.65683
# Poissons Ratio (z) = 0.14989 0.23424
#
# Static dielectric constant tensor:
#      x y z
#    x 2.187750 0.139620 0.136310 
#    y 0.139620 2.055490 0.110250 
#    z 0.136310 0.110250 1.947550 
# 
# From -- ./inp_files/573565.got.cif
#   From: 2010.05.17/outbox.cif.g08.bks.cpg/sg2_287_cif.got.tgz:573565.got - 2010.06.03 11:33:40.
