data_PCOD9061702
_publ_section_title
;
Structure prediction by ZEFSAII (Michael W. Deem and Ramdas Pophale) SiO2 
 PCOD9061702
Probable space group: P -1
;
_chemical_formula_sum "Si O2"
_cell_formula_units_Z 12
_cell_length_a 8.351245
_cell_length_b 8.009292
_cell_length_c 12.133590
_cell_angle_alpha 132.566963
_cell_angle_beta 122.953463
_cell_angle_gamma 85.004769
_cell_volume 446.756399
_symmetry_space_group_name_H-M "P -1"
_symmetry_group_IT_number 2
_symmetry_cell_setting 'triclinic'
loop_
_space_group_symop_operation_xyz
x,y,z
-x,-y,-z
loop_
_atom_site_type_symbol
_atom_site_label
_atom_site_fract_x
_atom_site_fract_y
_atom_site_fract_z
Si Si1 0.946503 0.544962 0.877387
Si Si2 0.951710 0.237170 0.299421
Si Si3 0.143903 0.008066 0.453325
Si Si4 0.354386 0.596820 0.550299
Si Si5 0.384795 0.849529 0.043205
Si Si6 0.472012 0.471604 0.191366
O O1 0.854131 0.261395 0.667039
O O2 0.752606 0.611818 0.866407
O O3 0.179949 0.719349 0.989027
O O4 0.000000 0.500000 0.000000
O O5 0.123074 0.380041 0.330363
O O6 0.000000 0.500000 0.500000
O O7 0.727654 0.107030 0.091865
O O8 0.023299 0.066700 0.328530
O O9 0.388347 0.229185 0.650147
O O10 0.000000 0.000000 0.500000
O O11 0.500000 0.500000 0.500000
O O12 0.384158 0.553099 0.669450
O O13 0.498072 0.678350 0.969210
O O14 0.559871 0.102407 0.280893
#
# Coordination Sequence:
#
# PCOD9061702 Si02
#       6
#     2   2   2   2   2   2
#     4  12  29  47  72 110 151 201 251 313 380 454
#     4  11  23  45  81 110 145 200 252 312 375 444
#     4  11  23  49  76 109 154 198 251 309 384 455
#     4  11  26  44  76 115 147 195 254 320 376 445
#     4  12  26  52  78 111 154 198 259 317 377 457
#     4  11  25  49  74 105 150 200 256 309 380 454
#
# _framework density 26.860275999999999
#
# number of rings (size 3 to 8) (size 9 to 14) (size 15 to 20)
#    0.000    0.667    5.000    2.000    7.000    2.000 
#    6.000    0.000    0.000    0.000    0.000    0.000 
#    0.000    0.000    0.000    0.000    0.000    0.000 
#
# Total GULP energy -66991.643667 kJ/mol
# GULP energy per Si atom -5582.636972 kJ/mol
# Density = 2.679914 g / cm^3
# Si number density = 26.860276 Si / 1000 Ang^3
#
#
#
# Elastic Constant Matrix: (Units=GPa)
#
#
# Indices 1 2 3 4 5 6 
#
# 1 186.6094 20.1225 24.1982 10.9719 -3.4213 13.6093
# 2 20.1225 121.2646 17.7945 6.1738 -0.7798 10.9849
# 3 24.1982 17.7945 105.5541 13.5539 3.8096 2.8156
# 4 10.9719 6.1738 13.5539 38.9688 -1.1051 4.8606
# 5 -3.4213 -0.7798 3.8096 -1.1051 48.1928 5.6327
# 6 13.6093 10.9849 2.8156 4.8606 5.6327 53.2246
#
#
#
# Elastic Compliance Matrix: (Units=1/GPa)
#
#
# Indices 1 2 3 4 5 6 
#
# 1 0.005725 -0.000626 -0.001071 -0.000967 0.000605 -0.001254
# 2 -0.000626 0.008702 -0.001221 -0.000573 0.000362 -0.001557
# 3 -0.001071 -0.001221 0.010361 -0.003185 -0.001032 0.000378
# 4 -0.000967 -0.000573 -0.003185 0.027422 0.001046 -0.002081
# 5 0.000605 0.000362 -0.001032 0.001046 0.021198 -0.002514
# 6 -0.001254 -0.001557 0.000378 -0.002081 -0.002514 0.019866
#
#
# Mechanical properties :
#
#
# Convention : Reuss Voigt Hill
#
# Bulk Modulus (GPa) = 52.76797 59.73985 56.25391
# Shear Modulus (GPa) = 47.42557 51.49810 49.46183
#
# Velocity S-wave (km/s) = 4.20651 4.38340 4.29587
# Velocity P-wave (km/s) = 6.57883 6.92157 6.75238
#
# Compressibility (1/GPa) = 0.01895089
#
# Stress axis : x y z
#
# Youngs Moduli (GPa) = 174.68638 114.91447 96.51166
#
# Poissons Ratio (x) = 0.07195 0.10337
# Poissons Ratio (y) = 0.10937 0.11788
# Poissons Ratio (z) = 0.18711 0.14036
#
# Static dielectric constant tensor:
#      x y z
#    x 2.814910 0.050470 -0.346020 
#    y 0.050470 2.154240 -0.101780 
#    z -0.346020 -0.101780 2.255780 
# 
# From -- ./inp_files/376956.got.cif
#   From: 2010.05.17/outbox.cif.g08.bks.cpg/sg2_189_cif.got.tgz:376956.got - 2010.06.03 11:33:40.
