data_PCOD9061293
_publ_section_title
;
Structure prediction by ZEFSAII (Michael W. Deem and Ramdas Pophale) SiO2 
 PCOD9061293
Probable space group: P -1
;
_chemical_formula_sum "Si O2"
_cell_formula_units_Z 16
_cell_length_a 9.583498
_cell_length_b 12.739316
_cell_length_c 15.295559
_cell_angle_alpha 111.619374
_cell_angle_beta 109.270233
_cell_angle_gamma 129.545863
_cell_volume 824.869974
_symmetry_space_group_name_H-M "P -1"
_symmetry_group_IT_number 2
_symmetry_cell_setting 'triclinic'
loop_
_space_group_symop_operation_xyz
x,y,z
-x,-y,-z
loop_
_atom_site_type_symbol
_atom_site_label
_atom_site_fract_x
_atom_site_fract_y
_atom_site_fract_z
Si Si1 0.129910 0.715610 0.089135
Si Si2 0.381277 0.996641 0.052844
Si Si3 0.852492 0.782446 0.406545
Si Si4 0.867149 0.479228 0.388047
Si Si5 0.064158 0.996734 0.917423
Si Si6 0.375740 0.423292 0.047145
Si Si7 0.545846 0.476685 0.407415
Si Si8 0.364257 0.931276 0.546329
O O1 0.875817 0.644765 0.024405
O O2 0.268590 0.843326 0.062420
O O3 0.381198 0.892430 0.271737
O O4 0.000000 0.500000 0.000000
O O5 0.611558 0.239375 0.215259
O O6 0.500000 0.000000 0.000000
O O7 0.156490 0.929733 0.934771
O O8 0.644394 0.634741 0.404561
O O9 0.134319 0.884191 0.490006
O O10 0.630203 0.616671 0.229264
O O11 0.000000 0.000000 0.500000
O O12 0.764999 0.525052 0.431050
O O13 0.000000 0.500000 0.500000
O O14 0.135486 0.679429 0.440020
O O15 0.758322 0.789745 0.743672
O O16 0.266765 0.224250 0.985442
O O17 0.000000 0.000000 0.000000
O O18 0.500000 0.500000 0.000000
O O19 0.500000 0.500000 0.500000
O O20 0.500000 0.000000 0.500000
#
# Coordination Sequence:
#
# PCOD9061293 Si02
#       8
#     2   2   2   2   2   2   2   2
#     4  12  26  45  66 106 144 173 231 289 341 417
#     4  12  27  44  73 102 136 186 228 288 349 403
#     4  11  24  45  64  99 139 171 225 280 334 414
#     4  11  23  45  65  96 137 169 228 278 329 409
#     4  12  22  48  70  95 138 178 237 285 333 408
#     4  12  26  45  74  99 135 188 226 284 354 404
#     4  11  25  41  71  99 130 178 223 280 337 398
#     4  11  25  43  69  96 136 182 219 275 349 403
#
# _framework density 19.396996000000001
#
# number of rings (size 3 to 8) (size 9 to 14) (size 15 to 20)
#    0.000    0.500    5.000    2.250    7.000    1.000 
#    0.000    0.000    0.000    0.000    0.000    0.000 
#    0.000    0.000    0.000    0.000    0.000    0.000 
#
# Total GULP energy -89067.797698 kJ/mol
# GULP energy per Si atom -5566.737356 kJ/mol
# Density = 1.935285 g / cm^3
# Si number density = 19.396996 Si / 1000 Ang^3
#
#
#
# Elastic Constant Matrix: (Units=GPa)
#
#
# Indices 1 2 3 4 5 6 
#
# 1 113.8743 62.1141 29.2824 -12.7979 -0.1729 22.0647
# 2 62.1141 204.7336 53.2165 5.1837 -18.9190 19.9180
# 3 29.2824 53.2165 95.9207 2.4576 2.3578 15.0635
# 4 -12.7979 5.1837 2.4576 33.2388 -4.2101 -10.9604
# 5 -0.1729 -18.9190 2.3578 -4.2101 34.9549 -8.1001
# 6 22.0647 19.9180 15.0635 -10.9604 -8.1001 44.0321
#
#
#
# Elastic Compliance Matrix: (Units=1/GPa)
#
#
# Indices 1 2 3 4 5 6 
#
# 1 0.011994 -0.003217 -0.001380 0.003827 -0.001936 -0.003487
# 2 -0.003217 0.007037 -0.002916 -0.001761 0.003701 -0.000331
# 3 -0.001380 -0.002916 0.013241 -0.002815 -0.003722 -0.003905
# 4 0.003827 -0.001761 -0.002815 0.036052 0.005892 0.009900
# 5 -0.001936 0.003701 -0.003722 0.005892 0.033461 0.008191
# 6 -0.003487 -0.000331 -0.003905 0.009900 0.008191 0.029915
#
#
# Mechanical properties :
#
#
# Convention : Reuss Voigt Hill
#
# Bulk Modulus (GPa) = 57.98113 78.19495 68.08804
# Shear Modulus (GPa) = 32.79270 40.43951 36.61611
#
# Velocity S-wave (km/s) = 4.11616 4.57095 4.34950
# Velocity P-wave (km/s) = 7.24894 8.26187 7.77192
#
# Compressibility (1/GPa) = 0.01724699
#
# Stress axis : x y z
#
# Youngs Moduli (GPa) = 83.37724 142.10514 75.52276
#
# Poissons Ratio (x) = 0.45711 0.10420
# Poissons Ratio (y) = 0.26820 0.22022
# Poissons Ratio (z) = 0.11504 0.41437
#
# Static dielectric constant tensor:
#      x y z
#    x 1.576260 0.050420 0.025590 
#    y 0.050420 1.601920 0.018610 
#    z 0.025590 0.018610 1.619610 
# 
# From -- ./inp_files/418116.got.cif
#   From: 2010.05.17/outbox.cif.g08.bks.cpg/sg2_210_cif.got.tgz:418116.got - 2010.06.03 11:33:40.
