data_PCOD9061494
_publ_section_title
;
Structure prediction by ZEFSAII (Michael W. Deem and Ramdas Pophale) SiO2 
 PCOD9061494
Probable space group: P -1
;
_chemical_formula_sum "Si O2"
_cell_formula_units_Z 14
_cell_length_a 11.476394
_cell_length_b 12.064723
_cell_length_c 5.531891
_cell_angle_alpha 77.870373
_cell_angle_beta 50.511176
_cell_angle_gamma 70.400861
_cell_volume 556.862312
_symmetry_space_group_name_H-M "P -1"
_symmetry_group_IT_number 2
_symmetry_cell_setting 'triclinic'
loop_
_space_group_symop_operation_xyz
x,y,z
-x,-y,-z
loop_
_atom_site_type_symbol
_atom_site_label
_atom_site_fract_x
_atom_site_fract_y
_atom_site_fract_z
Si Si1 0.041133 0.082857 0.710031
Si Si2 0.615115 0.873744 0.330962
Si Si3 0.268390 0.471934 0.174342
Si Si4 0.551537 0.250727 0.790299
Si Si5 0.886118 0.693523 0.296885
Si Si6 0.756034 0.048091 0.840433
Si Si7 0.201110 0.616190 0.692950
O O1 0.042063 0.211954 0.714387
O O2 0.904139 0.094115 0.690190
O O3 0.213882 0.008238 0.438237
O O4 0.000000 0.000000 0.000000
O O5 0.531802 0.815986 0.260481
O O6 0.712616 0.764401 0.409032
O O7 0.500000 0.000000 0.500000
O O8 0.755031 0.930734 0.037146
O O9 0.139393 0.401782 0.437105
O O10 0.261103 0.547630 0.395318
O O11 0.431716 0.372282 0.969653
O O12 0.243751 0.543390 0.922003
O O13 0.607011 0.158879 0.979993
O O14 0.708776 0.280687 0.467391
O O15 0.011051 0.648365 0.938023
#
# Coordination Sequence:
#
# PCOD9061494 Si02
#       7
#     2   2   2   2   2   2   2
#     4  11  23  45  71 113 150 193 248 315 374 473
#     4  12  26  46  78 116 161 197 251 310 395 488
#     4  12  28  54  78 115 156 205 272 336 389 456
#     4  12  27  49  78 114 156 212 251 326 402 457
#     4  12  26  48  82 110 154 207 257 322 398 453
#     4  11  25  43  74 110 155 192 251 302 387 478
#     4  12  30  52  82 113 154 205 281 331 383 457
#
# _framework density 25.140863
#
# number of rings (size 3 to 8) (size 9 to 14) (size 15 to 20)
#    0.000    0.286    1.429    6.429    6.000    2.286 
#    0.000    0.000    0.000    0.000    0.000    0.000 
#    0.000    0.000    0.000    0.000    0.000    0.000 
#
# Total GULP energy -78227.907194 kJ/mol
# GULP energy per Si atom -5587.707657 kJ/mol
# Density = 2.508364 g / cm^3
# Si number density = 25.140863 Si / 1000 Ang^3
#
#
#
# Elastic Constant Matrix: (Units=GPa)
#
#
# Indices 1 2 3 4 5 6 
#
# 1 108.7869 62.2722 27.9883 2.1337 8.7539 2.1796
# 2 62.2722 120.2603 27.6358 -4.4053 4.8967 -4.2622
# 3 27.9883 27.6358 74.0008 9.1079 -9.1357 -4.7403
# 4 2.1337 -4.4053 9.1079 62.3408 2.0958 -8.4928
# 5 8.7539 4.8967 -9.1357 2.0958 36.4508 0.2177
# 6 2.1796 -4.2622 -4.7403 -8.4928 0.2177 61.5756
#
#
#
# Elastic Compliance Matrix: (Units=1/GPa)
#
#
# Indices 1 2 3 4 5 6 
#
# 1 0.014030 -0.006428 -0.003332 -0.000508 -0.003304 -0.001256
# 2 -0.006428 0.012328 -0.002401 0.001622 -0.000814 0.001123
# 3 -0.003332 -0.002401 0.016714 -0.002563 0.005454 0.000866
# 4 -0.000508 0.001622 -0.002563 0.016915 -0.001724 0.002272
# 5 -0.003304 -0.000814 0.005454 -0.001724 0.029802 0.000137
# 6 -0.001256 0.001123 0.000866 0.002272 0.000137 0.016742
#
#
# Mechanical properties :
#
#
# Convention : Reuss Voigt Hill
#
# Bulk Modulus (GPa) = 53.33066 59.87116 56.60091
# Shear Modulus (GPa) = 36.46901 44.41688 40.44294
#
# Velocity S-wave (km/s) = 3.81279 4.20780 4.01515
# Velocity P-wave (km/s) = 6.37510 6.89009 6.63759
#
# Compressibility (1/GPa) = 0.01875094
#
# Stress axis : x y z
#
# Youngs Moduli (GPa) = 71.27635 81.11746 59.82864
#
# Poissons Ratio (x) = 0.52141 0.19933
# Poissons Ratio (y) = 0.45815 0.14365
# Poissons Ratio (z) = 0.23748 0.19477
#
# Static dielectric constant tensor:
#      x y z
#    x 2.028230 -0.006060 0.011020 
#    y -0.006060 1.871350 -0.005340 
#    z 0.011020 -0.005340 2.145350 
# 
# From -- ./inp_files/69522.got.cif
#   From: 2010.05.17/outbox.cif.g08.bks.cpg/sg2_35_cif.got.tgz:69522.got - 2010.06.03 11:33:40.
