data_PCOD9061117
_publ_section_title
;
Structure prediction by ZEFSAII (Michael W. Deem and Ramdas Pophale) SiO2 
 PCOD9061117
Probable space group: P -1
;
_chemical_formula_sum "Si O2"
_cell_formula_units_Z 12
_cell_length_a 13.805185
_cell_length_b 9.028732
_cell_length_c 13.889131
_cell_angle_alpha 144.542109
_cell_angle_beta 29.567788
_cell_angle_gamma 134.699984
_cell_volume 495.481971
_symmetry_space_group_name_H-M "P -1"
_symmetry_group_IT_number 2
_symmetry_cell_setting 'triclinic'
loop_
_space_group_symop_operation_xyz
x,y,z
-x,-y,-z
loop_
_atom_site_type_symbol
_atom_site_label
_atom_site_fract_x
_atom_site_fract_y
_atom_site_fract_z
Si Si1 0.138025 0.822471 0.190030
Si Si2 0.957605 0.832374 0.852977
Si Si3 0.286749 0.398412 0.352109
Si Si4 0.823112 0.981112 0.413058
Si Si5 0.317908 0.584730 0.098837
Si Si6 0.439939 0.452721 0.634859
O O1 0.179168 0.691518 0.187809
O O2 0.919869 0.827823 0.338279
O O3 0.213119 0.112037 0.279424
O O4 0.273747 0.658346 0.915220
O O5 0.110124 0.592398 0.584444
O O6 0.747246 0.702570 0.975702
O O7 0.001946 0.979367 0.793771
O O8 0.000000 0.000000 0.000000
O O9 0.385891 0.505222 0.419359
O O10 0.461719 0.393796 0.119756
O O11 0.657552 0.822198 0.419376
O O12 0.731169 0.236192 0.673548
O O13 0.500000 0.500000 0.500000
#
# Coordination Sequence:
#
# PCOD9061117 Si02
#       6
#     2   2   2   2   2   2
#     4  11  23  44  73 101 136 177 229 284 337 399
#     4  12  28  46  68  99 143 184 225 278 343 407
#     4  11  25  46  70  99 140 181 227 280 339 402
#     4  12  25  44  70 104 138 179 229 276 342 407
#     4  11  24  46  73 100 137 179 229 282 340 400
#     4  11  24  40  70 106 135 175 229 281 340 399
#
# _framework density 24.218844000000001
#
# number of rings (size 3 to 8) (size 9 to 14) (size 15 to 20)
#    0.000    0.667    1.667    7.500    4.667    3.333 
#    0.000    0.000    0.000    0.000    0.000    0.000 
#    0.000    0.000    0.000    0.000    0.000    0.000 
#
# Total GULP energy -67285.154720 kJ/mol
# GULP energy per Si atom -5607.096227 kJ/mol
# Density = 2.416372 g / cm^3
# Si number density = 24.218844 Si / 1000 Ang^3
#
#
#
# Elastic Constant Matrix: (Units=GPa)
#
#
# Indices 1 2 3 4 5 6 
#
# 1 93.3947 23.4618 30.1420 5.3164 22.9996 3.6289
# 2 23.4618 112.1789 17.2274 -5.2281 23.4524 4.6428
# 3 30.1420 17.2274 81.4732 -7.3260 23.6019 -9.4411
# 4 5.3164 -5.2281 -7.3260 40.5080 0.3460 12.1628
# 5 22.9996 23.4524 23.6019 0.3460 36.2677 -2.5176
# 6 3.6289 4.6428 -9.4411 12.1628 -2.5176 41.5134
#
#
#
# Elastic Compliance Matrix: (Units=1/GPa)
#
#
# Indices 1 2 3 4 5 6 
#
# 1 0.013738 -0.001155 -0.003545 -0.002056 -0.005751 -0.001624
# 2 -0.001155 0.010674 -0.000051 0.002215 -0.006306 -0.002136
# 3 -0.003545 -0.000051 0.016577 0.002690 -0.008338 0.002792
# 4 -0.002056 0.002215 0.002690 0.028110 -0.002692 -0.007855
# 5 -0.005751 -0.006306 -0.008338 -0.002692 0.040929 0.002582
# 6 -0.001624 -0.002136 0.002792 -0.007855 0.002582 0.027563
#
#
# Mechanical properties :
#
#
# Convention : Reuss Voigt Hill
#
# Bulk Modulus (GPa) = 31.76045 47.63435 39.69740
# Shear Modulus (GPa) = 31.72797 38.07218 34.90008
#
# Velocity S-wave (km/s) = 3.62339 3.96916 3.80021
# Velocity P-wave (km/s) = 5.53604 6.38095 5.97345
#
# Compressibility (1/GPa) = 0.03148570
#
# Stress axis : x y z
#
# Youngs Moduli (GPa) = 72.79009 93.68846 60.32293
#
# Poissons Ratio (x) = 0.10822 0.21387
# Poissons Ratio (y) = 0.08408 0.00309
# Poissons Ratio (z) = 0.25807 0.00480
#
# Static dielectric constant tensor:
#      x y z
#    x 1.936120 -0.022010 -0.025320 
#    y -0.022010 1.937810 -0.014280 
#    z -0.025320 -0.014280 1.882100 
# 
# From -- ./inp_files/148732.got.cif
#   From: 2010.05.17/outbox.cif.g08.bks.cpg/sg2_75_cif.got.tgz:148732.got - 2010.06.03 11:33:40.
