data_PCOD9061706
_publ_section_title
;
Structure prediction by ZEFSAII (Michael W. Deem and Ramdas Pophale) SiO2 
 PCOD9061706
Probable space group: P -1
;
_chemical_formula_sum "Si O2"
_cell_formula_units_Z 16
_cell_length_a 28.263781
_cell_length_b 6.926058
_cell_length_c 5.528824
_cell_angle_alpha 88.805830
_cell_angle_beta 127.165015
_cell_angle_gamma 118.091115
_cell_volume 705.365649
_symmetry_space_group_name_H-M "P -1"
_symmetry_group_IT_number 2
_symmetry_cell_setting 'triclinic'
loop_
_space_group_symop_operation_xyz
x,y,z
-x,-y,-z
loop_
_atom_site_type_symbol
_atom_site_label
_atom_site_fract_x
_atom_site_fract_y
_atom_site_fract_z
Si Si1 0.218199 0.467018 0.036901
Si Si2 0.072793 0.762362 0.233596
Si Si3 0.696758 0.660134 0.955037
Si Si4 0.564386 0.609138 0.388279
Si Si5 0.537280 0.866272 0.650079
Si Si6 0.674593 0.277474 0.257586
Si Si7 0.778435 0.186392 0.320251
Si Si8 0.072412 0.007729 0.732180
O O1 0.228978 0.308024 0.891101
O O2 0.295811 0.589368 0.404998
O O3 0.218598 0.678995 0.917185
O O4 0.143774 0.277857 0.942916
O O5 0.141924 0.751342 0.408859
O O6 0.074185 0.874930 0.497725
O O7 0.072946 0.899701 0.993954
O O8 0.000000 0.500000 0.000000
O O9 0.640935 0.646021 0.584746
O O10 0.663263 0.433333 0.032750
O O11 0.723411 0.903867 0.162313
O O12 0.574193 0.837940 0.531065
O O13 0.527132 0.396236 0.471572
O O14 0.500000 0.500000 0.000000
O O15 0.500000 0.000000 0.500000
O O16 0.601891 0.015837 0.038014
O O17 0.743270 0.274404 0.391963
O O18 0.000000 0.000000 0.500000
#
# Coordination Sequence:
#
# PCOD9061706 Si02
#       8
#     2   2   2   2   2   2   2   2
#     4  11  27  42  72 103 136 187 231 292 358 424
#     4  12  27  48  78 110 151 196 239 300 358 430
#     4  11  23  46  62  99 137 178 233 291 354 429
#     4  11  26  41  66  92 133 177 232 292 357 428
#     4  11  24  44  62  97 130 178 232 290 357 424
#     4  11  25  42  69  95 139 182 228 299 352 431
#     4  11  25  45  69 102 143 179 243 282 359 424
#     4  12  27  49  76 110 154 191 244 298 358 430
#
# _framework density 22.683271000000001
#
# number of rings (size 3 to 8) (size 9 to 14) (size 15 to 20)
#    0.000    0.750    3.750    2.250    8.750    1.500 
#    0.000    0.000    0.000    0.000    0.000    0.000 
#    0.000    0.000    0.000    0.000    0.000    0.000 
#
# Total GULP energy -89229.073369 kJ/mol
# GULP energy per Si atom -5576.817086 kJ/mol
# Density = 2.263164 g / cm^3
# Si number density = 22.683271 Si / 1000 Ang^3
#
#
#
# Elastic Constant Matrix: (Units=GPa)
#
#
# Indices 1 2 3 4 5 6 
#
# 1 76.8009 40.6345 28.7899 -17.3498 25.6004 -17.8581
# 2 40.6345 78.8308 8.9764 -2.5724 2.9724 -24.5955
# 3 28.7899 8.9764 86.6150 -10.9346 22.1431 -20.3726
# 4 -17.3498 -2.5724 -10.9346 51.1716 -3.2197 11.8482
# 5 25.6004 2.9724 22.1431 -3.2197 44.0621 -8.0763
# 6 -17.8581 -24.5955 -20.3726 11.8482 -8.0763 38.6228
#
#
#
# Elastic Compliance Matrix: (Units=1/GPa)
#
#
# Indices 1 2 3 4 5 6 
#
# 1 0.027068 -0.013840 -0.004156 0.007598 -0.012790 -0.003495
# 2 -0.013840 0.023091 0.002744 -0.005491 0.007070 0.012916
# 3 -0.004156 0.002744 0.015385 0.000126 -0.004206 0.007024
# 4 0.007598 -0.005491 0.000126 0.023461 -0.003844 -0.007918
# 5 -0.012790 0.007070 -0.004206 -0.003844 0.032270 0.004297
# 6 -0.003495 0.012916 0.007024 -0.007918 0.004297 0.039533
#
#
# Mechanical properties :
#
#
# Convention : Reuss Voigt Hill
#
# Bulk Modulus (GPa) = 28.53754 44.33870 36.43812
# Shear Modulus (GPa) = 24.63165 37.69435 31.16300
#
# Velocity S-wave (km/s) = 3.29887 4.08090 3.71054
# Velocity P-wave (km/s) = 5.20752 6.46485 5.86995
#
# Compressibility (1/GPa) = 0.03504157
#
# Stress axis : x y z
#
# Youngs Moduli (GPa) = 36.94370 43.30714 64.99672
#
# Poissons Ratio (x) = 0.59936 0.27013
# Poissons Ratio (y) = 0.51129 -0.17838
# Poissons Ratio (z) = 0.15354 -0.11885
#
# Static dielectric constant tensor:
#      x y z
#    x 1.959350 -0.011110 -0.088710 
#    y -0.011110 1.829540 0.012890 
#    z -0.088710 0.012890 1.912700 
# 
# From -- ./inp_files/10731.got.cif
#   From: 2010.05.17/outbox.cif.g08.bks.cpg/sg2_6_cif.got.tgz:10731.got - 2010.06.03 11:33:40.
