data_PCOD9061441
_publ_section_title
;
Structure prediction by ZEFSAII (Michael W. Deem and Ramdas Pophale) SiO2 
 PCOD9061441
Probable space group: P -1
;
_chemical_formula_sum "Si O2"
_cell_formula_units_Z 16
_cell_length_a 16.245631
_cell_length_b 8.941720
_cell_length_c 8.898988
_cell_angle_alpha 47.761227
_cell_angle_beta 58.429677
_cell_angle_gamma 47.844116
_cell_volume 703.285617
_symmetry_space_group_name_H-M "P -1"
_symmetry_group_IT_number 2
_symmetry_cell_setting 'triclinic'
loop_
_space_group_symop_operation_xyz
x,y,z
-x,-y,-z
loop_
_atom_site_type_symbol
_atom_site_label
_atom_site_fract_x
_atom_site_fract_y
_atom_site_fract_z
Si Si1 0.092299 0.510193 0.593044
Si Si2 0.191848 0.308540 0.335526
Si Si3 0.715870 0.459087 0.472249
Si Si4 0.457814 0.245003 0.795555
Si Si5 0.953212 0.395411 0.985781
Si Si6 0.496288 0.547432 0.797031
Si Si7 0.414067 0.988932 0.470163
Si Si8 0.891771 0.024757 0.432860
O O1 0.110131 0.495953 0.408077
O O2 0.209648 0.439326 0.603733
O O3 0.048552 0.340728 0.807095
O O4 0.001970 0.779878 0.540672
O O5 0.157289 0.411162 0.131521
O O6 0.315079 0.224384 0.337169
O O7 0.174156 0.085074 0.516130
O O8 0.662076 0.589902 0.278190
O O9 0.617808 0.502159 0.652596
O O10 0.803117 0.187799 0.534726
O O11 0.475973 0.390040 0.807155
O O12 0.531852 0.165148 0.627513
O O13 0.500000 0.000000 0.000000
O O14 0.000000 0.500000 0.000000
O O15 0.930899 0.191188 0.201196
O O16 0.390432 0.811205 0.703843
O O17 0.500000 0.500000 0.000000
O O18 0.500000 0.000000 0.500000
#
# Coordination Sequence:
#
# PCOD9061441 Si02
#       8
#     2   2   2   2   2   2   2   2
#     4  11  25  45  67 105 144 182 232 298 354 423
#     4  11  25  43  71 100 145 190 229 293 369 414
#     4  11  23  45  70  97 141 185 229 294 364 422
#     4  11  24  41  69 101 136 183 237 289 360 433
#     4  11  24  43  69 101 138 183 246 290 346 435
#     4  11  24  46  68 103 139 180 242 297 359 443
#     4  11  23  46  70 100 147 186 233 305 355 429
#     4  11  23  45  71 100 141 183 239 290 352 424
#
# _framework density 22.750357999999999
#
# number of rings (size 3 to 8) (size 9 to 14) (size 15 to 20)
#    0.000    1.000    1.250    7.125    3.500    2.000 
#    9.000    0.000    0.000    0.000    0.000    0.000 
#    0.000    0.000    0.000    0.000    0.000    0.000 
#
# Total GULP energy -89097.216539 kJ/mol
# GULP energy per Si atom -5568.576034 kJ/mol
# Density = 2.269858 g / cm^3
# Si number density = 22.750358 Si / 1000 Ang^3
#
#
#
# Elastic Constant Matrix: (Units=GPa)
#
#
# Indices 1 2 3 4 5 6 
#
# 1 158.9453 24.3647 52.5312 3.5978 22.7194 7.1840
# 2 24.3647 85.8685 27.4282 7.8357 4.9377 4.0340
# 3 52.5312 27.4282 134.5435 -0.0325 9.3406 4.4606
# 4 3.5978 7.8357 -0.0325 35.1188 9.9566 -3.2171
# 5 22.7194 4.9377 9.3406 9.9566 40.2140 2.8771
# 6 7.1840 4.0340 4.4606 -3.2171 2.8771 37.8364
#
#
#
# Elastic Compliance Matrix: (Units=1/GPa)
#
#
# Indices 1 2 3 4 5 6 
#
# 1 0.007880 -0.001214 -0.002543 0.000463 -0.003774 -0.000741
# 2 -0.001214 0.012987 -0.002164 -0.003004 0.000423 -0.001186
# 3 -0.002543 -0.002164 0.008914 0.000894 -0.000574 -0.000218
# 4 0.000463 -0.003004 0.000894 0.031741 -0.008206 0.003450
# 5 -0.003774 0.000423 -0.000574 -0.008206 0.029269 -0.002184
# 6 -0.000741 -0.001186 -0.000218 0.003450 -0.002184 0.027182
#
#
# Mechanical properties :
#
#
# Convention : Reuss Voigt Hill
#
# Bulk Modulus (GPa) = 55.74425 65.33393 60.53909
# Shear Modulus (GPa) = 36.82031 40.96939 38.89485
#
# Velocity S-wave (km/s) = 4.02736 4.24822 4.13926
# Velocity P-wave (km/s) = 6.79573 7.26933 7.03652
#
# Compressibility (1/GPa) = 0.01793907
#
# Stress axis : x y z
#
# Youngs Moduli (GPa) = 126.89708 76.99947 112.18633
#
# Poissons Ratio (x) = 0.09350 0.28524
# Poissons Ratio (y) = 0.15410 0.24279
# Poissons Ratio (z) = 0.32265 0.16664
#
# Static dielectric constant tensor:
#      x y z
#    x 2.099460 0.093920 0.062830 
#    y 0.093920 2.023400 0.060960 
#    z 0.062830 0.060960 1.954220 
# 
# From -- ./inp_files/328371.got.cif
#   From: 2010.05.17/outbox.cif.g08.bks.cpg/sg2_165_cif.got.tgz:328371.got - 2010.06.03 11:33:40.
