data_PCOD9061876
_publ_section_title
;
Structure prediction by ZEFSAII (Michael W. Deem and Ramdas Pophale) SiO2 
 PCOD9061876
Probable space group: P -1
;
_chemical_formula_sum "Si O2"
_cell_formula_units_Z 16
_cell_length_a 24.726313
_cell_length_b 22.456910
_cell_length_c 6.884468
_cell_angle_alpha 138.715647
_cell_angle_beta 128.966917
_cell_angle_gamma 19.736764
_cell_volume 797.254547
_symmetry_space_group_name_H-M "P -1"
_symmetry_group_IT_number 2
_symmetry_cell_setting 'triclinic'
loop_
_space_group_symop_operation_xyz
x,y,z
-x,-y,-z
loop_
_atom_site_type_symbol
_atom_site_label
_atom_site_fract_x
_atom_site_fract_y
_atom_site_fract_z
Si Si1 0.753641 0.470444 0.428935
Si Si2 0.434011 0.980420 0.861908
Si Si3 0.114263 0.129884 0.496906
Si Si4 0.317553 0.995634 0.314780
Si Si5 0.198556 0.756496 0.306465
Si Si6 0.599869 0.567783 0.697998
Si Si7 0.149360 0.254966 0.176854
Si Si8 0.653640 0.262563 0.667233
O O1 0.594126 0.723782 0.634786
O O2 0.715744 0.474954 0.567986
O O3 0.931367 0.313913 0.457661
O O4 0.767566 0.369673 0.066137
O O5 0.326023 0.071703 0.659205
O O6 0.500000 0.000000 0.000000
O O7 0.306830 0.121937 0.105141
O O8 0.236227 0.014196 0.310354
O O9 0.210402 0.937787 0.364199
O O10 0.098074 0.236026 0.863827
O O11 0.211018 0.138014 0.230073
O O12 0.510370 0.745639 0.072208
O O13 0.298801 0.621632 0.402751
O O14 0.259648 0.773790 0.378841
O O15 0.000000 0.000000 0.500000
O O16 0.441316 0.707636 0.577109
O O17 0.000000 0.500000 0.500000
O O18 0.500000 0.500000 0.000000
#
# Coordination Sequence:
#
# PCOD9061876 Si02
#       8
#     2   2   2   2   2   2   2   2
#     4  12  26  46  65 101 141 172 222 284 332 397
#     4  11  26  46  71 102 135 175 223 275 337 403
#     4  11  27  43  68 101 139 172 223 282 332 395
#     4  11  23  46  72  95 135 180 219 273 338 397
#     4  12  28  43  67 102 137 179 226 277 337 393
#     4  12  23  46  70  94 136 181 225 275 333 399
#     4  11  26  47  71 102 135 175 225 274 334 404
#     4  12  24  45  70  98 133 181 231 274 331 398
#
# _framework density 20.068873
#
# number of rings (size 3 to 8) (size 9 to 14) (size 15 to 20)
#    0.000    0.500    5.000    2.625    7.000    4.500 
#    0.000    0.000    0.000    0.000    0.000    0.000 
#    0.000    0.000    0.000    0.000    0.000    0.000 
#
# Total GULP energy -89484.964271 kJ/mol
# GULP energy per Si atom -5592.810267 kJ/mol
# Density = 2.002320 g / cm^3
# Si number density = 20.068873 Si / 1000 Ang^3
#
#
#
# Elastic Constant Matrix: (Units=GPa)
#
#
# Indices 1 2 3 4 5 6 
#
# 1 92.3132 -9.3339 11.5867 -3.9903 -8.0540 0.5272
# 2 -9.3339 50.8425 3.5679 3.3351 -4.6982 3.6576
# 3 11.5867 3.5679 73.5748 17.3544 -11.0843 10.3584
# 4 -3.9903 3.3351 17.3544 40.5122 2.5450 0.5047
# 5 -8.0540 -4.6982 -11.0843 2.5450 30.6037 -0.3101
# 6 0.5272 3.6576 10.3584 0.5047 -0.3101 37.0911
#
#
#
# Elastic Compliance Matrix: (Units=1/GPa)
#
#
# Indices 1 2 3 4 5 6 
#
# 1 0.011615 0.002391 -0.001960 0.001623 0.002581 0.000146
# 2 0.002391 0.020725 -0.000133 -0.001633 0.003879 -0.001986
# 3 -0.001960 -0.000133 0.017407 -0.007982 0.006385 -0.004658
# 4 0.001623 -0.001633 -0.007982 0.028693 -0.005081 0.001934
# 5 0.002581 0.003879 0.006385 -0.005081 0.036667 -0.001827
# 6 0.000146 -0.001986 -0.004658 0.001934 -0.001827 0.028414
#
#
# Mechanical properties :
#
#
# Convention : Reuss Voigt Hill
#
# Bulk Modulus (GPa) = 19.86264 25.37466 22.61865
# Shear Modulus (GPa) = 31.30785 35.70204 33.50494
#
# Velocity S-wave (km/s) = 3.95399 4.22237 4.09038
# Velocity P-wave (km/s) = 5.54654 6.03675 5.79683
#
# Compressibility (1/GPa) = 0.05034578
#
# Stress axis : x y z
#
# Youngs Moduli (GPa) = 86.09629 48.25018 57.44758
#
# Poissons Ratio (x) = -0.11538 0.11257
# Poissons Ratio (y) = -0.20589 0.00762
# Poissons Ratio (z) = 0.16871 0.00640
#
# Static dielectric constant tensor:
#      x y z
#    x 1.631560 -0.007590 -0.037870 
#    y -0.007590 1.736250 0.026450 
#    z -0.037870 0.026450 1.751380 
# 
# From -- ./inp_files/38089.got.cif
#   From: 2010.05.17/outbox.cif.g08.bks.cpg/sg2_20_cif.got.tgz:38089.got - 2010.06.03 11:33:40.
