data_PCOD9061692
_publ_section_title
;
Structure prediction by ZEFSAII (Michael W. Deem and Ramdas Pophale) SiO2 
 PCOD9061692
Probable space group: P -1
;
_chemical_formula_sum "Si O2"
_cell_formula_units_Z 11
_cell_length_a 7.336012
_cell_length_b 7.375825
_cell_length_c 13.804501
_cell_angle_alpha 123.809035
_cell_angle_beta 42.607273
_cell_angle_gamma 117.804666
_cell_volume 417.996082
_symmetry_space_group_name_H-M "P -1"
_symmetry_group_IT_number 2
_symmetry_cell_setting 'triclinic'
loop_
_space_group_symop_operation_xyz
x,y,z
-x,-y,-z
loop_
_atom_site_type_symbol
_atom_site_label
_atom_site_fract_x
_atom_site_fract_y
_atom_site_fract_z
Si Si1 0.814658 0.531113 0.857109
Si Si2 0.132943 0.758385 0.082050
Si Si3 0.500000 0.000000 0.500000
Si Si4 0.782971 0.060760 0.215106
Si Si5 0.934111 0.228210 0.541934
Si Si6 0.591115 0.833095 0.781225
O O1 0.949025 0.775202 0.861034
O O2 0.867125 0.393908 0.700354
O O3 0.500000 0.500000 0.000000
O O4 0.962396 0.425438 0.858195
O O5 0.235715 0.969378 0.170998
O O6 0.387338 0.714782 0.903839
O O7 0.891157 0.830784 0.133167
O O8 0.634869 0.131897 0.390176
O O9 0.687054 0.159725 0.547688
O O10 0.589991 0.066375 0.200457
O O11 0.198611 0.302945 0.396522
O O12 0.000000 0.000000 0.500000
#
# Coordination Sequence:
#
# PCOD9061692 Si02
#       6
#     2   2   1   2   2   2
#     4  12  28  50  77 114 156 195 255 316 373 450
#     4  11  24  50  72 108 157 200 245 310 385 436
#     4  12  24  46  76 110 144 206 248 302 382 436
#     4  12  26  46  76 112 149 203 249 304 380 450
#     4  12  24  49  74 111 153 197 254 311 370 452
#     4  11  23  45  78 106 153 202 247 311 372 455
#
# _framework density 26.316036
#
# number of rings (size 3 to 8) (size 9 to 14) (size 15 to 20)
#    0.000    0.364    5.455    2.727    0.000    3.636 
#    0.000    1.818    0.000    0.000    0.000    0.000 
#    0.000    0.000    0.000    0.000    0.000    0.000 
#
# Total GULP energy -61513.964566 kJ/mol
# GULP energy per Si atom -5592.178597 kJ/mol
# Density = 2.625614 g / cm^3
# Si number density = 26.316036 Si / 1000 Ang^3
#
#
#
# Elastic Constant Matrix: (Units=GPa)
#
#
# Indices 1 2 3 4 5 6 
#
# 1 117.6600 49.9169 62.8286 1.7304 22.2648 -0.5496
# 2 49.9169 74.5239 39.6087 -2.4281 6.4204 8.3424
# 3 62.8286 39.6087 213.9412 -12.8410 14.1803 9.9245
# 4 1.7304 -2.4281 -12.8410 45.2676 -3.2236 8.4638
# 5 22.2648 6.4204 14.1803 -3.2236 45.9940 -12.9905
# 6 -0.5496 8.3424 9.9245 8.4638 -12.9905 36.5944
#
#
#
# Elastic Compliance Matrix: (Units=1/GPa)
#
#
# Indices 1 2 3 4 5 6 
#
# 1 0.014199 -0.007986 -0.002598 -0.002344 -0.004663 0.001626
# 2 -0.007986 0.019886 -0.001008 0.001992 0.000193 -0.004772
# 3 -0.002598 -0.001008 0.005911 0.002071 -0.000903 -0.002212
# 4 -0.002344 0.001992 0.002071 0.024114 0.000040 -0.006614
# 5 -0.004663 0.000193 -0.000903 0.000040 0.026995 0.009704
# 6 0.001626 -0.004772 -0.002212 -0.006614 0.009704 0.034013
#
#
# Mechanical properties :
#
#
# Convention : Reuss Voigt Hill
#
# Bulk Modulus (GPa) = 59.48735 78.98148 69.23442
# Shear Modulus (GPa) = 32.48704 42.48928 37.48816
#
# Velocity S-wave (km/s) = 3.51735 4.02254 3.77840
# Velocity P-wave (km/s) = 6.25697 7.18695 6.73803
#
# Compressibility (1/GPa) = 0.01681030
#
# Stress axis : x y z
#
# Youngs Moduli (GPa) = 70.42675 50.28610 169.18509
#
# Poissons Ratio (x) = 0.40160 0.43961
# Poissons Ratio (y) = 0.56245 0.17056
# Poissons Ratio (z) = 0.18299 0.05070
#
# Static dielectric constant tensor:
#      x y z
#    x 2.074380 -0.028810 -0.062800 
#    y -0.028810 2.029980 -0.029330 
#    z -0.062800 -0.029330 2.085220 
# 
# From -- ./inp_files/497005.got.cif
#   From: 2010.05.17/outbox.cif.g08.bks.cpg/sg2_249_cif.got.tgz:497005.got - 2010.06.03 11:33:40.
