data_PCOD9061370
_publ_section_title
;
Structure prediction by ZEFSAII (Michael W. Deem and Ramdas Pophale) SiO2 
 PCOD9061370
Probable space group: P -1
;
_chemical_formula_sum "Si O2"
_cell_formula_units_Z 12
_cell_length_a 24.562538
_cell_length_b 8.950965
_cell_length_c 14.228647
_cell_angle_alpha 154.199741
_cell_angle_beta 20.538725
_cell_angle_gamma 147.810160
_cell_volume 477.578663
_symmetry_space_group_name_H-M "P -1"
_symmetry_group_IT_number 2
_symmetry_cell_setting 'triclinic'
loop_
_space_group_symop_operation_xyz
x,y,z
-x,-y,-z
loop_
_atom_site_type_symbol
_atom_site_label
_atom_site_fract_x
_atom_site_fract_y
_atom_site_fract_z
Si Si1 0.981849 0.011438 0.828175
Si Si2 0.117405 0.279066 0.921603
Si Si3 0.545054 0.520677 0.548468
Si Si4 0.893913 0.000169 0.580908
Si Si5 0.261742 0.499411 0.125787
Si Si6 0.624916 0.737296 0.985206
O O1 0.032641 0.089014 0.685441
O O2 0.111871 0.742356 0.502262
O O3 0.810263 0.846425 0.004000
O O4 0.015314 0.332058 0.022961
O O5 0.295531 0.250188 0.580446
O O6 0.138300 0.588901 0.136708
O O7 0.000000 0.000000 0.000000
O O8 0.500000 0.500000 0.500000
O O9 0.578317 0.129382 0.305611
O O10 0.405990 0.634557 0.905966
O O11 0.000000 0.000000 0.500000
O O12 0.745468 0.792937 0.736997
O O13 0.310068 0.420016 0.111050
O O14 0.500000 0.500000 0.000000
#
# Coordination Sequence:
#
# PCOD9061370 Si02
#       6
#     2   2   2   2   2   2
#     4  11  24  44  73  99 141 186 235 286 345 415
#     4  11  25  43  72 103 135 188 234 281 354 406
#     4  11  25  45  69 103 142 177 238 288 341 428
#     4  11  24  47  67 105 141 177 238 286 337 425
#     4  11  23  45  69 103 137 182 237 285 343 418
#     4  11  26  44  70 101 143 182 224 292 355 408
#
# _framework density 25.126752
#
# number of rings (size 3 to 8) (size 9 to 14) (size 15 to 20)
#    0.000    1.000    1.667    5.500    4.667    2.667 
#    0.000    0.000    0.000    0.000    0.000    0.000 
#    0.000    0.000    0.000    0.000    0.000    0.000 
#
# Total GULP energy -67042.147554 kJ/mol
# GULP energy per Si atom -5586.845630 kJ/mol
# Density = 2.506956 g / cm^3
# Si number density = 25.126752 Si / 1000 Ang^3
#
#
#
# Elastic Constant Matrix: (Units=GPa)
#
#
# Indices 1 2 3 4 5 6 
#
# 1 170.5340 79.5095 14.3258 -15.2848 -3.9186 -12.6457
# 2 79.5095 179.2308 60.9775 -66.4169 -9.1272 8.1749
# 3 14.3258 60.9775 87.8637 -28.4573 8.6439 -16.3956
# 4 -15.2848 -66.4169 -28.4573 64.3303 -9.4609 -6.3913
# 5 -3.9186 -9.1272 8.6439 -9.4609 50.6762 -5.8683
# 6 -12.6457 8.1749 -16.3956 -6.3913 -5.8683 58.2814
#
#
#
# Elastic Compliance Matrix: (Units=1/GPa)
#
#
# Indices 1 2 3 4 5 6 
#
# 1 0.008230 -0.005596 0.002300 -0.002660 -0.000933 0.002832
# 2 -0.005596 0.015222 -0.007037 0.011701 0.005287 -0.003514
# 3 0.002300 -0.007037 0.017809 0.001324 -0.003148 0.006325
# 4 -0.002660 0.011701 0.001324 0.028857 0.007301 0.002054
# 5 -0.000933 0.005287 -0.003148 0.007301 0.022658 0.001253
# 6 0.002832 -0.003514 0.006325 0.002054 0.001253 0.020396
#
#
# Mechanical properties :
#
#
# Convention : Reuss Voigt Hill
#
# Bulk Modulus (GPa) = 48.55680 83.02822 65.79251
# Shear Modulus (GPa) = 35.53592 53.51195 44.52394
#
# Velocity S-wave (km/s) = 3.76475 4.61985 4.21405
# Velocity P-wave (km/s) = 6.18583 7.84684 7.06532
#
# Compressibility (1/GPa) = 0.02059444
#
# Stress axis : x y z
#
# Youngs Moduli (GPa) = 121.50797 65.69583 56.15164
#
# Poissons Ratio (x) = 0.36764 -0.12917
# Poissons Ratio (y) = 0.67996 0.39516
# Poissons Ratio (z) = -0.27952 0.46233
#
# Static dielectric constant tensor:
#      x y z
#    x 1.989120 -0.020090 -0.039940 
#    y -0.020090 2.128070 0.237110 
#    z -0.039940 0.237110 2.147630 
# 
# From -- ./inp_files/542692.got.cif
#   From: 2010.05.17/outbox.cif.g08.bks.cpg/sg2_272_cif.got.tgz:542692.got - 2010.06.03 11:33:40.
