data_PCOD9061516
_publ_section_title
;
Structure prediction by ZEFSAII (Michael W. Deem and Ramdas Pophale) SiO2 
 PCOD9061516
Probable space group: P -1
;
_chemical_formula_sum "Si O2"
_cell_formula_units_Z 16
_cell_length_a 8.007434
_cell_length_b 16.033481
_cell_length_c 5.448677
_cell_angle_alpha 74.386559
_cell_angle_beta 69.312893
_cell_angle_gamma 82.707730
_cell_volume 629.892705
_symmetry_space_group_name_H-M "P -1"
_symmetry_group_IT_number 2
_symmetry_cell_setting 'triclinic'
loop_
_space_group_symop_operation_xyz
x,y,z
-x,-y,-z
loop_
_atom_site_type_symbol
_atom_site_label
_atom_site_fract_x
_atom_site_fract_y
_atom_site_fract_z
Si Si1 0.898298 0.246224 0.631185
Si Si2 0.088091 0.112018 0.384777
Si Si3 0.957296 0.407530 0.697149
Si Si4 0.217809 0.862993 0.823801
Si Si5 0.357419 0.533251 0.847432
Si Si6 0.539371 0.190261 0.628287
Si Si7 0.722946 0.953685 0.154731
Si Si8 0.345280 0.363289 0.674458
O O1 0.053127 0.213919 0.391502
O O2 0.865993 0.347571 0.592880
O O3 0.711299 0.206751 0.686625
O O4 0.920759 0.198331 0.919886
O O5 0.889852 0.094923 0.388968
O O6 0.163004 0.077403 0.636413
O O7 0.201091 0.076447 0.125290
O O8 0.000000 0.500000 0.500000
O O9 0.150495 0.360897 0.657294
O O10 0.818891 0.420337 0.981920
O O11 0.380141 0.800343 0.695829
O O12 0.280340 0.943325 0.888534
O O13 0.306312 0.441947 0.824473
O O14 0.479263 0.597609 0.577932
O O15 0.500000 0.500000 0.000000
O O16 0.462073 0.095154 0.714918
O O17 0.398775 0.261728 0.746871
#
# Coordination Sequence:
#
# PCOD9061516 Si02
#       8
#     2   2   2   2   2   2   2   2
#     4  11  26  47  70 107 151 199 253 318 388 451
#     4  11  25  46  75 110 151 196 256 316 375 455
#     4  12  25  47  76 108 146 200 253 309 389 460
#     4  11  25  47  75 104 154 199 252 317 383 453
#     4  11  23  45  72 105 144 190 244 311 376 451
#     4  11  27  45  69 106 150 198 251 319 380 455
#     4  12  26  45  77 112 149 201 258 309 385 460
#     4  11  25  45  72 104 147 194 250 309 381 453
#
# _framework density 25.401150000000001
#
# number of rings (size 3 to 8) (size 9 to 14) (size 15 to 20)
#    0.000    0.750    2.500    3.750    7.000    1.500 
#    4.500    0.000    0.000    0.000    0.000    0.000 
#    0.000    0.000    0.000    0.000    0.000    0.000 
#
# Total GULP energy -89191.995166 kJ/mol
# GULP energy per Si atom -5574.499698 kJ/mol
# Density = 2.534334 g / cm^3
# Si number density = 25.401150 Si / 1000 Ang^3
#
#
#
# Elastic Constant Matrix: (Units=GPa)
#
#
# Indices 1 2 3 4 5 6 
#
# 1 76.8085 29.7381 19.1656 -2.5824 -3.6876 -2.6322
# 2 29.7381 140.7865 52.9380 24.4056 -1.2748 34.8719
# 3 19.1656 52.9380 96.7910 34.7349 -2.7378 -1.8746
# 4 -2.5824 24.4056 34.7349 40.3250 -7.2374 -9.7665
# 5 -3.6876 -1.2748 -2.7378 -7.2374 28.8683 1.5436
# 6 -2.6322 34.8719 -1.8746 -9.7665 1.5436 44.5154
#
#
#
# Elastic Compliance Matrix: (Units=1/GPa)
#
#
# Indices 1 2 3 4 5 6 
#
# 1 0.016946 -0.005833 -0.003567 0.010178 0.003718 0.007525
# 2 -0.005833 0.015084 -0.003804 -0.010126 -0.002205 -0.014466
# 3 -0.003567 -0.003804 0.017976 -0.013692 -0.002384 0.000604
# 4 0.010178 -0.010126 -0.013692 0.049840 0.011060 0.018509
# 5 0.003718 -0.002205 -0.002384 0.011060 0.037405 0.002976
# 6 0.007525 -0.014466 0.000604 0.018509 0.002976 0.038225
#
#
# Mechanical properties :
#
#
# Convention : Reuss Voigt Hill
#
# Bulk Modulus (GPa) = 42.37423 57.56325 49.96874
# Shear Modulus (GPa) = 23.83799 36.91134 30.37466
#
# Velocity S-wave (km/s) = 3.06675 3.81614 3.46178
# Velocity P-wave (km/s) = 5.40909 6.49062 5.97437
#
# Compressibility (1/GPa) = 0.02359925
#
# Stress axis : x y z
#
# Youngs Moduli (GPa) = 59.00976 66.29616 55.62994
#
# Poissons Ratio (x) = 0.38670 0.19842
# Poissons Ratio (y) = 0.34420 0.21159
# Poissons Ratio (z) = 0.21048 0.25217
#
# Static dielectric constant tensor:
#      x y z
#    x 1.637540 -0.265740 -0.023040 
#    y -0.265740 1.858080 -0.032180 
#    z -0.023040 -0.032180 2.146960 
# 
# From -- ./inp_files/37792.got.cif
#   From: 2010.05.17/outbox.cif.g08.bks.cpg/sg2_19_cif.got.tgz:37792.got - 2010.06.03 11:33:40.
