data_PCOD9061771
_publ_section_title
;
Structure prediction by ZEFSAII (Michael W. Deem and Ramdas Pophale) SiO2 
 PCOD9061771
Probable space group: P -1
;
_chemical_formula_sum "Si O2"
_cell_formula_units_Z 13
_cell_length_a 9.697080
_cell_length_b 11.425074
_cell_length_c 11.768219
_cell_angle_alpha 142.629191
_cell_angle_beta 109.407618
_cell_angle_gamma 45.611218
_cell_volume 484.552663
_symmetry_space_group_name_H-M "P -1"
_symmetry_group_IT_number 2
_symmetry_cell_setting 'triclinic'
loop_
_space_group_symop_operation_xyz
x,y,z
-x,-y,-z
loop_
_atom_site_type_symbol
_atom_site_label
_atom_site_fract_x
_atom_site_fract_y
_atom_site_fract_z
Si Si1 0.194831 0.759692 0.277031
Si Si2 0.696523 0.342385 0.189823
Si Si3 0.500000 0.500000 0.500000
Si Si4 0.256632 0.338012 0.257192
Si Si5 0.860080 0.926172 0.718486
Si Si6 0.556052 0.890712 0.558622
Si Si7 0.692102 0.768214 0.050848
O O1 0.440823 0.569637 0.244853
O O2 0.152236 0.913104 0.266695
O O3 0.201961 0.522533 0.085074
O O4 0.000000 0.000000 0.500000
O O5 0.677521 0.322451 0.303188
O O6 0.724719 0.543112 0.335498
O O7 0.851002 0.054794 0.931036
O O8 0.376166 0.429017 0.357430
O O9 0.054956 0.579862 0.473831
O O10 0.446908 0.008020 0.105943
O O11 0.169864 0.348225 0.119182
O O12 0.643255 0.007040 0.717482
O O13 0.500000 0.000000 0.500000
O O14 0.360295 0.030319 0.705856
#
# Coordination Sequence:
#
# PCOD9061771 Si02
#       7
#     2   2   1   2   2   2   2
#     4  12  22  45  74 101 137 191 238 291 362 422
#     4  12  25  45  73 106 146 187 241 300 359 426
#     4  12  22  48  70 100 144 190 246 286 356 432
#     4  11  25  45  74 102 141 195 236 297 363 422
#     4  12  25  48  73 107 149 187 238 302 366 422
#     4  12  24  44  74 106 146 188 235 297 366 426
#     4  11  23  46  70 100 147 186 236 298 360 419
#
# _framework density 26.828866999999999
#
# number of rings (size 3 to 8) (size 9 to 14) (size 15 to 20)
#    0.000    0.308    7.692    1.385    0.000    1.231 
#    5.538    3.077    0.000    0.000    0.000    0.000 
#    0.000    0.000    0.000    0.000    0.000    0.000 
#
# Total GULP energy -72470.107014 kJ/mol
# GULP energy per Si atom -5574.623616 kJ/mol
# Density = 2.676780 g / cm^3
# Si number density = 26.828867 Si / 1000 Ang^3
#
#
#
# Elastic Constant Matrix: (Units=GPa)
#
#
# Indices 1 2 3 4 5 6 
#
# 1 62.8339 24.8209 33.1573 -15.2869 -6.5587 20.9164
# 2 24.8209 92.9546 49.7046 -31.1104 -10.8704 16.7786
# 3 33.1573 49.7046 249.3688 -29.7696 -17.7050 13.9319
# 4 -15.2869 -31.1104 -29.7696 65.9294 2.4221 -6.5335
# 5 -6.5587 -10.8704 -17.7050 2.4221 45.8465 -9.0186
# 6 20.9164 16.7786 13.9319 -6.5335 -9.0186 34.0997
#
#
#
# Elastic Compliance Matrix: (Units=1/GPa)
#
#
# Indices 1 2 3 4 5 6 
#
# 1 0.021926 -0.002263 -0.001595 0.002183 -0.000366 -0.011363
# 2 -0.002263 0.014927 -0.001719 0.005307 0.001517 -0.003837
# 3 -0.001595 -0.001719 0.004744 0.000955 0.001223 0.000392
# 4 0.002183 0.005307 0.000955 0.018522 0.000849 -0.000567
# 5 -0.000366 0.001517 0.001223 0.000849 0.023606 0.005385
# 6 -0.011363 -0.003837 0.000392 -0.000567 0.005385 0.039338
#
#
# Mechanical properties :
#
#
# Convention : Reuss Voigt Hill
#
# Bulk Modulus (GPa) = 32.84769 68.94700 50.89735
# Shear Modulus (GPa) = 34.63455 49.00675 41.82065
#
# Velocity S-wave (km/s) = 3.59687 4.27856 3.95244
# Velocity P-wave (km/s) = 5.43323 7.08256 6.31200
#
# Compressibility (1/GPa) = 0.03044354
#
# Stress axis : x y z
#
# Youngs Moduli (GPa) = 45.60817 66.99085 210.80541
#
# Poissons Ratio (x) = 0.15160 0.33620
# Poissons Ratio (y) = 0.10321 0.36235
# Poissons Ratio (z) = 0.07274 0.11515
#
# Static dielectric constant tensor:
#      x y z
#    x 2.226570 -0.039660 -0.112750 
#    y -0.039660 2.105200 -0.024750 
#    z -0.112750 -0.024750 2.138360 
# 
# From -- ./inp_files/424524.got.cif
#   From: 2010.05.17/outbox.cif.g08.bks.cpg/sg2_213_cif.got.tgz:424524.got - 2010.06.03 11:33:40.
