data_PCOD9061179
_publ_section_title
;
Structure prediction by ZEFSAII (Michael W. Deem and Ramdas Pophale) SiO2 
 PCOD9061179
Probable space group: P -1
;
_chemical_formula_sum "Si O2"
_cell_formula_units_Z 14
_cell_length_a 15.113288
_cell_length_b 20.372754
_cell_length_c 11.046751
_cell_angle_alpha 151.746518
_cell_angle_beta 141.674462
_cell_angle_gamma 21.561811
_cell_volume 579.806779
_symmetry_space_group_name_H-M "P -1"
_symmetry_group_IT_number 2
_symmetry_cell_setting 'triclinic'
loop_
_space_group_symop_operation_xyz
x,y,z
-x,-y,-z
loop_
_atom_site_type_symbol
_atom_site_label
_atom_site_fract_x
_atom_site_fract_y
_atom_site_fract_z
Si Si1 0.104945 0.232497 0.352837
Si Si2 0.683830 0.066531 0.361501
Si Si3 0.136522 0.732032 0.476408
Si Si4 0.613623 0.442664 0.159735
Si Si5 0.862490 0.530850 0.796513
Si Si6 0.346677 0.097384 0.144836
Si Si7 0.401576 0.742903 0.935599
O O1 0.011799 0.419515 0.651808
O O2 0.872348 0.315653 0.216994
O O3 0.198647 0.220154 0.308226
O O4 0.321734 0.965358 0.207046
O O5 0.879278 0.943900 0.476143
O O6 0.576825 0.293012 0.560496
O O7 0.790933 0.879062 0.070000
O O8 0.456395 0.158261 0.321769
O O9 0.239682 0.793229 0.739679
O O10 0.325523 0.510012 0.225934
O O11 0.133518 0.632929 0.427544
O O12 0.640168 0.293714 0.038032
O O13 0.500000 0.500000 0.000000
O O14 0.592397 0.808479 0.953852
O O15 0.000000 0.500000 0.000000
#
# Coordination Sequence:
#
# PCOD9061179 Si02
#       7
#     2   2   2   2   2   2   2
#     4  12  26  47  76 102 142 185 243 293 346 422
#     4  11  25  47  70 101 151 183 231 296 357 422
#     4  11  23  44  74 101 143 185 236 289 352 418
#     4  12  27  44  68 106 145 185 232 288 357 426
#     4  12  24  48  72 103 141 187 240 296 347 416
#     4  11  25  48  72 104 141 189 234 294 358 413
#     4  11  25  45  73 104 139 188 237 292 346 416
#
# _framework density 24.145975
#
# number of rings (size 3 to 8) (size 9 to 14) (size 15 to 20)
#    0.000    0.571    5.714    1.286    6.000    1.714 
#    2.571    0.000    0.000    0.000    0.000    0.000 
#    0.000    0.000    0.000    0.000    0.000    0.000 
#
# Total GULP energy -78458.922575 kJ/mol
# GULP energy per Si atom -5604.208755 kJ/mol
# Density = 2.409102 g / cm^3
# Si number density = 24.145975 Si / 1000 Ang^3
#
#
#
# Elastic Constant Matrix: (Units=GPa)
#
#
# Indices 1 2 3 4 5 6 
#
# 1 116.1770 16.1345 23.4100 1.4571 -37.5341 6.9430
# 2 16.1345 92.5276 25.6149 -1.5235 -8.9990 22.9452
# 3 23.4100 25.6149 85.4548 11.2963 -19.1936 2.4191
# 4 1.4571 -1.5235 11.2963 38.0847 11.8908 0.8126
# 5 -37.5341 -8.9990 -19.1936 11.8908 52.1916 9.9143
# 6 6.9430 22.9452 2.4191 0.8126 9.9143 24.6892
#
#
#
# Elastic Compliance Matrix: (Units=1/GPa)
#
#
# Indices 1 2 3 4 5 6 
#
# 1 0.013080 0.001369 -0.000462 -0.003912 0.012202 -0.009677
# 2 0.001369 0.016524 -0.003537 0.000208 0.005858 -0.017754
# 3 -0.000462 -0.003537 0.015152 -0.006542 0.006184 -0.000336
# 4 -0.003912 0.000208 -0.006542 0.032514 -0.013729 0.005991
# 5 0.012202 0.005858 0.006184 -0.013729 0.039041 -0.024708
# 6 -0.009677 -0.017754 -0.000336 0.005991 -0.024708 0.069482
#
#
# Mechanical properties :
#
#
# Convention : Reuss Voigt Hill
#
# Bulk Modulus (GPa) = 25.31870 47.16423 36.24147
# Shear Modulus (GPa) = 24.48341 38.25978 31.37159
#
# Velocity S-wave (km/s) = 3.18775 3.98492 3.60842
# Velocity P-wave (km/s) = 4.90484 6.38343 5.69235
#
# Compressibility (1/GPa) = 0.03949650
#
# Stress axis : x y z
#
# Youngs Moduli (GPa) = 76.45166 60.51800 65.99709
#
# Poissons Ratio (x) = -0.08285 0.03048
# Poissons Ratio (y) = -0.10466 0.23344
# Poissons Ratio (z) = 0.03531 0.21406
#
# Static dielectric constant tensor:
#      x y z
#    x 1.927740 0.005030 0.018810 
#    y 0.005030 1.909830 0.001440 
#    z 0.018810 0.001440 1.985620 
# 
# From -- ./inp_files/457767.got.cif
#   From: 2010.05.17/outbox.cif.g08.bks.cpg/sg2_229_cif.got.tgz:457767.got - 2010.06.03 11:33:40.
