data_PCOD9061105
_publ_section_title
;
Structure prediction by ZEFSAII (Michael W. Deem and Ramdas Pophale) SiO2 
 PCOD9061105
Probable space group: P -1
;
_chemical_formula_sum "Si O2"
_cell_formula_units_Z 14
_cell_length_a 9.127522
_cell_length_b 9.487658
_cell_length_c 8.865401
_cell_angle_alpha 72.954989
_cell_angle_beta 67.616353
_cell_angle_gamma 66.319124
_cell_volume 641.144097
_symmetry_space_group_name_H-M "P -1"
_symmetry_group_IT_number 2
_symmetry_cell_setting 'triclinic'
loop_
_space_group_symop_operation_xyz
x,y,z
-x,-y,-z
loop_
_atom_site_type_symbol
_atom_site_label
_atom_site_fract_x
_atom_site_fract_y
_atom_site_fract_z
Si Si1 0.259199 0.685493 0.652915
Si Si2 0.465708 0.547529 0.173006
Si Si3 0.190839 0.971217 0.389206
Si Si4 0.814375 0.511602 0.518951
Si Si5 0.840127 0.063587 0.147417
Si Si6 0.608915 0.111670 0.947072
Si Si7 0.684618 0.872161 0.477651
O O1 0.415025 0.570483 0.717589
O O2 0.294957 0.812284 0.487032
O O3 0.183356 0.584005 0.605855
O O4 0.150950 0.796389 0.792214
O O5 0.278935 0.558456 0.295428
O O6 0.490245 0.714609 0.122213
O O7 0.500000 0.500000 0.000000
O O8 0.230404 0.948329 0.206559
O O9 0.250216 0.110152 0.385624
O O10 0.000000 0.000000 0.500000
O O11 0.706928 0.694866 0.487988
O O12 0.000000 0.500000 0.500000
O O13 0.807061 0.930882 0.305020
O O14 0.676503 0.118958 0.086057
O O15 0.000000 0.000000 0.000000
O O16 0.500000 0.000000 0.000000
O O17 0.500000 0.000000 0.500000
#
# Coordination Sequence:
#
# PCOD9061105 Si02
#       7
#     2   2   2   2   2   2   2
#     4  11  24  47  74 102 143 195 235 291 366 426
#     4  12  27  48  71 101 151 187 238 301 361 424
#     4  11  23  44  72  98 138 184 235 290 353 427
#     4  12  27  46  77 108 143 189 246 303 359 428
#     4  11  25  46  72 101 145 188 233 296 366 422
#     4  12  26  43  70 105 138 182 242 294 354 425
#     4  11  25  43  70 103 138 185 245 285 352 440
#
# _framework density 21.835965999999999
#
# number of rings (size 3 to 8) (size 9 to 14) (size 15 to 20)
#    0.000    0.571    2.857    5.571    8.000    0.000 
#    0.000    1.429    0.000    0.000    0.000    0.000 
#    0.000    0.000    0.000    0.000    0.000    0.000 
#
# Total GULP energy -78283.432806 kJ/mol
# GULP energy per Si atom -5591.673772 kJ/mol
# Density = 2.178627 g / cm^3
# Si number density = 21.835966 Si / 1000 Ang^3
#
#
#
# Elastic Constant Matrix: (Units=GPa)
#
#
# Indices 1 2 3 4 5 6 
#
# 1 121.0453 53.5060 47.5907 11.8173 3.5110 14.9147
# 2 53.5060 163.9960 46.5469 6.7390 -3.1680 29.1658
# 3 47.5907 46.5469 114.8536 18.4542 6.6102 14.5067
# 4 11.8173 6.7390 18.4542 43.1185 5.3934 12.7519
# 5 3.5110 -3.1680 6.6102 5.3934 42.7433 2.6757
# 6 14.9147 29.1658 14.5067 12.7519 2.6757 35.2287
#
#
#
# Elastic Compliance Matrix: (Units=1/GPa)
#
#
# Indices 1 2 3 4 5 6 
#
# 1 0.010806 -0.002426 -0.003216 -0.000893 -0.000402 -0.000889
# 2 -0.002426 0.008468 -0.002046 0.001798 0.001285 -0.005890
# 3 -0.003216 -0.002046 0.011541 -0.003485 -0.001211 -0.000344
# 4 -0.000893 0.001798 -0.003485 0.027742 -0.002157 -0.009553
# 5 -0.000402 0.001285 -0.001211 -0.002157 0.024073 -0.001443
# 6 -0.000889 -0.005890 -0.000344 -0.009553 -0.001443 0.037348
#
#
# Mechanical properties :
#
#
# Convention : Reuss Voigt Hill
#
# Bulk Modulus (GPa) = 64.76120 77.24245 71.00182
# Shear Modulus (GPa) = 35.58679 41.03485 38.31082
#
# Velocity S-wave (km/s) = 4.04137 4.33971 4.19320
# Velocity P-wave (km/s) = 7.17631 7.78213 7.48535
#
# Compressibility (1/GPa) = 0.01544134
#
# Stress axis : x y z
#
# Youngs Moduli (GPa) = 92.53783 118.08778 86.64493
#
# Poissons Ratio (x) = 0.28649 0.27862
# Poissons Ratio (y) = 0.22450 0.17724
# Poissons Ratio (z) = 0.29757 0.24156
#
# Static dielectric constant tensor:
#      x y z
#    x 1.832280 -0.037350 0.030490 
#    y -0.037350 1.826510 0.014960 
#    z 0.030490 0.014960 1.805400 
# 
# From -- ./inp_files/157955.got.cif
#   From: 2010.05.17/outbox.cif.g08.bks.cpg/sg2_79_cif.got.tgz:157955.got - 2010.06.03 11:33:40.
