data_PCOD9061289
_publ_section_title
;
Structure prediction by ZEFSAII (Michael W. Deem and Ramdas Pophale) SiO2 
 PCOD9061289
Probable space group: P -1
;
_chemical_formula_sum "Si O2"
_cell_formula_units_Z 16
_cell_length_a 11.363917
_cell_length_b 10.579618
_cell_length_c 6.982462
_cell_angle_alpha 97.554865
_cell_angle_beta 64.706530
_cell_angle_gamma 106.220819
_cell_volume 728.708652
_symmetry_space_group_name_H-M "P -1"
_symmetry_group_IT_number 2
_symmetry_cell_setting 'triclinic'
loop_
_space_group_symop_operation_xyz
x,y,z
-x,-y,-z
loop_
_atom_site_type_symbol
_atom_site_label
_atom_site_fract_x
_atom_site_fract_y
_atom_site_fract_z
Si Si1 0.031067 0.514788 0.258757
Si Si2 0.167229 0.087296 0.124680
Si Si3 0.276344 0.394548 0.121006
Si Si4 0.513695 0.524091 0.719817
Si Si5 0.872108 0.050092 0.255224
Si Si6 0.336907 0.959025 0.273771
Si Si7 0.572148 0.207159 0.118363
Si Si8 0.131995 0.705522 0.926693
O O1 0.164008 0.460889 0.128891
O O2 0.000000 0.500000 0.500000
O O3 0.912099 0.422010 0.202102
O O4 0.066048 0.659359 0.169799
O O5 0.213704 0.241163 0.170589
O O6 0.253885 0.009274 0.171612
O O7 0.007380 0.033853 0.258310
O O8 0.185881 0.063883 0.880633
O O9 0.341889 0.467723 0.283739
O O10 0.399017 0.418366 0.890596
O O11 0.500000 0.500000 0.500000
O O12 0.487282 0.666437 0.815210
O O13 0.918453 0.179927 0.117350
O O14 0.761537 0.070078 0.484517
O O15 0.464795 0.080296 0.248781
O O16 0.388620 0.838371 0.127522
O O17 0.709302 0.244722 0.149192
#
# Coordination Sequence:
#
# PCOD9061289 Si02
#       8
#     2   2   2   2   2   2   2   2
#     4  11  26  44  70 100 135 180 221 284 344 402
#     4  11  23  45  65 104 140 170 234 281 334 419
#     4  11  24  45  68 101 136 176 232 276 338 419
#     4  11  26  45  70 100 135 185 222 285 344 402
#     4  11  25  43  72 100 132 187 221 285 344 397
#     4  11  25  46  69 101 138 182 228 284 345 396
#     4  11  24  46  67  99 141 174 232 284 329 417
#     4  11  24  44  64 102 136 169 234 273 333 404
#
# _framework density 21.956648000000001
#
# number of rings (size 3 to 8) (size 9 to 14) (size 15 to 20)
#    0.000    1.000    5.000    0.375    5.250    0.500 
#    6.750    0.000    0.000    0.000    0.000    0.000 
#    0.000    0.000    0.000    0.000    0.000    0.000 
#
# Total GULP energy -89494.585976 kJ/mol
# GULP energy per Si atom -5593.411624 kJ/mol
# Density = 2.190667 g / cm^3
# Si number density = 21.956648 Si / 1000 Ang^3
#
#
#
# Elastic Constant Matrix: (Units=GPa)
#
#
# Indices 1 2 3 4 5 6 
#
# 1 95.3637 35.9647 28.3159 -1.1853 12.2266 22.9392
# 2 35.9647 67.6027 33.2626 0.9743 -1.2169 9.8326
# 3 28.3159 33.2626 132.5517 -5.5032 3.1075 12.7229
# 4 -1.1853 0.9743 -5.5032 15.9390 -5.6907 0.5105
# 5 12.2266 -1.2169 3.1075 -5.6907 30.1226 6.1213
# 6 22.9392 9.8326 12.7229 0.5105 6.1213 36.5105
#
#
#
# Elastic Compliance Matrix: (Units=1/GPa)
#
#
# Indices 1 2 3 4 5 6 
#
# 1 0.015689 -0.007044 -0.000824 -0.000345 -0.005254 -0.006788
# 2 -0.007044 0.020550 -0.003773 -0.001698 0.003842 -0.000414
# 3 -0.000824 -0.003773 0.008964 0.003404 0.000241 -0.001678
# 4 -0.000345 -0.001698 0.003404 0.068933 0.013503 -0.003740
# 5 -0.005254 0.003842 0.000241 0.013503 0.038933 -0.004534
# 6 -0.006788 -0.000414 -0.001678 -0.003740 -0.004534 0.033163
#
#
# Mechanical properties :
#
#
# Convention : Reuss Voigt Hill
#
# Bulk Modulus (GPa) = 45.61586 54.51161 50.06374
# Shear Modulus (GPa) = 23.06064 29.71275 26.38670
#
# Velocity S-wave (km/s) = 3.24432 3.68264 3.47041
# Velocity P-wave (km/s) = 5.90378 6.55464 6.23771
#
# Compressibility (1/GPa) = 0.02192220
#
# Stress axis : x y z
#
# Youngs Moduli (GPa) = 63.73819 48.66216 111.56133
#
# Poissons Ratio (x) = 0.34276 0.09189
# Poissons Ratio (y) = 0.44896 0.42091
# Poissons Ratio (z) = 0.05250 0.18360
#
# Static dielectric constant tensor:
#      x y z
#    x 1.828460 -0.004920 0.008290 
#    y -0.004920 1.810780 0.002870 
#    z 0.008290 0.002870 1.801980 
# 
# From -- ./inp_files/71121.got.cif
#   From: 2010.05.17/outbox.cif.g08.bks.cpg/sg2_36_cif.got.tgz:71121.got - 2010.06.03 11:33:40.
