data_PCOD9061787
_publ_section_title
;
Structure prediction by ZEFSAII (Michael W. Deem and Ramdas Pophale) SiO2 
 PCOD9061787
Probable space group: P -1
;
_chemical_formula_sum "Si O2"
_cell_formula_units_Z 16
_cell_length_a 25.508010
_cell_length_b 23.730266
_cell_length_c 5.221625
_cell_angle_alpha 104.795283
_cell_angle_beta 103.403985
_cell_angle_gamma 11.284525
_cell_volume 595.084468
_symmetry_space_group_name_H-M "P -1"
_symmetry_group_IT_number 2
_symmetry_cell_setting 'triclinic'
loop_
_space_group_symop_operation_xyz
x,y,z
-x,-y,-z
loop_
_atom_site_type_symbol
_atom_site_label
_atom_site_fract_x
_atom_site_fract_y
_atom_site_fract_z
Si Si1 0.849460 0.521659 0.689032
Si Si2 0.357179 0.004856 0.952079
Si Si3 0.070922 0.858847 0.340688
Si Si4 0.542960 0.616112 0.474812
Si Si5 0.923742 0.827277 0.628511
Si Si6 0.256771 0.503146 0.101293
Si Si7 0.416012 0.654434 0.010763
Si Si8 0.259744 0.235604 0.323285
O O1 0.552453 0.808914 0.700079
O O2 0.009215 0.312525 0.424139
O O3 0.808938 0.633999 0.763227
O O4 0.064908 0.288875 0.894232
O O5 0.544682 0.761352 0.031189
O O6 0.330836 0.098421 0.126659
O O7 0.163519 0.724641 0.540997
O O8 0.334697 0.583876 0.142717
O O9 0.000000 0.000000 0.500000
O O10 0.834621 0.082817 0.161039
O O11 0.553012 0.644455 0.777629
O O12 0.389486 0.721643 0.314192
O O13 0.389765 0.825898 0.364764
O O14 0.077742 0.681961 0.366819
O O15 0.058281 0.719144 0.888806
O O16 0.500000 0.500000 0.000000
O O17 0.000000 0.500000 0.500000
O O18 0.500000 0.000000 0.500000
#
# Coordination Sequence:
#
# PCOD9061787 Si02
#       8
#     2   2   2   2   2   2   2   2
#     4  11  23  46  70 104 148 202 258 320 388 463
#     4  11  23  46  70 104 148 202 258 320 388 463
#     4  12  28  49  79 114 156 201 257 318 393 462
#     4  12  28  46  78 109 158 202 266 312 396 463
#     4  11  27  49  75 111 157 209 261 322 389 466
#     4  11  27  49  75 111 157 209 261 322 389 466
#     4  12  28  49  79 114 156 201 257 318 393 462
#     4  12  24  40  68 110 144 200 257 325 390 459
#
# _framework density 26.886942000000001
#
# number of rings (size 3 to 8) (size 9 to 14) (size 15 to 20)
#    0.000    0.500    2.500    4.500    7.000    2.000 
#    0.000    0.000    0.000    0.000    0.000    0.000 
#    0.000    0.000    0.000    0.000    0.000    0.000 
#
# Total GULP energy -89415.073208 kJ/mol
# GULP energy per Si atom -5588.442075 kJ/mol
# Density = 2.682575 g / cm^3
# Si number density = 26.886942 Si / 1000 Ang^3
#
#
#
# Elastic Constant Matrix: (Units=GPa)
#
#
# Indices 1 2 3 4 5 6 
#
# 1 98.8802 61.9734 62.3964 13.7455 26.3824 24.2893
# 2 61.9734 198.3024 85.6069 -40.0196 10.7557 2.8939
# 3 62.3964 85.6069 176.2639 -42.1212 31.8001 1.4550
# 4 13.7455 -40.0196 -42.1212 54.8764 -1.8749 7.2007
# 5 26.3824 10.7557 31.8001 -1.8749 59.5165 17.4716
# 6 24.2893 2.8939 1.4550 7.2007 17.4716 66.6798
#
#
#
# Elastic Compliance Matrix: (Units=1/GPa)
#
#
# Indices 1 2 3 4 5 6 
#
# 1 0.025342 -0.007403 -0.008893 -0.017959 -0.004031 -0.005720
# 2 -0.007403 0.008944 -0.000058 0.008260 0.001669 0.000981
# 3 -0.008893 -0.000058 0.011952 0.010928 -0.002836 0.002544
# 4 -0.017959 0.008260 0.010928 0.036967 0.001322 0.001606
# 5 -0.004031 0.001669 -0.002836 0.001322 0.021080 -0.004208
# 6 -0.005720 0.000981 0.002544 0.001606 -0.004208 0.017912
#
#
# Mechanical properties :
#
#
# Convention : Reuss Voigt Hill
#
# Bulk Modulus (GPa) = 73.91505 99.26666 86.59085
# Shear Modulus (GPa) = 31.36487 53.77918 42.57203
#
# Velocity S-wave (km/s) = 3.41918 4.47721 3.98348
# Velocity P-wave (km/s) = 6.56799 7.98294 7.30978
#
# Compressibility (1/GPa) = 0.01352905
#
# Stress axis : x y z
#
# Youngs Moduli (GPa) = 39.46044 111.80884 83.67098
#
# Poissons Ratio (x) = 0.82774 0.74405
# Poissons Ratio (y) = 0.29213 0.00488
# Poissons Ratio (z) = 0.35091 0.00652
#
# Static dielectric constant tensor:
#      x y z
#    x 2.264410 0.056220 -0.051540 
#    y 0.056220 2.069830 0.091260 
#    z -0.051540 0.091260 2.166230 
# 
# From -- ./inp_files/128897.got.cif
#   From: 2010.05.17/outbox.cif.g08.bks.cpg/sg2_65_cif.got.tgz:128897.got - 2010.06.03 11:33:40.
