data_PCOD9061917
_publ_section_title
;
Structure prediction by ZEFSAII (Michael W. Deem and Ramdas Pophale) SiO2 
 PCOD9061917
Probable space group: P -1
;
_chemical_formula_sum "Si O2"
_cell_formula_units_Z 14
_cell_length_a 8.170525
_cell_length_b 11.967651
_cell_length_c 8.811702
_cell_angle_alpha 111.616578
_cell_angle_beta 69.517643
_cell_angle_gamma 60.927794
_cell_volume 531.461324
_symmetry_space_group_name_H-M "P -1"
_symmetry_group_IT_number 2
_symmetry_cell_setting 'triclinic'
loop_
_space_group_symop_operation_xyz
x,y,z
-x,-y,-z
loop_
_atom_site_type_symbol
_atom_site_label
_atom_site_fract_x
_atom_site_fract_y
_atom_site_fract_z
Si Si1 0.651174 0.451255 0.600254
Si Si2 0.187388 0.999958 0.860780
Si Si3 0.032582 0.649903 0.829063
Si Si4 0.940308 0.728850 0.410823
Si Si5 0.299228 0.449554 0.904103
Si Si6 0.342633 0.268711 0.254474
Si Si7 0.747141 0.066765 0.542464
O O1 0.735416 0.412782 0.376891
O O2 0.461354 0.472085 0.776228
O O3 0.614727 0.611075 0.720891
O O4 0.908855 0.282651 0.507504
O O5 0.399286 0.914624 0.875646
O O6 0.265094 0.912114 0.626534
O O7 0.066892 0.187173 0.967184
O O8 0.000000 0.000000 0.000000
O O9 0.112724 0.513118 0.857808
O O10 0.820384 0.704956 0.814179
O O11 0.809126 0.683326 0.517621
O O12 0.759861 0.917746 0.498165
O O13 0.146684 0.584832 0.154836
O O14 0.498680 0.250031 0.778813
O O15 0.000000 0.000000 0.500000
#
# Coordination Sequence:
#
# PCOD9061917 Si02
#       7
#     2   2   2   2   2   2   2
#     4  11  23  47  75 108 151 204 263 310 373 464
#     4  12  26  48  77 113 153 202 261 315 384 466
#     4  11  23  46  73 112 153 202 256 317 385 452
#     4  11  25  49  73 111 158 198 256 316 392 445
#     4  12  24  47  82 110 152 205 261 320 380 453
#     4  11  27  50  76 111 158 203 256 321 384 468
#     4  12  27  48  76 117 154 200 261 324 378 458
#
# _framework density 26.342462999999999
#
# number of rings (size 3 to 8) (size 9 to 14) (size 15 to 20)
#    0.000    0.571    2.857    5.571    2.000    0.571 
#    5.143    3.571    0.000    0.000    0.000    0.000 
#    0.000    0.000    0.000    0.000    0.000    0.000 
#
# Total GULP energy -78393.888821 kJ/mol
# GULP energy per Si atom -5599.563487 kJ/mol
# Density = 2.628251 g / cm^3
# Si number density = 26.342463 Si / 1000 Ang^3
#
#
#
# Elastic Constant Matrix: (Units=GPa)
#
#
# Indices 1 2 3 4 5 6 
#
# 1 38.5721 19.6034 26.8481 -3.4878 -7.1654 5.7897
# 2 19.6034 160.5430 55.7296 3.0957 -13.8821 2.6636
# 3 26.8481 55.7296 131.4151 2.0077 -5.4819 10.6725
# 4 -3.4878 3.0957 2.0077 56.5809 4.6361 -8.1516
# 5 -7.1654 -13.8821 -5.4819 4.6361 28.9374 8.4348
# 6 5.7897 2.6636 10.6725 -8.1516 8.4348 46.3152
#
#
#
# Elastic Compliance Matrix: (Units=1/GPa)
#
#
# Indices 1 2 3 4 5 6 
#
# 1 0.032454 -0.001405 -0.005435 0.001119 0.007276 -0.003852
# 2 -0.001405 0.007648 -0.002798 -0.000691 0.002985 -0.000285
# 3 -0.005435 -0.002798 0.010036 -0.000746 -0.000211 -0.001565
# 4 0.001119 -0.000691 -0.000746 0.018772 -0.004422 0.004181
# 5 0.007276 0.002985 -0.000211 -0.004422 0.041173 -0.009309
# 6 -0.003852 -0.000285 -0.001565 0.004181 -0.009309 0.024881
#
#
# Mechanical properties :
#
#
# Convention : Reuss Voigt Hill
#
# Bulk Modulus (GPa) = 32.40277 59.43248 45.91763
# Shear Modulus (GPa) = 30.39025 41.58996 35.99010
#
# Velocity S-wave (km/s) = 3.40024 3.97775 3.70028
# Velocity P-wave (km/s) = 5.26715 6.61113 5.97703
#
# Compressibility (1/GPa) = 0.03086156
#
# Stress axis : x y z
#
# Youngs Moduli (GPa) = 30.81324 130.75623 99.63895
#
# Poissons Ratio (x) = 0.18365 0.54158
# Poissons Ratio (y) = 0.04328 0.27880
# Poissons Ratio (z) = 0.16748 0.36587
#
# Static dielectric constant tensor:
#      x y z
#    x 2.198780 -0.070130 -0.040900 
#    y -0.070130 2.081800 0.017400 
#    z -0.040900 0.017400 2.011320 
# 
# From -- ./inp_files/159838.got.cif
#   From: 2010.05.17/outbox.cif.g08.bks.cpg/sg2_80_cif.got.tgz:159838.got - 2010.06.03 11:33:40.
