data_PCOD9061262
_publ_section_title
;
Structure prediction by ZEFSAII (Michael W. Deem and Ramdas Pophale) SiO2 
 PCOD9061262
Probable space group: P -1
;
_chemical_formula_sum "Si O2"
_cell_formula_units_Z 14
_cell_length_a 12.835786
_cell_length_b 9.243179
_cell_length_c 8.952723
_cell_angle_alpha 126.808207
_cell_angle_beta 115.641998
_cell_angle_gamma 47.254360
_cell_volume 623.919947
_symmetry_space_group_name_H-M "P -1"
_symmetry_group_IT_number 2
_symmetry_cell_setting 'triclinic'
loop_
_space_group_symop_operation_xyz
x,y,z
-x,-y,-z
loop_
_atom_site_type_symbol
_atom_site_label
_atom_site_fract_x
_atom_site_fract_y
_atom_site_fract_z
Si Si1 0.804162 0.679554 0.748403
Si Si2 0.361882 0.747200 0.558642
Si Si3 0.453961 0.219718 0.525490
Si Si4 0.651971 0.485524 0.078639
Si Si5 0.377567 0.828406 0.958394
Si Si6 0.091882 0.777748 0.320806
Si Si7 0.031070 0.772918 0.940743
O O1 0.703541 0.664196 0.563173
O O2 0.882923 0.446463 0.739185
O O3 0.921478 0.716832 0.789482
O O4 0.686761 0.913422 0.901934
O O5 0.500000 0.500000 0.500000
O O6 0.424015 0.853810 0.565535
O O7 0.328638 0.817185 0.754564
O O8 0.242119 0.746617 0.395440
O O9 0.433160 0.385869 0.743815
O O10 0.500000 0.000000 0.500000
O O11 0.679743 0.248597 0.989828
O O12 0.547613 0.649458 0.982812
O O13 0.807038 0.428074 0.122191
O O14 0.025198 0.806474 0.135907
O O15 0.000000 0.000000 0.500000
O O16 0.000000 0.000000 0.000000
#
# Coordination Sequence:
#
# PCOD9061262 Si02
#       7
#     2   2   2   2   2   2   2
#     4  12  26  48  74 106 147 188 250 298 355 438
#     4  12  24  47  77 103 144 193 240 294 368 423
#     4  12  27  45  72 113 144 183 243 307 356 428
#     4  11  24  44  73 108 148 188 238 303 364 424
#     4  11  23  44  77 107 144 188 243 304 355 432
#     4  12  29  51  74 104 149 193 243 301 362 439
#     4  12  28  47  74 106 146 198 239 294 372 431
#
# _framework density 22.438777000000002
#
# number of rings (size 3 to 8) (size 9 to 14) (size 15 to 20)
#    0.000    0.286    5.714    2.143    6.000    3.429 
#    0.000    0.000    0.000    0.000    0.000    0.000 
#    0.000    0.000    0.000    0.000    0.000    0.000 
#
# Total GULP energy -78128.115178 kJ/mol
# GULP energy per Si atom -5580.579656 kJ/mol
# Density = 2.238770 g / cm^3
# Si number density = 22.438777 Si / 1000 Ang^3
#
#
#
# Elastic Constant Matrix: (Units=GPa)
#
#
# Indices 1 2 3 4 5 6 
#
# 1 123.3791 26.3715 -7.7792 1.3542 20.6483 -2.9099
# 2 26.3715 108.7103 -7.7994 26.0605 -3.3720 31.3615
# 3 -7.7792 -7.7994 54.4305 11.8329 0.4251 9.2311
# 4 1.3542 26.0605 11.8329 27.5574 -2.8151 -1.6867
# 5 20.6483 -3.3720 0.4251 -2.8151 31.7622 0.4043
# 6 -2.9099 31.3615 9.2311 -1.6867 0.4043 50.1214
#
#
#
# Elastic Compliance Matrix: (Units=1/GPa)
#
#
# Indices 1 2 3 4 5 6 
#
# 1 0.010299 -0.004825 -0.000675 0.003881 -0.006905 0.003927
# 2 -0.004825 0.022849 0.011421 -0.027022 0.003238 -0.017616
# 3 -0.000675 0.011421 0.027181 -0.023295 -0.000612 -0.012971
# 4 0.003881 -0.027022 -0.023295 0.073229 0.001106 0.023879
# 5 -0.006905 0.003238 -0.000612 0.001106 0.036455 -0.002571
# 6 0.003927 -0.017616 -0.012971 0.023879 -0.002571 0.034415
#
#
# Mechanical properties :
#
#
# Convention : Reuss Voigt Hill
#
# Bulk Modulus (GPa) = 13.85587 34.23399 24.04493
# Shear Modulus (GPa) = 23.07952 40.26999 31.67475
#
# Velocity S-wave (km/s) = 3.21059 4.24094 3.76121
# Velocity P-wave (km/s) = 4.46455 6.26662 5.44071
#
# Compressibility (1/GPa) = 0.07217155
#
# Stress axis : x y z
#
# Youngs Moduli (GPa) = 97.09406 43.76616 36.79067
#
# Poissons Ratio (x) = 0.21115 0.02484
# Poissons Ratio (y) = 0.46843 -0.42019
# Poissons Ratio (z) = 0.06556 -0.49986
#
# Static dielectric constant tensor:
#      x y z
#    x 1.830040 -0.009830 -0.003530 
#    y -0.009830 1.870810 0.016570 
#    z -0.003530 0.016570 1.924360 
# 
# From -- ./inp_files/156809.got.cif
#   From: 2010.05.17/outbox.cif.g08.bks.cpg/sg2_79_cif.got.tgz:156809.got - 2010.06.03 11:33:40.
