data_PCOD9061957
_publ_section_title
;
Structure prediction by ZEFSAII (Michael W. Deem and Ramdas Pophale) SiO2 
 PCOD9061957
Probable space group: P -1
;
_chemical_formula_sum "Si O2"
_cell_formula_units_Z 16
_cell_length_a 11.745164
_cell_length_b 9.774380
_cell_length_c 8.359232
_cell_angle_alpha 104.837141
_cell_angle_beta 73.174586
_cell_angle_gamma 131.129083
_cell_volume 689.018968
_symmetry_space_group_name_H-M "P -1"
_symmetry_group_IT_number 2
_symmetry_cell_setting 'triclinic'
loop_
_space_group_symop_operation_xyz
x,y,z
-x,-y,-z
loop_
_atom_site_type_symbol
_atom_site_label
_atom_site_fract_x
_atom_site_fract_y
_atom_site_fract_z
Si Si1 0.827980 0.739588 0.764081
Si Si2 0.030946 0.619996 0.174311
Si Si3 0.420186 0.783402 0.802046
Si Si4 0.715880 0.383388 0.849035
Si Si5 0.429170 0.051183 0.677899
Si Si6 0.254838 0.430880 0.601101
Si Si7 0.760172 0.979127 0.780313
Si Si8 0.178469 0.063539 0.622641
O O1 0.786961 0.592113 0.865999
O O2 0.759784 0.623861 0.592740
O O3 0.745797 0.828165 0.846327
O O4 0.008167 0.907557 0.714048
O O5 0.148322 0.626299 0.244953
O O6 0.879170 0.557658 0.304013
O O7 0.115864 0.823611 0.140972
O O8 0.000000 0.500000 0.000000
O O9 0.403682 0.633525 0.648584
O O10 0.599345 0.934993 0.810619
O O11 0.363531 0.887706 0.781995
O O12 0.335471 0.682223 0.968761
O O13 0.568617 0.242932 0.757326
O O14 0.301323 0.058028 0.660698
O O15 0.500000 0.000000 0.500000
O O16 0.227152 0.265569 0.662113
O O17 0.820289 0.979492 0.579068
#
# Coordination Sequence:
#
# PCOD9061957 Si02
#       8
#     2   2   2   2   2   2   2   2
#     4  11  25  45  73 104 140 181 238 290 341 417
#     4  12  23  45  71 100 140 185 236 283 351 415
#     4  12  26  46  69 100 148 186 225 288 355 419
#     4  12  28  44  65 106 142 188 230 281 355 416
#     4  12  25  46  70 105 139 183 237 287 347 415
#     4  11  24  45  75 104 137 187 235 288 351 404
#     4  11  23  47  74 100 140 185 232 293 350 405
#     4  11  23  46  75 106 138 176 241 295 341 408
#
# _framework density 23.221422
#
# number of rings (size 3 to 8) (size 9 to 14) (size 15 to 20)
#    0.000    0.500    6.250    1.875    3.500    2.000 
#    0.000    1.250    0.000    0.000    0.000    0.000 
#    0.000    0.000    0.000    0.000    0.000    0.000 
#
# Total GULP energy -89637.904787 kJ/mol
# GULP energy per Si atom -5602.369049 kJ/mol
# Density = 2.316857 g / cm^3
# Si number density = 23.221422 Si / 1000 Ang^3
#
#
#
# Elastic Constant Matrix: (Units=GPa)
#
#
# Indices 1 2 3 4 5 6 
#
# 1 105.0699 24.9793 11.8933 -0.8595 18.8176 -17.9483
# 2 24.9793 131.0760 19.6999 -0.4734 17.6671 -20.1281
# 3 11.8933 19.6999 35.0260 1.2312 7.2451 -2.1171
# 4 -0.8595 -0.4734 1.2312 42.3486 -4.8653 4.5102
# 5 18.8176 17.6671 7.2451 -4.8653 17.7776 0.7298
# 6 -17.9483 -20.1281 -2.1171 4.5102 0.7298 38.5716
#
#
#
# Elastic Compliance Matrix: (Units=1/GPa)
#
#
# Indices 1 2 3 4 5 6 
#
# 1 0.013432 0.000800 -0.001322 -0.002207 -0.015371 0.007144
# 2 0.000800 0.010303 -0.003515 -0.001586 -0.010331 0.005937
# 3 -0.001322 -0.003515 0.032910 -0.002040 -0.009068 -0.000233
# 4 -0.002207 -0.001586 -0.002040 0.025534 0.011944 -0.005178
# 5 -0.015371 -0.010331 -0.009068 0.011944 0.090415 -0.016149
# 6 0.007144 0.005937 -0.000233 -0.005178 -0.016149 0.033246
#
#
# Mechanical properties :
#
#
# Convention : Reuss Voigt Hill
#
# Bulk Modulus (GPa) = 20.58848 42.70190 31.64519
# Shear Modulus (GPa) = 21.72918 34.04618 27.88768
#
# Velocity S-wave (km/s) = 3.06230 3.83319 3.46923
# Velocity P-wave (km/s) = 4.62483 6.16604 5.45019
#
# Compressibility (1/GPa) = 0.04857085
#
# Stress axis : x y z
#
# Youngs Moduli (GPa) = 74.44792 97.05494 30.38635
#
# Poissons Ratio (x) = -0.07762 0.04017
# Poissons Ratio (y) = -0.05954 0.10681
# Poissons Ratio (z) = 0.09841 0.34115
#
# Static dielectric constant tensor:
#      x y z
#    x 1.873620 0.015100 0.011390 
#    y 0.015100 1.872090 -0.002500 
#    z 0.011390 -0.002500 1.894960 
# 
# From -- ./inp_files/184217.got.cif
#   From: 2010.05.17/outbox.cif.g08.bks.cpg/sg2_93_cif.got.tgz:184217.got - 2010.06.03 11:33:40.
