data_PCOD9061803
_publ_section_title
;
Structure prediction by ZEFSAII (Michael W. Deem and Ramdas Pophale) SiO2 
 PCOD9061803
Probable space group: P -1
;
_chemical_formula_sum "Si O2"
_cell_formula_units_Z 14
_cell_length_a 8.252264
_cell_length_b 8.698463
_cell_length_c 9.823938
_cell_angle_alpha 116.284893
_cell_angle_beta 107.655576
_cell_angle_gamma 75.794975
_cell_volume 597.372615
_symmetry_space_group_name_H-M "P -1"
_symmetry_group_IT_number 2
_symmetry_cell_setting 'triclinic'
loop_
_space_group_symop_operation_xyz
x,y,z
-x,-y,-z
loop_
_atom_site_type_symbol
_atom_site_label
_atom_site_fract_x
_atom_site_fract_y
_atom_site_fract_z
Si Si1 0.783385 0.500949 0.230277
Si Si2 0.777702 0.862348 0.510862
Si Si3 0.034791 0.872322 0.827366
Si Si4 0.480787 0.419066 0.317208
Si Si5 0.343079 0.055737 0.885458
Si Si6 0.798646 0.559582 0.955521
Si Si7 0.440837 0.907251 0.611672
O O1 0.837139 0.684293 0.372962
O O2 0.926992 0.331926 0.207478
O O3 0.629859 0.458583 0.270444
O O4 0.724560 0.509002 0.061807
O O5 0.585840 0.853179 0.517294
O O6 0.886710 0.887195 0.682396
O O7 0.743917 0.044548 0.489776
O O8 0.200041 0.927944 0.814542
O O9 0.000000 0.000000 0.000000
O O10 0.500000 0.500000 0.500000
O O11 0.303618 0.489048 0.223109
O O12 0.512699 0.222140 0.301344
O O13 0.424383 0.082058 0.766932
O O14 0.240320 0.234849 0.977306
O O15 0.500000 0.000000 0.000000
O O16 0.000000 0.500000 0.000000
#
# Coordination Sequence:
#
# PCOD9061803 Si02
#       7
#     2   2   2   2   2   2   2
#     4  12  25  48  72 110 143 195 240 306 362 444
#     4  11  26  45  73 106 144 186 245 304 366 435
#     4  12  27  44  70 106 144 188 239 303 366 432
#     4  12  26  46  77 106 143 193 247 301 368 445
#     4  12  23  46  73  98 138 193 238 290 364 438
#     4  12  28  47  71 109 150 192 242 309 367 433
#     4  11  23  46  71 100 139 192 238 296 365 438
#
# _framework density 23.435959
#
# number of rings (size 3 to 8) (size 9 to 14) (size 15 to 20)
#    0.000    0.286    5.714    2.571    2.000    4.000 
#    0.000    0.000    0.000    0.000    0.000    0.000 
#    0.000    0.000    0.000    0.000    0.000    0.000 
#
# Total GULP energy -78001.829889 kJ/mol
# GULP energy per Si atom -5571.559278 kJ/mol
# Density = 2.338262 g / cm^3
# Si number density = 23.435959 Si / 1000 Ang^3
#
#
#
# Elastic Constant Matrix: (Units=GPa)
#
#
# Indices 1 2 3 4 5 6 
#
# 1 68.2434 39.5305 46.1491 -10.4384 -8.3035 -23.9001
# 2 39.5305 116.2179 72.9525 -22.2140 18.9553 -35.5371
# 3 46.1491 72.9525 196.0121 -23.7910 2.8121 -30.7210
# 4 -10.4384 -22.2140 -23.7910 50.5868 -11.2779 -4.5297
# 5 -8.3035 18.9553 2.8121 -11.2779 42.9161 -11.5068
# 6 -23.9001 -35.5371 -30.7210 -4.5297 -11.5068 43.7595
#
#
#
# Elastic Compliance Matrix: (Units=1/GPa)
#
#
# Indices 1 2 3 4 5 6 
#
# 1 0.025280 -0.004319 -0.001722 0.006351 0.012043 0.012915
# 2 -0.004319 0.015933 -0.003124 0.004323 -0.004479 0.007657
# 3 -0.001722 -0.003124 0.007295 0.002319 0.001811 0.002360
# 4 0.006351 0.004323 0.002319 0.027613 0.010219 0.014153
# 5 0.012043 -0.004479 0.001811 0.010219 0.033986 0.014206
# 6 0.012915 0.007657 0.002360 0.014153 0.014206 0.042981
#
#
# Mechanical properties :
#
#
# Convention : Reuss Voigt Hill
#
# Bulk Modulus (GPa) = 33.13715 77.52641 55.33178
# Shear Modulus (GPa) = 27.55174 42.24188 34.89681
#
# Velocity S-wave (km/s) = 3.43245 4.25012 3.86298
# Velocity P-wave (km/s) = 5.46618 7.56549 6.59984
#
# Compressibility (1/GPa) = 0.03017761
#
# Stress axis : x y z
#
# Youngs Moduli (GPa) = 39.55736 62.76414 137.07476
#
# Poissons Ratio (x) = 0.27106 0.23607
# Poissons Ratio (y) = 0.17084 0.42823
# Poissons Ratio (z) = 0.06813 0.19608
#
# Static dielectric constant tensor:
#      x y z
#    x 1.896800 0.041440 -0.102170 
#    y 0.041440 2.203550 0.291370 
#    z -0.102170 0.291370 2.319230 
# 
# From -- ./inp_files/159905.got.cif
#   From: 2010.05.17/outbox.cif.g08.bks.cpg/sg2_80_cif.got.tgz:159905.got - 2010.06.03 11:33:40.
