data_PCOD9061118
_publ_section_title
;
Structure prediction by ZEFSAII (Michael W. Deem and Ramdas Pophale) SiO2 
 PCOD9061118
Probable space group: P -1
;
_chemical_formula_sum "Si O2"
_cell_formula_units_Z 12
_cell_length_a 8.969727
_cell_length_b 8.754614
_cell_length_c 9.678499
_cell_angle_alpha 110.375223
_cell_angle_beta 117.776316
_cell_angle_gamma 113.465446
_cell_volume 464.686277
_symmetry_space_group_name_H-M "P -1"
_symmetry_group_IT_number 2
_symmetry_cell_setting 'triclinic'
loop_
_space_group_symop_operation_xyz
x,y,z
-x,-y,-z
loop_
_atom_site_type_symbol
_atom_site_label
_atom_site_fract_x
_atom_site_fract_y
_atom_site_fract_z
Si Si1 0.032592 0.332706 0.938205
Si Si2 0.138302 0.932027 0.483287
Si Si3 0.645995 0.842496 0.622861
Si Si4 0.447000 0.403579 0.102493
Si Si5 0.768632 0.557331 0.541748
Si Si6 0.730848 0.068581 0.166502
O O1 0.012691 0.277026 0.748620
O O2 0.738276 0.719351 0.641827
O O3 0.825035 0.091099 0.838193
O O4 0.000000 0.500000 0.000000
O O5 0.240973 0.911114 0.650825
O O6 0.336622 0.113030 0.519255
O O7 0.000000 0.000000 0.500000
O O8 0.721580 0.578661 0.890109
O O9 0.396693 0.676537 0.527125
O O10 0.667114 0.509315 0.326574
O O11 0.500000 0.500000 0.000000
O O12 0.297260 0.140485 0.948153
O O13 0.035717 0.697495 0.710959
O O14 0.500000 0.000000 0.000000
#
# Coordination Sequence:
#
# PCOD9061118 Si02
#       6
#     2   2   2   2   2   2
#     4  10  22  46  84 128 165 219 287 343 425 513
#     4  10  17  44  84 118 166 223 287 334 413 520
#     4   9  21  43  81 116 162 218 274 344 429 488
#     4  12  25  46  84 120 162 231 285 340 430 515
#     4  11  22  45  79 120 166 211 278 366 416 498
#     4  12  25  49  84 125 163 221 293 357 417 500
#
# _framework density 25.823874
#
# number of rings (size 3 to 8) (size 9 to 14) (size 15 to 20)
#    1.000    0.333    5.000    2.000    0.000    1.333 
#    3.000    5.000    3.667    0.000    0.000    0.000 
#    0.000    0.000    0.000    0.000    0.000    0.000 
#
# Total GULP energy -67233.261826 kJ/mol
# GULP energy per Si atom -5602.771819 kJ/mol
# Density = 2.576510 g / cm^3
# Si number density = 25.823874 Si / 1000 Ang^3
#
#
#
# Elastic Constant Matrix: (Units=GPa)
#
#
# Indices 1 2 3 4 5 6 
#
# 1 125.3991 67.5228 65.9250 11.3328 9.8365 -5.7553
# 2 67.5228 113.3312 46.6816 36.6186 18.8835 34.7852
# 3 65.9250 46.6816 174.4729 14.1897 22.6050 21.6776
# 4 11.3328 36.6186 14.1897 58.2783 8.0792 -5.1496
# 5 9.8365 18.8835 22.6050 8.0792 56.6971 16.2316
# 6 -5.7553 34.7852 21.6776 -5.1496 16.2316 45.2559
#
#
#
# Elastic Compliance Matrix: (Units=1/GPa)
#
#
# Indices 1 2 3 4 5 6 
#
# 1 0.027201 -0.027801 -0.007706 0.017435 -0.004017 0.031944
# 2 -0.027801 0.046312 0.005765 -0.029922 0.004828 -0.047030
# 3 -0.007706 0.005765 0.008827 -0.005090 -0.000503 -0.010038
# 4 0.017435 -0.029922 -0.005090 0.037684 -0.006178 0.034158
# 5 -0.004017 0.004828 -0.000503 -0.006178 0.021340 -0.012337
# 6 0.031944 -0.047030 -0.010038 0.034158 -0.012337 0.075428
#
#
# Mechanical properties :
#
#
# Convention : Reuss Voigt Hill
#
# Bulk Modulus (GPa) = 43.75251 85.94022 64.84637
# Shear Modulus (GPa) = 17.61223 47.58452 32.59837
#
# Velocity S-wave (km/s) = 2.61437 4.29727 3.55679
# Velocity P-wave (km/s) = 5.10810 7.61405 6.48330
#
# Compressibility (1/GPa) = 0.02285583
#
# Stress axis : x y z
#
# Youngs Moduli (GPa) = 36.76332 21.59288 113.28562
#
# Poissons Ratio (x) = 0.60030 0.87298
# Poissons Ratio (y) = 1.02205 -0.65307
# Poissons Ratio (z) = 0.28330 -0.12448
#
# Static dielectric constant tensor:
#      x y z
#    x 2.062540 0.026790 -0.014280 
#    y 0.026790 2.052200 0.019200 
#    z -0.014280 0.019200 2.069940 
# 
# From -- ./inp_files/419507.got.cif
#   From: 2010.05.17/outbox.cif.g08.bks.cpg/sg2_210_cif.got.tgz:419507.got - 2010.06.03 11:33:40.
