data_PCOD9061596
_publ_section_title
;
Structure prediction by ZEFSAII (Michael W. Deem and Ramdas Pophale) SiO2 
 PCOD9061596
Probable space group: P -1
;
_chemical_formula_sum "Si O2"
_cell_formula_units_Z 13
_cell_length_a 9.512447
_cell_length_b 15.618945
_cell_length_c 7.880284
_cell_angle_alpha 116.991490
_cell_angle_beta 87.549087
_cell_angle_gamma 142.713531
_cell_volume 510.426597
_symmetry_space_group_name_H-M "P -1"
_symmetry_group_IT_number 2
_symmetry_cell_setting 'triclinic'
loop_
_space_group_symop_operation_xyz
x,y,z
-x,-y,-z
loop_
_atom_site_type_symbol
_atom_site_label
_atom_site_fract_x
_atom_site_fract_y
_atom_site_fract_z
Si Si1 0.592720 0.250260 0.411177
Si Si2 0.459463 0.322438 0.942666
Si Si3 0.276972 0.413773 0.132633
Si Si4 0.085559 0.087435 0.262322
Si Si5 0.184080 0.614215 0.853780
Si Si6 0.646784 0.081424 0.749142
Si Si7 0.500000 0.500000 0.500000
O O1 0.308277 0.140294 0.364257
O O2 0.691983 0.332214 0.290331
O O3 0.845524 0.427263 0.686321
O O4 0.534972 0.102714 0.298589
O O5 0.501623 0.399981 0.832584
O O6 0.399302 0.376794 0.123317
O O7 0.740864 0.432397 0.078481
O O8 0.198081 0.093038 0.771117
O O9 0.271795 0.437875 0.350980
O O10 0.975078 0.237072 0.892828
O O11 0.230992 0.276997 0.400177
O O12 0.000000 0.000000 0.000000
O O13 0.332143 0.798418 0.076331
O O14 0.500000 0.000000 0.500000
#
# Coordination Sequence:
#
# PCOD9061596 Si02
#       7
#     2   2   2   2   2   2   1
#     4  11  23  45  74 103 147 197 239 309 364 446
#     4  11  24  48  71 105 148 185 239 309 356 444
#     4  11  25  47  74 106 147 190 248 299 371 436
#     4  12  22  45  73 105 147 187 240 299 375 432
#     4  11  25  45  72 107 145 191 253 298 370 433
#     4  12  26  47  72 105 149 198 244 301 370 443
#     4  12  24  42  74 106 136 192 242 298 356 442
#
# _framework density 25.468893000000001
#
# number of rings (size 3 to 8) (size 9 to 14) (size 15 to 20)
#    0.000    0.615    4.615    2.308    0.000    5.538 
#   13.846    0.000    0.000    0.000    0.000    0.000 
#    0.000    0.000    0.000    0.000    0.000    0.000 
#
# Total GULP energy -72620.997860 kJ/mol
# GULP energy per Si atom -5586.230605 kJ/mol
# Density = 2.541092 g / cm^3
# Si number density = 25.468893 Si / 1000 Ang^3
#
#
#
# Elastic Constant Matrix: (Units=GPa)
#
#
# Indices 1 2 3 4 5 6 
#
# 1 111.2740 14.0032 45.7825 -6.4022 5.2961 -25.5784
# 2 14.0032 142.6445 39.0831 7.8898 9.8111 -47.4184
# 3 45.7825 39.0831 144.4641 7.4120 15.8491 -11.7731
# 4 -6.4022 7.8898 7.4120 35.6360 -10.3494 -2.3024
# 5 5.2961 9.8111 15.8491 -10.3494 59.2360 4.1152
# 6 -25.5784 -47.4184 -11.7731 -2.3024 4.1152 47.2080
#
#
#
# Elastic Compliance Matrix: (Units=1/GPa)
#
#
# Indices 1 2 3 4 5 6 
#
# 1 0.012489 0.002610 -0.004054 0.002902 -0.000552 0.008567
# 2 0.002610 0.012100 -0.002656 -0.001602 -0.002714 0.013064
# 3 -0.004054 -0.002656 0.009069 -0.002752 -0.001926 -0.002569
# 4 0.002902 -0.001602 -0.002752 0.031327 0.006197 0.000265
# 5 -0.000552 -0.002714 -0.001926 0.006197 0.019318 -0.004888
# 6 0.008567 0.013064 -0.002569 0.000265 -0.004888 0.038746
#
#
# Mechanical properties :
#
#
# Convention : Reuss Voigt Hill
#
# Bulk Modulus (GPa) = 39.28086 66.23557 52.75821
# Shear Modulus (GPa) = 35.78209 48.38359 42.08284
#
# Velocity S-wave (km/s) = 3.75231 4.36330 4.06929
# Velocity P-wave (km/s) = 5.85061 7.17269 6.54512
#
# Compressibility (1/GPa) = 0.02545769
#
# Stress axis : x y z
#
# Youngs Moduli (GPa) = 80.07019 82.64354 110.26936
#
# Poissons Ratio (x) = -0.21572 0.44706
# Poissons Ratio (y) = -0.20900 0.29289
# Poissons Ratio (z) = 0.32462 0.21951
#
# Static dielectric constant tensor:
#      x y z
#    x 1.847700 -0.153290 0.315100 
#    y -0.153290 1.728440 0.398110 
#    z 0.315100 0.398110 1.302330 
# 
# From -- ./inp_files/208434.got.cif
#   From: 2010.05.17/outbox.cif.g08.bks.cpg/sg2_105_cif.got.tgz:208434.got - 2010.06.03 11:33:40.
