data_PCOD9061699
_publ_section_title
;
Structure prediction by ZEFSAII (Michael W. Deem and Ramdas Pophale) SiO2 
 PCOD9061699
Probable space group: P -1
;
_chemical_formula_sum "Si O2"
_cell_formula_units_Z 14
_cell_length_a 12.172457
_cell_length_b 10.269033
_cell_length_c 5.738431
_cell_angle_alpha 112.396630
_cell_angle_beta 82.049129
_cell_angle_gamma 114.521793
_cell_volume 603.208037
_symmetry_space_group_name_H-M "P -1"
_symmetry_group_IT_number 2
_symmetry_cell_setting 'triclinic'
loop_
_space_group_symop_operation_xyz
x,y,z
-x,-y,-z
loop_
_atom_site_type_symbol
_atom_site_label
_atom_site_fract_x
_atom_site_fract_y
_atom_site_fract_z
Si Si1 0.119876 0.464536 0.432177
Si Si2 0.250540 0.049181 0.167868
Si Si3 0.389581 0.312848 0.988072
Si Si4 0.811067 0.715309 0.354429
Si Si5 0.480461 0.065491 0.301562
Si Si6 0.384057 0.607937 0.334255
Si Si7 0.003346 0.849718 0.014538
O O1 0.171065 0.430141 0.639103
O O2 0.241932 0.575356 0.338280
O O3 0.000000 0.500000 0.500000
O O4 0.068808 0.300791 0.210601
O O5 0.202086 0.168455 0.374398
O O6 0.339443 0.029406 0.314749
O O7 0.144522 0.890323 0.026501
O O8 0.326569 0.142596 0.989931
O O9 0.302940 0.327385 0.816151
O O10 0.523173 0.342717 0.879128
O O11 0.389943 0.441335 0.263721
O O12 0.933873 0.815387 0.253468
O O13 0.555378 0.249967 0.411917
O O14 0.500000 0.000000 0.500000
O O15 0.500000 0.000000 0.000000
O O16 0.000000 0.000000 0.000000
#
# Coordination Sequence:
#
# PCOD9061699 Si02
#       7
#     2   2   2   2   2   2   2
#     4  12  29  47  69 113 156 207 250 316 401 470
#     4  12  25  46  76 110 148 195 263 324 382 470
#     4  11  23  45  80 116 142 192 265 336 392 449
#     4  12  22  45  75 110 145 197 267 313 394 460
#     4  12  30  50  73 113 155 209 257 322 408 476
#     4  11  24  50  76 107 154 193 258 327 390 469
#     4  12  24  46  74 109 151 196 260 320 380 474
#
# _framework density 23.209240999999999
#
# number of rings (size 3 to 8) (size 9 to 14) (size 15 to 20)
#    0.000    0.286    7.143    1.286    2.000    6.286 
#    0.000    0.000    0.000    0.000    0.000    0.000 
#    0.000    0.000    0.000    0.000    0.000    0.000 
#
# Total GULP energy -78182.053078 kJ/mol
# GULP energy per Si atom -5584.432363 kJ/mol
# Density = 2.315642 g / cm^3
# Si number density = 23.209241 Si / 1000 Ang^3
#
#
#
# Elastic Constant Matrix: (Units=GPa)
#
#
# Indices 1 2 3 4 5 6 
#
# 1 168.3864 40.2029 44.8591 -17.0289 13.7739 19.9556
# 2 40.2029 79.0517 42.8150 -4.5547 6.3880 40.5250
# 3 44.8591 42.8150 95.1056 9.4520 -0.5291 -0.2884
# 4 -17.0289 -4.5547 9.4520 51.8622 5.3818 5.9967
# 5 13.7739 6.3880 -0.5291 5.3818 49.0026 0.2128
# 6 19.9556 40.5250 -0.2884 5.9967 0.2128 48.3255
#
#
#
# Elastic Compliance Matrix: (Units=1/GPa)
#
#
# Indices 1 2 3 4 5 6 
#
# 1 0.008343 0.002549 -0.005622 0.005047 -0.003266 -0.006229
# 2 0.002549 0.049723 -0.025358 0.015947 -0.009029 -0.044840
# 3 -0.005622 -0.025358 0.025925 -0.012383 0.006416 0.025249
# 4 0.005047 0.015947 -0.012383 0.027464 -0.006565 -0.018910
# 5 -0.003266 -0.009029 0.006416 -0.006565 0.023250 0.009671
# 6 -0.006229 -0.044840 0.025249 -0.018910 0.009671 0.063322
#
#
# Mechanical properties :
#
#
# Convention : Reuss Voigt Hill
#
# Bulk Modulus (GPa) = 36.85902 66.47753 51.66827
# Shear Modulus (GPa) = 18.94430 44.14915 31.54673
#
# Velocity S-wave (km/s) = 2.86009 4.36618 3.69078
# Velocity P-wave (km/s) = 5.17904 7.35683 6.36182
#
# Compressibility (1/GPa) = 0.02713040
#
# Stress axis : x y z
#
# Youngs Moduli (GPa) = 119.85515 20.11155 38.57288
#
# Poissons Ratio (x) = -0.05127 0.21685
# Poissons Ratio (y) = -0.30555 0.97813
# Poissons Ratio (z) = 0.67379 0.50999
#
# Static dielectric constant tensor:
#      x y z
#    x 1.968480 0.028820 -0.015840 
#    y 0.028820 1.930940 -0.022030 
#    z -0.015840 -0.022030 2.005800 
# 
# From -- ./inp_files/67573.got.cif
#   From: 2010.05.17/outbox.cif.g08.bks.cpg/sg2_34_cif.got.tgz:67573.got - 2010.06.03 11:33:40.
