data_PCOD9061802
_publ_section_title
;
Structure prediction by ZEFSAII (Michael W. Deem and Ramdas Pophale) SiO2 
 PCOD9061802
Probable space group: P -1
;
_chemical_formula_sum "Si O2"
_cell_formula_units_Z 16
_cell_length_a 8.429857
_cell_length_b 9.940878
_cell_length_c 11.098833
_cell_angle_alpha 79.484402
_cell_angle_beta 101.009550
_cell_angle_gamma 125.296076
_cell_volume 742.113705
_symmetry_space_group_name_H-M "P -1"
_symmetry_group_IT_number 2
_symmetry_cell_setting 'triclinic'
loop_
_space_group_symop_operation_xyz
x,y,z
-x,-y,-z
loop_
_atom_site_type_symbol
_atom_site_label
_atom_site_fract_x
_atom_site_fract_y
_atom_site_fract_z
Si Si1 0.923289 0.649207 0.277792
Si Si2 0.724712 0.112544 0.558930
Si Si3 0.955656 0.639330 0.000034
Si Si4 0.173479 0.688892 0.694670
Si Si5 0.332459 0.937106 0.885956
Si Si6 0.202767 0.134760 0.441144
Si Si7 0.762304 0.574361 0.753670
Si Si8 0.356321 0.237011 0.701138
O O1 0.801313 0.453557 0.325109
O O2 0.810245 0.728956 0.298457
O O3 0.146578 0.746786 0.345216
O O4 0.923659 0.649484 0.133525
O O5 0.828301 0.210281 0.434689
O O6 0.500000 0.000000 0.500000
O O7 0.758057 0.972131 0.622988
O O8 0.134918 0.815104 0.950215
O O9 0.778133 0.599640 0.895317
O O10 0.000000 0.500000 0.000000
O O11 0.322868 0.819502 0.795225
O O12 0.958907 0.589136 0.739548
O O13 0.331850 0.084680 0.797007
O O14 0.500000 0.000000 0.000000
O O15 0.220429 0.279927 0.344778
O O16 0.349639 0.204405 0.563189
O O17 0.000000 0.000000 0.500000
O O18 0.565874 0.400913 0.729654
#
# Coordination Sequence:
#
# PCOD9061802 Si02
#       8
#     2   2   2   2   2   2   2   2
#     4  12  27  45  70 107 143 178 240 296 351 414
#     4  12  28  43  72 105 144 181 238 295 356 416
#     4  11  23  46  70  99 140 188 229 284 354 421
#     4  11  24  47  71  99 142 186 234 285 351 425
#     4  11  24  44  75 101 137 192 238 280 348 431
#     4  12  22  47  69 100 141 183 235 294 354 415
#     4  11  24  43  74  97 138 192 231 282 359 424
#     4  12  26  44  73 106 139 186 238 295 350 415
#
# _framework density 21.560037999999999
#
# number of rings (size 3 to 8) (size 9 to 14) (size 15 to 20)
#    0.000    0.500    6.250    2.250    5.250    1.000 
#    0.000    0.000    0.000    0.000    0.000    0.000 
#    0.000    0.000    0.000    0.000    0.000    0.000 
#
# Total GULP energy -89297.383789 kJ/mol
# GULP energy per Si atom -5581.086487 kJ/mol
# Density = 2.151097 g / cm^3
# Si number density = 21.560038 Si / 1000 Ang^3
#
#
#
# Elastic Constant Matrix: (Units=GPa)
#
#
# Indices 1 2 3 4 5 6 
#
# 1 41.5999 42.5737 11.4649 8.1196 13.8150 -3.4435
# 2 42.5737 162.4483 53.6997 5.1100 24.6386 -6.5554
# 3 11.4649 53.6997 139.1853 13.6219 22.3182 4.1986
# 4 8.1196 5.1100 13.6219 53.3320 4.7398 12.7720
# 5 13.8150 24.6386 22.3182 4.7398 34.3077 5.1828
# 6 -3.4435 -6.5554 4.1986 12.7720 5.1828 45.2387
#
#
#
# Elastic Compliance Matrix: (Units=1/GPa)
#
#
# Indices 1 2 3 4 5 6 
#
# 1 0.036922 -0.008573 0.002291 -0.005461 -0.010059 0.004050
# 2 -0.008573 0.009634 -0.002836 0.001054 -0.001907 0.000928
# 3 0.002291 -0.002836 0.009000 -0.001979 -0.004467 -0.000001
# 4 -0.005461 0.001054 -0.001979 0.021409 0.000709 -0.006205
# 5 -0.010059 -0.001907 -0.004467 0.000709 0.038162 -0.005200
# 6 0.004050 0.000928 -0.000001 -0.006205 -0.005200 0.024895
#
#
# Mechanical properties :
#
#
# Convention : Reuss Voigt Hill
#
# Bulk Modulus (GPa) = 26.79455 62.07891 44.43673
# Shear Modulus (GPa) = 29.29156 42.27535 35.78345
#
# Velocity S-wave (km/s) = 3.68992 4.43292 4.07838
# Velocity P-wave (km/s) = 5.53253 7.42004 6.54469
#
# Compressibility (1/GPa) = 0.03732102
#
# Stress axis : x y z
#
# Youngs Moduli (GPa) = 27.08390 103.80347 111.11042
#
# Poissons Ratio (x) = 0.88991 -0.25461
# Poissons Ratio (y) = 0.23219 0.31510
# Poissons Ratio (z) = -0.06206 0.29438
#
# Static dielectric constant tensor:
#      x y z
#    x 1.847460 -0.023790 0.003140 
#    y -0.023790 1.855760 0.088960 
#    z 0.003140 0.088960 1.840320 
# 
# From -- ./inp_files/382393.got.cif
#   From: 2010.05.17/outbox.cif.g08.bks.cpg/sg2_192_cif.got.tgz:382393.got - 2010.06.03 11:33:40.
