data_PCOD9061999
_publ_section_title
;
Structure prediction by ZEFSAII (Michael W. Deem and Ramdas Pophale) SiO2 
 PCOD9061999
Probable space group: P -1
;
_chemical_formula_sum "Si O2"
_cell_formula_units_Z 12
_cell_length_a 5.421805
_cell_length_b 14.144991
_cell_length_c 9.618093
_cell_angle_alpha 47.771181
_cell_angle_beta 60.045229
_cell_angle_gamma 63.096521
_cell_volume 465.304341
_symmetry_space_group_name_H-M "P -1"
_symmetry_group_IT_number 2
_symmetry_cell_setting 'triclinic'
loop_
_space_group_symop_operation_xyz
x,y,z
-x,-y,-z
loop_
_atom_site_type_symbol
_atom_site_label
_atom_site_fract_x
_atom_site_fract_y
_atom_site_fract_z
Si Si1 0.082332 0.016828 0.268519
Si Si2 0.624788 0.868121 0.434207
Si Si3 0.946511 0.567257 0.300189
Si Si4 0.316377 0.254439 0.009683
Si Si5 0.306416 0.389352 0.165806
Si Si6 0.058860 0.830589 0.096917
O O1 0.335553 0.926237 0.371178
O O2 0.077530 0.161770 0.183991
O O3 0.787766 0.958209 0.400446
O O4 0.124891 0.054969 0.056915
O O5 0.570991 0.744285 0.658249
O O6 0.879121 0.820735 0.295455
O O7 0.039966 0.458098 0.266862
O O8 0.114588 0.688277 0.148354
O O9 0.000000 0.500000 0.500000
O O10 0.665335 0.657069 0.221608
O O11 0.612266 0.150146 0.018433
O O12 0.255093 0.348845 0.064071
O O13 0.500000 0.500000 0.000000
#
# Coordination Sequence:
#
# PCOD9061999 Si02
#       6
#     2   2   2   2   2   2
#     4  11  26  48  75 115 151 194 257 308 378 442
#     4  12  27  45  80 110 152 200 252 310 373 449
#     4  11  24  47  74 110 146 198 258 308 373 451
#     4  11  26  46  79 106 159 196 246 318 378 442
#     4  12  27  51  73 112 153 204 249 313 377 453
#     4  11  23  46  77 113 145 198 247 322 367 446
#
# _framework density 25.789574000000002
#
# number of rings (size 3 to 8) (size 9 to 14) (size 15 to 20)
#    0.000    0.667    5.000    1.500    4.667    4.667 
#    0.000    0.000    0.000    0.000    0.000    0.000 
#    0.000    0.000    0.000    0.000    0.000    0.000 
#
# Total GULP energy -66928.280145 kJ/mol
# GULP energy per Si atom -5577.356679 kJ/mol
# Density = 2.573088 g / cm^3
# Si number density = 25.789574 Si / 1000 Ang^3
#
#
#
# Elastic Constant Matrix: (Units=GPa)
#
#
# Indices 1 2 3 4 5 6 
#
# 1 146.0558 65.9646 67.1741 -17.8937 15.9277 -6.0020
# 2 65.9646 132.7960 45.6250 -7.8493 0.6896 20.4986
# 3 67.1741 45.6250 177.4254 -36.0116 32.4851 -1.0347
# 4 -17.8937 -7.8493 -36.0116 58.8590 -1.2699 -2.0457
# 5 15.9277 0.6896 32.4851 -1.2699 46.5658 -9.5324
# 6 -6.0020 20.4986 -1.0347 -2.0457 -9.5324 32.0628
#
#
#
# Elastic Compliance Matrix: (Units=1/GPa)
#
#
# Indices 1 2 3 4 5 6 
#
# 1 0.010731 -0.005268 -0.002229 0.001353 -0.000955 0.005107
# 2 -0.005268 0.011901 -0.001535 -0.001227 0.000934 -0.008445
# 3 -0.002229 -0.001535 0.008713 0.004320 -0.005267 -0.000445
# 4 0.001353 -0.001227 0.004320 0.019883 -0.002572 0.001681
# 5 -0.000955 0.000934 -0.005267 -0.002572 0.026795 0.006856
# 6 0.005107 -0.008445 -0.000445 0.001681 0.006856 0.039675
#
#
# Mechanical properties :
#
#
# Convention : Reuss Voigt Hill
#
# Bulk Modulus (GPa) = 75.29684 90.42274 82.85979
# Shear Modulus (GPa) = 35.66606 45.99842 40.83224
#
# Velocity S-wave (km/s) = 3.72286 4.22786 3.98337
# Velocity P-wave (km/s) = 6.90938 7.67925 7.30447
#
# Compressibility (1/GPa) = 0.01328077
#
# Stress axis : x y z
#
# Youngs Moduli (GPa) = 93.18948 84.02808 114.76868
#
# Poissons Ratio (x) = 0.44267 0.25579
# Poissons Ratio (y) = 0.49093 0.17619
# Poissons Ratio (z) = 0.20770 0.12900
#
# Static dielectric constant tensor:
#      x y z
#    x 2.344460 0.054310 0.044840 
#    y 0.054310 2.084980 0.070280 
#    z 0.044840 0.070280 2.040530 
# 
# From -- ./inp_files/133847.got.cif
#   From: 2010.05.17/outbox.cif.g08.bks.cpg/sg2_67_cif.got.tgz:133847.got - 2010.06.03 11:33:40.
