data_PCOD9061773
_publ_section_title
;
Structure prediction by ZEFSAII (Michael W. Deem and Ramdas Pophale) SiO2 
 PCOD9061773
Probable space group: P -1
;
_chemical_formula_sum "Si O2"
_cell_formula_units_Z 16
_cell_length_a 11.647932
_cell_length_b 8.174195
_cell_length_c 16.242939
_cell_angle_alpha 108.975788
_cell_angle_beta 113.463875
_cell_angle_gamma 126.570950
_cell_volume 735.931448
_symmetry_space_group_name_H-M "P -1"
_symmetry_group_IT_number 2
_symmetry_cell_setting 'triclinic'
loop_
_space_group_symop_operation_xyz
x,y,z
-x,-y,-z
loop_
_atom_site_type_symbol
_atom_site_label
_atom_site_fract_x
_atom_site_fract_y
_atom_site_fract_z
Si Si1 0.343908 0.115200 0.191862
Si Si2 0.843303 0.698059 0.217490
Si Si3 0.525466 0.102531 0.766974
Si Si4 0.667414 0.089304 0.501954
Si Si5 0.884812 0.756851 0.054205
Si Si6 0.196278 0.705840 0.764483
Si Si7 0.658296 0.683219 0.493571
Si Si8 0.359468 0.180060 0.014145
O O1 0.557686 0.443657 0.355218
O O2 0.323302 0.896685 0.183094
O O3 0.358045 0.124765 0.099589
O O4 0.131645 0.992043 0.131642
O O5 0.864197 0.655744 0.123262
O O6 0.805453 0.490821 0.232237
O O7 0.614683 0.547873 0.131084
O O8 0.081351 0.062698 0.367646
O O9 0.419030 0.992810 0.629000
O O10 0.331374 0.868026 0.743629
O O11 0.691854 0.453264 0.891601
O O12 0.930963 0.452619 0.640936
O O13 0.500000 0.000000 0.500000
O O14 0.660776 0.881570 0.493379
O O15 0.832749 0.899059 0.068548
O O16 0.318980 0.973402 0.908235
O O17 0.500000 0.500000 0.500000
#
# Coordination Sequence:
#
# PCOD9061773 Si02
#       8
#     2   2   2   2   2   2   2   2
#     4  12  26  44  72 100 139 185 230 285 349 404
#     4  11  23  46  70 101 138 183 229 273 349 410
#     4  12  25  48  68 102 141 182 232 281 344 412
#     4  11  27  44  72 105 136 182 232 283 346 407
#     4  12  26  42  71 105 139 178 234 290 340 408
#     4  11  25  46  72  98 144 185 226 281 343 419
#     4  11  24  47  70 100 141 177 228 283 343 412
#     4  12  25  45  71 105 138 182 231 288 344 405
#
# _framework density 21.741157999999999
#
# number of rings (size 3 to 8) (size 9 to 14) (size 15 to 20)
#    0.000    0.500    3.750    4.125    5.250    1.500 
#    2.250    0.000    0.000    0.000    0.000    0.000 
#    0.000    0.000    0.000    0.000    0.000    0.000 
#
# Total GULP energy -89585.919556 kJ/mol
# GULP energy per Si atom -5599.119972 kJ/mol
# Density = 2.169167 g / cm^3
# Si number density = 21.741158 Si / 1000 Ang^3
#
#
#
# Elastic Constant Matrix: (Units=GPa)
#
#
# Indices 1 2 3 4 5 6 
#
# 1 81.6754 14.0770 31.0723 -3.0375 11.8870 15.4991
# 2 14.0770 71.7510 46.2380 -19.5604 -0.5055 13.5148
# 3 31.0723 46.2380 130.7576 -12.7739 3.7138 29.7453
# 4 -3.0375 -19.5604 -12.7739 35.9473 8.1217 -6.3227
# 5 11.8870 -0.5055 3.7138 8.1217 38.0105 7.0544
# 6 15.4991 13.5148 29.7453 -6.3227 7.0544 28.6512
#
#
#
# Elastic Compliance Matrix: (Units=1/GPa)
#
#
# Indices 1 2 3 4 5 6 
#
# 1 0.014521 -0.000644 -0.002089 0.000148 -0.003546 -0.004476
# 2 -0.000644 0.020555 -0.005998 0.008981 -0.000678 -0.000972
# 3 -0.002089 -0.005998 0.012244 -0.001025 0.001323 -0.009304
# 4 0.000148 0.008981 -0.001025 0.035490 -0.008655 0.006710
# 5 -0.003546 -0.000678 0.001323 -0.008655 0.030727 -0.008611
# 6 -0.004476 -0.000972 -0.009304 0.006710 -0.008611 0.051042
#
#
# Mechanical properties :
#
#
# Convention : Reuss Voigt Hill
#
# Bulk Modulus (GPa) = 33.49247 51.88429 42.68838
# Shear Modulus (GPa) = 26.04251 33.37493 29.70872
#
# Velocity S-wave (km/s) = 3.46474 3.92229 3.70059
# Velocity P-wave (km/s) = 5.60754 6.66550 6.15927
#
# Compressibility (1/GPa) = 0.02985746
#
# Stress axis : x y z
#
# Youngs Moduli (GPa) = 68.86804 48.64907 81.67216
#
# Poissons Ratio (x) = 0.03132 0.17065
# Poissons Ratio (y) = 0.04434 0.48987
# Poissons Ratio (z) = 0.14389 0.29180
#
# Static dielectric constant tensor:
#      x y z
#    x 1.786930 -0.003700 0.011760 
#    y -0.003700 1.802880 0.015000 
#    z 0.011760 0.015000 1.776580 
# 
# From -- ./inp_files/260682.got.cif
#   From: 2010.05.17/outbox.cif.g08.bks.cpg/sg2_131_cif.got.tgz:260682.got - 2010.06.03 11:33:40.
