data_PCOD9061276
_publ_section_title
;
Structure prediction by ZEFSAII (Michael W. Deem and Ramdas Pophale) SiO2 
 PCOD9061276
Probable space group: P -1
;
_chemical_formula_sum "Si O2"
_cell_formula_units_Z 10
_cell_length_a 12.863267
_cell_length_b 13.871085
_cell_length_c 11.359370
_cell_angle_alpha 31.187066
_cell_angle_beta 34.414129
_cell_angle_gamma 21.194700
_cell_volume 375.381517
_symmetry_space_group_name_H-M "P -1"
_symmetry_group_IT_number 2
_symmetry_cell_setting 'triclinic'
loop_
_space_group_symop_operation_xyz
x,y,z
-x,-y,-z
loop_
_atom_site_type_symbol
_atom_site_label
_atom_site_fract_x
_atom_site_fract_y
_atom_site_fract_z
Si Si1 0.409132 0.139181 0.613491
Si Si2 0.710141 0.471454 0.492806
Si Si3 0.818611 0.088397 0.191938
Si Si4 0.823636 0.470286 0.898932
Si Si5 0.154269 0.686307 0.717233
O O1 0.549661 0.156824 0.361571
O O2 0.589644 0.808967 0.794375
O O3 0.436656 0.248239 0.589505
O O4 0.071376 0.353727 0.702911
O O5 0.961113 0.188242 0.635619
O O6 0.477744 0.493025 0.658081
O O7 0.828249 0.440690 0.287302
O O8 0.711571 0.363710 0.062859
O O9 0.000000 0.000000 0.000000
O O10 0.978942 0.299255 0.057159
O O11 0.000000 0.000000 0.500000
#
# Coordination Sequence:
#
# PCOD9061276 Si02
#       5
#     2   2   2   2   2
#     4  12  27  50  75 119 151 194 268 305 383 463
#     4  11  23  49  74 114 152 197 256 306 381 453
#     4  12  28  54  79 107 158 204 253 323 376 446
#     4  12  27  48  79 114 152 201 250 318 385 448
#     4  11  23  44  82 108 157 201 248 312 381 464
#
# _framework density 26.639564
#
# number of rings (size 3 to 8) (size 9 to 14) (size 15 to 20)
#    0.000    0.400    6.000    1.200    2.800    4.000 
#    0.000    0.000    0.000    0.000    0.000    0.000 
#    0.000    0.000    0.000    0.000    0.000    0.000 
#
# Total GULP energy -56138.479798 kJ/mol
# GULP energy per Si atom -5613.847980 kJ/mol
# Density = 2.657893 g / cm^3
# Si number density = 26.639564 Si / 1000 Ang^3
#
#
#
# Elastic Constant Matrix: (Units=GPa)
#
#
# Indices 1 2 3 4 5 6 
#
# 1 100.3557 43.9893 66.1439 -17.1798 6.0111 14.5698
# 2 43.9893 173.7472 61.2831 -23.3395 -0.8655 19.1922
# 3 66.1439 61.2831 146.5474 11.0543 10.2919 19.1847
# 4 -17.1798 -23.3395 11.0543 56.3377 4.8026 -17.9141
# 5 6.0111 -0.8655 10.2919 4.8026 56.6641 5.4234
# 6 14.5698 19.1922 19.1847 -17.9141 5.4234 60.6413
#
#
#
# Elastic Compliance Matrix: (Units=1/GPa)
#
#
# Indices 1 2 3 4 5 6 
#
# 1 0.016345 -0.000660 -0.007616 0.006512 -0.000980 0.000702
# 2 -0.000660 0.007501 -0.003091 0.003382 0.000486 -0.000282
# 3 -0.007616 -0.003091 0.012543 -0.007022 -0.000618 -0.003179
# 4 0.006512 0.003382 -0.007022 0.024976 -0.002166 0.007158
# 5 -0.000980 0.000486 -0.000618 -0.002166 0.018246 -0.001995
# 6 0.000702 -0.000282 -0.003179 0.007158 -0.001995 0.019710
#
#
# Mechanical properties :
#
#
# Convention : Reuss Voigt Hill
#
# Bulk Modulus (GPa) = 73.23173 84.83145 79.03159
# Shear Modulus (GPa) = 39.49313 51.34422 45.41868
#
# Velocity S-wave (km/s) = 3.85450 4.39494 4.13356
# Velocity P-wave (km/s) = 6.88179 7.59390 7.24660
#
# Compressibility (1/GPa) = 0.01365528
#
# Stress axis : x y z
#
# Youngs Moduli (GPa) = 61.18215 133.32200 79.72574
#
# Poissons Ratio (x) = 0.08795 0.60716
# Poissons Ratio (y) = 0.04036 0.24645
# Poissons Ratio (z) = 0.46594 0.41212
#
# Static dielectric constant tensor:
#      x y z
#    x 2.133500 -0.022180 0.031260 
#    y -0.022180 2.052210 0.067340 
#    z 0.031260 0.067340 2.120220 
# 
# From -- ./inp_files/49614.got.cif
#   From: 2010.05.17/outbox.cif.g08.bks.cpg/sg2_25_cif.got.tgz:49614.got - 2010.06.03 11:33:40.
