data_PCOD9061664
_publ_section_title
;
Structure prediction by ZEFSAII (Michael W. Deem and Ramdas Pophale) SiO2 
 PCOD9061664
Probable space group: P -1
;
_chemical_formula_sum "Si O2"
_cell_formula_units_Z 14
_cell_length_a 11.939799
_cell_length_b 14.669029
_cell_length_c 8.893863
_cell_angle_alpha 107.521271
_cell_angle_beta 120.556373
_cell_angle_gamma 29.691387
_cell_volume 627.308953
_symmetry_space_group_name_H-M "P -1"
_symmetry_group_IT_number 2
_symmetry_cell_setting 'triclinic'
loop_
_space_group_symop_operation_xyz
x,y,z
-x,-y,-z
loop_
_atom_site_type_symbol
_atom_site_label
_atom_site_fract_x
_atom_site_fract_y
_atom_site_fract_z
Si Si1 0.920117 0.288649 0.649747
Si Si2 0.304526 0.537056 0.727271
Si Si3 0.194664 0.104915 0.261060
Si Si4 0.267917 0.170298 0.045374
Si Si5 0.851613 0.126484 0.612321
Si Si6 0.566700 0.118384 0.390943
Si Si7 0.795876 0.200253 0.079003
O O1 0.757033 0.436332 0.474575
O O2 0.793191 0.275894 0.633049
O O3 0.183220 0.080860 0.636709
O O4 0.004611 0.309731 0.845066
O O5 0.567172 0.321630 0.866205
O O6 0.044138 0.679262 0.719651
O O7 0.332422 0.635023 0.818701
O O8 0.295751 0.083250 0.165405
O O9 0.404790 0.949988 0.459878
O O10 0.035606 0.107958 0.125377
O O11 0.313916 0.244997 0.187191
O O12 0.500000 0.000000 0.000000
O O13 0.622509 0.193457 0.494270
O O14 0.066002 0.967471 0.809619
O O15 0.000000 0.000000 0.500000
#
# Coordination Sequence:
#
# PCOD9061664 Si02
#       7
#     2   2   2   2   2   2   2
#     4   9  16  26  42  68  91 108 137 183 219 249
#     4   8  14  27  45  65  84 114 148 174 209 256
#     4   8  14  26  42  60  84 113 149 177 201 255
#     4  10  18  26  39  65  92 115 139 177 221 250
#     4   9  13  25  44  68  87 106 141 183 214 247
#     4   8  15  26  41  59  84 114 143 170 208 256
#     4   8  14  25  46  64  84 112 150 174 208 252
#
# _framework density 22.317551999999999
#
# number of rings (size 3 to 8) (size 9 to 14) (size 15 to 20)
#    0.857    2.571    2.857    0.429    0.000    0.000 
#    0.000    3.571    0.000    0.000    0.000   45.000 
#    0.000    0.000    0.000    0.000    0.000    0.000 
#
# Total GULP energy -78000.555080 kJ/mol
# GULP energy per Si atom -5571.468220 kJ/mol
# Density = 2.226676 g / cm^3
# Si number density = 22.317552 Si / 1000 Ang^3
#
#
#
# Elastic Constant Matrix: (Units=GPa)
#
#
# Indices 1 2 3 4 5 6 
#
# 1 104.5062 20.4793 73.2744 -5.9354 -23.6012 0.4147
# 2 20.4793 71.7610 42.0739 1.6759 -5.1164 -2.1367
# 3 73.2744 42.0739 222.0785 1.1980 9.0913 13.4844
# 4 -5.9354 1.6759 1.1980 6.2584 -1.6507 -1.3161
# 5 -23.6012 -5.1164 9.0913 -1.6507 27.7446 0.8669
# 6 0.4147 -2.1367 13.4844 -1.3161 0.8669 4.0932
#
#
#
# Elastic Compliance Matrix: (Units=1/GPa)
#
#
# Indices 1 2 3 4 5 6 
#
# 1 0.030269 0.003746 -0.016075 0.052442 0.032898 0.061741
# 2 0.003746 0.018505 -0.007222 0.009426 0.008454 0.034314
# 3 -0.016075 -0.007222 0.015926 -0.034652 -0.020367 -0.061437
# 4 0.052442 0.009426 -0.034652 0.270767 0.067988 0.186424
# 5 0.032898 0.008454 -0.020367 0.067988 0.073982 0.074370
# 6 0.061741 0.034314 -0.061437 0.186424 0.074370 0.502554
#
#
# Mechanical properties :
#
#
# Convention : Reuss Voigt Hill
#
# Bulk Modulus (GPa) = 39.06714 74.44456 56.75585
# Shear Modulus (GPa) = 5.21029 25.12043 15.16536
#
# Velocity S-wave (km/s) = 1.52960 3.35862 2.60960
# Velocity P-wave (km/s) = 4.54562 6.96203 5.87931
#
# Compressibility (1/GPa) = 0.02559696
#
# Stress axis : x y z
#
# Youngs Moduli (GPa) = 33.03722 54.03965 62.78885
#
# Poissons Ratio (x) = -0.20244 1.00936
# Poissons Ratio (y) = -0.12376 0.45348
# Poissons Ratio (z) = 0.53109 0.39029
#
# Static dielectric constant tensor:
#      x y z
#    x 1.856030 -0.019620 0.031540 
#    y -0.019620 1.884370 0.044290 
#    z 0.031540 0.044290 1.875830 
# 
# From -- ./inp_files/268160.got.cif
#   From: 2010.05.17/outbox.cif.g08.bks.cpg/sg2_135_cif.got.tgz:268160.got - 2010.06.03 11:33:40.
