data_PCOD9061669
_publ_section_title
;
Structure prediction by ZEFSAII (Michael W. Deem and Ramdas Pophale) SiO2 
 PCOD9061669
Probable space group: P -1
;
_chemical_formula_sum "Si O2"
_cell_formula_units_Z 16
_cell_length_a 9.329108
_cell_length_b 19.985852
_cell_length_c 16.451226
_cell_angle_alpha 20.701460
_cell_angle_beta 41.942948
_cell_angle_gamma 38.649430
_cell_volume 675.981325
_symmetry_space_group_name_H-M "P -1"
_symmetry_group_IT_number 2
_symmetry_cell_setting 'triclinic'
loop_
_space_group_symop_operation_xyz
x,y,z
-x,-y,-z
loop_
_atom_site_type_symbol
_atom_site_label
_atom_site_fract_x
_atom_site_fract_y
_atom_site_fract_z
Si Si1 0.457657 0.964535 0.755081
Si Si2 0.881924 0.958931 0.679009
Si Si3 0.071196 0.339585 0.415488
Si Si4 0.729279 0.574077 0.043618
Si Si5 0.714638 0.460705 0.011800
Si Si6 0.805745 0.627590 0.332450
Si Si7 0.076985 0.800303 0.137403
Si Si8 0.718461 0.283994 0.518576
O O1 0.621815 0.970326 0.753910
O O2 0.278396 0.181784 0.559170
O O3 0.650034 0.815490 0.785068
O O4 0.308210 0.819147 0.985185
O O5 0.843463 0.110287 0.598220
O O6 0.000000 0.000000 0.500000
O O7 0.072010 0.742755 0.865138
O O8 0.186688 0.368746 0.250081
O O9 0.942715 0.548093 0.281391
O O10 0.871716 0.262164 0.559056
O O11 0.691463 0.488971 0.244619
O O12 0.639941 0.471247 0.124937
O O13 0.000000 0.500000 0.000000
O O14 0.500000 0.500000 0.000000
O O15 0.902351 0.780215 0.165487
O O16 0.530297 0.713876 0.351485
O O17 0.870303 0.409053 0.598843
O O18 0.000000 0.000000 0.000000
#
# Coordination Sequence:
#
# PCOD9061669 Si02
#       8
#     2   2   2   2   2   2   2   2
#     4  12  25  43  76 103 146 190 247 308 367 441
#     4  12  25  47  74 108 141 195 252 301 371 445
#     4  12  28  46  70 111 150 191 248 308 372 437
#     4  12  23  47  71 100 140 196 239 299 372 446
#     4  12  28  45  71 105 149 186 247 310 372 438
#     4  11  26  46  76 108 149 197 246 309 373 442
#     4  11  23  45  76 110 140 191 256 301 367 444
#     4  12  25  47  73 103 147 193 245 307 368 440
#
# _framework density 23.669294000000001
#
# number of rings (size 3 to 8) (size 9 to 14) (size 15 to 20)
#    0.000    0.250    6.250    1.875    5.250    0.500 
#    0.000    1.250    0.000    0.000    0.000    0.000 
#    0.000    0.000    0.000    0.000    0.000    0.000 
#
# Total GULP energy -89268.988349 kJ/mol
# GULP energy per Si atom -5579.311772 kJ/mol
# Density = 2.361542 g / cm^3
# Si number density = 23.669294 Si / 1000 Ang^3
#
#
#
# Elastic Constant Matrix: (Units=GPa)
#
#
# Indices 1 2 3 4 5 6 
#
# 1 160.1037 50.6820 23.9177 -14.5626 -29.4862 -22.3838
# 2 50.6820 99.5396 10.0660 -23.0105 -7.0379 -2.4684
# 3 23.9177 10.0660 63.4769 -0.7765 -14.9864 -5.3132
# 4 -14.5626 -23.0105 -0.7765 46.4675 4.8611 -4.4826
# 5 -29.4862 -7.0379 -14.9864 4.8611 40.1355 -2.4657
# 6 -22.3838 -2.4684 -5.3132 -4.4826 -2.4657 43.1955
#
#
#
# Elastic Compliance Matrix: (Units=1/GPa)
#
#
# Indices 1 2 3 4 5 6 
#
# 1 0.009596 -0.004021 -0.001095 0.000842 0.006144 0.005046
# 2 -0.004021 0.013297 -0.001015 0.005392 -0.001715 -0.000987
# 3 -0.001095 -0.001015 0.017864 -0.000992 0.005919 0.001807
# 4 0.000842 0.005392 -0.000992 0.024909 -0.001632 0.003114
# 5 0.006144 -0.001715 0.005919 -0.001632 0.031872 0.005464
# 6 0.005046 -0.000987 0.001807 0.003114 0.005464 0.026566
#
#
# Mechanical properties :
#
#
# Convention : Reuss Voigt Hill
#
# Bulk Modulus (GPa) = 35.09415 54.71685 44.90550
# Shear Modulus (GPa) = 34.27843 41.85667 38.06755
#
# Velocity S-wave (km/s) = 3.80968 4.20979 4.01472
# Velocity P-wave (km/s) = 5.84898 6.84085 6.36427
#
# Compressibility (1/GPa) = 0.02849478
#
# Stress axis : x y z
#
# Youngs Moduli (GPa) = 104.20981 75.20539 55.97908
#
# Poissons Ratio (x) = 0.30241 0.06129
# Poissons Ratio (y) = 0.41903 0.05682
# Poissons Ratio (z) = 0.11409 0.07634
#
# Static dielectric constant tensor:
#      x y z
#    x 2.047890 -0.148850 -0.013990 
#    y -0.148850 2.393780 0.026880 
#    z -0.013990 0.026880 2.032360 
# 
# From -- ./inp_files/562865.got.cif
#   From: 2010.05.17/outbox.cif.g08.bks.cpg/sg2_282_cif.got.tgz:562865.got - 2010.06.03 11:33:40.
