data_PCOD9061701
_publ_section_title
;
Structure prediction by ZEFSAII (Michael W. Deem and Ramdas Pophale) SiO2 
 PCOD9061701
Probable space group: P -1
;
_chemical_formula_sum "Si O2"
_cell_formula_units_Z 14
_cell_length_a 11.639139
_cell_length_b 14.416405
_cell_length_c 9.433199
_cell_angle_alpha 75.866245
_cell_angle_beta 120.479044
_cell_angle_gamma 150.753313
_cell_volume 587.861321
_symmetry_space_group_name_H-M "P -1"
_symmetry_group_IT_number 2
_symmetry_cell_setting 'triclinic'
loop_
_space_group_symop_operation_xyz
x,y,z
-x,-y,-z
loop_
_atom_site_type_symbol
_atom_site_label
_atom_site_fract_x
_atom_site_fract_y
_atom_site_fract_z
Si Si1 0.775971 0.887451 0.201077
Si Si2 0.792060 0.663335 0.788123
Si Si3 0.857308 0.729846 0.389739
Si Si4 0.222937 0.439362 0.878706
Si Si5 0.921060 0.436099 0.638773
Si Si6 0.186825 0.745310 0.914321
Si Si7 0.521284 0.846844 0.307654
O O1 0.929279 0.886801 0.340909
O O2 0.602631 0.816901 0.256534
O O3 0.527420 0.695011 0.003324
O O4 0.003706 0.115031 0.207621
O O5 0.437422 0.456544 0.627799
O O6 0.921878 0.652053 0.797776
O O7 0.828613 0.658911 0.979076
O O8 0.765127 0.615691 0.233588
O O9 0.136556 0.641146 0.792272
O O10 0.969977 0.355750 0.728758
O O11 0.597446 0.254587 0.571852
O O12 0.000000 0.500000 0.500000
O O13 0.172410 0.895065 0.584476
O O14 0.248177 0.725915 0.104321
O O15 0.500000 0.000000 0.000000
#
# Coordination Sequence:
#
# PCOD9061701 Si02
#       7
#     2   2   2   2   2   2   2
#     4  11  23  46  75 105 141 196 248 295 358 441
#     4  11  23  45  81 103 145 198 249 292 367 435
#     4  11  28  43  69 111 151 192 239 306 360 430
#     4  11  24  46  69 106 150 190 243 302 367 426
#     4  12  27  45  75 109 146 190 244 305 366 433
#     4  12  24  47  78 108 138 195 247 296 366 437
#     4  12  25  48  72 106 150 185 243 305 362 428
#
# _framework density 23.81514
#
# number of rings (size 3 to 8) (size 9 to 14) (size 15 to 20)
#    0.000    0.571    4.286    4.286    2.000    6.857 
#    0.000    0.000    0.000    0.000    0.000    0.000 
#    0.000    0.000    0.000    0.000    0.000    0.000 
#
# Total GULP energy -78335.277936 kJ/mol
# GULP energy per Si atom -5595.376995 kJ/mol
# Density = 2.376094 g / cm^3
# Si number density = 23.815140 Si / 1000 Ang^3
#
#
#
# Elastic Constant Matrix: (Units=GPa)
#
#
# Indices 1 2 3 4 5 6 
#
# 1 174.0762 72.6530 59.0441 -10.8230 -16.9028 7.7936
# 2 72.6530 176.9237 52.8605 2.6282 -7.5835 12.5981
# 3 59.0441 52.8605 86.4077 2.1036 -14.0469 13.6790
# 4 -10.8230 2.6282 2.1036 22.2051 4.1587 4.4030
# 5 -16.9028 -7.5835 -14.0469 4.1587 44.4591 -3.7390
# 6 7.7936 12.5981 13.6790 4.4030 -3.7390 36.8521
#
#
#
# Elastic Compliance Matrix: (Units=1/GPa)
#
#
# Indices 1 2 3 4 5 6 
#
# 1 0.008568 -0.002220 -0.004464 0.004634 0.001048 0.000156
# 2 -0.002220 0.007519 -0.002983 -0.001434 -0.000443 -0.000867
# 3 -0.004464 -0.002983 0.017689 -0.003365 0.003373 -0.003858
# 4 0.004634 -0.001434 -0.003365 0.049781 -0.004679 -0.005663
# 5 0.001048 -0.000443 0.003373 -0.004679 0.024464 0.001719
# 6 0.000156 -0.000867 -0.003858 -0.005663 0.001719 0.029682
#
#
# Mechanical properties :
#
#
# Convention : Reuss Voigt Hill
#
# Bulk Modulus (GPa) = 69.23643 89.61367 79.42505
# Shear Modulus (GPa) = 30.89276 37.55992 34.22634
#
# Velocity S-wave (km/s) = 3.60556 3.97564 3.79511
# Velocity P-wave (km/s) = 6.81682 7.66712 7.25444
#
# Compressibility (1/GPa) = 0.01444326
#
# Stress axis : x y z
#
# Youngs Moduli (GPa) = 116.71209 132.99732 56.53202
#
# Poissons Ratio (x) = 0.29523 0.25236
# Poissons Ratio (y) = 0.25908 0.16862
# Poissons Ratio (z) = 0.52100 0.39669
#
# Static dielectric constant tensor:
#      x y z
#    x 1.882700 0.032580 0.055230 
#    y 0.032580 1.942090 -0.019630 
#    z 0.055230 -0.019630 2.030590 
# 
# From -- ./inp_files/431009.got.cif
#   From: 2010.05.17/outbox.cif.g08.bks.cpg/sg2_216_cif.got.tgz:431009.got - 2010.06.03 11:33:40.
