data_PCOD9061288
_publ_section_title
;
Structure prediction by ZEFSAII (Michael W. Deem and Ramdas Pophale) SiO2 
 PCOD9061288
Probable space group: P -1
;
_chemical_formula_sum "Si O2"
_cell_formula_units_Z 16
_cell_length_a 6.520464
_cell_length_b 15.377621
_cell_length_c 16.538980
_cell_angle_alpha 146.533854
_cell_angle_beta 53.745552
_cell_angle_gamma 129.496754
_cell_volume 698.437545
_symmetry_space_group_name_H-M "P -1"
_symmetry_group_IT_number 2
_symmetry_cell_setting 'triclinic'
loop_
_space_group_symop_operation_xyz
x,y,z
-x,-y,-z
loop_
_atom_site_type_symbol
_atom_site_label
_atom_site_fract_x
_atom_site_fract_y
_atom_site_fract_z
Si Si1 0.688723 0.907071 0.643137
Si Si2 0.098900 0.121562 0.841177
Si Si3 0.666893 0.533146 0.404741
Si Si4 0.396922 0.592929 0.856863
Si Si5 0.805590 0.512497 0.915294
Si Si6 0.781676 0.966854 0.095259
Si Si7 0.486017 0.012497 0.415294
Si Si8 0.242255 0.621562 0.341177
O O1 0.699729 0.721123 0.510679
O O2 0.727695 0.971380 0.590234
O O3 0.409959 0.920835 0.756143
O O4 0.919300 0.036301 0.742063
O O5 0.035943 0.015351 0.853742
O O6 0.399720 0.126904 0.753991
O O7 0.090806 0.302270 0.003110
O O8 0.500000 0.500000 0.500000
O O9 0.584117 0.420835 0.256143
O O10 0.948885 0.515351 0.353741
O O11 0.536584 0.463699 0.757938
O O12 0.084258 0.528620 0.909766
O O13 0.568396 0.778877 0.989322
O O14 0.780980 0.373096 0.746009
O O15 0.500000 0.500000 0.000000
O O16 0.000000 0.000000 0.000000
O O17 0.693325 0.197730 0.496890
O O18 0.500000 0.000000 0.500000
#
# Coordination Sequence:
#
# PCOD9061288 Si02
#       8
#     2   2   2   2   2   2   2   2
#     4  11  24  45  68 102 143 185 234 293 349 425
#     4  11  23  45  65 102 140 174 239 290 340 431
#     4  11  26  42  70 103 143 189 233 288 354 422
#     4  11  24  45  68 102 143 185 234 293 349 425
#     4  11  24  44  70  97 135 182 233 292 353 417
#     4  11  26  42  70 103 143 189 233 288 354 422
#     4  11  24  44  70  97 135 182 233 292 353 417
#     4  11  23  45  65 102 140 174 239 290 340 431
#
# _framework density 22.908273999999999
#
# number of rings (size 3 to 8) (size 9 to 14) (size 15 to 20)
#    0.000    1.000    5.000    0.750    3.500    2.000 
#    0.000    2.500    0.000    0.000    0.000    0.000 
#    0.000    0.000    0.000    0.000    0.000    0.000 
#
# Total GULP energy -89096.803496 kJ/mol
# GULP energy per Si atom -5568.550218 kJ/mol
# Density = 2.285613 g / cm^3
# Si number density = 22.908274 Si / 1000 Ang^3
#
#
#
# Elastic Constant Matrix: (Units=GPa)
#
#
# Indices 1 2 3 4 5 6 
#
# 1 139.0986 43.9021 23.5846 -15.2607 -1.5475 -1.0275
# 2 43.9021 54.0721 23.9422 -28.6376 -0.7951 -3.0107
# 3 23.5846 23.9422 106.6980 -3.6923 0.6434 -0.0854
# 4 -15.2607 -28.6376 -3.6923 51.2797 -0.9055 -0.9664
# 5 -1.5475 -0.7951 0.6434 -0.9055 59.8543 -4.0720
# 6 -1.0275 -3.0107 -0.0854 -0.9664 -4.0720 34.7191
#
#
#
# Elastic Compliance Matrix: (Units=1/GPa)
#
#
# Indices 1 2 3 4 5 6 
#
# 1 0.009850 -0.009076 -0.000216 -0.002162 0.000066 -0.000548
# 2 -0.009076 0.038513 -0.005999 0.018460 0.000871 0.003672
# 3 -0.000216 -0.005999 0.010675 -0.002663 -0.000282 -0.000608
# 4 -0.002162 0.018460 -0.002663 0.029035 0.000823 0.002435
# 5 0.000066 0.000871 -0.000282 0.000823 0.016877 0.002079
# 6 -0.000548 0.003672 -0.000608 0.002435 0.002079 0.029415
#
#
# Mechanical properties :
#
#
# Convention : Reuss Voigt Hill
#
# Bulk Modulus (GPa) = 35.14352 53.63628 44.38990
# Shear Modulus (GPa) = 28.66406 43.06660 35.86533
#
# Velocity S-wave (km/s) = 3.54114 4.34055 3.96107
# Velocity P-wave (km/s) = 5.66515 6.97028 6.35133
#
# Compressibility (1/GPa) = 0.02845474
#
# Stress axis : x y z
#
# Youngs Moduli (GPa) = 101.52369 25.96512 93.67384
#
# Poissons Ratio (x) = 0.23567 0.02026
# Poissons Ratio (y) = 0.92145 0.56198
# Poissons Ratio (z) = 0.02196 0.15577
#
# Static dielectric constant tensor:
#      x y z
#    x 1.960280 -0.002450 -0.001930 
#    y -0.002450 1.892690 -0.073170 
#    z -0.001930 -0.073170 1.850530 
# 
# From -- ./inp_files/123789.got.cif
#   From: 2010.05.17/outbox.cif.g08.bks.cpg/sg2_62_cif.got.tgz:123789.got - 2010.06.03 11:33:40.
