data_PCOD9061064
_publ_section_title
;
Structure prediction by ZEFSAII (Michael W. Deem and Ramdas Pophale) SiO2 
 PCOD9061064
Probable space group: P -1
;
_chemical_formula_sum "Si O2"
_cell_formula_units_Z 13
_cell_length_a 9.501394
_cell_length_b 10.203611
_cell_length_c 6.915027
_cell_angle_alpha 116.913147
_cell_angle_beta 120.287380
_cell_angle_gamma 57.634630
_cell_volume 473.383814
_symmetry_space_group_name_H-M "P -1"
_symmetry_group_IT_number 2
_symmetry_cell_setting 'triclinic'
loop_
_space_group_symop_operation_xyz
x,y,z
-x,-y,-z
loop_
_atom_site_type_symbol
_atom_site_label
_atom_site_fract_x
_atom_site_fract_y
_atom_site_fract_z
Si Si1 0.461704 0.316750 0.214101
Si Si2 0.127193 0.145519 0.646618
Si Si3 0.500000 0.500000 0.000000
Si Si4 0.761242 0.348961 0.690039
Si Si5 0.796757 0.628618 0.427352
Si Si6 0.316297 0.100989 0.138791
Si Si7 0.187923 0.911600 0.179584
O O1 0.528329 0.361515 0.092189
O O2 0.346202 0.447997 0.748612
O O3 0.269426 0.466589 0.197075
O O4 0.458691 0.146909 0.149629
O O5 0.919450 0.252476 0.594339
O O6 0.214532 0.257957 0.689374
O O7 0.167234 0.998632 0.431354
O O8 0.183725 0.102055 0.877060
O O9 0.586555 0.338024 0.479254
O O10 0.773072 0.272631 0.863019
O O11 0.758704 0.749989 0.663804
O O12 0.000000 0.500000 0.500000
O O13 0.333924 0.953025 0.190206
O O14 0.000000 0.000000 0.000000
#
# Coordination Sequence:
#
# PCOD9061064 Si02
#       7
#     2   2   1   2   2   2   2
#     4  11  25  44  68 106 145 189 236 307 370 430
#     4  11  23  44  72 103 147 187 243 303 364 434
#     4  12  24  44  68 104 152 182 252 292 364 452
#     4  11  24  45  73 103 145 190 243 298 365 438
#     4  11  24  40  69 107 144 195 240 303 372 436
#     4  11  24  46  70 104 147 186 241 302 372 429
#     4  11  25  45  76 108 137 194 250 298 362 447
#
# _framework density 27.461860000000001
#
# number of rings (size 3 to 8) (size 9 to 14) (size 15 to 20)
#    0.000    0.923    3.077    4.154    2.154    3.077 
#    0.000    0.769    0.000    0.000    0.000    0.000 
#    0.000    0.000    0.000    0.000    0.000    0.000 
#
# Total GULP energy -72638.900489 kJ/mol
# GULP energy per Si atom -5587.607730 kJ/mol
# Density = 2.739936 g / cm^3
# Si number density = 27.461860 Si / 1000 Ang^3
#
#
#
# Elastic Constant Matrix: (Units=GPa)
#
#
# Indices 1 2 3 4 5 6 
#
# 1 141.5267 63.7469 32.4036 -3.0430 -13.1547 44.7868
# 2 63.7469 156.7489 55.3676 16.4053 -17.2756 25.4663
# 3 32.4036 55.3676 165.1422 -1.7241 -5.3927 4.5715
# 4 -3.0430 16.4053 -1.7241 38.5350 14.5197 7.0367
# 5 -13.1547 -17.2756 -5.3927 14.5197 55.4181 -18.4028
# 6 44.7868 25.4663 4.5715 7.0367 -18.4028 46.2493
#
#
#
# Elastic Compliance Matrix: (Units=1/GPa)
#
#
# Indices 1 2 3 4 5 6 
#
# 1 0.012916 -0.004004 -0.000905 0.006676 -0.004319 -0.012947
# 2 -0.004004 0.009762 -0.002460 -0.006290 0.003921 0.001262
# 3 -0.000905 -0.002460 0.007028 0.001110 -0.000155 0.001305
# 4 0.006676 -0.006290 0.001110 0.037572 -0.015029 -0.014808
# 5 -0.004319 0.003921 -0.000155 -0.015029 0.027194 0.015146
# 6 -0.012947 0.001262 0.001305 -0.014808 0.015146 0.041616
#
#
# Mechanical properties :
#
#
# Convention : Reuss Voigt Hill
#
# Bulk Modulus (GPa) = 66.80713 85.16155 75.98434
# Shear Modulus (GPa) = 32.08928 48.83377 40.46152
#
# Velocity S-wave (km/s) = 3.42205 4.22149 3.84262
# Velocity P-wave (km/s) = 6.32407 7.40537 6.88598
#
# Compressibility (1/GPa) = 0.01496846
#
# Stress axis : x y z
#
# Youngs Moduli (GPa) = 77.42353 102.43457 142.28713
#
# Poissons Ratio (x) = 0.41018 0.12873
# Poissons Ratio (y) = 0.31003 0.35001
# Poissons Ratio (z) = 0.07005 0.25198
#
# Static dielectric constant tensor:
#      x y z
#    x 1.984190 0.117350 0.129780 
#    y 0.117350 2.026540 -0.109320 
#    z 0.129780 -0.109320 1.969760 
# 
# From -- ./inp_files/65010.got.cif
#   From: 2010.05.17/outbox.cif.g08.bks.cpg/sg2_33_cif.got.tgz:65010.got - 2010.06.03 11:33:40.
