data_PCOD9061967
_publ_section_title
;
Structure prediction by ZEFSAII (Michael W. Deem and Ramdas Pophale) SiO2 
 PCOD9061967
Probable space group: P -1
;
_chemical_formula_sum "Si O2"
_cell_formula_units_Z 14
_cell_length_a 8.797013
_cell_length_b 8.860165
_cell_length_c 11.919477
_cell_angle_alpha 49.555657
_cell_angle_beta 57.716728
_cell_angle_gamma 67.581890
_cell_volume 596.859137
_symmetry_space_group_name_H-M "P -1"
_symmetry_group_IT_number 2
_symmetry_cell_setting 'triclinic'
loop_
_space_group_symop_operation_xyz
x,y,z
-x,-y,-z
loop_
_atom_site_type_symbol
_atom_site_label
_atom_site_fract_x
_atom_site_fract_y
_atom_site_fract_z
Si Si1 0.809335 0.957246 0.039436
Si Si2 0.981265 0.175838 0.690936
Si Si3 0.465021 0.180353 0.147504
Si Si4 0.945599 0.868990 0.689512
Si Si5 0.498434 0.449522 0.212495
Si Si6 0.233816 0.490527 0.509966
Si Si7 0.196533 0.503546 0.766388
O O1 0.819356 0.731515 0.102551
O O2 0.627678 0.014975 0.150692
O O3 0.813648 0.113640 0.860360
O O4 0.000000 0.000000 0.000000
O O5 0.911929 0.333134 0.549345
O O6 0.128469 0.286984 0.649368
O O7 0.043178 0.972210 0.704912
O O8 0.269637 0.108760 0.227112
O O9 0.455628 0.269079 0.234334
O O10 0.503615 0.360029 0.960393
O O11 0.012609 0.639171 0.765203
O O12 0.000000 0.000000 0.500000
O O13 0.367505 0.475539 0.359119
O O14 0.691968 0.424761 0.207086
O O15 0.293796 0.529067 0.594679
#
# Coordination Sequence:
#
# PCOD9061967 Si02
#       7
#     2   2   2   2   2   2   2
#     4  12  27  48  74 110 148 194 252 305 366 436
#     4  11  24  44  77 101 152 195 244 297 375 433
#     4  11  28  48  75 106 153 200 243 304 377 440
#     4  12  27  49  75 110 149 194 245 306 376 438
#     4  11  26  46  75 109 153 191 254 301 370 440
#     4  11  23  46  75 110 147 197 243 302 372 435
#     4  12  28  45  78 110 149 191 252 311 365 436
#
# _framework density 23.456121
#
# number of rings (size 3 to 8) (size 9 to 14) (size 15 to 20)
#    0.000    0.571    4.286    2.143   10.000    3.429 
#    0.000    2.143    0.000    0.000    0.000    0.000 
#    0.000    0.000    0.000    0.000    0.000    0.000 
#
# Total GULP energy -78267.753441 kJ/mol
# GULP energy per Si atom -5590.553817 kJ/mol
# Density = 2.340273 g / cm^3
# Si number density = 23.456121 Si / 1000 Ang^3
#
#
#
# Elastic Constant Matrix: (Units=GPa)
#
#
# Indices 1 2 3 4 5 6 
#
# 1 97.7775 53.2215 6.8964 -3.8593 8.1153 -2.8545
# 2 53.2215 116.1014 23.3695 -5.1034 -3.9372 -11.2379
# 3 6.8964 23.3695 71.0646 -0.7830 1.6762 -7.8886
# 4 -3.8593 -5.1034 -0.7830 35.4629 4.6711 6.2556
# 5 8.1153 -3.9372 1.6762 4.6711 33.5771 11.2648
# 6 -2.8545 -11.2379 -7.8886 6.2556 11.2648 42.3565
#
#
#
# Elastic Compliance Matrix: (Units=1/GPa)
#
#
# Indices 1 2 3 4 5 6 
#
# 1 0.014314 -0.006836 0.001024 0.001133 -0.004604 0.000399
# 2 -0.006836 0.012686 -0.003405 0.000382 0.002760 0.001481
# 3 0.001024 -0.003405 0.015441 -0.000209 -0.002288 0.002681
# 4 0.001133 0.000382 -0.000209 0.029383 -0.003181 -0.003355
# 5 -0.004604 0.002760 -0.002288 -0.003181 0.034717 -0.008767
# 6 0.000399 0.001481 0.002681 -0.003355 -0.008767 0.027355
#
#
# Mechanical properties :
#
#
# Convention : Reuss Voigt Hill
#
# Bulk Modulus (GPa) = 41.65195 50.21315 45.93255
# Shear Modulus (GPa) = 31.18545 35.70969 33.44757
#
# Velocity S-wave (km/s) = 3.65022 3.90603 3.78029
# Velocity P-wave (km/s) = 5.96334 6.46502 6.21924
#
# Compressibility (1/GPa) = 0.02400848
#
# Stress axis : x y z
#
# Youngs Moduli (GPa) = 69.86070 78.82925 64.76162
#
# Poissons Ratio (x) = 0.53884 -0.06632
# Poissons Ratio (y) = 0.47754 0.22050
# Poissons Ratio (z) = -0.07154 0.26840
#
# Static dielectric constant tensor:
#      x y z
#    x 1.856610 0.000880 0.017140 
#    y 0.000880 1.879520 0.049130 
#    z 0.017140 0.049130 1.917430 
# 
# From -- ./inp_files/380942.got.cif
#   From: 2010.05.17/outbox.cif.g08.bks.cpg/sg2_191_cif.got.tgz:380942.got - 2010.06.03 11:33:40.
