data_PCOD9061016
_publ_section_title
;
Structure prediction by ZEFSAII (Michael W. Deem and Ramdas Pophale) SiO2 
 PCOD9061016
Probable space group: P -1
;
_chemical_formula_sum "Si O2"
_cell_formula_units_Z 16
_cell_length_a 5.384337
_cell_length_b 16.810130
_cell_length_c 11.088813
_cell_angle_alpha 124.356320
_cell_angle_beta 111.689207
_cell_angle_gamma 54.932202
_cell_volume 676.632884
_symmetry_space_group_name_H-M "P -1"
_symmetry_group_IT_number 2
_symmetry_cell_setting 'triclinic'
loop_
_space_group_symop_operation_xyz
x,y,z
-x,-y,-z
loop_
_atom_site_type_symbol
_atom_site_label
_atom_site_fract_x
_atom_site_fract_y
_atom_site_fract_z
Si Si1 0.316333 0.908554 0.347521
Si Si2 0.740279 0.404261 0.044420
Si Si3 0.285410 0.686314 0.596138
Si Si4 0.734333 0.486704 0.374850
Si Si5 0.564485 0.152714 0.113800
Si Si6 0.221797 0.042296 0.863143
Si Si7 0.590517 0.736712 0.065017
Si Si8 0.656843 0.897625 0.616328
O O1 0.588371 0.813369 0.239322
O O2 0.390784 0.890516 0.485863
O O3 0.029184 0.902229 0.236489
O O4 0.265925 0.026129 0.392549
O O5 0.793463 0.454512 0.219706
O O6 0.500000 0.500000 0.000000
O O7 0.575109 0.332458 0.985771
O O8 0.067806 0.337173 0.983112
O O9 0.435190 0.603366 0.441713
O O10 0.299641 0.608348 0.641929
O O11 0.472761 0.749406 0.722634
O O12 0.945594 0.781245 0.591507
O O13 0.000000 0.500000 0.500000
O O14 0.817217 0.041306 0.125544
O O15 0.285546 0.127236 0.022298
O O16 0.605526 0.185436 0.014599
O O17 0.520111 0.962036 0.770275
#
# Coordination Sequence:
#
# PCOD9061016 Si02
#       8
#     2   2   2   2   2   2   2   2
#     4  11  25  45  67 106 152 197 249 298 382 463
#     4  12  29  51  80 107 153 196 264 322 392 461
#     4  11  25  46  73 107 147 195 249 321 379 453
#     4  11  27  48  76 107 146 196 261 322 387 454
#     4  11  23  44  71 107 147 191 251 304 379 447
#     4  11  24  43  71 108 151 201 248 305 370 467
#     4  12  26  49  77 110 147 201 250 322 385 459
#     4  11  25  43  71 103 152 194 250 301 381 456
#
# _framework density 23.6465
#
# number of rings (size 3 to 8) (size 9 to 14) (size 15 to 20)
#    0.000    0.750    3.750    2.250    7.000    4.000 
#    0.000    0.000    0.000    0.000    0.000    0.000 
#    0.000    0.000    0.000    0.000    0.000    0.000 
#
# Total GULP energy -89585.186132 kJ/mol
# GULP energy per Si atom -5599.074133 kJ/mol
# Density = 2.359268 g / cm^3
# Si number density = 23.646500 Si / 1000 Ang^3
#
#
#
# Elastic Constant Matrix: (Units=GPa)
#
#
# Indices 1 2 3 4 5 6 
#
# 1 105.4963 58.4350 36.1825 13.2439 2.0808 -11.0949
# 2 58.4350 138.9317 57.7771 11.3375 8.4023 -5.9338
# 3 36.1825 57.7771 118.0315 4.0823 12.9388 -3.9280
# 4 13.2439 11.3375 4.0823 39.8409 -3.3026 4.4963
# 5 2.0808 8.4023 12.9388 -3.3026 38.8425 5.6792
# 6 -11.0949 -5.9338 -3.9280 4.4963 5.6792 43.2285
#
#
#
# Elastic Compliance Matrix: (Units=1/GPa)
#
#
# Indices 1 2 3 4 5 6 
#
# 1 0.013263 -0.004499 -0.001663 -0.003284 0.000104 0.002963
# 2 -0.004499 0.010832 -0.003760 -0.001314 -0.000999 0.000259
# 3 -0.001663 -0.003760 0.011143 0.000196 -0.002855 0.000424
# 4 -0.003284 -0.001314 0.000196 0.027306 0.003343 -0.004285
# 5 0.000104 -0.000999 -0.002855 0.003343 0.027830 -0.004374
# 6 0.002963 0.000259 0.000424 -0.004285 -0.004374 0.024988
#
#
# Mechanical properties :
#
#
# Convention : Reuss Voigt Hill
#
# Bulk Modulus (GPa) = 64.95440 74.13874 69.54657
# Shear Modulus (GPa) = 35.62867 38.38670 37.00769
#
# Velocity S-wave (km/s) = 3.88586 4.03346 3.96035
# Velocity P-wave (km/s) = 6.90375 7.28785 7.09840
#
# Compressibility (1/GPa) = 0.01539542
#
# Stress axis : x y z
#
# Youngs Moduli (GPa) = 75.39741 92.31740 89.74443
#
# Poissons Ratio (x) = 0.41531 0.14923
# Poissons Ratio (y) = 0.33919 0.33742
# Poissons Ratio (z) = 0.12538 0.34709
#
# Static dielectric constant tensor:
#      x y z
#    x 1.966210 -0.027720 0.017110 
#    y -0.027720 1.892460 0.013240 
#    z 0.017110 0.013240 1.902530 
# 
# From -- ./inp_files/369533.got.cif
#   From: 2010.05.17/outbox.cif.g08.bks.cpg/sg2_185_cif.got.tgz:369533.got - 2010.06.03 11:33:40.
