data_PCOD9061713
_publ_section_title
;
Structure prediction by ZEFSAII (Michael W. Deem and Ramdas Pophale) SiO2 
 PCOD9061713
Probable space group: P -1
;
_chemical_formula_sum "Si O2"
_cell_formula_units_Z 16
_cell_length_a 11.685012
_cell_length_b 7.433243
_cell_length_c 9.381229
_cell_angle_alpha 74.791941
_cell_angle_beta 68.191131
_cell_angle_gamma 94.539781
_cell_volume 715.694011
_symmetry_space_group_name_H-M "P -1"
_symmetry_group_IT_number 2
_symmetry_cell_setting 'triclinic'
loop_
_space_group_symop_operation_xyz
x,y,z
-x,-y,-z
loop_
_atom_site_type_symbol
_atom_site_label
_atom_site_fract_x
_atom_site_fract_y
_atom_site_fract_z
Si Si1 0.719035 0.212235 0.684383
Si Si2 0.622666 0.416645 0.435555
Si Si3 0.493254 0.863313 0.668931
Si Si4 0.298518 0.937503 0.964468
Si Si5 0.819308 0.797760 0.225479
Si Si6 0.101981 0.426545 0.372849
Si Si7 0.054415 0.624426 0.082625
Si Si8 0.212404 0.076145 0.480031
O O1 0.630068 0.265464 0.589240
O O2 0.773925 0.416862 0.682902
O O3 0.812320 0.113149 0.565059
O O4 0.685419 0.082955 0.868158
O O5 0.500000 0.500000 0.500000
O O6 0.600644 0.321410 0.310794
O O7 0.740845 0.589599 0.347710
O O8 0.426731 0.930411 0.823029
O O9 0.637310 0.842915 0.630605
O O10 0.500000 0.000000 0.500000
O O11 0.246055 0.120959 0.895331
O O12 0.190751 0.761849 0.995500
O O13 0.809871 0.935391 0.336828
O O14 0.958363 0.762641 0.140169
O O15 0.060623 0.460892 0.227688
O O16 0.129612 0.222762 0.435212
O O17 0.000000 0.500000 0.500000
O O18 0.000000 0.500000 0.000000
#
# Coordination Sequence:
#
# PCOD9061713 Si02
#       8
#     2   2   2   2   2   2   2   2
#     4  11  25  43  68 104 140 178 232 292 346 396
#     4  12  21  42  71  99 137 188 234 278 341 413
#     4  12  22  44  68  97 135 184 232 278 339 427
#     4  11  26  45  66 104 143 175 231 292 348 408
#     4  12  23  44  70 101 138 187 234 279 343 428
#     4  11  23  46  66 102 138 176 234 286 335 419
#     4  11  25  45  69  98 142 181 229 289 352 406
#     4  12  24  43  73  99 134 183 236 275 348 406
#
# _framework density 22.355922
#
# number of rings (size 3 to 8) (size 9 to 14) (size 15 to 20)
#    0.000    0.500    6.250    1.125    1.750    2.000 
#    0.000    3.125    0.000    0.000    0.000    0.000 
#    0.000    0.000    0.000    0.000    0.000    0.000 
#
# Total GULP energy -89362.115459 kJ/mol
# GULP energy per Si atom -5585.132216 kJ/mol
# Density = 2.230504 g / cm^3
# Si number density = 22.355922 Si / 1000 Ang^3
#
#
#
# Elastic Constant Matrix: (Units=GPa)
#
#
# Indices 1 2 3 4 5 6 
#
# 1 121.0035 18.9715 47.3491 -0.0962 9.9147 -27.9966
# 2 18.9715 70.1141 21.6201 7.0274 11.6173 -11.1252
# 3 47.3491 21.6201 80.4384 -8.6484 11.2138 -6.7059
# 4 -0.0962 7.0274 -8.6484 32.1217 -6.0912 8.9373
# 5 9.9147 11.6173 11.2138 -6.0912 49.0458 1.0346
# 6 -27.9966 -11.1252 -6.7059 8.9373 1.0346 52.6153
#
#
#
# Elastic Compliance Matrix: (Units=1/GPa)
#
#
# Indices 1 2 3 4 5 6 
#
# 1 0.012722 0.000585 -0.007304 -0.004250 -0.001710 0.006717
# 2 0.000585 0.017824 -0.004938 -0.007360 -0.004226 0.004784
# 3 -0.007304 -0.004938 0.018590 0.006978 -0.000659 -0.003734
# 4 -0.004250 -0.007360 0.006978 0.038404 0.005978 -0.009569
# 5 -0.001710 -0.004226 -0.000659 0.005978 0.022699 -0.003349
# 6 0.006717 0.004784 -0.003734 -0.009569 -0.003349 0.024807
#
#
# Mechanical properties :
#
#
# Convention : Reuss Voigt Hill
#
# Bulk Modulus (GPa) = 38.72972 49.71525 44.22249
# Shear Modulus (GPa) = 29.94605 38.99758 34.47181
#
# Velocity S-wave (km/s) = 3.66391 4.18113 3.93103
# Velocity P-wave (km/s) = 5.93807 6.75244 6.35831
#
# Compressibility (1/GPa) = 0.02581996
#
# Stress axis : x y z
#
# Youngs Moduli (GPa) = 78.60656 56.10458 53.79369
#
# Poissons Ratio (x) = -0.03283 0.39292
# Poissons Ratio (y) = -0.04600 0.26566
# Poissons Ratio (z) = 0.57416 0.27707
#
# Static dielectric constant tensor:
#      x y z
#    x 1.869410 0.095800 -0.018050 
#    y 0.095800 1.938740 -0.036190 
#    z -0.018050 -0.036190 1.829060 
# 
# From -- ./inp_files/243445.got.cif
#   From: 2010.05.17/outbox.cif.g08.bks.cpg/sg2_122_cif.got.tgz:243445.got - 2010.06.03 11:33:40.
