data_PCOD9061590
_publ_section_title
;
Structure prediction by ZEFSAII (Michael W. Deem and Ramdas Pophale) SiO2 
 PCOD9061590
Probable space group: P -1
;
_chemical_formula_sum "Si O2"
_cell_formula_units_Z 16
_cell_length_a 16.707784
_cell_length_b 9.743202
_cell_length_c 8.557620
_cell_angle_alpha 78.270117
_cell_angle_beta 107.662641
_cell_angle_gamma 146.678398
_cell_volume 725.826611
_symmetry_space_group_name_H-M "P -1"
_symmetry_group_IT_number 2
_symmetry_cell_setting 'triclinic'
loop_
_space_group_symop_operation_xyz
x,y,z
-x,-y,-z
loop_
_atom_site_type_symbol
_atom_site_label
_atom_site_fract_x
_atom_site_fract_y
_atom_site_fract_z
Si Si1 0.816933 0.771674 0.572591
Si Si2 0.831403 0.274189 0.519909
Si Si3 0.631388 0.262312 0.421236
Si Si4 0.418681 0.993886 0.073293
Si Si5 0.359005 0.218038 0.035134
Si Si6 0.646557 0.764763 0.607881
Si Si7 0.904847 0.019836 0.250219
Si Si8 0.111430 0.558591 0.152025
O O1 0.714397 0.498516 0.515997
O O2 0.751466 0.773623 0.670875
O O3 0.982006 0.954853 0.685129
O O4 0.826042 0.886901 0.400825
O O5 0.751811 0.311719 0.427372
O O6 0.841762 0.283918 0.710733
O O7 0.000000 0.500000 0.500000
O O8 0.719084 0.988893 0.493380
O O9 0.500000 0.000000 0.500000
O O10 0.544436 0.195873 0.233320
O O11 0.261994 0.715541 0.116181
O O12 0.361914 0.072450 0.979155
O O13 0.500000 0.000000 0.000000
O O14 0.375551 0.220086 0.230238
O O15 0.500000 0.500000 0.000000
O O16 0.215335 0.111492 0.923537
O O17 0.500000 0.500000 0.500000
O O18 0.019079 0.306395 0.234533
O O19 0.000000 0.500000 0.000000
#
# Coordination Sequence:
#
# PCOD9061590 Si02
#       8
#     2   2   2   2   2   2   2   2
#     4  11  25  43  74 107 144 187 243 307 364 437
#     4  12  26  43  75 109 141 193 244 303 370 434
#     4  12  23  47  71 102 148 187 246 300 358 436
#     4  12  27  45  71 104 140 190 244 300 361 428
#     4  12  26  48  70 101 147 192 240 303 367 441
#     4  12  25  46  72 107 147 195 247 298 372 447
#     4  11  23  45  74 102 145 192 242 298 373 433
#     4  12  23  47  73 102 147 188 240 302 360 439
#
# _framework density 22.043832999999999
#
# number of rings (size 3 to 8) (size 9 to 14) (size 15 to 20)
#    0.000    0.250    5.000    3.750    3.500    4.500 
#    0.000    0.000    0.000    0.000    0.000    0.000 
#    0.000    0.000    0.000    0.000    0.000    0.000 
#
# Total GULP energy -89296.478860 kJ/mol
# GULP energy per Si atom -5581.029929 kJ/mol
# Density = 2.199366 g / cm^3
# Si number density = 22.043833 Si / 1000 Ang^3
#
#
#
# Elastic Constant Matrix: (Units=GPa)
#
#
# Indices 1 2 3 4 5 6 
#
# 1 147.7445 36.1869 43.8218 1.2950 -15.7415 11.9376
# 2 36.1869 162.5518 16.5840 -17.5672 -15.8789 2.8928
# 3 43.8218 16.5840 77.9770 3.0276 13.2036 5.5140
# 4 1.2950 -17.5672 3.0276 28.0099 5.4092 6.6131
# 5 -15.7415 -15.8789 13.2036 5.4092 40.2797 0.3120
# 6 11.9376 2.8928 5.5140 6.6131 0.3120 35.2095
#
#
#
# Elastic Compliance Matrix: (Units=1/GPa)
#
#
# Indices 1 2 3 4 5 6 
#
# 1 0.009511 -0.001072 -0.005838 -0.001026 0.005362 -0.002077
# 2 -0.001072 0.007270 -0.001451 0.004525 0.002322 -0.000877
# 3 -0.005838 -0.001451 0.017939 -0.000799 -0.008623 -0.000484
# 4 -0.001026 0.004525 -0.000799 0.041208 -0.003830 -0.007605
# 5 0.005362 0.002322 -0.008623 -0.003830 0.031180 -0.000215
# 6 -0.002077 -0.000877 -0.000484 -0.007605 -0.000215 0.030684
#
#
# Mechanical properties :
#
#
# Convention : Reuss Voigt Hill
#
# Bulk Modulus (GPa) = 55.55976 64.60651 60.08314
# Shear Modulus (GPa) = 31.15038 40.14519 35.64779
#
# Velocity S-wave (km/s) = 3.76321 4.27213 4.02572
# Velocity P-wave (km/s) = 6.64389 7.32848 6.99457
#
# Compressibility (1/GPa) = 0.01799864
#
# Stress axis : x y z
#
# Youngs Moduli (GPa) = 105.14530 137.55421 55.74436
#
# Poissons Ratio (x) = 0.14743 0.32544
# Poissons Ratio (y) = 0.11269 0.08086
# Poissons Ratio (z) = 0.61385 0.19954
#
# Static dielectric constant tensor:
#      x y z
#    x 1.901640 0.007380 -0.005470 
#    y 0.007380 1.874670 0.004360 
#    z -0.005470 0.004360 1.798600 
# 
# From -- ./inp_files/298582.got.cif
#   From: 2010.05.17/outbox.cif.g08.bks.cpg/sg2_150_cif.got.tgz:298582.got - 2010.06.03 11:33:40.
