data_PCOD9061296
_publ_section_title
;
Structure prediction by ZEFSAII (Michael W. Deem and Ramdas Pophale) SiO2 
 PCOD9061296
Probable space group: P -1
;
_chemical_formula_sum "Si O2"
_cell_formula_units_Z 16
_cell_length_a 7.741688
_cell_length_b 23.292369
_cell_length_c 6.610356
_cell_angle_alpha 86.010312
_cell_angle_beta 118.384158
_cell_angle_gamma 131.549514
_cell_volume 728.116973
_symmetry_space_group_name_H-M "P -1"
_symmetry_group_IT_number 2
_symmetry_cell_setting 'triclinic'
loop_
_space_group_symop_operation_xyz
x,y,z
-x,-y,-z
loop_
_atom_site_type_symbol
_atom_site_label
_atom_site_fract_x
_atom_site_fract_y
_atom_site_fract_z
Si Si1 0.678613 0.646723 0.199043
Si Si2 0.202353 0.049081 0.293411
Si Si3 0.240079 0.620217 0.708008
Si Si4 0.293118 0.506494 0.305315
Si Si5 0.633155 0.241376 0.982260
Si Si6 0.008899 0.095199 0.511559
Si Si7 0.031124 0.624988 0.199552
Si Si8 0.795382 0.176243 0.377400
O O1 0.484302 0.597488 0.300830
O O2 0.805148 0.612323 0.210280
O O3 0.934971 0.741878 0.375557
O O4 0.488877 0.631560 0.917281
O O5 0.095916 0.079851 0.361304
O O6 0.518245 0.123835 0.373258
O O7 0.173966 0.986768 0.433762
O O8 0.000000 0.000000 0.000000
O O9 0.290463 0.691709 0.834214
O O10 0.942467 0.533032 0.646327
O O11 0.221620 0.630505 0.460857
O O12 0.500000 0.500000 0.500000
O O13 0.123656 0.447907 0.029462
O O14 0.742522 0.204792 0.144901
O O15 0.300476 0.168492 0.775511
O O16 0.788735 0.291717 0.850221
O O17 0.852970 0.121932 0.375250
#
# Coordination Sequence:
#
# PCOD9061296 Si02
#       8
#     2   2   2   2   2   2   2   2
#     4  12  23  42  69 101 132 183 234 285 354 413
#     4  11  25  49  74 104 146 181 230 291 347 428
#     4  11  24  43  68  95 140 181 227 291 343 408
#     4  11  23  45  68  91 142 184 231 291 345 411
#     4  11  23  45  66 103 139 179 229 290 341 416
#     4  11  25  46  75 104 140 184 232 282 358 424
#     4  11  24  43  66  97 138 185 234 286 351 401
#     4  12  24  47  75 103 145 186 232 292 358 416
#
# _framework density 21.974492000000001
#
# number of rings (size 3 to 8) (size 9 to 14) (size 15 to 20)
#    0.000    0.750    5.000    2.625    0.000    2.000 
#    9.000    0.000    0.000    0.000    0.000    0.000 
#    0.000    0.000    0.000    0.000    0.000    0.000 
#
# Total GULP energy -89666.058405 kJ/mol
# GULP energy per Si atom -5604.128650 kJ/mol
# Density = 2.192448 g / cm^3
# Si number density = 21.974492 Si / 1000 Ang^3
#
#
#
# Elastic Constant Matrix: (Units=GPa)
#
#
# Indices 1 2 3 4 5 6 
#
# 1 75.4905 52.2657 38.5453 -18.7229 -0.7086 -7.2650
# 2 52.2657 144.3546 55.9154 -9.9183 -0.1642 21.3948
# 3 38.5453 55.9154 131.6826 -25.1566 12.8456 7.3071
# 4 -18.7229 -9.9183 -25.1566 31.8531 -7.9351 6.8835
# 5 -0.7086 -0.1642 12.8456 -7.9351 33.9687 -3.3872
# 6 -7.2650 21.3948 7.3071 6.8835 -3.3872 38.6702
#
#
#
# Elastic Compliance Matrix: (Units=1/GPa)
#
#
# Indices 1 2 3 4 5 6 
#
# 1 0.022922 -0.007906 -0.002637 0.008220 0.004163 0.008080
# 2 -0.007906 0.011745 -0.002530 -0.001473 -0.000220 -0.007262
# 3 -0.002637 -0.002530 0.011063 0.006190 -0.003060 -0.002556
# 4 0.008220 -0.001473 0.006190 0.043801 0.007462 -0.005953
# 5 0.004163 -0.000220 -0.003060 0.007462 0.032726 0.003020
# 6 0.008080 -0.007262 -0.002556 -0.005953 0.003020 0.033203
#
#
# Mechanical properties :
#
#
# Convention : Reuss Voigt Hill
#
# Bulk Modulus (GPa) = 51.06089 71.66449 61.36269
# Shear Modulus (GPa) = 26.57702 34.55182 30.56442
#
# Velocity S-wave (km/s) = 3.48149 3.96960 3.73353
# Velocity P-wave (km/s) = 6.28075 7.32760 6.82428
#
# Compressibility (1/GPa) = 0.01958446
#
# Stress axis : x y z
#
# Youngs Moduli (GPa) = 43.62604 85.14508 90.39278
#
# Poissons Ratio (x) = 0.67316 0.23833
# Poissons Ratio (y) = 0.34491 0.22869
# Poissons Ratio (z) = 0.11503 0.21541
#
# Static dielectric constant tensor:
#      x y z
#    x 1.796160 -0.006820 -0.009290 
#    y -0.006820 1.810420 0.002220 
#    z -0.009290 0.002220 1.769590 
# 
# From -- ./inp_files/56408.got.cif
#   From: 2010.05.17/outbox.cif.g08.bks.cpg/sg2_29_cif.got.tgz:56408.got - 2010.06.03 11:33:40.
