data_PCOD9061613
_publ_section_title
;
Structure prediction by ZEFSAII (Michael W. Deem and Ramdas Pophale) SiO2 
 PCOD9061613
Probable space group: P -1
;
_chemical_formula_sum "Si O2"
_cell_formula_units_Z 16
_cell_length_a 14.051249
_cell_length_b 9.217535
_cell_length_c 16.053013
_cell_angle_alpha 37.048247
_cell_angle_beta 126.173642
_cell_angle_gamma 98.214864
_cell_volume 746.239070
_symmetry_space_group_name_H-M "P -1"
_symmetry_group_IT_number 2
_symmetry_cell_setting 'triclinic'
loop_
_space_group_symop_operation_xyz
x,y,z
-x,-y,-z
loop_
_atom_site_type_symbol
_atom_site_label
_atom_site_fract_x
_atom_site_fract_y
_atom_site_fract_z
Si Si1 0.700620 0.177965 0.553634
Si Si2 0.985477 0.735163 0.134449
Si Si3 0.226327 0.293123 0.067160
Si Si4 0.891500 0.785214 0.247240
Si Si5 0.462378 0.271091 0.104926
Si Si6 0.456264 0.943900 0.090711
Si Si7 0.072269 0.738375 0.931749
Si Si8 0.740805 0.825051 0.577845
O O1 0.578417 0.553671 0.342105
O O2 0.698810 0.107483 0.487276
O O3 0.887855 0.989443 0.750454
O O4 0.663123 0.998946 0.674603
O O5 0.121879 0.380554 0.326853
O O6 0.826678 0.839149 0.964354
O O7 0.983922 0.702852 0.246688
O O8 0.000000 0.000000 0.000000
O O9 0.085387 0.572522 0.928754
O O10 0.295719 0.423192 0.992886
O O11 0.000000 0.500000 0.500000
O O12 0.862475 0.088172 0.130807
O O13 0.726355 0.888113 0.090713
O O14 0.474223 0.104387 0.102286
O O15 0.585931 0.000704 0.361329
O O16 0.500000 0.500000 0.000000
O O17 0.500000 0.000000 0.000000
O O18 0.188593 0.463734 0.186841
#
# Coordination Sequence:
#
# PCOD9061613 Si02
#       8
#     2   2   2   2   2   2   2   2
#     4  11  23  45  75 109 146 180 237 304 366 429
#     4  12  23  46  76 110 143 184 250 302 355 436
#     4  11  24  46  75 103 146 188 240 299 360 433
#     4  12  28  46  73 106 144 193 245 299 368 434
#     4  12  30  48  68 104 148 193 244 298 365 431
#     4  12  29  48  70 101 148 191 240 302 368 432
#     4  11  23  45  74 109 143 186 238 296 365 433
#     4  11  24  43  74 105 145 188 236 298 363 428
#
# _framework density 21.440850999999999
#
# number of rings (size 3 to 8) (size 9 to 14) (size 15 to 20)
#    0.000    0.500    5.000    2.250   10.500    1.500 
#    0.000    1.250    0.000    0.000    0.000    0.000 
#    0.000    0.000    0.000    0.000    0.000    0.000 
#
# Total GULP energy -89311.472351 kJ/mol
# GULP energy per Si atom -5581.967022 kJ/mol
# Density = 2.139205 g / cm^3
# Si number density = 21.440851 Si / 1000 Ang^3
#
#
#
# Elastic Constant Matrix: (Units=GPa)
#
#
# Indices 1 2 3 4 5 6 
#
# 1 129.3247 55.8089 47.2007 -0.2800 -18.2541 1.6385
# 2 55.8089 156.6002 61.5633 11.0120 -4.8547 0.6019
# 3 47.2007 61.5633 108.0044 9.7484 -2.4244 0.7771
# 4 -0.2800 11.0120 9.7484 37.4005 -2.6195 1.1079
# 5 -18.2541 -4.8547 -2.4244 -2.6195 24.6526 5.9567
# 6 1.6385 0.6019 0.7771 1.1079 5.9567 40.1445
#
#
#
# Elastic Compliance Matrix: (Units=1/GPa)
#
#
# Indices 1 2 3 4 5 6 
#
# 1 0.011288 -0.002556 -0.003495 0.002368 0.008157 -0.001630
# 2 -0.002556 0.008893 -0.003816 -0.001701 -0.000747 0.000203
# 3 -0.003495 -0.003816 0.013131 -0.002504 -0.002404 0.000372
# 4 0.002368 -0.001701 -0.002504 0.028270 0.004532 -0.001475
# 5 0.008157 -0.000747 -0.002404 0.004532 0.048539 -0.007603
# 6 -0.001630 0.000203 0.000372 -0.001475 -0.007603 0.026135
#
#
# Mechanical properties :
#
#
# Convention : Reuss Voigt Hill
#
# Bulk Modulus (GPa) = 73.65617 80.34171 76.99894
# Shear Modulus (GPa) = 31.14931 35.72995 33.43963
#
# Velocity S-wave (km/s) = 3.81570 4.08664 3.95349
# Velocity P-wave (km/s) = 7.33761 7.73435 7.53859
#
# Compressibility (1/GPa) = 0.01357659
#
# Stress axis : x y z
#
# Youngs Moduli (GPa) = 88.58665 112.45158 76.15488
#
# Poissons Ratio (x) = 0.28746 0.26617
# Poissons Ratio (y) = 0.22645 0.29064
# Poissons Ratio (z) = 0.30962 0.42916
#
# Static dielectric constant tensor:
#      x y z
#    x 1.958660 -0.001750 0.297340 
#    y -0.001750 1.812930 -0.038010 
#    z 0.297340 -0.038010 2.265890 
# 
# From -- ./inp_files/529297.got.cif
#   From: 2010.05.17/outbox.cif.g08.bks.cpg/sg2_265_cif.got.tgz:529297.got - 2010.06.03 11:33:40.
