data_PCOD9061030
_publ_section_title
;
Structure prediction by ZEFSAII (Michael W. Deem and Ramdas Pophale) SiO2 
 PCOD9061030
Probable space group: P -1
;
_chemical_formula_sum "Si O2"
_cell_formula_units_Z 12
_cell_length_a 11.604411
_cell_length_b 13.667063
_cell_length_c 7.742774
_cell_angle_alpha 134.287918
_cell_angle_beta 123.246604
_cell_angle_gamma 32.956874
_cell_volume 475.965918
_symmetry_space_group_name_H-M "P -1"
_symmetry_group_IT_number 2
_symmetry_cell_setting 'triclinic'
loop_
_space_group_symop_operation_xyz
x,y,z
-x,-y,-z
loop_
_atom_site_type_symbol
_atom_site_label
_atom_site_fract_x
_atom_site_fract_y
_atom_site_fract_z
Si Si1 0.255109 0.190585 0.984732
Si Si2 0.579063 0.810736 0.217666
Si Si3 0.806160 0.479935 0.547463
Si Si4 0.605532 0.304030 0.723340
Si Si5 0.844833 0.986457 0.831807
Si Si6 0.847873 0.357578 0.828924
O O1 0.270089 0.232974 0.853491
O O2 0.097249 0.184469 0.858040
O O3 0.158217 0.386438 0.257265
O O4 0.500000 0.000000 0.000000
O O5 0.500000 0.000000 0.500000
O O6 0.360622 0.900605 0.083230
O O7 0.719038 0.572867 0.096246
O O8 0.579902 0.620940 0.449288
O O9 0.805020 0.425001 0.675967
O O10 0.994694 0.259802 0.336959
O O11 0.764913 0.271487 0.698378
O O12 0.728925 0.103674 0.697972
O O13 0.500000 0.500000 0.000000
O O14 0.000000 0.000000 0.000000
#
# Coordination Sequence:
#
# PCOD9061030 Si02
#       6
#     2   2   2   2   2   2
#     4  11  27  45  71 104 137 186 236 283 348 413
#     4  11  23  44  71  96 139 180 230 287 343 405
#     4  11  25  47  72 103 142 183 230 289 348 406
#     4  12  25  45  72 106 138 183 236 280 348 420
#     4  12  25  44  72 105 142 181 228 289 348 406
#     4  11  24  48  69 101 145 180 231 290 345 411
#
# _framework density 25.211887000000001
#
# number of rings (size 3 to 8) (size 9 to 14) (size 15 to 20)
#    0.000    0.667    3.333    4.500    7.000    2.000 
#    0.000    2.500    0.000    0.000    0.000    0.000 
#    0.000    0.000    0.000    0.000    0.000    0.000 
#
# Total GULP energy -67169.771828 kJ/mol
# GULP energy per Si atom -5597.480986 kJ/mol
# Density = 2.515450 g / cm^3
# Si number density = 25.211887 Si / 1000 Ang^3
#
#
#
# Elastic Constant Matrix: (Units=GPa)
#
#
# Indices 1 2 3 4 5 6 
#
# 1 82.1870 31.2219 -4.3667 -21.8643 17.4309 -35.8937
# 2 31.2219 173.1508 18.7947 -20.6380 11.0653 -30.1075
# 3 -4.3667 18.7947 70.7971 1.8714 8.8736 -19.0894
# 4 -21.8643 -20.6380 1.8714 51.1438 -7.7323 4.8341
# 5 17.4309 11.0653 8.8736 -7.7323 21.2652 -5.2511
# 6 -35.8937 -30.1075 -19.0894 4.8341 -5.2511 53.3086
#
#
#
# Elastic Compliance Matrix: (Units=1/GPa)
#
#
# Indices 1 2 3 4 5 6 
#
# 1 0.026309 -0.000643 0.008800 0.006204 -0.018165 0.018151
# 2 -0.000643 0.006799 -0.001015 0.002072 -0.001157 0.002742
# 3 0.008800 -0.001015 0.019473 -0.000251 -0.012149 0.011151
# 4 0.006204 0.002072 -0.000251 0.023212 0.003239 0.003472
# 5 -0.018165 -0.001157 -0.012149 0.003239 0.066042 -0.011023
# 6 0.018151 0.002742 0.011151 0.003472 -0.011023 0.035121
#
#
# Mechanical properties :
#
#
# Convention : Reuss Voigt Hill
#
# Bulk Modulus (GPa) = 14.95512 46.38163 30.66838
# Shear Modulus (GPa) = 27.03274 43.84251 35.43762
#
# Velocity S-wave (km/s) = 3.27803 4.17461 3.75319
# Velocity P-wave (km/s) = 4.50244 6.45548 5.56530
#
# Compressibility (1/GPa) = 0.06686671
#
# Stress axis : x y z
#
# Youngs Moduli (GPa) = 38.00915 147.07983 51.35236
#
# Poissons Ratio (x) = 0.09455 -0.45192
# Poissons Ratio (y) = 0.02443 0.05213
# Poissons Ratio (z) = -0.33449 0.14930
#
# Static dielectric constant tensor:
#      x y z
#    x 2.022120 0.036060 -0.074360 
#    y 0.036060 2.005620 -0.017770 
#    z -0.074360 -0.017770 2.034100 
# 
# From -- ./inp_files/168004.got.cif
#   From: 2010.05.17/outbox.cif.g08.bks.cpg/sg2_85_cif.got.tgz:168004.got - 2010.06.03 11:33:40.
