data_PCOD9061466
_publ_section_title
;
Structure prediction by ZEFSAII (Michael W. Deem and Ramdas Pophale) SiO2 
 PCOD9061466
Probable space group: P -1
;
_chemical_formula_sum "Si O2"
_cell_formula_units_Z 16
_cell_length_a 15.193358
_cell_length_b 9.700729
_cell_length_c 29.331554
_cell_angle_alpha 35.065293
_cell_angle_beta 19.359660
_cell_angle_gamma 44.301001
_cell_volume 786.208025
_symmetry_space_group_name_H-M "P -1"
_symmetry_group_IT_number 2
_symmetry_cell_setting 'triclinic'
loop_
_space_group_symop_operation_xyz
x,y,z
-x,-y,-z
loop_
_atom_site_type_symbol
_atom_site_label
_atom_site_fract_x
_atom_site_fract_y
_atom_site_fract_z
Si Si1 0.482257 0.211526 0.597113
Si Si2 0.410314 0.351372 0.432876
Si Si3 0.227379 0.946464 0.708462
Si Si4 0.411207 0.232072 0.959957
Si Si5 0.536197 0.386853 0.087314
Si Si6 0.126161 0.731389 0.342909
Si Si7 0.332340 0.093622 0.807727
Si Si8 0.100561 0.245233 0.259003
O O1 0.500000 0.500000 0.500000
O O2 0.252743 0.030508 0.725560
O O3 0.419269 0.141462 0.699415
O O4 0.777722 0.180919 0.445612
O O5 0.381030 0.193264 0.536721
O O6 0.538524 0.643569 0.300912
O O7 0.104193 0.286046 0.578781
O O8 0.607304 0.251817 0.330111
O O9 0.912729 0.843591 0.873082
O O10 0.483460 0.449507 0.903413
O O11 0.595492 0.299661 0.806494
O O12 0.500000 0.000000 0.000000
O O13 0.278445 0.348847 0.189185
O O14 0.558278 0.121707 0.165104
O O15 0.802972 0.545309 0.884460
O O16 0.000000 0.500000 0.500000
O O17 0.173013 0.998300 0.272527
O O18 0.000000 0.000000 0.000000
#
# Coordination Sequence:
#
# PCOD9061466 Si02
#       8
#     2   2   2   2   2   2   2   2
#     4  12  26  43  72 101 139 183 234 285 351 416
#     4  11  23  45  71 102 140 185 230 289 350 413
#     4  11  24  44  76 102 139 185 237 284 346 427
#     4  12  25  45  73 104 138 188 234 285 351 420
#     4  11  26  45  72 102 142 182 234 290 349 417
#     4  12  26  45  71 106 142 180 234 290 350 411
#     4  12  27  46  69 104 143 184 234 293 350 414
#     4  11  25  48  70 102 141 187 230 287 351 420
#
# _framework density 20.350847999999999
#
# number of rings (size 3 to 8) (size 9 to 14) (size 15 to 20)
#    0.000    0.500    5.000    2.250    7.000    2.500 
#    0.000    1.875    0.000    0.000    0.000    0.000 
#    0.000    0.000    0.000    0.000    0.000    0.000 
#
# Total GULP energy -89565.510122 kJ/mol
# GULP energy per Si atom -5597.844383 kJ/mol
# Density = 2.030453 g / cm^3
# Si number density = 20.350848 Si / 1000 Ang^3
#
#
#
# Elastic Constant Matrix: (Units=GPa)
#
#
# Indices 1 2 3 4 5 6 
#
# 1 71.0432 43.7581 24.9331 -9.6018 5.2793 14.6911
# 2 43.7581 138.9354 44.7905 -19.8740 2.7859 17.4382
# 3 24.9331 44.7905 91.4627 -3.0782 8.2738 11.6689
# 4 -9.6018 -19.8740 -3.0782 37.2418 -3.9774 -1.6432
# 5 5.2793 2.7859 8.2738 -3.9774 48.9460 -11.2881
# 6 14.6911 17.4382 11.6689 -1.6432 -11.2881 34.7509
#
#
#
# Elastic Compliance Matrix: (Units=1/GPa)
#
#
# Indices 1 2 3 4 5 6 
#
# 1 0.019142 -0.004283 -0.002039 0.001924 -0.002715 -0.006050
# 2 -0.004283 0.010557 -0.003647 0.004182 0.000369 -0.001945
# 3 -0.002039 -0.003647 0.013836 -0.001748 -0.002727 -0.002923
# 4 0.001924 0.004182 -0.001748 0.029662 0.002213 -0.000203
# 5 -0.002715 0.000369 -0.002727 0.002213 0.023566 0.009638
# 6 -0.006050 -0.001945 -0.002923 -0.000203 0.009638 0.036412
#
#
# Mechanical properties :
#
#
# Convention : Reuss Voigt Hill
#
# Bulk Modulus (GPa) = 42.37555 58.71161 50.54358
# Shear Modulus (GPa) = 31.06001 36.71838 33.88920
#
# Velocity S-wave (km/s) = 3.91093 4.25228 4.08517
# Velocity P-wave (km/s) = 6.42352 7.28158 6.86597
#
# Compressibility (1/GPa) = 0.02359851
#
# Stress axis : x y z
#
# Youngs Moduli (GPa) = 52.24070 94.72396 72.27569
#
# Poissons Ratio (x) = 0.40566 0.14736
# Poissons Ratio (y) = 0.22372 0.26359
# Poissons Ratio (z) = 0.10651 0.34545
#
# Static dielectric constant tensor:
#      x y z
#    x 1.721960 -0.007200 0.005850 
#    y -0.007200 1.694250 0.003680 
#    z 0.005850 0.003680 1.712140 
# 
# From -- ./inp_files/619240.got.cif
#   From: 2010.05.17/outbox.cif.g08.bks.cpg/sg2_310_cif.got.tgz:619240.got - 2010.06.03 11:33:40.
