data_PCOD9061944
_publ_section_title
;
Structure prediction by ZEFSAII (Michael W. Deem and Ramdas Pophale) SiO2 
 PCOD9061944
Probable space group: P -1
;
_chemical_formula_sum "Si O2"
_cell_formula_units_Z 15
_cell_length_a 7.847104
_cell_length_b 11.462065
_cell_length_c 9.531522
_cell_angle_alpha 129.796395
_cell_angle_beta 65.948994
_cell_angle_gamma 115.540968
_cell_volume 583.513845
_symmetry_space_group_name_H-M "P -1"
_symmetry_group_IT_number 2
_symmetry_cell_setting 'triclinic'
loop_
_space_group_symop_operation_xyz
x,y,z
-x,-y,-z
loop_
_atom_site_type_symbol
_atom_site_label
_atom_site_fract_x
_atom_site_fract_y
_atom_site_fract_z
Si Si1 0.710506 0.454987 0.552005
Si Si2 0.498480 0.583975 0.918871
Si Si3 0.389656 0.881148 0.145659
Si Si4 0.877248 0.766881 0.045056
Si Si5 0.993125 0.351481 0.587977
Si Si6 0.269802 0.862916 0.851450
Si Si7 0.270942 0.985164 0.535412
Si Si8 0.000000 0.500000 0.000000
O O1 0.511076 0.475388 0.699970
O O2 0.850604 0.442731 0.626768
O O3 0.696859 0.295771 0.349097
O O4 0.813457 0.598522 0.529812
O O5 0.500000 0.500000 0.000000
O O6 0.350560 0.694477 0.053613
O O7 0.703480 0.703553 0.947820
O O8 0.264673 0.962468 0.351146
O O9 0.605575 0.992070 0.165640
O O10 0.345191 0.875878 0.994628
O O11 0.936951 0.632572 0.015107
O O12 0.799560 0.873966 0.265345
O O13 0.048560 0.849103 0.947328
O O14 0.870654 0.173346 0.482556
O O15 0.037913 0.403746 0.772068
O O16 0.500000 0.000000 0.500000
#
# Coordination Sequence:
#
# PCOD9061944 Si02
#       8
#     2   2   2   2   2   2   2   1
#     4  11  23  46  74 109 146 202 252 313 378 468
#     4  12  27  45  75 112 149 204 256 316 389 451
#     4  11  27  48  73 110 160 198 252 324 382 466
#     4  12  27  46  78 110 147 208 249 320 379 465
#     4  11  24  43  75 107 149 193 253 313 376 457
#     4  11  26  49  73 108 153 201 256 319 389 454
#     4  12  26  47  76 110 152 204 252 312 381 463
#     4  12  24  48  72 112 148 192 258 324 374 450
#
# _framework density 25.706330999999999
#
# number of rings (size 3 to 8) (size 9 to 14) (size 15 to 20)
#    0.000    0.533    4.000    3.200    5.600    3.200 
#    2.400    0.000    0.000    0.000    0.000    0.000 
#    0.000    0.000    0.000    0.000    0.000    0.000 
#
# Total GULP energy -83746.071895 kJ/mol
# GULP energy per Si atom -5583.071460 kJ/mol
# Density = 2.564782 g / cm^3
# Si number density = 25.706331 Si / 1000 Ang^3
#
#
#
# Elastic Constant Matrix: (Units=GPa)
#
#
# Indices 1 2 3 4 5 6 
#
# 1 38.1794 -2.6297 22.2453 -1.2545 -5.6890 2.8764
# 2 -2.6297 95.6343 12.6682 -10.8981 -17.9440 -2.7285
# 3 22.2453 12.6682 179.9842 7.4453 -16.7962 11.5110
# 4 -1.2545 -10.8981 7.4453 37.7847 -7.5584 -7.4763
# 5 -5.6890 -17.9440 -16.7962 -7.5584 51.2054 -5.8365
# 6 2.8764 -2.7285 11.5110 -7.4763 -5.8365 21.6876
#
#
#
# Elastic Compliance Matrix: (Units=1/GPa)
#
#
# Indices 1 2 3 4 5 6 
#
# 1 0.029004 0.002247 -0.003576 0.003033 0.003315 0.000272
# 2 0.002247 0.012657 -0.001246 0.006267 0.005850 0.005691
# 3 -0.003576 -0.001246 0.006476 -0.002409 0.000500 -0.003816
# 4 0.003033 0.006267 -0.002409 0.033618 0.008476 0.015535
# 5 0.003315 0.005850 0.000500 0.008476 0.024449 0.009533
# 6 0.000272 0.005691 -0.003816 0.015535 0.009533 0.056735
#
#
# Mechanical properties :
#
#
# Convention : Reuss Voigt Hill
#
# Bulk Modulus (GPa) = 23.26322 42.04062 32.65192
# Shear Modulus (GPa) = 27.40930 40.90314 34.15622
#
# Velocity S-wave (km/s) = 3.26889 3.99327 3.64910
# Velocity P-wave (km/s) = 4.82874 6.13607 5.52124
#
# Compressibility (1/GPa) = 0.04298632
#
# Stress axis : x y z
#
# Youngs Moduli (GPa) = 34.47826 79.00457 154.41430
#
# Poissons Ratio (x) = -0.17749 0.55223
# Poissons Ratio (y) = -0.07746 0.19237
# Poissons Ratio (z) = 0.12331 0.09842
#
# Static dielectric constant tensor:
#      x y z
#    x 4.216610 0.872870 0.322510 
#    y 0.872870 2.357860 0.183750 
#    z 0.322510 0.183750 2.027760 
# 
# From -- ./inp_files/190632.got.cif
#   From: 2010.05.17/outbox.cif.g08.bks.cpg/sg2_96_cif.got.tgz:190632.got - 2010.06.03 11:33:40.
