data_PCOD9061402
_publ_section_title
;
Structure prediction by ZEFSAII (Michael W. Deem and Ramdas Pophale) SiO2 
 PCOD9061402
Probable space group: P -1
;
_chemical_formula_sum "Si O2"
_cell_formula_units_Z 16
_cell_length_a 15.187751
_cell_length_b 9.113344
_cell_length_c 13.622595
_cell_angle_alpha 104.250449
_cell_angle_beta 152.444542
_cell_angle_gamma 60.052299
_cell_volume 658.832603
_symmetry_space_group_name_H-M "P -1"
_symmetry_group_IT_number 2
_symmetry_cell_setting 'triclinic'
loop_
_space_group_symop_operation_xyz
x,y,z
-x,-y,-z
loop_
_atom_site_type_symbol
_atom_site_label
_atom_site_fract_x
_atom_site_fract_y
_atom_site_fract_z
Si Si1 0.957262 0.809815 0.340600
Si Si2 0.240172 0.270148 0.305419
Si Si3 0.782048 0.641900 0.995188
Si Si4 0.748947 0.718018 0.277534
Si Si5 0.475912 0.414212 0.104829
Si Si6 0.241259 0.941841 0.175030
Si Si7 0.829398 0.143020 0.127759
Si Si8 0.673458 0.926054 0.430077
O O1 0.924068 0.677418 0.218906
O O2 0.810786 0.840477 0.299097
O O3 0.856347 0.000145 0.211215
O O4 0.239033 0.700105 0.621598
O O5 0.224290 0.131898 0.198115
O O6 0.985734 0.484931 0.094719
O O7 0.499334 0.228139 0.543681
O O8 0.272856 0.182137 0.432562
O O9 0.655893 0.569250 0.920358
O O10 0.563434 0.850458 0.770362
O O11 0.348791 0.632251 0.981559
O O12 0.000000 0.500000 0.500000
O O13 0.580927 0.694502 0.042383
O O14 0.244004 0.885782 0.056315
O O15 0.000000 0.000000 0.000000
O O16 0.094725 0.085620 0.366588
O O17 0.343246 0.188994 0.691879
#
# Coordination Sequence:
#
# PCOD9061402 Si02
#       8
#     2   2   2   2   2   2   2   2
#     4  11  26  44  69 106 144 190 244 293 355 415
#     4  11  24  47  75 103 141 188 236 293 367 429
#     4  11  23  45  70 100 143 192 233 290 359 424
#     4  11  25  48  71 105 147 199 242 292 355 424
#     4  11  23  46  70 100 145 190 242 292 349 422
#     4  11  23  45  79 107 137 184 237 298 364 430
#     4  12  23  46  73 105 145 186 238 302 358 419
#     4  12  23  46  72 100 150 188 238 300 355 421
#
# _framework density 24.285378999999999
#
# number of rings (size 3 to 8) (size 9 to 14) (size 15 to 20)
#    0.000    0.750    5.000    2.250    0.000    4.000 
#    4.500    8.750    0.000    0.000    0.000    0.000 
#    0.000    0.000    0.000    0.000    0.000    0.000 
#
# Total GULP energy -89800.617422 kJ/mol
# GULP energy per Si atom -5612.538589 kJ/mol
# Density = 2.423010 g / cm^3
# Si number density = 24.285379 Si / 1000 Ang^3
#
#
#
# Elastic Constant Matrix: (Units=GPa)
#
#
# Indices 1 2 3 4 5 6 
#
# 1 111.9556 44.2715 28.6176 8.5876 13.9911 6.3853
# 2 44.2715 120.1928 65.2290 -18.0363 5.4780 -2.8091
# 3 28.6176 65.2290 186.8840 3.0316 16.2256 -10.3915
# 4 8.5876 -18.0363 3.0316 49.9107 -5.6268 5.5496
# 5 13.9911 5.4780 16.2256 -5.6268 32.6129 3.0565
# 6 6.3853 -2.8091 -10.3915 5.5496 3.0565 45.8788
#
#
#
# Elastic Compliance Matrix: (Units=1/GPa)
#
#
# Indices 1 2 3 4 5 6 
#
# 1 0.011841 -0.005018 0.000395 -0.004337 -0.005088 -0.001002
# 2 -0.005018 0.013280 -0.004269 0.006328 0.003179 -0.000433
# 3 0.000395 -0.004269 0.007251 -0.002679 -0.003700 0.001897
# 4 -0.004337 0.006328 -0.002679 0.024309 0.006605 -0.002996
# 5 -0.005088 0.003179 -0.003700 0.006605 0.035583 -0.003105
# 6 -0.001002 -0.000433 0.001897 -0.002996 -0.003105 0.022908
#
#
# Mechanical properties :
#
#
# Convention : Reuss Voigt Hill
#
# Bulk Modulus (GPa) = 68.55830 77.25205 72.90518
# Shear Modulus (GPa) = 36.27916 44.40812 40.34364
#
# Velocity S-wave (km/s) = 3.86925 4.28085 4.08024
# Velocity P-wave (km/s) = 6.94644 7.50422 7.23071
#
# Compressibility (1/GPa) = 0.01458613
#
# Stress axis : x y z
#
# Youngs Moduli (GPa) = 84.45092 75.30142 137.91594
#
# Poissons Ratio (x) = 0.37786 -0.05441
# Poissons Ratio (y) = 0.42378 0.58882
# Poissons Ratio (z) = -0.03332 0.32150
#
# Static dielectric constant tensor:
#      x y z
#    x 1.965310 0.013140 0.017700 
#    y 0.013140 1.889960 0.005200 
#    z 0.017700 0.005200 1.942930 
# 
# From -- ./inp_files/336729.got.cif
#   From: 2010.05.17/outbox.cif.g08.bks.cpg/sg2_169_cif.got.tgz:336729.got - 2010.06.03 11:33:40.
