data_PCOD9061897
_publ_section_title
;
Structure prediction by ZEFSAII (Michael W. Deem and Ramdas Pophale) SiO2 
 PCOD9061897
Probable space group: P -1
;
_chemical_formula_sum "Si O2"
_cell_formula_units_Z 13
_cell_length_a 9.066566
_cell_length_b 7.685640
_cell_length_c 12.060031
_cell_angle_alpha 107.650613
_cell_angle_beta 127.001453
_cell_angle_gamma 108.082237
_cell_volume 487.300218
_symmetry_space_group_name_H-M "P -1"
_symmetry_group_IT_number 2
_symmetry_cell_setting 'triclinic'
loop_
_space_group_symop_operation_xyz
x,y,z
-x,-y,-z
loop_
_atom_site_type_symbol
_atom_site_label
_atom_site_fract_x
_atom_site_fract_y
_atom_site_fract_z
Si Si1 0.523981 0.800474 0.361267
Si Si2 0.019337 0.447658 0.168712
Si Si3 0.737102 0.609702 0.996114
Si Si4 0.952180 0.953384 0.338251
Si Si5 0.614926 0.945896 0.803345
Si Si6 0.000000 0.000000 0.000000
Si Si7 0.169359 0.710769 0.703824
O O1 0.786317 0.956194 0.563828
O O2 0.487353 0.967998 0.309697
O O3 0.303075 0.637926 0.315285
O O4 0.489141 0.616232 0.218321
O O5 0.901156 0.532139 0.060220
O O6 0.915106 0.401820 0.235115
O O7 0.896767 0.180190 0.015902
O O8 0.750799 0.693147 0.143557
O O9 0.868116 0.846113 0.029182
O O10 0.880666 0.108007 0.296337
O O11 0.000000 0.000000 0.500000
O O12 0.706711 0.816027 0.772980
O O13 0.441281 0.840947 0.811045
O O14 0.000000 0.500000 0.500000
#
# Coordination Sequence:
#
# PCOD9061897 Si02
#       7
#     2   2   2   2   2   1   2
#     4  11  24  49  77 106 149 193 248 305 369 441
#     4  11  23  48  72 107 145 193 245 306 371 431
#     4  11  25  45  75 107 143 194 247 304 367 434
#     4  12  27  48  71 110 149 197 247 300 369 442
#     4  11  23  46  73 104 145 189 246 300 363 444
#     4  12  22  44  78 108 136 196 248 298 370 434
#     4  12  28  46  68 108 154 193 241 305 375 437
#
# _framework density 26.677600000000002
#
# number of rings (size 3 to 8) (size 9 to 14) (size 15 to 20)
#    0.000    0.615    4.615    3.231    2.154    3.077 
#    0.000    0.000    0.000    0.000    0.000    0.000 
#    0.000    0.000    0.000    0.000    0.000    0.000 
#
# Total GULP energy -72647.846377 kJ/mol
# GULP energy per Si atom -5588.295875 kJ/mol
# Density = 2.661688 g / cm^3
# Si number density = 26.677600 Si / 1000 Ang^3
#
#
#
# Elastic Constant Matrix: (Units=GPa)
#
#
# Indices 1 2 3 4 5 6 
#
# 1 131.4680 56.0625 63.7773 4.3569 22.8659 22.1753
# 2 56.0625 116.0779 40.6241 -22.4460 11.6315 -2.0422
# 3 63.7773 40.6241 140.3315 19.9259 16.1992 10.3985
# 4 4.3569 -22.4460 19.9259 42.7915 -1.5587 0.4033
# 5 22.8659 11.6315 16.1992 -1.5587 70.6068 7.4551
# 6 22.1753 -2.0422 10.3985 0.4033 7.4551 63.9816
#
#
#
# Elastic Compliance Matrix: (Units=1/GPa)
#
#
# Indices 1 2 3 4 5 6 
#
# 1 0.012510 -0.005232 -0.003296 -0.002525 -0.002098 -0.003707
# 2 -0.005232 0.014160 -0.003271 0.009459 0.000032 0.002734
# 3 -0.003296 -0.003271 0.010618 -0.006353 -0.000913 -0.000541
# 4 -0.002525 0.009459 -0.006353 0.031573 0.001217 0.001869
# 5 -0.002098 0.000032 -0.000913 0.001217 0.015168 -0.000899
# 6 -0.003707 0.002734 -0.000541 0.001869 -0.000899 0.017182
#
#
# Mechanical properties :
#
#
# Convention : Reuss Voigt Hill
#
# Bulk Modulus (GPa) = 73.03568 78.75613 75.89590
# Shear Modulus (GPa) = 38.64810 50.63689 44.64249
#
# Velocity S-wave (km/s) = 3.81032 4.36145 4.09517
# Velocity P-wave (km/s) = 6.84066 7.41273 7.13243
#
# Compressibility (1/GPa) = 0.01369194
#
# Stress axis : x y z
#
# Youngs Moduli (GPa) = 79.93608 70.61936 94.17837
#
# Poissons Ratio (x) = 0.36947 0.31037
# Poissons Ratio (y) = 0.41822 0.30804
# Poissons Ratio (z) = 0.26343 0.23098
#
# Static dielectric constant tensor:
#      x y z
#    x 2.258800 -0.097810 -0.015650 
#    y -0.097810 2.263940 -0.039080 
#    z -0.015650 -0.039080 2.134210 
# 
# From -- ./inp_files/233959.got.cif
#   From: 2010.05.17/outbox.cif.g08.bks.cpg/sg2_117_cif.got.tgz:233959.got - 2010.06.03 11:33:40.
