data_PCOD9061010
_publ_section_title
;
Structure prediction by ZEFSAII (Michael W. Deem and Ramdas Pophale) SiO2 
 PCOD9061010
Probable space group: P -1
;
_chemical_formula_sum "Si O2"
_cell_formula_units_Z 15
_cell_length_a 9.651759
_cell_length_b 9.424512
_cell_length_c 8.407508
_cell_angle_alpha 97.447431
_cell_angle_beta 94.882751
_cell_angle_gamma 127.797866
_cell_volume 585.844418
_symmetry_space_group_name_H-M "P -1"
_symmetry_group_IT_number 2
_symmetry_cell_setting 'triclinic'
loop_
_space_group_symop_operation_xyz
x,y,z
-x,-y,-z
loop_
_atom_site_type_symbol
_atom_site_label
_atom_site_fract_x
_atom_site_fract_y
_atom_site_fract_z
Si Si1 0.697506 0.960962 0.273028
Si Si2 0.047256 0.775935 0.414324
Si Si3 0.747854 0.119432 0.968175
Si Si4 0.689952 0.615926 0.220410
Si Si5 0.759546 0.874043 0.720135
Si Si6 0.500000 0.500000 0.500000
Si Si7 0.168518 0.344223 0.097268
Si Si8 0.691612 0.284683 0.720741
O O1 0.709457 0.799565 0.221354
O O2 0.520321 0.870338 0.352124
O O3 0.881538 0.134670 0.394379
O O4 0.676269 0.039267 0.122932
O O5 0.173253 0.726949 0.365612
O O6 0.839448 0.624312 0.338427
O O7 0.090050 0.940437 0.332647
O O8 0.964446 0.246504 0.014532
O O9 0.714329 0.248267 0.900093
O O10 0.668038 0.944339 0.818723
O O11 0.523377 0.487166 0.303500
O O12 0.706828 0.569511 0.035255
O O13 0.654016 0.721586 0.550437
O O14 0.837151 0.813810 0.845297
O O15 0.242532 0.509949 0.253589
#
# Coordination Sequence:
#
# PCOD9061010 Si02
#       8
#     2   2   2   2   2   1   2   2
#     4  12  24  45  74 106 140 192 241 297 351 422
#     4  11  25  48  75 101 149 192 237 287 366 429
#     4  11  24  44  73 104 135 197 240 284 348 438
#     4  12  25  45  74 106 140 189 236 303 351 422
#     4  11  23  44  71 107 139 182 239 291 349 425
#     4  12  28  40  68 112 144 170 232 312 348 410
#     4  12  24  45  76 104 144 186 245 292 355 422
#     4  11  26  46  69 106 151 188 234 300 353 424
#
# _framework density 25.604068999999999
#
# number of rings (size 3 to 8) (size 9 to 14) (size 15 to 20)
#    0.000    0.533    5.333    3.600    3.733    1.067 
#    0.000    0.667    0.000    0.000    0.000    0.000 
#    0.000    0.000    0.000    0.000    0.000    0.000 
#
# Total GULP energy -83734.854275 kJ/mol
# GULP energy per Si atom -5582.323618 kJ/mol
# Density = 2.554579 g / cm^3
# Si number density = 25.604069 Si / 1000 Ang^3
#
#
#
# Elastic Constant Matrix: (Units=GPa)
#
#
# Indices 1 2 3 4 5 6 
#
# 1 104.9867 17.5903 -4.6769 -0.6383 -5.3986 -3.9372
# 2 17.5903 43.1006 -4.1426 3.2384 -16.6168 -7.9590
# 3 -4.6769 -4.1426 61.4025 -10.7551 -8.8218 2.3178
# 4 -0.6383 3.2384 -10.7551 41.0649 -0.2761 5.5620
# 5 -5.3986 -16.6168 -8.8218 -0.2761 35.3924 2.8600
# 6 -3.9372 -7.9590 2.3178 5.5620 2.8600 31.9671
#
#
#
# Elastic Compliance Matrix: (Units=1/GPa)
#
#
# Indices 1 2 3 4 5 6 
#
# 1 0.010259 -0.004287 0.000555 0.000631 -0.000311 0.000074
# 2 -0.004287 0.032355 0.003303 -0.002520 0.014823 0.006400
# 3 0.000555 0.003303 0.018394 0.004861 0.006409 -0.001862
# 4 0.000631 -0.002520 0.004861 0.026597 0.000785 -0.005600
# 5 -0.000311 0.014823 0.006409 0.000785 0.036790 -0.000240
# 6 0.000074 0.006400 -0.001862 -0.005600 -0.000240 0.034016
#
#
# Mechanical properties :
#
#
# Convention : Reuss Voigt Hill
#
# Bulk Modulus (GPa) = 16.62524 25.22570 20.92547
# Shear Modulus (GPa) = 27.88363 35.06613 31.47488
#
# Velocity S-wave (km/s) = 3.30363 3.70476 3.50993
# Velocity P-wave (km/s) = 4.58903 5.30792 4.96151
#
# Compressibility (1/GPa) = 0.06014950
#
# Stress axis : x y z
#
# Youngs Moduli (GPa) = 97.47869 30.90737 54.36699
#
# Poissons Ratio (x) = 0.13250 -0.03019
# Poissons Ratio (y) = 0.41788 -0.17957
# Poissons Ratio (z) = -0.05412 -0.10209
#
# Static dielectric constant tensor:
#      x y z
#    x 2.076510 0.047180 0.016460 
#    y 0.047180 1.958260 0.011700 
#    z 0.016460 0.011700 2.048190 
# 
# From -- ./inp_files/156634.got.cif
#   From: 2010.05.17/outbox.cif.g08.bks.cpg/sg2_79_cif.got.tgz:156634.got - 2010.06.03 11:33:40.
