data_PCOD9061781
_publ_section_title
;
Structure prediction by ZEFSAII (Michael W. Deem and Ramdas Pophale) SiO2 
 PCOD9061781
Probable space group: P -1
;
_chemical_formula_sum "Si O2"
_cell_formula_units_Z 14
_cell_length_a 8.758681
_cell_length_b 17.852340
_cell_length_c 14.974481
_cell_angle_alpha 21.245522
_cell_angle_beta 127.608745
_cell_angle_gamma 126.552339
_cell_volume 669.219900
_symmetry_space_group_name_H-M "P -1"
_symmetry_group_IT_number 2
_symmetry_cell_setting 'triclinic'
loop_
_space_group_symop_operation_xyz
x,y,z
-x,-y,-z
loop_
_atom_site_type_symbol
_atom_site_label
_atom_site_fract_x
_atom_site_fract_y
_atom_site_fract_z
Si Si1 0.091171 0.371792 0.596580
Si Si2 0.523361 0.784287 0.010487
Si Si3 0.528371 0.593746 0.025748
Si Si4 0.897756 0.394686 0.166390
Si Si5 0.270416 0.821234 0.415174
Si Si6 0.135632 0.626595 0.148883
Si Si7 0.179593 0.048698 0.313083
O O1 0.279122 0.276580 0.806614
O O2 0.149825 0.516948 0.371100
O O3 0.000000 0.500000 0.500000
O O4 0.916974 0.210713 0.678885
O O5 0.504693 0.672908 0.031045
O O6 0.340355 0.711751 0.086035
O O7 0.556685 0.031016 0.731693
O O8 0.659001 0.402722 0.289305
O O9 0.315564 0.530387 0.983494
O O10 0.631601 0.788201 0.791556
O O11 0.029556 0.463392 0.221979
O O12 0.858803 0.145491 0.418876
O O13 0.000000 0.500000 0.000000
O O14 0.208887 0.939031 0.350478
O O15 0.999760 0.813422 0.903281
#
# Coordination Sequence:
#
# PCOD9061781 Si02
#       7
#     2   2   2   2   2   2   2
#     4  12  22  48  73  98 137 180 228 283 332 408
#     4  11  25  41  71 103 139 177 225 281 343 398
#     4  11  23  46  70 102 134 182 233 276 333 408
#     4  12  26  44  72 100 143 179 223 287 344 396
#     4  11  23  46  71 101 136 179 231 277 336 407
#     4  12  26  46  66 108 140 176 228 282 339 409
#     4  11  24  45  69 100 139 180 230 276 338 407
#
# _framework density 20.919879999999999
#
# number of rings (size 3 to 8) (size 9 to 14) (size 15 to 20)
#    0.000    0.571    5.714    2.143    2.000    5.143 
#    0.000    1.429    0.000    0.000    0.000    0.000 
#    0.000    0.000    0.000    0.000    0.000    0.000 
#
# Total GULP energy -78366.425585 kJ/mol
# GULP energy per Si atom -5597.601827 kJ/mol
# Density = 2.087227 g / cm^3
# Si number density = 20.919880 Si / 1000 Ang^3
#
#
#
# Elastic Constant Matrix: (Units=GPa)
#
#
# Indices 1 2 3 4 5 6 
#
# 1 109.2273 45.5609 51.2556 -24.1970 -33.7977 14.0141
# 2 45.5609 92.0543 26.5089 -6.1735 -18.8644 11.7609
# 3 51.2556 26.5089 110.7081 -9.1629 -22.6258 1.8111
# 4 -24.1970 -6.1735 -9.1629 31.0403 1.4379 -1.8241
# 5 -33.7977 -18.8644 -22.6258 1.4379 42.9216 2.8404
# 6 14.0141 11.7609 1.8111 -1.8241 2.8404 40.8795
#
#
#
# Elastic Compliance Matrix: (Units=1/GPa)
#
#
# Indices 1 2 3 4 5 6 
#
# 1 0.020553 -0.004848 -0.004869 0.012758 0.011433 -0.005660
# 2 -0.004848 0.014177 -0.000772 -0.001444 0.002227 -0.002602
# 3 -0.004869 -0.000772 0.011820 -0.000482 0.001993 0.001208
# 4 0.012758 -0.001444 -0.000482 0.041208 0.007952 -0.002651
# 5 0.011433 0.002227 0.001993 0.007952 0.034507 -0.006691
# 6 -0.005660 -0.002602 0.001208 -0.002651 -0.006691 0.027444
#
#
# Mechanical properties :
#
#
# Convention : Reuss Voigt Hill
#
# Bulk Modulus (GPa) = 39.10776 62.07118 50.58947
# Shear Modulus (GPa) = 27.90010 35.54589 31.72299
#
# Velocity S-wave (km/s) = 3.65590 4.12654 3.89833
# Velocity P-wave (km/s) = 6.04611 7.24153 6.67065
#
# Compressibility (1/GPa) = 0.02557037
#
# Stress axis : x y z
#
# Youngs Moduli (GPa) = 48.65548 70.53729 84.60395
#
# Poissons Ratio (x) = 0.34198 0.41197
# Poissons Ratio (y) = 0.23590 0.06530
# Poissons Ratio (z) = 0.23692 0.05444
#
# Static dielectric constant tensor:
#      x y z
#    x 1.732310 -0.001130 -0.024530 
#    y -0.001130 1.746250 -0.006660 
#    z -0.024530 -0.006660 1.765450 
# 
# From -- ./inp_files/38420.got.cif
#   From: 2010.05.17/outbox.cif.g08.bks.cpg/sg2_20_cif.got.tgz:38420.got - 2010.06.03 11:33:40.
