data_PCOD9061394
_publ_section_title
;
Structure prediction by ZEFSAII (Michael W. Deem and Ramdas Pophale) SiO2 
 PCOD9061394
Probable space group: P -1
;
_chemical_formula_sum "Si O2"
_cell_formula_units_Z 16
_cell_length_a 8.864280
_cell_length_b 15.175485
_cell_length_c 7.934682
_cell_angle_alpha 133.871425
_cell_angle_beta 117.886923
_cell_angle_gamma 74.586434
_cell_volume 677.248833
_symmetry_space_group_name_H-M "P -1"
_symmetry_group_IT_number 2
_symmetry_cell_setting 'triclinic'
loop_
_space_group_symop_operation_xyz
x,y,z
-x,-y,-z
loop_
_atom_site_type_symbol
_atom_site_label
_atom_site_fract_x
_atom_site_fract_y
_atom_site_fract_z
Si Si1 0.128122 0.689693 0.302322
Si Si2 0.195897 0.612019 0.879195
Si Si3 0.729736 0.956549 0.633189
Si Si4 0.542743 0.369842 0.428889
Si Si5 0.059851 0.352817 0.511352
Si Si6 0.445984 0.796970 0.112575
Si Si7 0.088697 0.966921 0.674308
Si Si8 0.708965 0.820652 0.762911
O O1 0.287704 0.618595 0.352574
O O2 0.166140 0.836691 0.530094
O O3 0.988002 0.657317 0.330950
O O4 0.090047 0.656693 0.043990
O O5 0.199295 0.468246 0.716061
O O6 0.097805 0.625620 0.667954
O O7 0.377158 0.692051 0.070685
O O8 0.634436 0.865332 0.325472
O O9 0.639337 0.899537 0.679792
O O10 0.932991 0.959167 0.717914
O O11 0.678830 0.095161 0.784380
O O12 0.500000 0.500000 0.500000
O O13 0.399316 0.294713 0.366911
O O14 0.569679 0.274018 0.165503
O O15 0.132025 0.233417 0.317566
O O16 0.000000 0.000000 0.500000
O O17 0.227729 0.077450 0.934953
#
# Coordination Sequence:
#
# PCOD9061394 Si02
#       8
#     2   2   2   2   2   2   2   2
#     4  12  25  47  74 104 146 190 239 294 361 424
#     4  11  24  43  72 103 137 193 237 287 355 423
#     4  11  24  42  70 102 138 186 233 296 363 421
#     4  12  28  47  70 104 146 192 241 291 355 426
#     4  11  24  45  72 101 145 186 237 298 349 422
#     4  11  23  45  69  99 148 183 233 298 358 420
#     4  12  25  44  73 108 142 182 241 296 357 432
#     4  12  25  43  70 102 143 184 237 296 358 425
#
# _framework density 23.624994000000001
#
# number of rings (size 3 to 8) (size 9 to 14) (size 15 to 20)
#    0.000    0.500    2.500    6.000    1.750    5.000 
#    2.250    2.500    0.000    0.000    0.000    0.000 
#    0.000    0.000    0.000    0.000    0.000    0.000 
#
# Total GULP energy -89464.756105 kJ/mol
# GULP energy per Si atom -5591.547257 kJ/mol
# Density = 2.357122 g / cm^3
# Si number density = 23.624994 Si / 1000 Ang^3
#
#
#
# Elastic Constant Matrix: (Units=GPa)
#
#
# Indices 1 2 3 4 5 6 
#
# 1 39.4377 30.6573 2.6097 7.5183 -2.3884 21.8000
# 2 30.6573 93.8669 24.3534 19.0211 2.0534 26.5671
# 3 2.6097 24.3534 100.9691 15.0179 -8.7173 11.4851
# 4 7.5183 19.0211 15.0179 45.1521 12.6630 -5.6881
# 5 -2.3884 2.0534 -8.7173 12.6630 26.6074 -2.7572
# 6 21.8000 26.5671 11.4851 -5.6881 -2.7572 39.9170
#
#
#
# Elastic Compliance Matrix: (Units=1/GPa)
#
#
# Indices 1 2 3 4 5 6 
#
# 1 0.046933 -0.008160 0.006059 -0.012156 0.010233 -0.022969
# 2 -0.008160 0.017130 -0.002321 -0.005758 -0.000816 -0.007154
# 3 0.006059 -0.002321 0.012707 -0.007156 0.007679 -0.005910
# 4 -0.012156 -0.005758 -0.007156 0.036245 -0.018540 0.016414
# 5 0.010233 -0.000816 0.007679 -0.018540 0.049231 -0.006497
# 6 -0.022969 -0.007154 -0.005910 0.016414 -0.006497 0.045948
#
#
# Mechanical properties :
#
#
# Convention : Reuss Voigt Hill
#
# Bulk Modulus (GPa) = 14.72184 38.83492 26.77838
# Shear Modulus (GPa) = 20.86125 34.11221 27.48673
#
# Velocity S-wave (km/s) = 2.97478 3.80400 3.41465
# Velocity P-wave (km/s) = 4.24784 5.98060 5.18708
#
# Compressibility (1/GPa) = 0.06792628
#
# Stress axis : x y z
#
# Youngs Moduli (GPa) = 21.30709 58.37720 78.69805
#
# Poissons Ratio (x) = 0.47636 -0.47687
# Poissons Ratio (y) = 0.17387 0.18266
# Poissons Ratio (z) = -0.12911 0.13550
#
# Static dielectric constant tensor:
#      x y z
#    x 1.924600 0.040340 -0.015030 
#    y 0.040340 1.927860 -0.061580 
#    z -0.015030 -0.061580 1.916220 
# 
# From -- ./inp_files/209553.got.cif
#   From: 2010.05.17/outbox.cif.g08.bks.cpg/sg2_105_cif.got.tgz:209553.got - 2010.06.03 11:33:40.
