data_PCOD9061162
_publ_section_title
;
Structure prediction by ZEFSAII (Michael W. Deem and Ramdas Pophale) SiO2 
 PCOD9061162
Probable space group: P -1
;
_chemical_formula_sum "Si O2"
_cell_formula_units_Z 14
_cell_length_a 8.011536
_cell_length_b 13.347420
_cell_length_c 8.738024
_cell_angle_alpha 39.554735
_cell_angle_beta 70.575948
_cell_angle_gamma 79.895305
_cell_volume 556.041616
_symmetry_space_group_name_H-M "P -1"
_symmetry_group_IT_number 2
_symmetry_cell_setting 'triclinic'
loop_
_space_group_symop_operation_xyz
x,y,z
-x,-y,-z
loop_
_atom_site_type_symbol
_atom_site_label
_atom_site_fract_x
_atom_site_fract_y
_atom_site_fract_z
Si Si1 0.849196 0.721600 0.514018
Si Si2 0.796166 0.168551 0.896667
Si Si3 0.142860 0.153677 0.293127
Si Si4 0.967385 0.381148 0.860682
Si Si5 0.538119 0.024167 0.638317
Si Si6 0.540722 0.378807 0.264294
Si Si7 0.680375 0.452187 0.442676
O O1 0.824852 0.801421 0.592089
O O2 0.656935 0.683629 0.538413
O O3 0.008112 0.826703 0.247479
O O4 0.901646 0.545143 0.735750
O O5 0.696894 0.271284 0.687577
O O6 0.837276 0.269269 0.922366
O O7 0.647980 0.022355 0.158227
O O8 0.321634 0.100821 0.223209
O O9 0.042621 0.283660 0.087253
O O10 0.000000 0.000000 0.500000
O O11 0.152880 0.448057 0.641066
O O12 0.500000 0.000000 0.500000
O O13 0.612510 0.211713 0.405059
O O14 0.669075 0.469998 0.242816
O O15 0.500000 0.500000 0.000000
O O16 0.500000 0.500000 0.500000
#
# Coordination Sequence:
#
# PCOD9061162 Si02
#       7
#     2   2   2   2   2   2   2
#     4  11  25  47  74 115 144 202 249 312 374 439
#     4  11  26  49  77 109 156 192 255 315 380 443
#     4  12  27  46  74 110 152 199 251 308 376 450
#     4  11  24  45  75 107 151 197 249 306 371 452
#     4  12  28  51  74 112 153 203 246 313 382 450
#     4  12  28  47  81 109 153 200 256 305 372 457
#     4  11  23  44  73 112 146 195 251 308 373 439
#
# _framework density 25.177972
#
# number of rings (size 3 to 8) (size 9 to 14) (size 15 to 20)
#    0.000    0.571    1.429    6.429   10.000    1.143 
#    2.571    0.000    0.000    0.000    0.000    0.000 
#    0.000    0.000    0.000    0.000    0.000    0.000 
#
# Total GULP energy -78290.738100 kJ/mol
# GULP energy per Si atom -5592.195579 kJ/mol
# Density = 2.512067 g / cm^3
# Si number density = 25.177972 Si / 1000 Ang^3
#
#
#
# Elastic Constant Matrix: (Units=GPa)
#
#
# Indices 1 2 3 4 5 6 
#
# 1 115.4975 32.0971 29.1874 -7.8506 -3.2374 -12.7612
# 2 32.0971 112.4420 27.7861 -11.3244 -5.3589 -0.3502
# 3 29.1874 27.7861 121.0418 -10.6650 -3.2052 -0.4470
# 4 -7.8506 -11.3244 -10.6650 35.8932 1.3268 -3.2018
# 5 -3.2374 -5.3589 -3.2052 1.3268 46.7690 9.6304
# 6 -12.7612 -0.3502 -0.4470 -3.2018 9.6304 48.9770
#
#
#
# Elastic Compliance Matrix: (Units=1/GPa)
#
#
# Indices 1 2 3 4 5 6 
#
# 1 0.010138 -0.002333 -0.001801 0.001202 -0.000288 0.002744
# 2 -0.002333 0.010208 -0.001567 0.002156 0.000963 -0.000598
# 3 -0.001801 -0.001567 0.009223 0.001808 0.000348 -0.000346
# 4 0.001202 0.002156 0.001808 0.029593 -0.000891 0.002455
# 5 -0.000288 0.000963 0.000348 -0.000891 0.022456 -0.004539
# 6 0.002744 -0.000598 -0.000346 0.002455 -0.004539 0.022178
#
#
# Mechanical properties :
#
#
# Convention : Reuss Voigt Hill
#
# Bulk Modulus (GPa) = 55.04656 58.56915 56.80786
# Shear Modulus (GPa) = 41.23572 43.65523 42.44547
#
# Velocity S-wave (km/s) = 4.05133 4.16849 4.11033
# Velocity P-wave (km/s) = 6.61776 6.81769 6.71847
#
# Compressibility (1/GPa) = 0.01816644
#
# Stress axis : x y z
#
# Youngs Moduli (GPa) = 98.63461 97.96265 108.42560
#
# Poissons Ratio (x) = 0.22857 0.19525
# Poissons Ratio (y) = 0.23014 0.16995
# Poissons Ratio (z) = 0.17761 0.15355
#
# Static dielectric constant tensor:
#      x y z
#    x 1.963710 -0.125790 0.015830 
#    y -0.125790 2.007350 -0.020180 
#    z 0.015830 -0.020180 2.098120 
# 
# From -- ./inp_files/205045.got.cif
#   From: 2010.05.17/outbox.cif.g08.bks.cpg/sg2_103_cif.got.tgz:205045.got - 2010.06.03 11:33:40.
