data_PCOD9061824
_publ_section_title
;
Structure prediction by ZEFSAII (Michael W. Deem and Ramdas Pophale) SiO2 
 PCOD9061824
Probable space group: P -1
;
_chemical_formula_sum "Si O2"
_cell_formula_units_Z 13
_cell_length_a 13.807885
_cell_length_b 6.139971
_cell_length_c 9.291906
_cell_angle_alpha 128.866662
_cell_angle_beta 62.605340
_cell_angle_gamma 122.666764
_cell_volume 507.407074
_symmetry_space_group_name_H-M "P -1"
_symmetry_group_IT_number 2
_symmetry_cell_setting 'triclinic'
loop_
_space_group_symop_operation_xyz
x,y,z
-x,-y,-z
loop_
_atom_site_type_symbol
_atom_site_label
_atom_site_fract_x
_atom_site_fract_y
_atom_site_fract_z
Si Si1 0.281757 0.694102 0.208610
Si Si2 0.068655 0.066411 0.133178
Si Si3 0.321513 0.874554 0.645723
Si Si4 0.762726 0.266492 0.069176
Si Si5 0.836572 0.970614 0.373087
Si Si6 0.476643 0.547223 0.365833
Si Si7 0.500000 0.500000 0.000000
O O1 0.178586 0.373091 0.170811
O O2 0.402275 0.660708 0.157685
O O3 0.233725 0.925974 0.415963
O O4 0.285280 0.768809 0.070432
O O5 0.976510 0.083224 0.323704
O O6 0.122345 0.816689 0.033379
O O7 0.000000 0.000000 0.000000
O O8 0.330326 0.942341 0.837867
O O9 0.351373 0.585594 0.473502
O O10 0.198489 0.876987 0.680034
O O11 0.417010 0.139762 0.607361
O O12 0.792440 0.612163 0.236543
O O13 0.500000 0.500000 0.500000
O O14 0.486624 0.395638 0.144232
#
# Coordination Sequence:
#
# PCOD9061824 Si02
#       7
#     2   2   2   2   2   2   1
#     4  12  28  49  77 119 155 208 272 327 401 479
#     4  12  25  49  79 108 162 207 263 336 399 480
#     4  11  23  46  71 106 153 201 258 324 391 471
#     4  12  25  48  78 113 154 208 262 325 415 474
#     4  12  25  47  75 112 155 205 257 330 399 474
#     4  11  24  46  75 108 153 214 267 324 398 469
#     4  12  24  50  78 114 162 200 270 332 388 486
#
# _framework density 25.620456000000001
#
# number of rings (size 3 to 8) (size 9 to 14) (size 15 to 20)
#    0.000    0.308    4.615    4.615    0.000    1.846 
#    8.308    4.615    0.000    0.000    0.000    0.000 
#    0.000    0.000    0.000    0.000    0.000    0.000 
#
# Total GULP energy -72501.049618 kJ/mol
# GULP energy per Si atom -5577.003817 kJ/mol
# Density = 2.556214 g / cm^3
# Si number density = 25.620456 Si / 1000 Ang^3
#
#
#
# Elastic Constant Matrix: (Units=GPa)
#
#
# Indices 1 2 3 4 5 6 
#
# 1 164.3249 49.4493 88.1301 -4.4357 -41.8016 -30.2156
# 2 49.4493 101.1269 70.2686 -19.8128 -2.7055 -16.4669
# 3 88.1301 70.2686 214.2272 -22.4320 -21.3830 -27.8514
# 4 -4.4357 -19.8128 -22.4320 56.9048 -12.4493 -0.0627
# 5 -41.8016 -2.7055 -21.3830 -12.4493 60.0872 -0.5429
# 6 -30.2156 -16.4669 -27.8514 -0.0627 -0.5429 39.8429
#
#
#
# Elastic Compliance Matrix: (Units=1/GPa)
#
#
# Indices 1 2 3 4 5 6 
#
# 1 0.010801 -0.002581 -0.002104 0.000614 0.006828 0.005748
# 2 -0.002581 0.014230 -0.003228 0.003124 -0.001641 0.001650
# 3 -0.002104 -0.003228 0.007197 0.001848 0.001354 0.002123
# 4 0.000614 0.003124 0.001848 0.020651 0.005533 0.003156
# 5 0.006828 -0.001641 0.001354 0.005533 0.022999 0.005769
# 6 0.005748 0.001650 0.002123 0.003156 0.005769 0.031707
#
#
# Mechanical properties :
#
#
# Convention : Reuss Voigt Hill
#
# Bulk Modulus (GPa) = 60.96478 99.48609 80.22544
# Shear Modulus (GPa) = 38.79633 49.48905 44.14269
#
# Velocity S-wave (km/s) = 3.89559 4.39979 4.15534
# Velocity P-wave (km/s) = 6.63936 8.04524 7.37587
#
# Compressibility (1/GPa) = 0.01640291
#
# Stress axis : x y z
#
# Youngs Moduli (GPa) = 92.58550 70.27191 138.94938
#
# Poissons Ratio (x) = 0.18135 0.29230
# Poissons Ratio (y) = 0.23893 0.44857
# Poissons Ratio (z) = 0.19477 0.22686
#
# Static dielectric constant tensor:
#      x y z
#    x 1.759610 -0.270590 -0.147850 
#    y -0.270590 1.788580 -0.210240 
#    z -0.147850 -0.210240 1.927380 
# 
# From -- ./inp_files/288219.got.cif
#   From: 2010.05.17/outbox.cif.g08.bks.cpg/sg2_145_cif.got.tgz:288219.got - 2010.06.03 11:33:40.
