data_PCOD9061250
_publ_section_title
;
Structure prediction by ZEFSAII (Michael W. Deem and Ramdas Pophale) SiO2 
 PCOD9061250
Probable space group: P -1
;
_chemical_formula_sum "Si O2"
_cell_formula_units_Z 10
_cell_length_a 9.119082
_cell_length_b 12.323575
_cell_length_c 10.586755
_cell_angle_alpha 139.394664
_cell_angle_beta 126.157112
_cell_angle_gamma 86.189912
_cell_volume 429.974184
_symmetry_space_group_name_H-M "P -1"
_symmetry_group_IT_number 2
_symmetry_cell_setting 'triclinic'
loop_
_space_group_symop_operation_xyz
x,y,z
-x,-y,-z
loop_
_atom_site_type_symbol
_atom_site_label
_atom_site_fract_x
_atom_site_fract_y
_atom_site_fract_z
Si Si1 0.735940 0.716594 0.908310
Si Si2 0.189525 0.530060 0.768094
Si Si3 0.409056 0.811729 0.896441
Si Si4 0.815026 0.863260 0.665479
Si Si5 0.236335 0.545896 0.106085
O O1 0.500000 0.500000 0.500000
O O2 0.619499 0.810061 0.979253
O O3 0.783644 0.632909 0.978347
O O4 0.015231 0.935400 0.178260
O O5 0.380215 0.782292 0.009370
O O6 0.220634 0.359672 0.579279
O O7 0.897771 0.412320 0.495221
O O8 0.218331 0.528042 0.930271
O O9 0.500000 0.000000 0.000000
O O10 0.549173 0.786045 0.494382
O O11 0.000000 0.000000 0.000000
O O12 0.000000 0.500000 0.000000
#
# Coordination Sequence:
#
# PCOD9061250 Si02
#       5
#     2   2   2   2   2
#     4  12  24  46  75 107 151 198 250 309 375 442
#     4  11  25  45  76 111 150 195 253 306 376 451
#     4  11  23  44  76 109 147 194 247 307 379 446
#     4  12  25  46  77 107 146 205 251 300 375 452
#     4  12  28  48  73 112 158 192 253 318 369 440
#
# _framework density 23.257207999999999
#
# number of rings (size 3 to 8) (size 9 to 14) (size 15 to 20)
#    0.000    0.400    6.000    1.800    0.000    4.800 
#    0.000    0.000    0.000    0.000    0.000    0.000 
#    0.000    0.000    0.000    0.000    0.000    0.000 
#
# Total GULP energy -55743.413475 kJ/mol
# GULP energy per Si atom -5574.341347 kJ/mol
# Density = 2.320427 g / cm^3
# Si number density = 23.257208 Si / 1000 Ang^3
#
#
#
# Elastic Constant Matrix: (Units=GPa)
#
#
# Indices 1 2 3 4 5 6 
#
# 1 152.5088 91.9725 60.1682 7.5603 35.3865 5.4259
# 2 91.9725 278.7348 45.5156 -4.0402 7.3384 27.6942
# 3 60.1682 45.5156 62.6379 -10.1576 23.4599 7.5182
# 4 7.5603 -4.0402 -10.1576 51.4559 14.1395 14.4751
# 5 35.3865 7.3384 23.4599 14.1395 46.9747 -0.7816
# 6 5.4259 27.6942 7.5182 14.4751 -0.7816 53.5826
#
#
#
# Elastic Compliance Matrix: (Units=1/GPa)
#
#
# Indices 1 2 3 4 5 6 
#
# 1 0.013267 -0.002913 -0.010524 -0.004208 -0.002971 0.002732
# 2 -0.002913 0.004904 -0.000962 0.000825 0.001622 -0.002304
# 3 -0.010524 -0.000962 0.035227 0.014360 -0.013961 -0.007463
# 4 -0.004208 0.000825 0.014360 0.029424 -0.013157 -0.010156
# 5 -0.002971 0.001622 -0.013961 -0.013157 0.034296 0.005476
# 6 0.002732 -0.002304 -0.007463 -0.010156 0.005476 0.023448
#
#
# Mechanical properties :
#
#
# Convention : Reuss Voigt Hill
#
# Bulk Modulus (GPa) = 40.65438 98.79934 69.72686
# Shear Modulus (GPa) = 28.15868 50.15099 39.15483
#
# Velocity S-wave (km/s) = 3.48336 4.64870 4.10757
# Velocity P-wave (km/s) = 5.80488 8.44910 7.24859
#
# Compressibility (1/GPa) = 0.02459760
#
# Stress axis : x y z
#
# Youngs Moduli (GPa) = 75.37713 203.90517 28.38741
#
# Poissons Ratio (x) = 0.59402 0.29876
# Poissons Ratio (y) = 0.21959 0.02732
# Poissons Ratio (z) = 0.79330 0.19626
#
# Static dielectric constant tensor:
#      x y z
#    x 1.819510 -0.043930 0.014320 
#    y -0.043930 1.830760 0.107740 
#    z 0.014320 0.107740 1.918300 
# 
# From -- ./inp_files/144324.got.cif
#   From: 2010.05.17/outbox.cif.g08.bks.cpg/sg2_73_cif.got.tgz:144324.got - 2010.06.03 11:33:40.
