data_PCOD9061727
_publ_section_title
;
Structure prediction by ZEFSAII (Michael W. Deem and Ramdas Pophale) SiO2 
 PCOD9061727
Probable space group: P -1
;
_chemical_formula_sum "Si O2"
_cell_formula_units_Z 16
_cell_length_a 8.809940
_cell_length_b 8.650136
_cell_length_c 12.016996
_cell_angle_alpha 83.821718
_cell_angle_beta 84.709887
_cell_angle_gamma 127.600482
_cell_volume 706.709654
_symmetry_space_group_name_H-M "P -1"
_symmetry_group_IT_number 2
_symmetry_cell_setting 'triclinic'
loop_
_space_group_symop_operation_xyz
x,y,z
-x,-y,-z
loop_
_atom_site_type_symbol
_atom_site_label
_atom_site_fract_x
_atom_site_fract_y
_atom_site_fract_z
Si Si1 0.678269 0.477049 0.102329
Si Si2 0.981500 0.858455 0.917828
Si Si3 0.734205 0.801618 0.744356
Si Si4 0.427837 0.781296 0.503032
Si Si5 0.728433 0.170267 0.695615
Si Si6 0.210138 0.211391 0.496875
Si Si7 0.842190 0.583855 0.312453
Si Si8 0.377063 0.918217 0.899616
O O1 0.447220 0.348032 0.150022
O O2 0.771794 0.604707 0.199119
O O3 0.695061 0.302433 0.102556
O O4 0.801531 0.632329 0.983801
O O5 0.926244 0.892250 0.797931
O O6 0.186274 0.901071 0.906827
O O7 0.000000 0.000000 0.000000
O O8 0.722779 0.695850 0.639448
O O9 0.726927 0.979591 0.693006
O O10 0.283656 0.718427 0.414563
O O11 0.614174 0.788324 0.473329
O O12 0.306212 0.647748 0.627654
O O13 0.500000 0.000000 0.500000
O O14 0.936834 0.329674 0.725574
O O15 0.535852 0.074333 0.787193
O O16 0.176780 0.317815 0.585790
O O17 0.000000 0.000000 0.500000
O O18 0.500000 0.000000 0.000000
#
# Coordination Sequence:
#
# PCOD9061727 Si02
#       8
#     2   2   2   2   2   2   2   2
#     4  11  24  47  73 101 143 183 231 293 350 421
#     4  12  26  45  78 105 137 184 233 294 359 413
#     4  11  23  46  67 104 144 182 231 289 345 412
#     4  12  23  44  69 101 138 189 233 282 351 406
#     4  11  24  43  68 101 142 187 229 289 338 422
#     4  12  25  44  72 103 148 183 233 291 345 417
#     4  12  24  46  70 105 145 185 233 289 350 411
#     4  11  25  49  73 103 139 183 236 291 354 417
#
# _framework density 22.640129999999999
#
# number of rings (size 3 to 8) (size 9 to 14) (size 15 to 20)
#    0.000    0.500    3.750    5.250    1.750    0.000 
#    6.750    0.000    0.000    0.000    0.000    0.000 
#    0.000    0.000    0.000    0.000    0.000    0.000 
#
# Total GULP energy -89415.449754 kJ/mol
# GULP energy per Si atom -5588.465610 kJ/mol
# Density = 2.258860 g / cm^3
# Si number density = 22.640130 Si / 1000 Ang^3
#
#
#
# Elastic Constant Matrix: (Units=GPa)
#
#
# Indices 1 2 3 4 5 6 
#
# 1 163.7168 38.8823 54.1206 5.6164 4.4840 23.5922
# 2 38.8823 69.5053 1.6875 -0.9955 -7.1446 5.3594
# 3 54.1206 1.6875 82.0477 5.8020 9.0210 -11.8395
# 4 5.6164 -0.9955 5.8020 47.5329 12.9491 -5.9012
# 5 4.4840 -7.1446 9.0210 12.9491 41.3322 5.9617
# 6 23.5922 5.3594 -11.8395 -5.9012 5.9617 26.4143
#
#
#
# Elastic Compliance Matrix: (Units=1/GPa)
#
#
# Indices 1 2 3 4 5 6 
#
# 1 0.014217 -0.005868 -0.012121 -0.003714 0.003944 -0.018660
# 2 -0.005868 0.017613 0.003632 0.000322 0.002379 0.002830
# 3 -0.012121 0.003632 0.024101 0.003614 -0.007834 0.023467
# 4 -0.003714 0.000322 0.003614 0.025398 -0.010138 0.012834
# 5 0.003944 0.002379 -0.007834 -0.010138 0.031500 -0.016892
# 6 -0.018660 0.002830 0.023467 0.012834 -0.016892 0.071149
#
#
# Mechanical properties :
#
#
# Convention : Reuss Voigt Hill
#
# Bulk Modulus (GPa) = 36.74074 56.07230 46.40652
# Shear Modulus (GPa) = 22.54669 37.76116 30.15392
#
# Velocity S-wave (km/s) = 3.15917 4.08841 3.65345
# Velocity P-wave (km/s) = 5.43788 6.86348 6.19184
#
# Compressibility (1/GPa) = 0.02721774
#
# Stress axis : x y z
#
# Youngs Moduli (GPa) = 70.33858 56.77725 41.49280
#
# Poissons Ratio (x) = 0.33316 0.50293
# Poissons Ratio (y) = 0.41274 -0.15072
# Poissons Ratio (z) = 0.85256 -0.20624
#
# Static dielectric constant tensor:
#      x y z
#    x 1.865010 0.084800 0.121480 
#    y 0.084800 1.992760 0.181020 
#    z 0.121480 0.181020 2.145600 
# 
# From -- ./inp_files/207526.got.cif
#   From: 2010.05.17/outbox.cif.g08.bks.cpg/sg2_104_cif.got.tgz:207526.got - 2010.06.03 11:33:40.
