data_PCOD9061879
_publ_section_title
;
Structure prediction by ZEFSAII (Michael W. Deem and Ramdas Pophale) SiO2 
 PCOD9061879
Probable space group: P -1
;
_chemical_formula_sum "Si O2"
_cell_formula_units_Z 16
_cell_length_a 11.141994
_cell_length_b 11.453740
_cell_length_c 7.926956
_cell_angle_alpha 123.737803
_cell_angle_beta 121.732971
_cell_angle_gamma 49.492491
_cell_volume 617.399381
_symmetry_space_group_name_H-M "P -1"
_symmetry_group_IT_number 2
_symmetry_cell_setting 'triclinic'
loop_
_space_group_symop_operation_xyz
x,y,z
-x,-y,-z
loop_
_atom_site_type_symbol
_atom_site_label
_atom_site_fract_x
_atom_site_fract_y
_atom_site_fract_z
Si Si1 0.859038 0.053501 0.174823
Si Si2 0.606808 0.165010 0.788100
Si Si3 0.413481 0.553305 0.198088
Si Si4 0.689953 0.855222 0.424439
Si Si5 0.052270 0.678555 0.441395
Si Si6 0.435622 0.741130 0.686258
Si Si7 0.062121 0.680397 0.055987
Si Si8 0.753283 0.673133 0.674259
O O1 0.919917 0.177171 0.364118
O O2 0.717426 0.086932 0.234374
O O3 0.002607 0.869705 0.140134
O O4 0.768824 0.095485 0.962895
O O5 0.542096 0.347700 0.823123
O O6 0.463360 0.152225 0.768319
O O7 0.653475 0.038793 0.564648
O O8 0.384247 0.662302 0.434077
O O9 0.529266 0.374656 0.215938
O O10 0.241925 0.573710 0.028066
O O11 0.701604 0.792473 0.574462
O O12 0.863994 0.737211 0.379895
O O13 0.183238 0.510242 0.489642
O O14 0.082212 0.643090 0.238078
O O15 0.602966 0.728622 0.736663
O O16 0.915176 0.661492 0.861977
#
# Coordination Sequence:
#
# PCOD9061879 Si02
#       8
#     2   2   2   2   2   2   2   2
#     4  12  27  44  71 109 138 184 240 286 344 416
#     4  11  26  46  70 101 143 189 228 287 353 414
#     4  11  23  46  72  96 144 185 232 288 346 407
#     4  11  26  46  69 103 144 184 228 288 355 416
#     4  12  26  45  71 103 142 183 233 290 350 414
#     4  11  24  45  72 101 138 185 233 291 341 412
#     4  12  26  44  73 105 141 184 235 289 349 411
#     4  12  25  49  70 103 143 184 229 291 352 418
#
# _framework density 25.915154999999999
#
# number of rings (size 3 to 8) (size 9 to 14) (size 15 to 20)
#    0.000    0.500    5.000    2.625    5.250    2.000 
#    0.000    0.000    0.000    0.000    0.000    0.000 
#    0.000    0.000    0.000    0.000    0.000    0.000 
#
# Total GULP energy -89745.386860 kJ/mol
# GULP energy per Si atom -5609.086679 kJ/mol
# Density = 2.585617 g / cm^3
# Si number density = 25.915155 Si / 1000 Ang^3
#
#
#
# Elastic Constant Matrix: (Units=GPa)
#
#
# Indices 1 2 3 4 5 6 
#
# 1 112.6819 5.1588 -13.1241 2.1369 17.6218 -12.0636
# 2 5.1588 109.9743 -7.7972 3.9146 3.1899 6.1839
# 3 -13.1241 -7.7972 63.9190 -4.6447 20.4027 10.0926
# 4 2.1369 3.9146 -4.6447 34.6692 -4.9438 8.5949
# 5 17.6218 3.1899 20.4027 -4.9438 32.6493 0.0002
# 6 -12.0636 6.1839 10.0926 8.5949 0.0002 39.0222
#
#
#
# Elastic Compliance Matrix: (Units=1/GPa)
#
#
# Indices 1 2 3 4 5 6 
#
# 1 0.011201 -0.000003 0.004687 -0.002057 -0.009286 0.002704
# 2 -0.000003 0.009446 0.002165 -0.000639 -0.002371 -0.001917
# 3 0.004687 0.002165 0.023242 0.001445 -0.017047 -0.005223
# 4 -0.002057 -0.000639 0.001445 0.031933 0.005105 -0.007942
# 5 -0.009286 -0.002371 -0.017047 0.005105 0.047298 0.000789
# 6 0.002704 -0.001917 -0.005223 -0.007942 0.000789 0.029866
#
#
# Mechanical properties :
#
#
# Convention : Reuss Voigt Hill
#
# Bulk Modulus (GPa) = 17.36468 28.33887 22.85178
# Shear Modulus (GPa) = 31.54892 41.42399 36.48646
#
# Velocity S-wave (km/s) = 3.49290 4.00240 3.75630
# Velocity P-wave (km/s) = 4.79398 5.68488 5.25833
#
# Compressibility (1/GPa) = 0.05758815
#
# Stress axis : x y z
#
# Youngs Moduli (GPa) = 89.27583 105.86539 43.02509
#
# Poissons Ratio (x) = 0.00028 -0.20167
# Poissons Ratio (y) = 0.00023 -0.09314
# Poissons Ratio (z) = -0.41845 -0.22917
#
# Static dielectric constant tensor:
#      x y z
#    x 2.064310 0.023940 -0.021870 
#    y 0.023940 2.017880 0.027320 
#    z -0.021870 0.027320 2.030340 
# 
# From -- ./inp_files/263168.got.cif
#   From: 2010.05.17/outbox.cif.g08.bks.cpg/sg2_132_cif.got.tgz:263168.got - 2010.06.03 11:33:40.
