data_PCOD9061205
_publ_section_title
;
Structure prediction by ZEFSAII (Michael W. Deem and Ramdas Pophale) SiO2 
 PCOD9061205
Probable space group: P -1
;
_chemical_formula_sum "Si O2"
_cell_formula_units_Z 16
_cell_length_a 9.251716
_cell_length_b 8.750893
_cell_length_c 19.796874
_cell_angle_alpha 149.559393
_cell_angle_beta 122.625771
_cell_angle_gamma 57.242692
_cell_volume 672.896032
_symmetry_space_group_name_H-M "P -1"
_symmetry_group_IT_number 2
_symmetry_cell_setting 'triclinic'
loop_
_space_group_symop_operation_xyz
x,y,z
-x,-y,-z
loop_
_atom_site_type_symbol
_atom_site_label
_atom_site_fract_x
_atom_site_fract_y
_atom_site_fract_z
Si Si1 0.081009 0.807634 0.152102
Si Si2 0.112437 0.827247 0.403383
Si Si3 0.490988 0.607221 0.204473
Si Si4 0.204434 0.857700 0.690637
Si Si5 0.637257 0.196208 0.428885
Si Si6 0.521363 0.191909 0.932403
Si Si7 0.671200 0.748991 0.436967
Si Si8 0.897386 0.859221 0.861602
O O1 0.279641 0.698355 0.187990
O O2 0.075698 0.007121 0.156375
O O3 0.963899 0.006023 0.255446
O O4 0.000000 0.500000 0.000000
O O5 0.294862 0.742134 0.456854
O O6 0.052395 0.506994 0.253568
O O7 0.166964 0.071517 0.459226
O O8 0.000000 0.000000 0.500000
O O9 0.611211 0.576106 0.289824
O O10 0.548738 0.898275 0.293604
O O11 0.536888 0.304585 0.055670
O O12 0.213343 0.871801 0.616959
O O13 0.273855 0.504636 0.590071
O O14 0.351730 0.045036 0.823851
O O15 0.500000 0.500000 0.500000
O O16 0.693001 0.964483 0.865804
O O17 0.500000 0.500000 0.000000
O O18 0.500000 0.000000 0.500000
O O19 0.000000 0.000000 0.000000
#
# Coordination Sequence:
#
# PCOD9061205 Si02
#       8
#     2   2   2   2   2   2   2   2
#     4  12  25  44  64 109 143 174 231 295 351 402
#     4  11  26  48  69 100 138 181 233 282 342 422
#     4  11  24  44  70  94 141 189 231 285 344 426
#     4  12  24  42  73 107 139 180 229 295 351 403
#     4  11  23  44  74  96 133 189 239 275 343 425
#     4  12  22  44  71 100 137 188 238 277 348 422
#     4  11  26  45  68  99 138 177 231 290 351 404
#     4  12  28  46  74 101 140 189 236 282 346 427
#
# _framework density 23.777819999999998
#
# number of rings (size 3 to 8) (size 9 to 14) (size 15 to 20)
#    0.000    0.500    3.750    4.500    5.250    3.500 
#    0.000    3.750    0.000    0.000    0.000    0.000 
#    0.000    0.000    0.000    0.000    0.000    0.000 
#
# Total GULP energy -89489.946285 kJ/mol
# GULP energy per Si atom -5593.121643 kJ/mol
# Density = 2.372370 g / cm^3
# Si number density = 23.777820 Si / 1000 Ang^3
#
#
#
# Elastic Constant Matrix: (Units=GPa)
#
#
# Indices 1 2 3 4 5 6 
#
# 1 142.4261 16.3281 29.8560 1.6944 1.0913 2.1622
# 2 16.3281 51.0280 20.6040 -5.8058 13.0908 11.3059
# 3 29.8560 20.6040 139.9376 -3.5904 11.0651 19.1122
# 4 1.6944 -5.8058 -3.5904 48.1897 3.2021 -4.5950
# 5 1.0913 13.0908 11.0651 3.2021 47.2905 3.8869
# 6 2.1622 11.3059 19.1122 -4.5950 3.8869 31.0489
#
#
#
# Elastic Compliance Matrix: (Units=1/GPa)
#
#
# Indices 1 2 3 4 5 6 
#
# 1 0.007587 -0.002324 -0.001497 -0.000609 0.000773 0.001052
# 2 -0.002324 0.024275 -0.001650 0.002655 -0.005923 -0.006527
# 3 -0.001497 -0.001650 0.008388 0.000144 -0.001128 -0.004296
# 4 -0.000609 0.002655 0.000144 0.021499 -0.002413 0.002471
# 5 0.000773 -0.005923 -0.001128 -0.002413 0.023234 -0.000468
# 6 0.001052 -0.006527 -0.004296 0.002471 -0.000468 0.037579
#
#
# Mechanical properties :
#
#
# Convention : Reuss Voigt Hill
#
# Bulk Modulus (GPa) = 34.12186 51.88531 43.00358
# Shear Modulus (GPa) = 34.89832 43.07940 38.98886
#
# Velocity S-wave (km/s) = 3.83519 4.26108 4.05373
# Velocity P-wave (km/s) = 5.83036 6.78803 6.32734
#
# Compressibility (1/GPa) = 0.02930673
#
# Stress axis : x y z
#
# Youngs Moduli (GPa) = 131.80835 41.19485 119.21829
#
# Poissons Ratio (x) = 0.09574 0.17847
# Poissons Ratio (y) = 0.30633 0.19676
# Poissons Ratio (z) = 0.19731 0.06799
#
# Static dielectric constant tensor:
#      x y z
#    x 1.825450 -0.001210 -0.158470 
#    y -0.001210 1.965950 -0.073880 
#    z -0.158470 -0.073880 1.745040 
# 
# From -- ./inp_files/224399.got.cif
#   From: 2010.05.17/outbox.cif.g08.bks.cpg/sg2_113_cif.got.tgz:224399.got - 2010.06.03 11:33:40.
