data_PCOD9061788
_publ_section_title
;
Structure prediction by ZEFSAII (Michael W. Deem and Ramdas Pophale) SiO2 
 PCOD9061788
Probable space group: P -1
;
_chemical_formula_sum "Si O2"
_cell_formula_units_Z 14
_cell_length_a 14.854448
_cell_length_b 9.190673
_cell_length_c 5.723997
_cell_angle_alpha 65.652899
_cell_angle_beta 94.836003
_cell_angle_gamma 59.628617
_cell_volume 570.060916
_symmetry_space_group_name_H-M "P -1"
_symmetry_group_IT_number 2
_symmetry_cell_setting 'triclinic'
loop_
_space_group_symop_operation_xyz
x,y,z
-x,-y,-z
loop_
_atom_site_type_symbol
_atom_site_label
_atom_site_fract_x
_atom_site_fract_y
_atom_site_fract_z
Si Si1 0.557858 0.474616 0.780634
Si Si2 0.250668 0.836567 0.712040
Si Si3 0.902777 0.161854 0.034514
Si Si4 0.760934 0.463110 0.405922
Si Si5 0.673135 0.926186 0.659307
Si Si6 0.556781 0.816585 0.373020
Si Si7 0.099107 0.509855 0.920399
O O1 0.500000 0.500000 0.500000
O O2 0.574057 0.647900 0.663086
O O3 0.500000 0.500000 0.000000
O O4 0.666450 0.251147 0.990172
O O5 0.260644 0.654684 0.707008
O O6 0.280515 0.947508 0.474477
O O7 0.129209 0.949895 0.726633
O O8 0.802521 0.328695 0.734580
O O9 0.929095 0.292191 0.097904
O O10 0.000000 0.000000 0.000000
O O11 0.642806 0.675834 0.281506
O O12 0.862767 0.474235 0.343797
O O13 0.602288 0.929187 0.425421
O O14 0.781577 0.698091 0.849232
O O15 0.578712 0.031325 0.774218
O O16 0.000000 0.500000 0.000000
#
# Coordination Sequence:
#
# PCOD9061788 Si02
#       7
#     2   2   2   2   2   2   2
#     4  12  24  45  73 108 149 203 251 311 373 461
#     4  11  25  45  73 106 145 188 261 303 377 454
#     4  11  26  46  74 103 137 195 252 309 380 453
#     4  11  24  48  75 103 146 199 248 318 373 466
#     4  11  25  45  69 109 148 192 244 311 385 449
#     4  11  23  46  70 104 153 190 250 300 386 451
#     4  11  27  48  71 105 150 187 247 317 388 455
#
# _framework density 24.558776999999999
#
# number of rings (size 3 to 8) (size 9 to 14) (size 15 to 20)
#    0.000    0.857    4.286    1.714    4.000    3.429 
#    2.571    0.000    0.000    0.000    0.000    0.000 
#    0.000    0.000    0.000    0.000    0.000    0.000 
#
# Total GULP energy -78135.464243 kJ/mol
# GULP energy per Si atom -5581.104589 kJ/mol
# Density = 2.450288 g / cm^3
# Si number density = 24.558777 Si / 1000 Ang^3
#
#
#
# Elastic Constant Matrix: (Units=GPa)
#
#
# Indices 1 2 3 4 5 6 
#
# 1 148.5537 57.5258 26.4860 5.5211 -38.3940 -29.1492
# 2 57.5258 121.7497 8.9450 2.4346 -14.3687 -35.8435
# 3 26.4860 8.9450 84.8646 -3.1410 -12.0787 -3.4662
# 4 5.5211 2.4346 -3.1410 39.6130 -4.9325 -0.9246
# 5 -38.3940 -14.3687 -12.0787 -4.9325 42.7248 3.7978
# 6 -29.1492 -35.8435 -3.4662 -0.9246 3.7978 54.2655
#
#
#
# Elastic Compliance Matrix: (Units=1/GPa)
#
#
# Indices 1 2 3 4 5 6 
#
# 1 0.010974 -0.003189 -0.001847 -0.000418 0.007942 0.003107
# 2 -0.003189 0.011496 0.000092 -0.000056 0.000500 0.005850
# 3 -0.001847 0.000092 0.012704 0.001522 0.002160 -0.000245
# 4 -0.000418 -0.000056 0.001522 0.025803 0.003009 0.000065
# 5 0.007942 0.000500 0.002160 0.003009 0.031439 0.002586
# 6 0.003107 0.005850 -0.000245 0.000065 0.002586 0.023766
#
#
# Mechanical properties :
#
#
# Convention : Reuss Voigt Hill
#
# Bulk Modulus (GPa) = 39.54837 60.12019 49.83428
# Shear Modulus (GPa) = 37.17517 44.80139 40.98828
#
# Velocity S-wave (km/s) = 3.89488 4.27576 4.08976
# Velocity P-wave (km/s) = 6.03036 6.99353 6.52973
#
# Compressibility (1/GPa) = 0.02528549
#
# Stress axis : x y z
#
# Youngs Moduli (GPa) = 91.12744 86.98663 78.71516
#
# Poissons Ratio (x) = 0.27738 0.14538
# Poissons Ratio (y) = 0.29058 -0.00720
# Poissons Ratio (z) = 0.16830 -0.00796
#
# Static dielectric constant tensor:
#      x y z
#    x 2.099180 -0.071310 0.018090 
#    y -0.071310 1.956520 0.008530 
#    z 0.018090 0.008530 1.987840 
# 
# From -- ./inp_files/89668.got.cif
#   From: 2010.05.17/outbox.cif.g08.bks.cpg/sg2_45_cif.got.tgz:89668.got - 2010.06.03 11:33:40.
