data_PCOD9061630
_publ_section_title
;
Structure prediction by ZEFSAII (Michael W. Deem and Ramdas Pophale) SiO2 
 PCOD9061630
Probable space group: P -1
;
_chemical_formula_sum "Si O2"
_cell_formula_units_Z 15
_cell_length_a 16.889017
_cell_length_b 8.974813
_cell_length_c 16.012777
_cell_angle_alpha 140.612190
_cell_angle_beta 25.528873
_cell_angle_gamma 143.852457
_cell_volume 607.610941
_symmetry_space_group_name_H-M "P -1"
_symmetry_group_IT_number 2
_symmetry_cell_setting 'triclinic'
loop_
_space_group_symop_operation_xyz
x,y,z
-x,-y,-z
loop_
_atom_site_type_symbol
_atom_site_label
_atom_site_fract_x
_atom_site_fract_y
_atom_site_fract_z
Si Si1 0.359872 0.710663 0.836074
Si Si2 0.944279 0.369772 0.662226
Si Si3 0.370675 0.425049 0.233018
Si Si4 0.027834 0.549574 0.831407
Si Si5 0.500000 0.000000 0.000000
Si Si6 0.325385 0.007605 0.834409
Si Si7 0.904454 0.756506 0.741039
Si Si8 0.790820 0.865428 0.510106
O O1 0.374029 0.867286 0.975685
O O2 0.375836 0.873433 0.808377
O O3 0.564879 0.669303 0.624541
O O4 0.142517 0.481839 0.951503
O O5 0.159456 0.352110 0.449855
O O6 0.944806 0.540349 0.813899
O O7 0.926147 0.519365 0.662817
O O8 0.784972 0.069283 0.677959
O O9 0.285454 0.339649 0.183422
O O10 0.493271 0.730331 0.250161
O O11 0.497046 0.281920 0.091568
O O12 0.228915 0.795275 0.763903
O O13 0.075248 0.295162 0.678234
O O14 0.150698 0.088137 0.068338
O O15 0.101342 0.940345 0.583455
#
# Coordination Sequence:
#
# PCOD9061630 Si02
#       8
#     2   2   2   2   1   2   2   2
#     4  12  24  44  72 103 140 190 236 290 354 412
#     4  11  24  46  73 105 138 181 246 303 349 415
#     4  11  24  46  74 108 137 185 237 298 360 415
#     4  12  27  47  66 105 152 186 236 294 347 434
#     4  12  24  42  76 106 136 176 238 304 344 416
#     4  12  26  46  69 102 150 194 229 284 362 431
#     4  11  23  46  73 103 141 180 242 302 347 421
#     4  11  23  45  75 103 134 188 243 297 354 410
#
# _framework density 24.68685
#
# number of rings (size 3 to 8) (size 9 to 14) (size 15 to 20)
#    0.000    0.533    2.667    6.800    3.733    1.600 
#    2.400    0.000    0.000    0.000    0.000    0.000 
#    0.000    0.000    0.000    0.000    0.000    0.000 
#
# Total GULP energy -83746.056389 kJ/mol
# GULP energy per Si atom -5583.070426 kJ/mol
# Density = 2.463066 g / cm^3
# Si number density = 24.686850 Si / 1000 Ang^3
#
#
#
# Elastic Constant Matrix: (Units=GPa)
#
#
# Indices 1 2 3 4 5 6 
#
# 1 129.3473 63.4591 20.8170 4.6246 -16.6014 -16.7131
# 2 63.4591 124.1974 9.5875 -4.6651 -9.0500 7.0460
# 3 20.8170 9.5875 50.0904 4.0523 -28.6339 3.7074
# 4 4.6246 -4.6651 4.0523 14.4719 5.6671 -0.3480
# 5 -16.6014 -9.0500 -28.6339 5.6671 32.8119 -0.2451
# 6 -16.7131 7.0460 3.7074 -0.3480 -0.2451 34.6015
#
#
#
# Elastic Compliance Matrix: (Units=1/GPa)
#
#
# Indices 1 2 3 4 5 6 
#
# 1 0.013429 -0.007151 -0.001082 -0.008197 0.005354 0.008014
# 2 -0.007151 0.012202 -0.000779 0.007164 -0.002213 -0.005799
# 3 -0.001082 -0.000779 0.053761 -0.035567 0.052251 -0.006112
# 4 -0.008197 0.007164 -0.035567 0.104008 -0.051181 -0.000924
# 5 0.005354 -0.002213 0.052251 -0.051181 0.086994 -0.002460
# 6 0.008014 -0.005799 -0.006112 -0.000924 -0.002460 0.034580
#
#
# Mechanical properties :
#
#
# Convention : Reuss Voigt Hill
#
# Bulk Modulus (GPa) = 16.29474 54.59581 35.44528
# Shear Modulus (GPa) = 14.55798 30.36183 22.45990
#
# Velocity S-wave (km/s) = 2.43102 3.51077 3.01955
# Velocity P-wave (km/s) = 3.80719 6.21268 5.15228
#
# Compressibility (1/GPa) = 0.06136948
#
# Stress axis : x y z
#
# Youngs Moduli (GPa) = 74.46505 81.95185 18.60077
#
# Poissons Ratio (x) = 0.58600 0.02012
# Poissons Ratio (y) = 0.53247 0.01449
# Poissons Ratio (z) = 0.08055 0.06386
#
# Static dielectric constant tensor:
#      x y z
#    x 1.990100 -0.002280 0.036650 
#    y -0.002280 1.900940 0.028600 
#    z 0.036650 0.028600 1.751050 
# 
# From -- ./inp_files/575593.got.cif
#   From: 2010.05.17/outbox.cif.g08.bks.cpg/sg2_288_cif.got.tgz:575593.got - 2010.06.03 11:33:40.
