data_PCOD9061269
_publ_section_title
;
Structure prediction by ZEFSAII (Michael W. Deem and Ramdas Pophale) SiO2 
 PCOD9061269
Probable space group: P -1
;
_chemical_formula_sum "Si O2"
_cell_formula_units_Z 14
_cell_length_a 13.031436
_cell_length_b 9.120596
_cell_length_c 7.979444
_cell_angle_alpha 109.319993
_cell_angle_beta 140.793394
_cell_angle_gamma 59.418530
_cell_volume 512.598060
_symmetry_space_group_name_H-M "P -1"
_symmetry_group_IT_number 2
_symmetry_cell_setting 'triclinic'
loop_
_space_group_symop_operation_xyz
x,y,z
-x,-y,-z
loop_
_atom_site_type_symbol
_atom_site_label
_atom_site_fract_x
_atom_site_fract_y
_atom_site_fract_z
Si Si1 0.837605 0.169920 0.926298
Si Si2 0.842169 0.751279 0.223559
Si Si3 0.608440 0.441111 0.325631
Si Si4 0.628652 0.746401 0.279522
Si Si5 0.440197 0.321299 0.335264
Si Si6 0.776832 0.110304 0.212278
Si Si7 0.963173 0.596403 0.814401
O O1 0.905226 0.316764 0.030599
O O2 0.812851 0.157106 0.088848
O O3 0.646120 0.207245 0.609902
O O4 0.000000 0.000000 0.000000
O O5 0.696023 0.761532 0.902339
O O6 0.746056 0.760069 0.280297
O O7 0.891439 0.912259 0.331341
O O8 0.000983 0.562333 0.327553
O O9 0.595987 0.576301 0.216545
O O10 0.451622 0.401104 0.197104
O O11 0.634967 0.536652 0.560911
O O12 0.749368 0.255944 0.371475
O O13 0.760875 0.741292 0.595601
O O14 0.426180 0.880949 0.052687
O O15 0.000000 0.500000 0.000000
#
# Coordination Sequence:
#
# PCOD9061269 Si02
#       7
#     2   2   2   2   2   2   2
#     4  12  28  48  76 112 155 204 260 322 386 454
#     4  12  27  47  76 115 155 202 256 318 388 456
#     4  11  23  44  78 108 144 200 258 309 377 461
#     4  12  25  47  77 111 150 204 256 314 384 458
#     4  11  24  44  77 109 151 200 258 314 383 461
#     4  12  27  47  80 113 154 202 261 317 381 463
#     4  12  27  50  74 113 158 202 252 320 388 459
#
# _framework density 27.311845999999999
#
# number of rings (size 3 to 8) (size 9 to 14) (size 15 to 20)
#    0.000    0.286    2.857    6.429    2.000    0.571 
#    0.000    2.143    0.000    0.000    0.000    0.000 
#    0.000    0.000    0.000    0.000    0.000    0.000 
#
# Total GULP energy -78347.592992 kJ/mol
# GULP energy per Si atom -5596.256642 kJ/mol
# Density = 2.724968 g / cm^3
# Si number density = 27.311846 Si / 1000 Ang^3
#
#
#
# Elastic Constant Matrix: (Units=GPa)
#
#
# Indices 1 2 3 4 5 6 
#
# 1 177.9982 55.7637 -1.7625 10.7836 -37.4225 -8.6466
# 2 55.7637 182.1113 5.1097 3.8011 -4.8806 -1.3980
# 3 -1.7625 5.1097 95.4035 -11.3525 3.5033 -12.4445
# 4 10.7836 3.8011 -11.3525 36.3811 -2.9135 13.8675
# 5 -37.4225 -4.8806 3.5033 -2.9135 57.2609 -0.4259
# 6 -8.6466 -1.3980 -12.4445 13.8675 -0.4259 56.3828
#
#
#
# Elastic Compliance Matrix: (Units=1/GPa)
#
#
# Indices 1 2 3 4 5 6 
#
# 1 0.007462 -0.002103 0.000034 -0.002258 0.004593 0.001690
# 2 -0.002103 0.006124 -0.000380 -0.000113 -0.000836 -0.000233
# 3 0.000034 -0.000380 0.011082 0.002776 -0.000534 0.001755
# 4 -0.002258 -0.000113 0.002776 0.031919 -0.000087 -0.007588
# 5 0.004593 -0.000836 -0.000534 -0.000087 0.020428 0.000741
# 6 0.001690 -0.000233 0.001755 -0.007588 0.000741 0.020248
#
#
# Mechanical properties :
#
#
# Convention : Reuss Voigt Hill
#
# Bulk Modulus (GPa) = 50.58440 63.74831 57.16635
# Shear Modulus (GPa) = 45.97695 56.43176 51.20435
#
# Velocity S-wave (km/s) = 4.10739 4.55048 4.33460
# Velocity P-wave (km/s) = 6.40745 7.14148 6.78440
#
# Compressibility (1/GPa) = 0.01976894
#
# Stress axis : x y z
#
# Youngs Moduli (GPa) = 134.02128 163.29791 90.23956
#
# Poissons Ratio (x) = 0.34334 -0.00303
# Poissons Ratio (y) = 0.28178 0.03429
# Poissons Ratio (z) = -0.00449 0.06205
#
# Static dielectric constant tensor:
#      x y z
#    x 2.107810 -0.004570 0.029410 
#    y -0.004570 2.139920 -0.012720 
#    z 0.029410 -0.012720 2.308050 
# 
# From -- ./inp_files/308212.got.cif
#   From: 2010.05.17/outbox.cif.g08.bks.cpg/sg2_155_cif.got.tgz:308212.got - 2010.06.03 11:33:40.
