data_PCOD9061086
_publ_section_title
;
Structure prediction by ZEFSAII (Michael W. Deem and Ramdas Pophale) SiO2 
 PCOD9061086
Probable space group: P -1
;
_chemical_formula_sum "Si O2"
_cell_formula_units_Z 12
_cell_length_a 12.579796
_cell_length_b 9.010304
_cell_length_c 9.367987
_cell_angle_alpha 47.037342
_cell_angle_beta 56.140531
_cell_angle_gamma 49.084486
_cell_volume 575.293522
_symmetry_space_group_name_H-M "P -1"
_symmetry_group_IT_number 2
_symmetry_cell_setting 'triclinic'
loop_
_space_group_symop_operation_xyz
x,y,z
-x,-y,-z
loop_
_atom_site_type_symbol
_atom_site_label
_atom_site_fract_x
_atom_site_fract_y
_atom_site_fract_z
Si Si1 0.141863 0.649273 0.301971
Si Si2 0.642814 0.445063 0.341576
Si Si3 0.847540 0.683508 0.056010
Si Si4 0.360366 0.658540 0.909241
Si Si5 0.839390 0.077862 0.623157
Si Si6 0.832283 0.823589 0.301661
O O1 0.185600 0.745928 0.344881
O O2 0.180692 0.389360 0.479088
O O3 0.973917 0.805899 0.288210
O O4 0.228283 0.655729 0.094942
O O5 0.500000 0.500000 0.500000
O O6 0.730231 0.588849 0.215075
O O7 0.616625 0.453023 0.189135
O O8 0.745940 0.190979 0.481472
O O9 0.866642 0.762636 0.147965
O O10 0.000000 0.500000 0.000000
O O11 0.804553 0.887787 0.842781
O O12 0.306487 0.930479 0.750719
O O13 0.500000 0.500000 0.000000
O O14 0.000000 0.000000 0.500000
#
# Coordination Sequence:
#
# PCOD9061086 Si02
#       6
#     2   2   2   2   2   2
#     4  11  23  44  72 107 138 184 238 296 354 413
#     4  12  28  48  69 104 146 184 237 296 358 421
#     4  12  24  44  76 108 139 187 239 292 356 424
#     4  12  27  46  70  99 143 191 233 287 359 427
#     4  12  23  43  74 106 145 183 236 296 355 419
#     4  11  24  43  76 104 140 181 244 293 347 424
#
# _framework density 20.858917999999999
#
# number of rings (size 3 to 8) (size 9 to 14) (size 15 to 20)
#    0.000    0.333    5.000    3.500    0.000    5.333 
#    0.000    0.000    0.000    0.000    0.000    0.000 
#    0.000    0.000    0.000    0.000    0.000    0.000 
#
# Total GULP energy -67069.046074 kJ/mol
# GULP energy per Si atom -5589.087173 kJ/mol
# Density = 2.081144 g / cm^3
# Si number density = 20.858918 Si / 1000 Ang^3
#
#
#
# Elastic Constant Matrix: (Units=GPa)
#
#
# Indices 1 2 3 4 5 6 
#
# 1 87.2698 31.6967 33.6920 -5.1676 15.7036 -10.8210
# 2 31.6967 74.5652 17.6208 -1.1273 -4.8694 -15.7787
# 3 33.6920 17.6208 133.5288 -9.0877 -0.3971 -4.5793
# 4 -5.1676 -1.1273 -9.0877 53.7714 -3.7584 12.6243
# 5 15.7036 -4.8694 -0.3971 -3.7584 47.8665 3.1719
# 6 -10.8210 -15.7787 -4.5793 12.6243 3.1719 30.7617
#
#
#
# Elastic Compliance Matrix: (Units=1/GPa)
#
#
# Indices 1 2 3 4 5 6 
#
# 1 0.016359 -0.005967 -0.003274 -0.000231 -0.006214 0.002942
# 2 -0.005967 0.017855 -0.000713 -0.001834 0.003135 0.007383
# 3 -0.003274 -0.000713 0.008476 0.001417 0.001247 -0.000965
# 4 -0.000231 -0.001834 0.001417 0.021219 0.002213 -0.009747
# 5 -0.006214 0.003135 0.001247 0.002213 0.023681 -0.003742
# 6 0.002942 0.007383 -0.000965 -0.009747 -0.003742 0.041572
#
#
# Mechanical properties :
#
#
# Convention : Reuss Voigt Hill
#
# Bulk Modulus (GPa) = 43.89185 51.26475 47.57830
# Shear Modulus (GPa) = 31.91520 40.63687 36.27604
#
# Velocity S-wave (km/s) = 3.91583 4.41860 4.17479
# Velocity P-wave (km/s) = 6.44460 7.11775 6.78952
#
# Compressibility (1/GPa) = 0.02278328
#
# Stress axis : x y z
#
# Youngs Moduli (GPa) = 61.12755 56.00556 117.97846
#
# Poissons Ratio (x) = 0.33420 0.38622
# Poissons Ratio (y) = 0.36476 0.08410
# Poissons Ratio (z) = 0.20011 0.03993
#
# Static dielectric constant tensor:
#      x y z
#    x 1.838710 -0.060020 0.073170 
#    y -0.060020 1.782890 -0.080920 
#    z 0.073170 -0.080920 1.736630 
# 
# From -- ./inp_files/156404.got.cif
#   From: 2010.05.17/outbox.cif.g08.bks.cpg/sg2_79_cif.got.tgz:156404.got - 2010.06.03 11:33:40.
