data_PCOD9061066
_publ_section_title
;
Structure prediction by ZEFSAII (Michael W. Deem and Ramdas Pophale) SiO2 
 PCOD9061066
Probable space group: P -1
;
_chemical_formula_sum "Si O2"
_cell_formula_units_Z 16
_cell_length_a 15.862104
_cell_length_b 14.765056
_cell_length_c 8.810454
_cell_angle_alpha 54.329056
_cell_angle_beta 98.331233
_cell_angle_gamma 143.719674
_cell_volume 730.537967
_symmetry_space_group_name_H-M "P -1"
_symmetry_group_IT_number 2
_symmetry_cell_setting 'triclinic'
loop_
_space_group_symop_operation_xyz
x,y,z
-x,-y,-z
loop_
_atom_site_type_symbol
_atom_site_label
_atom_site_fract_x
_atom_site_fract_y
_atom_site_fract_z
Si Si1 0.952627 0.199000 0.608271
Si Si2 0.865054 0.700766 0.152393
Si Si3 0.745517 0.094474 0.049489
Si Si4 0.054540 0.097625 0.588164
Si Si5 0.838572 0.465694 0.182448
Si Si6 0.582297 0.471862 0.546088
Si Si7 0.700859 0.277045 0.987955
Si Si8 0.287749 0.887288 0.296658
O O1 0.765599 0.057276 0.697241
O O2 0.005287 0.213798 0.774371
O O3 0.942099 0.078753 0.617713
O O4 0.133881 0.483958 0.315371
O O5 0.767339 0.492612 0.224037
O O6 0.720465 0.605637 0.307763
O O7 0.987988 0.923936 0.857271
O O8 0.591684 0.819786 0.234081
O O9 0.820843 0.234074 0.773894
O O10 0.928300 0.258832 0.023497
O O11 0.662824 0.102689 0.111665
O O12 0.279611 0.382839 0.412390
O O13 0.000000 0.000000 0.500000
O O14 0.769930 0.373449 0.083648
O O15 0.771695 0.280207 0.441867
O O16 0.500000 0.500000 0.500000
O O17 0.506173 0.118529 0.078701
#
# Coordination Sequence:
#
# PCOD9061066 Si02
#       8
#     2   2   2   2   2   2   2   2
#     4  11  23  44  72 104 141 188 236 287 362 422
#     4  11  23  45  74  99 140 187 236 289 352 429
#     4  12  24  43  70  97 146 187 235 288 350 429
#     4  11  25  49  74 101 142 184 235 304 360 411
#     4  12  24  45  70 105 145 187 232 295 363 408
#     4  11  25  44  71 107 133 186 247 285 347 430
#     4  12  26  45  68 109 148 181 238 300 354 417
#     4  12  24  42  71 102 142 187 239 283 354 432
#
# _framework density 21.901668000000001
#
# number of rings (size 3 to 8) (size 9 to 14) (size 15 to 20)
#    0.000    0.500    2.500    7.500    1.750    0.000 
#    2.250    0.625    0.000    0.000    0.000    0.000 
#    0.000    0.000    0.000    0.000    0.000    0.000 
#
# Total GULP energy -89552.711429 kJ/mol
# GULP energy per Si atom -5597.044464 kJ/mol
# Density = 2.185182 g / cm^3
# Si number density = 21.901668 Si / 1000 Ang^3
#
#
#
# Elastic Constant Matrix: (Units=GPa)
#
#
# Indices 1 2 3 4 5 6 
#
# 1 185.1903 57.6761 15.7371 1.1170 -2.9215 -32.6959
# 2 57.6761 119.9788 23.5368 -1.2375 3.7090 -33.0666
# 3 15.7371 23.5368 64.2175 7.7320 9.3883 -17.0599
# 4 1.1170 -1.2375 7.7320 10.1293 -1.5612 -2.0152
# 5 -2.9215 3.7090 9.3883 -1.5612 32.4745 -12.0186
# 6 -32.6959 -33.0666 -17.0599 -2.0152 -12.0186 33.8455
#
#
#
# Elastic Compliance Matrix: (Units=1/GPa)
#
#
# Indices 1 2 3 4 5 6 
#
# 1 0.007115 -0.001769 0.000032 0.000733 0.003217 0.006347
# 2 -0.001769 0.012687 -0.002581 0.006451 0.003527 0.011021
# 3 0.000032 -0.002581 0.020437 -0.015535 -0.004385 0.005329
# 4 0.000733 0.006451 -0.015535 0.115500 0.013372 0.010806
# 5 0.003217 0.003527 -0.004385 0.013372 0.039712 0.019241
# 6 0.006347 0.011021 0.005329 0.010806 0.019241 0.056607
#
#
# Mechanical properties :
#
#
# Convention : Reuss Voigt Hill
#
# Bulk Modulus (GPa) = 31.64180 62.58739 47.11460
# Shear Modulus (GPa) = 18.43468 33.45231 25.94350
#
# Velocity S-wave (km/s) = 2.90436 3.91242 3.44545
# Velocity P-wave (km/s) = 5.07204 7.00342 6.11447
#
# Compressibility (1/GPa) = 0.03160377
#
# Stress axis : x y z
#
# Youngs Moduli (GPa) = 140.54649 78.82340 48.93006
#
# Poissons Ratio (x) = 0.13946 -0.00159
# Poissons Ratio (y) = 0.24867 0.12628
# Poissons Ratio (z) = -0.00456 0.20343
#
# Static dielectric constant tensor:
#      x y z
#    x 1.818960 -0.009940 -0.012110 
#    y -0.009940 1.784910 -0.030620 
#    z -0.012110 -0.030620 1.833430 
# 
# From -- ./inp_files/334761.got.cif
#   From: 2010.05.17/outbox.cif.g08.bks.cpg/sg2_168_cif.got.tgz:334761.got - 2010.06.03 11:33:40.
