data_PCOD9061417
_publ_section_title
;
Structure prediction by ZEFSAII (Michael W. Deem and Ramdas Pophale) SiO2 
 PCOD9061417
Probable space group: P -1
;
_chemical_formula_sum "Si O2"
_cell_formula_units_Z 14
_cell_length_a 22.666105
_cell_length_b 7.990470
_cell_length_c 9.439300
_cell_angle_alpha 72.600567
_cell_angle_beta 39.297139
_cell_angle_gamma 44.084134
_cell_volume 612.056878
_symmetry_space_group_name_H-M "P -1"
_symmetry_group_IT_number 2
_symmetry_cell_setting 'triclinic'
loop_
_space_group_symop_operation_xyz
x,y,z
-x,-y,-z
loop_
_atom_site_type_symbol
_atom_site_label
_atom_site_fract_x
_atom_site_fract_y
_atom_site_fract_z
Si Si1 0.595145 0.213994 0.225225
Si Si2 0.134394 0.254449 0.632713
Si Si3 0.275475 0.831978 0.730016
Si Si4 0.329598 0.703369 0.206254
Si Si5 0.109445 0.434937 0.198897
Si Si6 0.680085 0.666678 0.767103
Si Si7 0.141868 0.740234 0.198296
O O1 0.407808 0.514511 0.482458
O O2 0.628753 0.187614 0.336003
O O3 0.664452 0.259902 0.981611
O O4 0.704924 0.888340 0.054339
O O5 0.210966 0.331132 0.471563
O O6 0.956298 0.527957 0.839543
O O7 0.170336 0.098704 0.749356
O O8 0.216557 0.005853 0.423820
O O9 0.184220 0.841905 0.000500
O O10 0.296363 0.546289 0.315530
O O11 0.500000 0.500000 0.000000
O O12 0.089532 0.668058 0.207131
O O13 0.000000 0.500000 0.500000
O O14 0.723227 0.544772 0.878538
O O15 0.500000 0.000000 0.000000
O O16 0.000000 0.000000 0.500000
#
# Coordination Sequence:
#
# PCOD9061417 Si02
#       7
#     2   2   2   2   2   2   2
#     4  11  23  45  70 103 148 191 233 297 368 423
#     4  12  26  46  71 109 147 185 246 303 356 425
#     4  11  26  46  71 104 148 189 234 308 364 418
#     4  12  21  42  73 103 147 189 238 294 355 434
#     4  12  24  44  74 105 144 193 243 295 354 438
#     4  12  24  41  73 107 139 191 243 289 358 432
#     4  12  26  49  74 103 144 197 242 288 376 443
#
# _framework density 22.873688999999999
#
# number of rings (size 3 to 8) (size 9 to 14) (size 15 to 20)
#    0.000    0.286    7.143    1.714    2.000    1.714 
#    2.571    0.000    0.000    0.000    0.000    0.000 
#    0.000    0.000    0.000    0.000    0.000    0.000 
#
# Total GULP energy -78270.538405 kJ/mol
# GULP energy per Si atom -5590.752743 kJ/mol
# Density = 2.282163 g / cm^3
# Si number density = 22.873689 Si / 1000 Ang^3
#
#
#
# Elastic Constant Matrix: (Units=GPa)
#
#
# Indices 1 2 3 4 5 6 
#
# 1 118.1936 54.5755 16.3539 -11.3401 -6.0469 7.5149
# 2 54.5755 136.2347 38.8449 -19.5339 -1.0376 -7.8118
# 3 16.3539 38.8449 81.1373 -3.8080 19.0383 10.5420
# 4 -11.3401 -19.5339 -3.8080 45.9221 2.8742 9.6272
# 5 -6.0469 -1.0376 19.0383 2.8742 29.6435 -5.2553
# 6 7.5149 -7.8118 10.5420 9.6272 -5.2553 57.3754
#
#
#
# Elastic Compliance Matrix: (Units=1/GPa)
#
#
# Indices 1 2 3 4 5 6 
#
# 1 0.010745 -0.004156 -0.000283 0.001161 0.001769 -0.001954
# 2 -0.004156 0.011137 -0.005572 0.002407 0.003418 0.002994
# 3 -0.000283 -0.005572 0.019029 0.001175 -0.013591 -0.005660
# 4 0.001161 0.002407 0.001175 0.024342 -0.003583 -0.004453
# 5 0.001769 0.003418 -0.013591 -0.003583 0.044606 0.007418
# 6 -0.001954 0.002994 -0.005660 -0.004453 0.007418 0.020559
#
#
# Mechanical properties :
#
#
# Convention : Reuss Voigt Hill
#
# Bulk Modulus (GPa) = 47.87133 61.67934 54.77533
# Shear Modulus (GPa) = 31.76560 41.64093 36.70326
#
# Velocity S-wave (km/s) = 3.73062 4.27133 4.01010
# Velocity P-wave (km/s) = 6.28735 7.16585 6.74092
#
# Compressibility (1/GPa) = 0.02088933
#
# Stress axis : x y z
#
# Youngs Moduli (GPa) = 93.06722 89.79264 52.55088
#
# Poissons Ratio (x) = 0.37317 0.01486
# Poissons Ratio (y) = 0.38677 0.29282
# Poissons Ratio (z) = 0.02632 0.50033
#
# Static dielectric constant tensor:
#      x y z
#    x 1.463580 -0.240690 -0.042560 
#    y -0.240690 1.802570 0.048830 
#    z -0.042560 0.048830 1.872220 
# 
# From -- ./inp_files/352136.got.cif
#   From: 2010.05.17/outbox.cif.g08.bks.cpg/sg2_177_cif.got.tgz:352136.got - 2010.06.03 11:33:40.
