data_PCOD9061006
_publ_section_title
;
Structure prediction by ZEFSAII (Michael W. Deem and Ramdas Pophale) SiO2 
 PCOD9061006
Probable space group: P -1
;
_chemical_formula_sum "Si O2"
_cell_formula_units_Z 14
_cell_length_a 13.455147
_cell_length_b 7.826346
_cell_length_c 18.425113
_cell_angle_alpha 42.396986
_cell_angle_beta 153.962497
_cell_angle_gamma 129.748517
_cell_volume 572.353987
_symmetry_space_group_name_H-M "P -1"
_symmetry_group_IT_number 2
_symmetry_cell_setting 'triclinic'
loop_
_space_group_symop_operation_xyz
x,y,z
-x,-y,-z
loop_
_atom_site_type_symbol
_atom_site_label
_atom_site_fract_x
_atom_site_fract_y
_atom_site_fract_z
Si Si1 0.747839 0.089776 0.831779
Si Si2 0.181641 0.284906 0.716182
Si Si3 0.060479 0.397143 0.215587
Si Si4 0.443435 0.578908 0.171414
Si Si5 0.876307 0.152015 0.303974
Si Si6 0.392420 0.119362 0.044872
Si Si7 0.390504 0.959987 0.517260
O O1 0.768158 0.391992 0.758953
O O2 0.685140 0.920854 0.911967
O O3 0.560543 0.044746 0.663697
O O4 0.000000 0.000000 0.000000
O O5 0.436990 0.356431 0.845094
O O6 0.157880 0.044689 0.723197
O O7 0.000000 0.500000 0.500000
O O8 0.193350 0.236241 0.824732
O O9 0.161995 0.134390 0.327902
O O10 0.017652 0.351822 0.288449
O O11 0.814645 0.478157 0.994019
O O12 0.442600 0.826707 0.142320
O O13 0.605282 0.342723 0.379773
O O14 0.631560 0.240908 0.150384
O O15 0.000000 0.000000 0.500000
O O16 0.500000 0.000000 0.500000
#
# Coordination Sequence:
#
# PCOD9061006 Si02
#       7
#     2   2   2   2   2   2   2
#     4  12  28  46  70 106 144 188 239 296 360 420
#     4  11  23  44  71 106 143 187 237 292 358 428
#     4  12  24  48  74 104 149 182 239 300 350 424
#     4  11  23  45  74 107 137 189 237 290 362 418
#     4  11  23  44  72 103 138 185 236 294 357 418
#     4  11  24  47  72 101 148 186 237 297 354 430
#     4  12  28  46  72 106 144 191 241 289 362 433
#
# _framework density 24.460386
#
# number of rings (size 3 to 8) (size 9 to 14) (size 15 to 20)
#    0.000    0.571    4.286    3.857    2.000    4.571 
#    0.000    2.143    0.000    0.000    0.000    0.000 
#    0.000    0.000    0.000    0.000    0.000    0.000 
#
# Total GULP energy -78323.369567 kJ/mol
# GULP energy per Si atom -5594.526398 kJ/mol
# Density = 2.440471 g / cm^3
# Si number density = 24.460386 Si / 1000 Ang^3
#
#
#
# Elastic Constant Matrix: (Units=GPa)
#
#
# Indices 1 2 3 4 5 6 
#
# 1 164.6884 9.4543 48.2318 6.5768 -17.4956 28.5764
# 2 9.4543 32.2424 14.6516 -6.2403 2.5109 3.7531
# 3 48.2318 14.6516 129.4108 -13.1386 3.8528 -3.4306
# 4 6.5768 -6.2403 -13.1386 40.8147 -3.2514 6.1546
# 5 -17.4956 2.5109 3.8528 -3.2514 49.1036 -5.1366
# 6 28.5764 3.7531 -3.4306 6.1546 -5.1366 30.7665
#
#
#
# Elastic Compliance Matrix: (Units=1/GPa)
#
#
# Indices 1 2 3 4 5 6 
#
# 1 0.008868 -0.000461 -0.003669 -0.001285 0.002559 -0.007905
# 2 -0.000461 0.034391 -0.003308 0.004936 -0.001906 -0.005442
# 3 -0.003669 -0.003308 0.009876 0.002529 -0.001307 0.004189
# 4 -0.001285 0.004936 0.002529 0.026981 0.000412 -0.004456
# 5 0.002559 -0.001906 -0.001307 0.000412 0.021634 0.001239
# 6 -0.007905 -0.005442 0.004189 -0.004456 0.001239 0.042075
#
#
# Mechanical properties :
#
#
# Convention : Reuss Voigt Hill
#
# Bulk Modulus (GPa) = 26.13802 52.33524 39.23663
# Shear Modulus (GPa) = 29.16237 41.07055 35.11646
#
# Velocity S-wave (km/s) = 3.45661 4.10208 3.79310
# Velocity P-wave (km/s) = 5.16139 6.62408 5.93795
#
# Compressibility (1/GPa) = 0.03825844
#
# Stress axis : x y z
#
# Youngs Moduli (GPa) = 112.76518 29.07766 101.25458
#
# Poissons Ratio (x) = 0.01340 0.37152
# Poissons Ratio (y) = 0.05195 0.33498
# Poissons Ratio (z) = 0.41375 0.09620
#
# Static dielectric constant tensor:
#      x y z
#    x 1.975440 0.066570 -0.015010 
#    y 0.066570 2.095700 -0.080870 
#    z -0.015010 -0.080870 1.928060 
# 
# From -- ./inp_files/221753.got.cif
#   From: 2010.05.17/outbox.cif.g08.bks.cpg/sg2_111_cif.got.tgz:221753.got - 2010.06.03 11:33:40.
