data_PCOD9061292
_publ_section_title
;
Structure prediction by ZEFSAII (Michael W. Deem and Ramdas Pophale) SiO2 
 PCOD9061292
Probable space group: P -1
;
_chemical_formula_sum "Si O2"
_cell_formula_units_Z 14
_cell_length_a 16.921993
_cell_length_b 10.046807
_cell_length_c 6.937101
_cell_angle_alpha 133.400746
_cell_angle_beta 103.077059
_cell_angle_gamma 105.760674
_cell_volume 665.569608
_symmetry_space_group_name_H-M "P -1"
_symmetry_group_IT_number 2
_symmetry_cell_setting 'triclinic'
loop_
_space_group_symop_operation_xyz
x,y,z
-x,-y,-z
loop_
_atom_site_type_symbol
_atom_site_label
_atom_site_fract_x
_atom_site_fract_y
_atom_site_fract_z
Si Si1 0.749392 0.597613 0.452883
Si Si2 0.383409 0.779862 0.698235
Si Si3 0.896251 0.673513 0.277449
Si Si4 0.869675 0.950264 0.218793
Si Si5 0.772980 0.179540 0.570421
Si Si6 0.643210 0.804386 0.411819
Si Si7 0.468311 0.554479 0.339412
O O1 0.666961 0.352124 0.261024
O O2 0.824086 0.599974 0.348452
O O3 0.692991 0.687315 0.404237
O O4 0.814719 0.775761 0.838489
O O5 0.313670 0.835098 0.613318
O O6 0.388564 0.604516 0.393413
O O7 0.500000 0.000000 0.000000
O O8 0.876018 0.817154 0.267306
O O9 0.863794 0.445561 0.921549
O O10 0.014849 0.838195 0.559238
O O11 0.809379 0.047728 0.350022
O O12 0.726546 0.055970 0.627656
O O13 0.566684 0.770230 0.499502
O O14 0.578002 0.656861 0.041747
O O15 0.500000 0.500000 0.500000
#
# Coordination Sequence:
#
# PCOD9061292 Si02
#       7
#     2   2   2   2   2   2   2
#     4  12  24  47  72 105 142 191 234 288 366 420
#     4  12  27  41  68 104 147 186 234 290 343 422
#     4  11  25  48  75 107 140 185 240 296 364 425
#     4  11  25  49  75 103 146 185 231 305 364 421
#     4  12  25  47  71 108 142 186 240 293 356 421
#     4  11  25  40  72  97 136 189 236 285 345 427
#     4  11  23  45  65  95 141 193 234 282 348 406
#
# _framework density 21.034614999999999
#
# number of rings (size 3 to 8) (size 9 to 14) (size 15 to 20)
#    0.000    0.571    4.286    3.429    6.000    0.571 
#    0.000    1.429    0.000    0.000    0.000    0.000 
#    0.000    0.000    0.000    0.000    0.000    0.000 
#
# Total GULP energy -78403.901809 kJ/mol
# GULP energy per Si atom -5600.278701 kJ/mol
# Density = 2.098674 g / cm^3
# Si number density = 21.034615 Si / 1000 Ang^3
#
#
#
# Elastic Constant Matrix: (Units=GPa)
#
#
# Indices 1 2 3 4 5 6 
#
# 1 77.2612 43.3821 10.6467 -13.6733 -1.8265 1.3426
# 2 43.3821 136.9900 27.1578 1.6056 14.4204 7.4843
# 3 10.6467 27.1578 101.3982 0.4802 13.1577 3.2818
# 4 -13.6733 1.6056 0.4802 35.9321 1.9827 2.7361
# 5 -1.8265 14.4204 13.1577 1.9827 38.2249 -0.2776
# 6 1.3426 7.4843 3.2818 2.7361 -0.2776 42.8742
#
#
#
# Elastic Compliance Matrix: (Units=1/GPa)
#
#
# Indices 1 2 3 4 5 6 
#
# 1 0.017577 -0.005820 -0.000702 0.006789 0.002926 0.000105
# 2 -0.005820 0.009904 -0.001551 -0.002352 -0.003368 -0.001300
# 3 -0.000702 -0.001551 0.010779 -0.000126 -0.003156 -0.000545
# 4 0.006789 -0.002352 -0.000126 0.030673 -0.000349 -0.001752
# 5 0.002926 -0.003368 -0.003156 -0.000349 0.028683 0.000946
# 6 0.000105 -0.001300 -0.000545 -0.001752 0.000946 0.023707
#
#
# Mechanical properties :
#
#
# Convention : Reuss Voigt Hill
#
# Bulk Modulus (GPa) = 45.22322 53.11363 49.16842
# Shear Modulus (GPa) = 34.52090 39.03708 36.77899
#
# Velocity S-wave (km/s) = 4.05550 4.31263 4.18604
# Velocity P-wave (km/s) = 6.59360 7.07840 6.84030
#
# Compressibility (1/GPa) = 0.02211254
#
# Stress axis : x y z
#
# Youngs Moduli (GPa) = 56.89349 100.97346 92.77270
#
# Poissons Ratio (x) = 0.58770 0.06511
# Poissons Ratio (y) = 0.33114 0.14391
# Poissons Ratio (z) = 0.03993 0.15663
#
# Static dielectric constant tensor:
#      x y z
#    x 1.727320 0.022110 0.001850 
#    y 0.022110 1.748920 0.027680 
#    z 0.001850 0.027680 1.760510 
# 
# From -- ./inp_files/107676.got.cif
#   From: 2010.05.17/outbox.cif.g08.bks.cpg/sg2_54_cif.got.tgz:107676.got - 2010.06.03 11:33:40.
