data_PCOD9061615
_publ_section_title
;
Structure prediction by ZEFSAII (Michael W. Deem and Ramdas Pophale) SiO2 
 PCOD9061615
Probable space group: P -1
;
_chemical_formula_sum "Si O2"
_cell_formula_units_Z 16
_cell_length_a 15.968427
_cell_length_b 9.157127
_cell_length_c 10.717556
_cell_angle_alpha 80.096715
_cell_angle_beta 56.616898
_cell_angle_gamma 127.709405
_cell_volume 660.770800
_symmetry_space_group_name_H-M "P -1"
_symmetry_group_IT_number 2
_symmetry_cell_setting 'triclinic'
loop_
_space_group_symop_operation_xyz
x,y,z
-x,-y,-z
loop_
_atom_site_type_symbol
_atom_site_label
_atom_site_fract_x
_atom_site_fract_y
_atom_site_fract_z
Si Si1 0.275010 0.761419 0.739421
Si Si2 0.792676 0.329394 0.915832
Si Si3 0.884029 0.713730 0.194796
Si Si4 0.186773 0.905356 0.596855
Si Si5 0.598401 0.009107 0.802693
Si Si6 0.382103 0.249609 0.033619
Si Si7 0.428538 0.472766 0.429632
Si Si8 0.992720 0.682996 0.357998
O O1 0.155539 0.460164 0.851541
O O2 0.192725 0.781928 0.712331
O O3 0.500000 0.000000 0.500000
O O4 0.259449 0.798743 0.886435
O O5 0.895127 0.329121 0.755899
O O6 0.976283 0.668823 0.744431
O O7 0.601259 0.166051 0.046858
O O8 0.679009 0.512502 0.448055
O O9 0.981585 0.758346 0.226828
O O10 0.000000 0.000000 0.000000
O O11 0.327046 0.009969 0.362449
O O12 0.269635 0.155860 0.554525
O O13 0.774947 0.352736 0.622627
O O14 0.558562 0.844270 0.970955
O O15 0.430192 0.337518 0.834646
O O16 0.500000 0.500000 0.000000
O O17 0.145037 0.960671 0.282641
O O18 0.500000 0.500000 0.500000
#
# Coordination Sequence:
#
# PCOD9061615 Si02
#       8
#     2   2   2   2   2   2   2   2
#     4  12  22  40  73 108 154 199 258 313 380 454
#     4  11  24  42  79 108 149 202 266 319 386 453
#     4  12  26  45  70 115 160 198 253 325 389 459
#     4  11  23  45  74 111 149 206 258 319 382 467
#     4  11  24  51  76 109 149 200 267 322 380 465
#     4  12  28  50  79 111 158 205 256 324 397 467
#     4  12  28  48  79 114 162 206 256 318 405 465
#     4  11  27  49  76 108 150 204 264 320 384 468
#
# _framework density 24.214144000000001
#
# number of rings (size 3 to 8) (size 9 to 14) (size 15 to 20)
#    0.000    0.500    5.000    3.000    7.000    2.500 
#    4.500    1.250    0.000    0.000    0.000    0.000 
#    0.000    0.000    0.000    0.000    0.000    0.000 
#
# Total GULP energy -89534.940045 kJ/mol
# GULP energy per Si atom -5595.933753 kJ/mol
# Density = 2.415903 g / cm^3
# Si number density = 24.214144 Si / 1000 Ang^3
#
#
#
# Elastic Constant Matrix: (Units=GPa)
#
#
# Indices 1 2 3 4 5 6 
#
# 1 166.7625 32.8183 69.6049 -23.8222 -12.4109 27.0858
# 2 32.8183 112.1674 47.2420 -20.9653 -9.1714 18.3970
# 3 69.6049 47.2420 129.4210 -10.6167 -8.3719 17.1973
# 4 -23.8222 -20.9653 -10.6167 58.7320 3.6848 -1.0954
# 5 -12.4109 -9.1714 -8.3719 3.6848 61.3962 -3.3740
# 6 27.0858 18.3970 17.1973 -1.0954 -3.3740 34.7535
#
#
#
# Elastic Compliance Matrix: (Units=1/GPa)
#
#
# Indices 1 2 3 4 5 6 
#
# 1 0.008857 0.000531 -0.003993 0.002912 0.000874 -0.005031
# 2 0.000531 0.011801 -0.003617 0.003631 0.000903 -0.004669
# 3 -0.003993 -0.003617 0.011203 -0.000908 0.000206 -0.000525
# 4 0.002912 0.003631 -0.000908 0.019301 -0.000325 -0.003165
# 5 0.000874 0.000903 0.000206 -0.000325 0.016666 0.000347
# 6 -0.005031 -0.004669 -0.000525 -0.003165 0.000347 0.035361
#
#
# Mechanical properties :
#
#
# Convention : Reuss Voigt Hill
#
# Bulk Modulus (GPa) = 56.48503 78.63125 67.55814
# Shear Modulus (GPa) = 40.56842 48.22207 44.39524
#
# Velocity S-wave (km/s) = 4.09761 4.46745 4.28652
# Velocity P-wave (km/s) = 6.76499 7.69120 7.24292
#
# Compressibility (1/GPa) = 0.01770380
#
# Stress axis : x y z
#
# Youngs Moduli (GPa) = 112.90517 84.73581 89.25887
#
# Poissons Ratio (x) = -0.04503 0.35645
# Poissons Ratio (y) = -0.06000 0.32284
# Poissons Ratio (z) = 0.45088 0.30648
#
# Static dielectric constant tensor:
#      x y z
#    x 1.889810 0.057490 0.045360 
#    y 0.057490 1.950890 -0.019100 
#    z 0.045360 -0.019100 2.011510 
# 
# From -- ./inp_files/447135.got.cif
#   From: 2010.05.17/outbox.cif.g08.bks.cpg/sg2_224_cif.got.tgz:447135.got - 2010.06.03 11:33:40.
