data_PCOD9061530
_publ_section_title
;
Structure prediction by ZEFSAII (Michael W. Deem and Ramdas Pophale) SiO2 
 PCOD9061530
Probable space group: P -1
;
_chemical_formula_sum "Si O2"
_cell_formula_units_Z 16
_cell_length_a 9.556918
_cell_length_b 15.687166
_cell_length_c 13.983028
_cell_angle_alpha 32.793807
_cell_angle_beta 97.545299
_cell_angle_gamma 119.354740
_cell_volume 795.559040
_symmetry_space_group_name_H-M "P -1"
_symmetry_group_IT_number 2
_symmetry_cell_setting 'triclinic'
loop_
_space_group_symop_operation_xyz
x,y,z
-x,-y,-z
loop_
_atom_site_type_symbol
_atom_site_label
_atom_site_fract_x
_atom_site_fract_y
_atom_site_fract_z
Si Si1 0.898112 0.511573 0.612606
Si Si2 0.185443 0.961524 0.318064
Si Si3 0.910210 0.335042 0.021310
Si Si4 0.579826 0.265559 0.948193
Si Si5 0.263672 0.846658 0.620394
Si Si6 0.545350 0.571448 0.549592
Si Si7 0.043718 0.922749 0.872646
Si Si8 0.143062 0.404695 0.677612
O O1 0.997870 0.704288 0.516660
O O2 0.053040 0.496317 0.620346
O O3 0.685930 0.276638 0.851876
O O4 0.872591 0.594790 0.437631
O O5 0.237264 0.962792 0.430357
O O6 0.121112 0.089863 0.173788
O O7 0.366981 0.058099 0.171667
O O8 0.825709 0.191927 0.246160
O O9 0.935061 0.218914 0.054082
O O10 0.744070 0.334720 0.975194
O O11 0.122866 0.589249 0.816482
O O12 0.553729 0.423279 0.757310
O O13 0.500000 0.000000 0.500000
O O14 0.500000 0.500000 0.500000
O O15 0.368840 0.546989 0.590701
O O16 0.750238 0.823468 0.342860
O O17 0.983810 0.830524 0.061999
#
# Coordination Sequence:
#
# PCOD9061530 Si02
#       8
#     2   2   2   2   2   2   2   2
#     4  11  24  42  61  93 135 167 217 265 316 378
#     4  12  24  41  68  92 129 172 209 266 331 380
#     4  11  25  44  69  96 128 164 217 269 322 390
#     4  12  22  42  64  92 132 171 213 263 321 382
#     4  11  23  45  72  95 122 167 213 266 334 387
#     4  12  25  41  63  96 135 176 219 262 313 373
#     4  12  25  42  66  97 134 171 214 268 315 379
#     4  11  24  39  63  95 128 175 219 262 309 385
#
# _framework density 20.111643999999998
#
# number of rings (size 3 to 8) (size 9 to 14) (size 15 to 20)
#    0.000    0.500    7.500    0.000    3.500    2.500 
#    0.000    3.750    0.000    0.000    0.000    0.000 
#    0.000    0.000    0.000    0.000    0.000    0.000 
#
# Total GULP energy -89235.962160 kJ/mol
# GULP energy per Si atom -5577.247635 kJ/mol
# Density = 2.006587 g / cm^3
# Si number density = 20.111644 Si / 1000 Ang^3
#
#
#
# Elastic Constant Matrix: (Units=GPa)
#
#
# Indices 1 2 3 4 5 6 
#
# 1 129.6236 28.2318 27.9093 2.1513 -12.1378 31.3459
# 2 28.2318 64.9274 24.1177 16.0567 3.2169 11.3881
# 3 27.9093 24.1177 103.8767 22.4979 -18.0136 11.9819
# 4 2.1513 16.0567 22.4979 42.3210 9.2323 0.7568
# 5 -12.1378 3.2169 -18.0136 9.2323 34.3457 8.5429
# 6 31.3459 11.3881 11.9819 0.7568 8.5429 29.9218
#
#
#
# Elastic Compliance Matrix: (Units=1/GPa)
#
#
# Indices 1 2 3 4 5 6 
#
# 1 0.012882 -0.003360 0.001232 -0.001913 0.009878 -0.015481
# 2 -0.003360 0.019653 -0.002740 -0.005235 -0.002561 -0.001999
# 3 0.001232 -0.002740 0.015909 -0.010445 0.014451 -0.010480
# 4 -0.001913 -0.005235 -0.010445 0.035008 -0.018180 0.012484
# 5 0.009878 -0.002561 0.014451 -0.018180 0.052712 -0.029750
# 6 -0.015481 -0.001999 -0.010480 0.012484 -0.029750 0.062774
#
#
# Mechanical properties :
#
#
# Convention : Reuss Voigt Hill
#
# Bulk Modulus (GPa) = 25.83436 50.99392 38.41414
# Shear Modulus (GPa) = 22.56572 35.86229 29.21401
#
# Velocity S-wave (km/s) = 3.35329 4.22733 3.81542
# Velocity P-wave (km/s) = 5.27884 7.01695 6.20901
#
# Compressibility (1/GPa) = 0.03870813
#
# Stress axis : x y z
#
# Youngs Moduli (GPa) = 77.63032 50.88401 62.85778
#
# Poissons Ratio (x) = 0.17096 -0.07746
# Poissons Ratio (y) = 0.26082 0.17222
# Poissons Ratio (z) = -0.09566 0.13942
#
# Static dielectric constant tensor:
#      x y z
#    x 1.738320 0.011600 -0.010940 
#    y 0.011600 1.716440 0.033480 
#    z -0.010940 0.033480 1.718580 
# 
# From -- ./inp_files/216867.got.cif
#   From: 2010.05.17/outbox.cif.g08.bks.cpg/sg2_109_cif.got.tgz:216867.got - 2010.06.03 11:33:40.
