data_PCOD9061260
_publ_section_title
;
Structure prediction by ZEFSAII (Michael W. Deem and Ramdas Pophale) SiO2 
 PCOD9061260
Probable space group: P -1
;
_chemical_formula_sum "Si O2"
_cell_formula_units_Z 16
_cell_length_a 7.564727
_cell_length_b 8.550402
_cell_length_c 17.608862
_cell_angle_alpha 45.228688
_cell_angle_beta 106.151371
_cell_angle_gamma 126.223197
_cell_volume 633.076678
_symmetry_space_group_name_H-M "P -1"
_symmetry_group_IT_number 2
_symmetry_cell_setting 'triclinic'
loop_
_space_group_symop_operation_xyz
x,y,z
-x,-y,-z
loop_
_atom_site_type_symbol
_atom_site_label
_atom_site_fract_x
_atom_site_fract_y
_atom_site_fract_z
Si Si1 0.325470 0.182517 0.168569
Si Si2 0.377845 0.521737 0.599057
Si Si3 0.210263 0.184547 0.549077
Si Si4 0.026869 0.410772 0.255180
Si Si5 0.729280 0.783401 0.028251
Si Si6 0.932484 0.265276 0.129662
Si Si7 0.947138 0.432706 0.635476
Si Si8 0.542002 0.762581 0.170574
O O1 0.569427 0.451315 0.127410
O O2 0.128547 0.213427 0.165442
O O3 0.245074 0.886381 0.288194
O O4 0.310529 0.171715 0.078686
O O5 0.308143 0.281472 0.612650
O O6 0.598808 0.772403 0.499977
O O7 0.427869 0.454625 0.710351
O O8 0.163076 0.529982 0.576801
O O9 0.990370 0.128037 0.367937
O O10 0.146373 0.387994 0.449129
O O11 0.964622 0.511130 0.285944
O O12 0.284272 0.641256 0.190277
O O13 0.908189 0.346234 0.182582
O O14 0.622938 0.836610 0.068887
O O15 0.000000 0.000000 0.000000
O O16 0.699340 0.018749 0.153638
O O17 0.000000 0.500000 0.000000
#
# Coordination Sequence:
#
# PCOD9061260 Si02
#       8
#     2   2   2   2   2   2   2   2
#     4  11  25  47  71 115 154 194 258 316 374 464
#     4  11  24  47  75 112 149 199 257 317 379 457
#     4  11  25  51  76 109 160 201 256 322 381 453
#     4  12  27  49  75 112 154 205 260 312 383 463
#     4  11  23  44  77 103 147 196 248 317 375 447
#     4  12  27  48  77 110 152 204 250 319 389 453
#     4  12  25  46  81 112 155 206 256 313 390 452
#     4  12  24  47  77 105 153 198 253 320 379 453
#
# _framework density 25.273399000000001
#
# number of rings (size 3 to 8) (size 9 to 14) (size 15 to 20)
#    0.000    0.500    6.250    0.750    1.750    4.000 
#    0.000    3.750    0.000    0.000    0.000    0.000 
#    0.000    0.000    0.000    0.000    0.000    0.000 
#
# Total GULP energy -89609.320089 kJ/mol
# GULP energy per Si atom -5600.582506 kJ/mol
# Density = 2.521588 g / cm^3
# Si number density = 25.273399 Si / 1000 Ang^3
#
#
#
# Elastic Constant Matrix: (Units=GPa)
#
#
# Indices 1 2 3 4 5 6 
#
# 1 125.1493 49.0866 43.5562 -14.1540 -35.8053 5.3347
# 2 49.0866 158.9355 51.4119 -9.8409 -18.5481 19.4418
# 3 43.5562 51.4119 101.6556 -18.7858 -17.9804 -4.1759
# 4 -14.1540 -9.8409 -18.7858 53.8856 -4.8151 -9.8611
# 5 -35.8053 -18.5481 -17.9804 -4.8151 43.3823 -5.8659
# 6 5.3347 19.4418 -4.1759 -9.8611 -5.8659 20.1325
#
#
#
# Elastic Compliance Matrix: (Units=1/GPa)
#
#
# Indices 1 2 3 4 5 6 
#
# 1 0.012485 -0.002380 -0.001660 0.003697 0.009442 0.003208
# 2 -0.002380 0.009810 -0.005350 -0.003075 -0.001955 -0.012028
# 3 -0.001660 -0.005350 0.016235 0.007381 0.005822 0.014285
# 4 0.003697 -0.003075 0.007381 0.025980 0.010281 0.019242
# 5 0.009442 -0.001955 0.005822 0.010281 0.035731 0.016040
# 6 0.003208 -0.012028 0.014285 0.019242 0.016040 0.077498
#
#
# Mechanical properties :
#
#
# Convention : Reuss Voigt Hill
#
# Bulk Modulus (GPa) = 50.63600 74.87220 62.75410
# Shear Modulus (GPa) = 24.61804 39.59246 32.10525
#
# Velocity S-wave (km/s) = 3.12439 3.96228 3.56802
# Velocity P-wave (km/s) = 5.75279 7.11492 6.46980
#
# Compressibility (1/GPa) = 0.01974880
#
# Stress axis : x y z
#
# Youngs Moduli (GPa) = 80.09765 101.93306 61.59615
#
# Poissons Ratio (x) = 0.24263 0.10228
# Poissons Ratio (y) = 0.19066 0.32952
# Poissons Ratio (z) = 0.13300 0.54532
#
# Static dielectric constant tensor:
#      x y z
#    x 1.995420 0.003160 0.073350 
#    y 0.003160 2.025250 -0.036800 
#    z 0.073350 -0.036800 2.092380 
# 
# From -- ./inp_files/555119.got.cif
#   From: 2010.05.17/outbox.cif.g08.bks.cpg/sg2_278_cif.got.tgz:555119.got - 2010.06.03 11:33:40.
