data_PCOD9061691
_publ_section_title
;
Structure prediction by ZEFSAII (Michael W. Deem and Ramdas Pophale) SiO2 
 PCOD9061691
Probable space group: P -1
;
_chemical_formula_sum "Si O2"
_cell_formula_units_Z 16
_cell_length_a 11.801585
_cell_length_b 9.113205
_cell_length_c 11.789687
_cell_angle_alpha 75.257345
_cell_angle_beta 144.933197
_cell_angle_gamma 119.255940
_cell_volume 608.197975
_symmetry_space_group_name_H-M "P -1"
_symmetry_group_IT_number 2
_symmetry_cell_setting 'triclinic'
loop_
_space_group_symop_operation_xyz
x,y,z
-x,-y,-z
loop_
_atom_site_type_symbol
_atom_site_label
_atom_site_fract_x
_atom_site_fract_y
_atom_site_fract_z
Si Si1 0.340785 0.234014 0.399115
Si Si2 0.916165 0.291548 0.992973
Si Si3 0.274953 0.009243 0.778083
Si Si4 0.950484 0.897012 0.220650
Si Si5 0.395413 0.101357 0.239749
Si Si6 0.698096 0.514687 0.080588
Si Si7 0.810819 0.296937 0.362128
Si Si8 0.446719 0.677567 0.208904
O O1 0.451374 0.214557 0.378414
O O2 0.505060 0.656323 0.389964
O O3 0.208527 0.036828 0.379750
O O4 0.137513 0.275907 0.201695
O O5 0.744239 0.264410 0.959012
O O6 0.739444 0.114164 0.809619
O O7 0.000000 0.500000 0.000000
O O8 0.153087 0.036543 0.780188
O O9 0.119739 0.834546 0.611151
O O10 0.343497 0.169556 0.716204
O O11 0.500000 0.000000 0.000000
O O12 0.912737 0.704280 0.245004
O O13 0.801032 0.881639 0.990966
O O14 0.613329 0.191891 0.315269
O O15 0.703178 0.344906 0.156714
O O16 0.500000 0.500000 0.000000
O O17 0.643279 0.494820 0.906841
O O18 0.000000 0.500000 0.500000
#
# Coordination Sequence:
#
# PCOD9061691 Si02
#       8
#     2   2   2   2   2   2   2   2
#     4  11  29  49  77 113 155 212 256 312 396 477
#     4  11  26  49  77 112 151 210 260 315 389 467
#     4  12  20  47  74 106 154 205 250 324 389 444
#     4  11  23  45  78 106 150 205 255 315 393 461
#     4  11  23  52  75 106 164 201 253 328 384 460
#     4  12  24  45  74 110 148 201 251 324 388 451
#     4  12  27  46  79 115 150 201 266 323 385 462
#     4  12  26  47  78 109 164 197 258 327 388 454
#
# _framework density 26.307221999999999
#
# number of rings (size 3 to 8) (size 9 to 14) (size 15 to 20)
#    0.000    0.500    6.250    2.250    5.250    2.500 
#    2.250    0.000    0.000    0.000    0.000    0.000 
#    0.000    0.000    0.000    0.000    0.000    0.000 
#
# Total GULP energy -89450.136934 kJ/mol
# GULP energy per Si atom -5590.633558 kJ/mol
# Density = 2.624735 g / cm^3
# Si number density = 26.307222 Si / 1000 Ang^3
#
#
#
# Elastic Constant Matrix: (Units=GPa)
#
#
# Indices 1 2 3 4 5 6 
#
# 1 178.6860 38.8250 52.6521 7.4939 -37.4062 -11.3958
# 2 38.8250 159.0931 46.4120 23.2211 -0.9967 -11.2542
# 3 52.6521 46.4120 114.6766 16.3854 -15.9701 -6.8917
# 4 7.4939 23.2211 16.3854 47.9341 -5.1851 -5.3570
# 5 -37.4062 -0.9967 -15.9701 -5.1851 44.0814 14.8871
# 6 -11.3958 -11.2542 -6.8917 -5.3570 14.8871 41.8205
#
#
#
# Elastic Compliance Matrix: (Units=1/GPa)
#
#
# Indices 1 2 3 4 5 6 
#
# 1 0.007762 -0.001341 -0.002338 0.000812 0.006033 -0.000674
# 2 -0.001341 0.007864 -0.002437 -0.002852 -0.002854 0.002000
# 3 -0.002338 -0.002437 0.011336 -0.002163 0.001947 -0.000395
# 4 0.000812 -0.002852 -0.002163 0.023233 0.002130 0.001315
# 5 0.006033 -0.002854 0.001947 0.002130 0.032053 -0.009940
# 6 -0.000674 0.002000 -0.000395 0.001315 -0.009940 0.027908
#
#
# Mechanical properties :
#
#
# Convention : Reuss Voigt Hill
#
# Bulk Modulus (GPa) = 67.88106 80.91489 74.39797
# Shear Modulus (GPa) = 39.27797 47.73830 43.50814
#
# Velocity S-wave (km/s) = 3.86819 4.26449 4.07116
# Velocity P-wave (km/s) = 6.76829 7.42107 7.10218
#
# Compressibility (1/GPa) = 0.01473165
#
# Stress axis : x y z
#
# Youngs Moduli (GPa) = 128.82452 127.16913 88.21367
#
# Poissons Ratio (x) = 0.17051 0.20623
# Poissons Ratio (y) = 0.17273 0.21494
# Poissons Ratio (z) = 0.30117 0.30986
#
# Static dielectric constant tensor:
#      x y z
#    x 1.947580 0.041380 -0.005870 
#    y 0.041380 1.909310 0.060400 
#    z -0.005870 0.060400 2.028770 
# 
# From -- ./inp_files/402288.got.cif
#   From: 2010.05.17/outbox.cif.g08.bks.cpg/sg2_202_cif.got.tgz:402288.got - 2010.06.03 11:33:40.
