data_PCOD9061380
_publ_section_title
;
Structure prediction by ZEFSAII (Michael W. Deem and Ramdas Pophale) SiO2 
 PCOD9061380
Probable space group: P -1
;
_chemical_formula_sum "Si O2"
_cell_formula_units_Z 12
_cell_length_a 5.301569
_cell_length_b 15.741901
_cell_length_c 7.636754
_cell_angle_alpha 68.974956
_cell_angle_beta 130.667075
_cell_angle_gamma 102.109540
_cell_volume 450.982671
_symmetry_space_group_name_H-M "P -1"
_symmetry_group_IT_number 2
_symmetry_cell_setting 'triclinic'
loop_
_space_group_symop_operation_xyz
x,y,z
-x,-y,-z
loop_
_atom_site_type_symbol
_atom_site_label
_atom_site_fract_x
_atom_site_fract_y
_atom_site_fract_z
Si Si1 0.134575 0.230978 0.230603
Si Si2 0.280363 0.424151 0.044844
Si Si3 0.730314 0.386229 0.595003
Si Si4 0.172404 0.885665 0.339229
Si Si5 0.832708 0.057190 0.105658
Si Si6 0.173724 0.283961 0.580438
O O1 0.245362 0.312869 0.091439
O O2 0.480880 0.170847 0.446801
O O3 0.021703 0.285219 0.314887
O O4 0.871146 0.151690 0.152541
O O5 0.438650 0.426398 0.308964
O O6 0.500000 0.500000 0.000000
O O7 0.929898 0.447725 0.771981
O O8 0.546773 0.313279 0.688927
O O9 0.986222 0.345359 0.594372
O O10 0.883506 0.818724 0.313085
O O11 0.118235 0.910348 0.094807
O O12 0.117753 0.981212 0.344239
O O13 0.500000 0.000000 0.000000
#
# Coordination Sequence:
#
# PCOD9061380 Si02
#       6
#     2   2   2   2   2   2
#     4  11  25  45  71 105 153 203 251 324 381 463
#     4  11  25  51  83 118 157 205 260 319 390 462
#     4  11  26  49  77 117 158 205 257 321 383 461
#     4  11  23  45  69 105 149 194 261 306 395 448
#     4  11  26  43  71 109 147 201 259 321 383 462
#     4  11  23  47  76 110 152 206 252 315 391 457
#
# _framework density 26.608561000000002
#
# number of rings (size 3 to 8) (size 9 to 14) (size 15 to 20)
#    0.000    1.000    3.333    3.000    2.333    8.000 
#    3.000   11.667    0.000    0.000    0.000    0.000 
#    0.000    0.000    0.000    0.000    0.000    0.000 
#
# Total GULP energy -66907.087620 kJ/mol
# GULP energy per Si atom -5575.590635 kJ/mol
# Density = 2.654800 g / cm^3
# Si number density = 26.608561 Si / 1000 Ang^3
#
#
#
# Elastic Constant Matrix: (Units=GPa)
#
#
# Indices 1 2 3 4 5 6 
#
# 1 234.0965 305.7824 -57.0228 138.9938 -161.4099 -36.7039
# 2 305.7824 678.7608 -151.1891 342.0154 -357.0162 -106.9626
# 3 -57.0228 -151.1891 219.3809 -143.5918 160.9921 77.7063
# 4 138.9938 342.0154 -143.5918 290.3861 -227.8711 -95.7990
# 5 -161.4099 -357.0162 160.9921 -227.8711 293.8633 99.9045
# 6 -36.7039 -106.9626 77.7063 -95.7990 99.9045 120.3756
#
#
#
# Elastic Compliance Matrix: (Units=1/GPa)
#
#
# Indices 1 2 3 4 5 6 
#
# 1 0.010775 -0.005022 -0.000514 0.001320 0.001466 -0.001011
# 2 -0.005022 0.007878 -0.001969 -0.004336 0.004752 -0.000654
# 3 -0.000514 -0.001969 0.009015 0.002446 -0.005227 -0.001441
# 4 0.001320 -0.004336 0.002446 0.011898 0.002556 0.002319
# 5 0.001466 0.004752 -0.005227 0.002556 0.015882 -0.003103
# 6 -0.001011 -0.000654 -0.001441 0.002319 -0.003103 0.012769
#
#
# Mechanical properties :
#
#
# Convention : Reuss Voigt Hill
#
# Bulk Modulus (GPa) = 79.00756 147.48658 113.24707
# Shear Modulus (GPa) = 57.17756 209.90285 133.54020
#
# Velocity S-wave (km/s) = 4.64059 8.89138 7.09196
# Velocity P-wave (km/s) = 7.64659 12.68690 10.47444
#
# Compressibility (1/GPa) = 0.01265702
#
# Stress axis : x y z
#
# Youngs Moduli (GPa) = 92.80809 126.93526 110.92937
#
# Poissons Ratio (x) = 0.63747 0.05700
# Poissons Ratio (y) = 0.46608 0.21847
# Poissons Ratio (z) = 0.04769 0.24999
#
# Static dielectric constant tensor:
#      x y z
#    x 2.105040 -0.039750 0.044390 
#    y -0.039750 2.159220 0.000230 
#    z 0.044390 0.000230 2.164500 
# 
# From -- ./inp_files/136630.got.cif
#   From: 2010.05.17/outbox.cif.g08.bks.cpg/sg2_69_cif.got.tgz:136630.got - 2010.06.03 11:33:40.
