data_PCOD9061872
_publ_section_title
;
Structure prediction by ZEFSAII (Michael W. Deem and Ramdas Pophale) SiO2 
 PCOD9061872
Probable space group: P -1
;
_chemical_formula_sum "Si O2"
_cell_formula_units_Z 14
_cell_length_a 5.508407
_cell_length_b 5.263540
_cell_length_c 25.127043
_cell_angle_alpha 118.848638
_cell_angle_beta 115.637101
_cell_angle_gamma 93.933187
_cell_volume 538.641230
_symmetry_space_group_name_H-M "P -1"
_symmetry_group_IT_number 2
_symmetry_cell_setting 'triclinic'
loop_
_space_group_symop_operation_xyz
x,y,z
-x,-y,-z
loop_
_atom_site_type_symbol
_atom_site_label
_atom_site_fract_x
_atom_site_fract_y
_atom_site_fract_z
Si Si1 0.426033 0.173758 0.200700
Si Si2 0.080173 0.228282 0.958825
Si Si3 0.406106 0.648141 0.934615
Si Si4 0.671311 0.743516 0.682230
Si Si5 0.322148 0.886247 0.417304
Si Si6 0.840552 0.202305 0.418293
Si Si7 0.777126 0.715269 0.218662
O O1 0.289252 0.235999 0.248584
O O2 0.637368 0.503009 0.233610
O O3 0.590383 0.927368 0.202910
O O4 0.184558 0.041590 0.118771
O O5 0.272061 0.377496 0.938345
O O6 0.259736 0.263697 0.035353
O O7 0.000000 0.500000 0.000000
O O8 0.226674 0.526665 0.853160
O O9 0.500000 0.000000 0.000000
O O10 0.761642 0.481877 0.634900
O O11 0.338152 0.704502 0.636097
O O12 0.900573 0.067665 0.717725
O O13 0.066596 0.031240 0.408465
O O14 0.500000 0.000000 0.500000
O O15 0.570344 0.003009 0.408113
O O16 0.000000 0.500000 0.500000
#
# Coordination Sequence:
#
# PCOD9061872 Si02
#       7
#     2   2   2   2   2   2   2
#     4  12  30  51  82 117 173 225 291 353 450 511
#     4  11  23  46  72 112 152 220 280 352 415 515
#     4  11  25  44  77 110 161 215 292 352 428 510
#     4  12  32  52  82 123 179 222 292 361 446 527
#     4  12  29  54  89 128 172 225 294 362 444 534
#     4  12  29  54  89 127 172 227 294 363 443 536
#     4  12  30  52  79 122 170 227 286 366 436 526
#
# _framework density 25.991326000000001
#
# number of rings (size 3 to 8) (size 9 to 14) (size 15 to 20)
#    0.000    0.286    4.286    1.714   12.000    1.143 
#    0.000    0.000    0.000    0.000    0.000    0.000 
#    0.000    0.000    0.000    0.000    0.000    0.000 
#
# Total GULP energy -77980.986329 kJ/mol
# GULP energy per Si atom -5570.070452 kJ/mol
# Density = 2.593217 g / cm^3
# Si number density = 25.991326 Si / 1000 Ang^3
#
#
#
# Elastic Constant Matrix: (Units=GPa)
#
#
# Indices 1 2 3 4 5 6 
#
# 1 141.9309 37.8083 62.7345 5.9737 3.9666 -23.0152
# 2 37.8083 103.8452 46.5930 13.4132 8.7505 10.6597
# 3 62.7345 46.5930 218.8378 13.7158 1.3988 -8.0721
# 4 5.9737 13.4132 13.7158 50.2190 11.7586 -4.1834
# 5 3.9666 8.7505 1.3988 11.7586 41.7329 5.9398
# 6 -23.0152 10.6597 -8.0721 -4.1834 5.9398 55.4292
#
#
#
# Elastic Compliance Matrix: (Units=1/GPa)
#
#
# Indices 1 2 3 4 5 6 
#
# 1 0.009414 -0.003026 -0.001938 0.000830 -0.001053 0.004384
# 2 -0.003026 0.012331 -0.001737 -0.002567 -0.000951 -0.003973
# 3 -0.001938 -0.001737 0.005558 -0.000947 0.000600 0.000203
# 4 0.000830 -0.002567 -0.000947 0.022485 -0.006281 0.003070
# 5 -0.001053 -0.000951 0.000600 -0.006281 0.026506 -0.003481
# 6 0.004384 -0.003973 0.000203 0.003070 -0.003481 0.021260
#
#
# Mechanical properties :
#
#
# Convention : Reuss Voigt Hill
#
# Bulk Modulus (GPa) = 71.94590 84.32061 78.13325
# Shear Modulus (GPa) = 43.25640 50.64144 46.94892
#
# Velocity S-wave (km/s) = 4.08396 4.41885 4.25471
# Velocity P-wave (km/s) = 7.06959 7.65162 7.36636
#
# Compressibility (1/GPa) = 0.01389933
#
# Stress axis : x y z
#
# Youngs Moduli (GPa) = 106.22665 81.09916 179.91978
#
# Poissons Ratio (x) = 0.24544 0.34866
# Poissons Ratio (y) = 0.32148 0.31258
# Poissons Ratio (z) = 0.20585 0.14089
#
# Static dielectric constant tensor:
#      x y z
#    x 2.056870 0.042580 0.038780 
#    y 0.042580 2.194620 0.017730 
#    z 0.038780 0.017730 2.020500 
# 
# From -- ./inp_files/12005.got.cif
#   From: 2010.05.17/outbox.cif.g08.bks.cpg/sg2_7_cif.got.tgz:12005.got - 2010.06.03 11:33:40.
